#------------------------------------------------------------------------------
#$Date: 2021-04-05 16:53:44 +0300 (Mon, 05 Apr 2021) $
#$Revision: 263622 $
#$URL: file:///home/coder/svn-repositories/cod/cif/7/12/79/7127920.cif $
#------------------------------------------------------------------------------
#
# This file is available in the Crystallography Open Database (COD),
# http://www.crystallography.net/
#
# All data on this site have been placed in the public domain by the
# contributors.
#
data_7127920
loop_
_publ_author_name
'Cabelof, Alyssa C.'
'Carta, Veronica'
'Caulton, Kenneth G.'
_publ_section_title
;
 A proton-responsive ligand becomes a dimetal linker for multisubstrate
 assembly <i>via</i> nitrate deoxygenation.
;
_journal_issue                   22
_journal_name_full
'Chemical communications (Cambridge, England)'
_journal_page_first              2780
_journal_page_last               2783
_journal_paper_doi               10.1039/d0cc07886g
_journal_volume                  57
_journal_year                    2021
_chemical_formula_moiety         'C34 H30 Br2 N8 Ni2'
_chemical_formula_sum            'C34 H30 Br2 N8 Ni2'
_chemical_formula_weight         827.90
_space_group_crystal_system      triclinic
_space_group_IT_number           2
_space_group_name_Hall           '-P 1'
_space_group_name_H-M_alt        'P -1'
_atom_sites_solution_hydrogens   geom
_atom_sites_solution_primary     dual
_audit_creation_date             2020-03-22
_audit_creation_method
;
Olex2 1.3
(compiled 2020.02.04 svn.rd84adfe8 for OlexSys, GUI svn.r6032)
;
_audit_update_record
;
2020-11-02 deposited with the CCDC.	2021-02-08 downloaded from the CCDC.
;
_cell_angle_alpha                90.5070(10)
_cell_angle_beta                 106.9510(10)
_cell_angle_gamma                100.1250(10)
_cell_formula_units_Z            1
_cell_length_a                   8.0659(3)
_cell_length_b                   9.0221(3)
_cell_length_c                   12.1370(5)
_cell_measurement_reflns_used    5507
_cell_measurement_temperature    100.0
_cell_measurement_theta_max      28.69
_cell_measurement_theta_min      2.69
_cell_volume                     830.00(5)
_computing_cell_refinement       'SAINT V8.40A (Bruker, 2019)'
_computing_data_reduction        'SAINT V8.40A (Bruker, 2019)'
_computing_molecular_graphics    'Olex2 1.3 (Dolomanov et al., 2009)'
_computing_publication_material  'Olex2 1.3 (Dolomanov et al., 2009)'
_computing_structure_refinement  'XL  (Sheldrick, 2008)'
_computing_structure_solution    'SHELXT 2014/5 (Sheldrick, 2014)'
_diffrn_ambient_temperature      100.0
_diffrn_measured_fraction_theta_full 1.000
_diffrn_measured_fraction_theta_max 0.999
_diffrn_measurement_device_type  'Bruker Venture D8'
_diffrn_measurement_method       '\f and \w scans'
_diffrn_radiation_type           MoK\a
_diffrn_radiation_wavelength     0.71073
_diffrn_reflns_av_R_equivalents  0.0804
_diffrn_reflns_av_unetI/netI     0.0480
_diffrn_reflns_Laue_measured_fraction_full 1.000
_diffrn_reflns_Laue_measured_fraction_max 0.999
_diffrn_reflns_limit_h_max       11
_diffrn_reflns_limit_h_min       -11
_diffrn_reflns_limit_k_max       12
_diffrn_reflns_limit_k_min       -12
_diffrn_reflns_limit_l_max       17
_diffrn_reflns_limit_l_min       -17
_diffrn_reflns_number            28559
_diffrn_reflns_point_group_measured_fraction_full 1.000
_diffrn_reflns_point_group_measured_fraction_max 0.999
_diffrn_reflns_theta_full        25.242
_diffrn_reflns_theta_max         30.571
_diffrn_reflns_theta_min         2.298
_diffrn_source_current           1.4
_diffrn_source_power             0.07
_diffrn_source_voltage           50.0
_diffrn_standards_number         0
_exptl_absorpt_coefficient_mu    3.579
_exptl_absorpt_correction_T_max  0.7461
_exptl_absorpt_correction_T_min  0.6610
_exptl_absorpt_correction_type   multi-scan
_exptl_absorpt_process_details   'SADABS-2016/2 (Bruker,2016/2)'
_exptl_crystal_colour            'light blue'
_exptl_crystal_colour_modifier   light
_exptl_crystal_colour_primary    blue
_exptl_crystal_density_diffrn    1.656
_exptl_crystal_description       plate
_exptl_crystal_F_000             416
_exptl_crystal_preparation       synthesized
_exptl_crystal_recrystallization_method 'from a concentrated CD3CN solution'
_exptl_crystal_size_max          0.06
_exptl_crystal_size_mid          0.04
_exptl_crystal_size_min          0.03
_refine_diff_density_max         0.586
_refine_diff_density_min         -0.658
_refine_diff_density_rms         0.098
_refine_ls_extinction_method     none
_refine_ls_goodness_of_fit_ref   1.008
_refine_ls_hydrogen_treatment    constr
_refine_ls_matrix_type           full
_refine_ls_number_parameters     210
_refine_ls_number_reflns         5104
_refine_ls_number_restraints     0
_refine_ls_restrained_S_all      1.008
_refine_ls_R_factor_all          0.0480
_refine_ls_R_factor_gt           0.0324
_refine_ls_shift/su_max          0.001
_refine_ls_shift/su_mean         0.000
_refine_ls_structure_factor_coef Fsqd
_refine_ls_weighting_details
'w=1/[\s^2^(Fo^2^)+(0.0315P)^2^] where P=(Fo^2^+2Fc^2^)/3'
_refine_ls_weighting_scheme      calc
_refine_ls_wR_factor_gt          0.0666
_refine_ls_wR_factor_ref         0.0713
_reflns_Friedel_coverage         0.000
_reflns_number_gt                3967
_reflns_number_total             5104
_reflns_threshold_expression     'I > 2\s(I)'
_cod_data_source_file            d0cc07886g2.cif
_cod_data_source_block           mo_20041_0m
_cod_depositor_comments
'Adding full bibliography for 7127916--7127921.cif.'
_cod_database_code               7127920
_shelx_shelxl_version_number     2017/1
_shelx_space_group_comment
;
The symmetry employed for this shelxl refinement is uniquely defined
by the following loop, which should always be used as a source of
symmetry information in preference to the above space-group names.
They are only intended as comments.
;
_shelx_estimated_absorpt_t_max   0.900
_shelx_estimated_absorpt_t_min   0.814
_olex2_refinement_description
;
1. Fixed Uiso
 At 1.2 times of:
  All C(H) groups
 At 1.5 times of:
  All C(H,H,H) groups
2.a Aromatic/amide H refined with riding coordinates:
 C8(H8), C3(H3), C11(H11), C5(H5), C12(H12), C15(H15), C14(H14), C13(H13),
 C4(H4)
2.b Idealised Me refined as rotating group:
 C1(H1A,H1B,H1C), C17(H17A,H17B,H17C)
;
_shelx_res_file
;
TITL mo_20041_0m_a.res in P-1
    mo_20041_0m.res
    created by SHELXL-2017/1 at 15:25:22 on 22-Mar-2020
REM Old TITL mo_20041_0m in P-1 #2
REM SHELXT solution in P-1
REM R1 0.079, Rweak 0.005, Alpha 0.078, Orientation as input
REM Formula found by SHELXT: C17 Co2 N4
CELL 0.71073 8.0659 9.0221 12.137 90.507 106.951 100.125
ZERR 1 0.0003 0.0003 0.0005 0.001 0.001 0.001
LATT 1
SFAC C N Br Ni H
UNIT 34 8 2 2 30
EQIV $1 1-X,1-Y,1-Z
EQIV $2 1-X,1-Y,2-Z
EQIV $3 1+X,+Y,+Z

L.S. 4 0 0
PLAN  20
SIZE 0.06 0.03 0.04
TEMP -173.15
CONF
HTAB C3 Br1_$2
HTAB C1 Br1
HTAB C17 Br1_$1
HTAB C17 Br1_$3
HTAB C17 N2_$3
BOND $H
htab
list 4
MORE -1
wpdb -1
fmap 2 53
acta
REM <olex2.extras>
REM <HklSrc "%.\\mo_20041_0m.hkl">
REM </olex2.extras>

WGHT    0.031500
FVAR       0.64542
BR1   3    0.381891    0.691862    0.703200    11.00000    0.02298    0.02073 =
         0.02062    0.00302    0.01106    0.00977
NI1   4    0.595838    0.547911    0.662017    11.00000    0.01341    0.01067 =
         0.01246    0.00065    0.00474    0.00245
N2    2    0.446328    0.360947    0.574113    11.00000    0.01351    0.01277 =
         0.01270   -0.00011    0.00461    0.00281
N3    2    0.367076    0.316529    0.462245    11.00000    0.01441    0.01267 =
         0.01350    0.00050    0.00540    0.00261
N1    2    0.587399    0.411504    0.798273    11.00000    0.01552    0.01411 =
         0.01443    0.00170    0.00639    0.00430
N4    2    0.826240    0.470220    0.661564    11.00000    0.01768    0.01658 =
         0.02331    0.00706    0.00806    0.00452
C9    1    0.290377    0.168880    0.456110    11.00000    0.01478    0.01053 =
         0.01808    0.00022    0.00698    0.00282
C7    1    0.420828    0.242940    0.638808    11.00000    0.01398    0.01418 =
         0.01646    0.00248    0.00591    0.00399
C8    1    0.322399    0.116354    0.566143    11.00000    0.01845    0.01282 =
         0.01818    0.00325    0.00697    0.00344
AFIX  43
H8    5    0.286062    0.017560    0.587312    11.00000   -1.20000
AFIX   0
C6    1    0.490784    0.270710    0.763265    11.00000    0.01370    0.01465 =
         0.01813    0.00245    0.00559    0.00446
C2    1    0.661011    0.448845    0.911820    11.00000    0.01973    0.01634 =
         0.01710    0.00100    0.00635    0.00503
C3    1    0.633449    0.349226    0.994319    11.00000    0.02431    0.02352 =
         0.01342    0.00209    0.00534    0.00605
AFIX  43
H3    5    0.683816    0.378122    1.074244    11.00000   -1.20000
AFIX   0
C10   1    0.185498    0.091075    0.343338    11.00000    0.01537    0.01172 =
         0.01530    0.00137    0.00638    0.00086
C11   1    0.218075   -0.045279    0.307687    11.00000    0.02045    0.01855 =
         0.02381   -0.00213    0.00419    0.00672
AFIX  43
H11   5    0.308960   -0.089799    0.356316    11.00000   -1.20000
AFIX   0
C5    1    0.462162    0.165380    0.841697    11.00000    0.02351    0.01726 =
         0.02091    0.00500    0.00838    0.00354
AFIX  43
H5    5    0.396453    0.066818    0.815839    11.00000   -1.20000
AFIX   0
C16   1    0.913892    0.408972    0.625636    11.00000    0.01729    0.02042 =
         0.02647    0.00305    0.00750    0.00389
C12   1    0.118053   -0.116138    0.201327    11.00000    0.02794    0.01881 =
         0.02328   -0.00604    0.00702    0.00276
AFIX  43
H12   5    0.141699   -0.208700    0.177353    11.00000   -1.20000
AFIX   0
C15   1    0.049806    0.153490    0.270759    11.00000    0.02291    0.01502 =
         0.02357   -0.00031    0.00321    0.00445
AFIX  43
H15   5    0.025588    0.246092    0.294178    11.00000   -1.20000
AFIX   0
C14   1   -0.049483    0.081280    0.165018    11.00000    0.02484    0.02023 =
         0.02415    0.00149   -0.00404    0.00231
AFIX  43
H14   5   -0.141479    0.124429    0.116200    11.00000   -1.20000
AFIX   0
C13   1   -0.014961   -0.054028    0.130134    11.00000    0.02567    0.02092 =
         0.01983   -0.00103    0.00492   -0.00328
AFIX  43
H13   5   -0.082862   -0.103479    0.057457    11.00000   -1.20000
AFIX   0
C1    1    0.774602    0.602815    0.944854    11.00000    0.02811    0.02009 =
         0.01807   -0.00033    0.00543    0.00231
AFIX 137
H1A   5    0.708616    0.679065    0.906862    11.00000   -1.50000
H1B   5    0.880939    0.607404    0.920493    11.00000   -1.50000
H1C   5    0.808326    0.622382    1.028750    11.00000   -1.50000
AFIX   0
C4    1    0.531426    0.207217    0.958160    11.00000    0.02748    0.02152 =
         0.01869    0.00723    0.00825    0.00472
AFIX  43
H4    5    0.509132    0.138699    1.013399    11.00000   -1.20000
AFIX   0
C17   1    1.022709    0.331027    0.577488    11.00000    0.02440    0.02990 =
         0.04525   -0.00002    0.01837    0.00856
AFIX 137
H17A  5    0.958497    0.296027    0.497195    11.00000   -1.50000
H17B  5    1.050680    0.244284    0.622567    11.00000   -1.50000
H17C  5    1.132273    0.400250    0.580260    11.00000   -1.50000
AFIX   0
HKLF 4




REM  mo_20041_0m_a.res in P-1
REM R1 =  0.0324 for    3967 Fo > 4sig(Fo)  and  0.0480 for all    5104 data
REM    210 parameters refined using      0 restraints

END

WGHT      0.0315      0.0000

REM Instructions for potential hydrogen bonds
HTAB C3 Br1_$2
HTAB C1 Br1
HTAB C17 Br1_$1
HTAB C17 Br1_$3
HTAB C17 N2_$3

REM Highest difference peak  0.586,  deepest hole -0.658,  1-sigma level  0.098
Q1    1   0.5788  0.4643  0.7428  11.00000  0.05    0.59
Q2    1   0.2504  0.6849  0.6166  11.00000  0.05    0.57
Q3    1   0.4846  0.4565  0.5861  11.00000  0.05    0.57
Q4    1   0.3563  0.3656  0.4003  11.00000  0.05    0.53
Q5    1  -0.1590  0.1630  0.2552  11.00000  0.05    0.52
Q6    1   0.8055  0.3930  0.6253  11.00000  0.05    0.47
Q7    1   0.6783  0.5864  0.6621  11.00000  0.05    0.47
Q8    1   0.4523  0.2546  0.7018  11.00000  0.05    0.44
Q9    1   0.6400  0.0786  0.9350  11.00000  0.05    0.44
Q10   1   0.6733  0.3829  0.9556  11.00000  0.05    0.44
Q11   1   0.3391  0.1212  0.5011  11.00000  0.05    0.42
Q12   1   0.4986  0.7845  0.7799  11.00000  0.05    0.41
Q13   1   0.9143  0.4584  0.6747  11.00000  0.05    0.39
Q14   1  -0.0019  0.0267  0.1432  11.00000  0.05    0.39
Q15   1   0.7196  0.6276  0.7499  11.00000  0.05    0.38
Q16   1   0.4578  0.2124  0.8895  11.00000  0.05    0.38
Q17   1   0.5159  0.2116  0.8082  11.00000  0.05    0.38
Q18   1   0.5545  0.1765  0.9049  11.00000  0.05    0.37
Q19   1   0.2599  0.6269  0.6962  11.00000  0.05    0.37
Q20   1   0.0171  0.1170  0.2035  11.00000  0.05    0.37
;
_shelx_res_checksum              88366
_shelx_hkl_file
;
  -1   0   0 4840.62  178.28
  -1   0   0 5098.59   78.69
  -1   0   0 5006.80   92.49
   1   0   0 5186.08   71.69
   1   0   0 5033.60  188.28
  -2   0   0 1261.37   45.10
  -2   0   0 1216.58   56.69
   2   0   0 1061.79  145.59
   2   0   0 1240.88   37.50
  -3   0   0  729.53   54.09
  -3   0   0  797.52   43.40
   3   0   0  843.32   36.60
   3   0   0  759.12  171.58
  -4   0   0 1980.30   45.70
  -4   0   0 2056.59   82.29
  -4   0   0 2000.50   45.00
  -4   0   0 1865.41  101.49
   4   0   0 1952.40   66.09
   4   0   0 2000.70  308.87
   4   0   0 1982.10   40.20
   4   0   0 1978.30   37.70
   4   0   0 1871.81  291.47
   4   0   0 1996.10   36.50
  -5   0   0 2107.09   52.19
  -5   0   0 2093.99   48.80
  -5   0   0 2069.89   92.59
  -5   0   0 2140.09   49.60
   5   0   0 2074.29   46.20
   5   0   0 2146.59   41.90
   5   0   0 1969.10  372.16
   5   0   0 2088.79   76.79
   5   0   0 2143.79   42.90
  -6   0   0  290.07   67.79
  -6   0   0  283.67   19.80
  -6   0   0  286.37   21.60
  -6   0   0  268.17   19.20
  -6   0   0  318.27   50.79
   6   0   0  285.77   16.00
   6   0   0  256.27   35.70
   6   0   0  290.37   18.90
  -7   0   0   13.30   21.60
  -7   0   0   13.90    8.90
  -7   0   0    5.30   16.80
  -7   0   0   11.70   13.70
  -7   0   0   19.70    9.60
   7   0   0   12.30    7.00
   7   0   0    6.20    7.80
  -8   0   0   93.79   19.70
  -8   0   0  107.39   19.40
  -8   0   0   75.59   30.70
  -8   0   0  133.89   20.40
  -8   0   0  114.69   53.89
   8   0   0  128.29   16.80
   8   0   0   91.19   16.70
  -9   0   0  241.68   29.30
  -9   0   0  219.08   54.19
  -9   0   0  238.28   32.40
  -9   0   0  214.38   26.10
   9   0   0  229.98   22.50
   9   0   0  221.18   26.50
 -10   0   0  126.19   26.30
 -10   0   0  162.58   28.00
 -10   0   0  172.08   27.50
  10   0   0  116.49   23.10
  10   0   0  146.49   26.30
  10  -1   0   -2.10   11.70
  10  -1   0    0.60   13.00
 -10   1   0  -12.90   13.90
 -10   1   0   -0.90   13.70
 -10   1   0   -0.20   13.80
   9  -1   0   25.90   11.10
   9  -1   0   21.60   12.40
  -9   1   0    6.50   25.10
  -9   1   0   35.10   16.40
  -9   1   0   20.90   13.80
  -9   1   0    9.40   13.00
   8  -1   0   47.50   12.90
   8  -1   0   25.00    9.30
  -8   1   0   14.40   11.40
  -8   1   0   46.10   15.70
  -8   1   0   15.00   11.10
  -8   1   0   29.20   29.00
  -8   1   0    3.80   17.20
   7  -1   0  211.98   20.80
   7  -1   0  179.18   18.20
   7  -1   0  145.59   20.10
  -7   1   0  208.58   43.80
  -7   1   0  240.28   63.59
  -7   1   0  186.18   23.90
  -7   1   0  208.88   23.90
  -7   1   0  203.38   22.10
   6  -1   0   11.90   12.90
   6  -1   0   16.90    6.40
   6  -1   0    6.90    5.90
   6  -1   0    8.30    7.50
  -6   1   0    3.20   10.60
  -6   1   0    4.70    7.00
  -6   1   0    5.30    6.60
  -6   1   0   14.20   18.50
  -6   1   0    6.20    6.50
   5  -1   0   98.79   17.10
   5  -1   0   97.89   23.50
   5  -1   0  121.39   11.50
   5  -1   0  324.67  312.67
   5  -1   0  128.99   12.90
   5  -1   0  -22.50  272.57
  -5   1   0  109.19   27.30
  -5   1   0  136.49   15.70
  -5   1   0  125.49   15.20
  -5   1   0  105.69   13.10
  -5   1   0   74.29   29.00
   4  -1   0 1584.84  294.17
   4  -1   0 1391.76  277.97
   4  -1   0 1483.55   31.10
   4  -1   0 1513.15   66.19
  -4   1   0 1426.86   63.59
  -4   1   0 1529.55   37.70
  -4   1   0 1540.45   86.39
  -4   1   0 1439.96   35.70
   3  -1   0  666.83  186.48
   3  -1   0  726.83   41.10
  -3   1   0  741.13   38.40
  -3   1   0  759.32   51.09
   2  -1   0   25.10    9.50
   2  -1   0   18.80   87.89
  -2   1   0   30.60   11.70
  -2   1   0   31.20   93.79
  -2   1   0   35.20    9.40
   1  -1   0 3011.10  150.58
   1  -1   0 2988.60   66.89
   1  -1   0 2898.01   48.80
  -1   1   0 2837.42  151.38
   0  -1   0 2439.06   49.30
   0  -1   0 2492.15   50.59
  -1  -1   0 4027.70   77.29
  -1  -1   0 4093.19   93.89
   1   1   0 3854.11  145.09
   1   1   0 3842.42  147.09
  -2  -1   0  460.45   30.50
  -2  -1   0  507.95   40.90
   2   1   0  460.25  103.29
   2   1   0  550.44  115.19
   3   1   0  128.29  142.89
  -4  -1   0 1535.35   75.19
  -4  -1   0 1594.14   37.80
  -4  -1   0 1610.24   36.20
  -4  -1   0 1366.56   91.39
  -4  -1   0 1551.54   41.30
   4   1   0 1479.15  260.67
   4   1   0 1573.54   31.40
   4   1   0 1524.35   34.20
   4   1   0 1609.04   38.00
  -5  -1   0 2331.07   52.49
  -5  -1   0 2448.06   51.69
  -5  -1   0 2300.47  103.49
  -5  -1   0 2504.25  139.19
  -5  -1   0 2379.36   58.29
   5   1   0 3171.98  432.76
   5   1   0 2399.86   53.49
   5   1   0 2429.26   45.10
   5   1   0 2489.15   49.40
  -6  -1   0 1161.08   43.40
  -6  -1   0 1138.19   79.69
  -6  -1   0 1154.58   39.30
  -6  -1   0 1158.98   37.50
  -6  -1   0 1126.99  136.09
   6   1   0 1143.69   31.80
   6   1   0 1117.89   38.70
   6   1   0 1150.38   34.70
  -7  -1   0  373.16   82.49
  -7  -1   0  290.27   23.20
  -7  -1   0  306.97   22.60
  -7  -1   0  320.77   26.40
   7   1   0  289.67   18.50
   7   1   0  356.76   29.10
   7   1   0  314.47   20.10
  -8  -1   0   58.29   17.50
  -8  -1   0   41.70   27.70
  -8  -1   0   89.89   20.50
  -8  -1   0   54.89   46.90
  -8  -1   0   82.09   26.70
   8   1   0   20.10   11.10
   8   1   0   73.19   13.20
  -9  -1   0  257.97   29.00
  -9  -1   0  205.18   30.80
  -9  -1   0  197.18   27.70
   9   1   0  204.58   21.40
   9   1   0  233.68   28.50
 -10  -1   0  216.68   28.20
 -10  -1   0  289.07   33.50
 -10  -1   0  223.18   34.70
  10   1   0  271.47   32.20
  11  -2   0   37.70   15.60
 -11   2   0   36.10   20.60
 -11   2   0   24.40   20.60
  10  -2   0   16.00   11.50
 -10   2   0   20.00   16.50
 -10   2   0    1.90   14.10
 -10   2   0   37.30   17.10
   9  -2   0   44.20   14.00
   9  -2   0   54.59   12.80
  -9   2   0   62.19   18.50
  -9   2   0   10.00   13.00
  -9   2   0   25.50   23.50
   8  -2   0  220.58   22.00
   8  -2   0  182.48   19.80
   8  -2   0  201.38   25.80
  -8   2   0  190.78   25.00
  -8   2   0  227.08   25.20
  -8   2   0  170.28   56.69
  -8   2   0  208.38   26.50
  -8   2   0  123.09   37.80
   7  -2   0  129.99   16.10
   7  -2   0  142.39   18.50
   7  -2   0  126.59   32.20
   7  -2   0  117.69   19.60
  -7   2   0  122.49   17.70
  -7   2   0  117.79   32.90
  -7   2   0   88.29   39.00
  -7   2   0   89.99   16.90
  -7   2   0  138.69   19.40
   6  -2   0  -68.89  377.36
   6  -2   0   -2.50    7.70
   6  -2   0 -262.17  384.46
   6  -2   0    5.80    7.50
   6  -2   0    2.50    4.70
  -6   2   0   11.20    9.30
  -6   2   0   -1.80   11.10
  -6   2   0   17.10   14.20
  -6   2   0    0.10    5.80
  -6   2   0   -1.90    5.80
   5  -2   0 -121.49  279.27
   5  -2   0  491.35  285.87
   5  -2   0   42.90    7.30
   5  -2   0   34.10    9.30
   5  -2   0   38.30   17.20
   5  -2   0   54.59    9.00
  -5   2   0   46.80   23.70
  -5   2   0   42.60    9.30
  -5   2   0   54.79   18.00
  -5   2   0   70.59   12.10
  -5   2   0   82.69   12.70
   4  -2   0  224.98   14.70
   4  -2   0  232.98   11.90
   4  -2   0  240.68  287.27
  -4   2   0  312.37   34.50
  -4   2   0  233.98   24.10
  -4   2   0  241.98   41.00
   3  -2   0  331.97  166.18
   3  -2   0   58.19   18.00
  -3   2   0  140.39  159.88
  -3   2   0   31.10   14.40
  -3   2   0   25.30    9.30
   2  -2   0 1536.25   63.59
   2  -2   0 1688.63  208.18
  -2   2   0 1521.35   49.99
  -2   2   0 1549.74   37.30
  -2   2   0 1650.33  204.48
   1  -2   0 2249.68  149.99
   1  -2   0 2159.28   80.19
  -1   2   0 2350.06  155.98
   0  -2   0   31.80    9.20
   0  -2   0   14.50    7.50
   0  -2   0   29.90    7.10
   0  -2   0   24.70   31.00
   0   2   0   18.50   29.00
  -1  -2   0  119.29   25.10
  -1  -2   0  107.09   17.40
  -1  -2   0   99.39   14.50
   1   2   0   42.10   38.00
   1   2   0   43.10   41.80
  -2  -2   0   26.40   11.00
  -2  -2   0    7.40   11.10
   2   2   0  165.68   84.69
   2   2   0   27.40   88.49
  -3  -2   0  144.19    8.40
  -3  -2   0  135.19   14.10
  -3  -2   0  138.89   26.60
  -3  -2   0  136.59   33.70
  -3  -2   0  138.89   10.70
   3   2   0  122.79    9.50
   3   2   0  143.19   10.80
   3   2   0  129.69  143.59
   3   2   0  151.08   11.30
  -4  -2   0  194.28   45.60
  -4  -2   0  164.38   17.10
  -4  -2   0  157.68   15.10
  -4  -2   0  114.09    9.60
  -4  -2   0  126.49   28.90
   4   2   0  138.89   11.20
   4   2   0  395.16  239.28
   4   2   0  143.59   14.50
   4   2   0  127.29    9.20
   4   2   0  142.29   13.40
  -5  -2   0  463.25   20.30
  -5  -2   0  434.06   73.19
  -5  -2   0  428.96   25.40
  -5  -2   0  463.45   23.40
   5   2   0  443.06   21.40
   5   2   0  479.65   18.50
   5   2   0  448.26   20.70
   5   2   0  511.45   24.80
  -6  -2   0  201.68   23.50
  -6  -2   0  176.78   39.50
  -6  -2   0  220.38   21.20
  -6  -2   0  221.28   17.10
  -6  -2   0  261.87   66.09
   6   2   0  213.28   16.50
   6   2   0  237.58   15.20
   6   2   0  242.18   23.20
  -7  -2   0   63.09   14.40
  -7  -2   0   34.40   23.50
  -7  -2   0   90.69   48.40
  -7  -2   0   62.79   13.00
  -7  -2   0   56.79   16.10
   7   2   0   78.99   18.50
   7   2   0   48.40   13.30
   7   2   0   43.40   11.70
  -8  -2   0   88.49   16.00
  -8  -2   0  102.59   21.50
  -8  -2   0   58.69   33.50
  -8  -2   0  109.99   20.10
   8   2   0   47.30   12.60
  -9  -2   0   11.40   15.40
  -9  -2   0    4.60   13.20
  -9  -2   0   -3.50   11.00
   9   2   0    1.90   11.80
 -10  -2   0  123.69   22.00
 -10  -2   0  161.08   31.30
 -10  -2   0   87.09   23.80
  10   2   0  106.49   25.10
  11  -3   0  185.28   30.80
 -11   3   0  263.67   57.09
 -11   3   0  269.17   38.60
  10  -3   0   20.40   12.30
 -10   3   0   14.50   25.30
 -10   3   0   10.00   15.20
 -10   3   0   33.60   17.40
   9  -3   0   22.60   11.10
   9  -3   0   38.40   16.90
  -9   3   0  100.39   52.59
  -9   3   0   29.80   15.60
  -9   3   0   15.30   13.30
  -9   3   0   22.90   12.80
   8  -3   0  912.81   34.40
   8  -3   0  841.52   33.90
   8  -3   0  788.22   42.80
  -8   3   0  892.61   40.80
  -8   3   0  806.42  119.89
  -8   3   0  839.92   69.89
  -8   3   0  912.01   40.40
  -8   3   0  811.72   42.30
   7  -3   0  796.42   37.20
   7  -3   0  765.92   68.89
   7  -3   0  707.23   29.60
   7  -3   0  739.83   28.80
  -7   3   0  750.22   33.60
  -7   3   0  732.73   58.39
  -7   3   0  711.43   36.50
  -7   3   0  910.01  114.19
  -7   3   0  699.53   33.20
   6  -3   0  211.58   16.10
   6  -3   0  268.67  398.36
   6  -3   0  226.88   15.50
   6  -3   0  355.86   58.89
   6  -3   0 -335.57  413.16
   6  -3   0  228.98   37.30
  -6   3   0  254.97   23.00
  -6   3   0  286.07   26.70
  -6   3   0  238.28   37.30
  -6   3   0  266.77   18.60
   5  -3   0  309.67   50.99
   5  -3   0  -11.80  508.85
   5  -3   0  186.78   14.50
   5  -3   0  205.68   12.90
   5  -3   0  522.15  318.77
   5  -3   0  192.68   16.10
  -5   3   0  220.68   24.70
  -5   3   0  235.08   32.90
  -5   3   0  199.08   41.10
  -5   3   0  196.38   14.20
  -5   3   0  191.38   14.90
   4  -3   0  927.21   25.10
   4  -3   0  962.20   30.20
   4  -3   0  886.91   61.09
   4  -3   0  989.00   30.00
   4  -3   0  491.55  257.17
  -4   3   0  954.20   24.90
  -4   3   0  921.31   59.69
  -4   3   0  957.80   28.20
  -4   3   0  922.71   42.60
   3  -3   0 1421.66   33.10
   3  -3   0 1373.46   71.99
   3  -3   0 1459.45   29.20
   3  -3   0 1343.07  268.27
  -3   3   0 1446.36   41.90
  -3   3   0 1430.46   60.49
   2  -3   0  808.32  166.88
   2  -3   0  935.51   56.59
   2  -3   0  916.91   29.80
   1  -3   0   34.00   13.80
   1  -3   0   97.09   80.29
  -1   3   0  -93.89   78.19
   0  -3   0  219.78   54.59
   0  -3   0  167.58   14.90
   0  -3   0  171.88   26.10
   0  -3   0  202.18   25.20
  -1  -3   0  520.95   32.70
  -1  -3   0  546.05   32.90
  -1  -3   0  496.45   40.60
   1   3   0  542.55   62.69
  -2  -3   0  937.61   51.59
  -2  -3   0  868.31   62.59
   2   3   0  906.41   25.50
   2   3   0  893.71   24.50
   2   3   0  887.81   26.30
   2   3   0  989.50  121.09
   2   3   0  926.71  127.49
  -3  -3   0   29.20   17.20
  -3  -3   0   36.70    8.60
  -3  -3   0   32.50    7.30
  -3  -3   0   32.60   14.80
   3   3   0   24.80    6.70
   3   3   0   17.90    5.80
   3   3   0  -78.29  134.19
   3   3   0   22.40    6.60
  -4  -3   0   15.60    4.50
  -4  -3   0   15.70   16.10
  -4  -3   0   37.20   18.40
  -4  -3   0   30.70    8.10
  -4  -3   0   37.90   10.00
   4   3   0   20.60    7.50
   4   3   0   22.80    6.50
   4   3   0   62.39  199.48
   4   3   0   18.50    7.30
  -5  -3   0  244.28   13.80
  -5  -3   0  277.27   64.09
  -5  -3   0  239.08   18.00
  -5  -3   0  163.28   38.50
  -5  -3   0  245.68   24.00
   5   3   0  219.98   21.90
   5   3   0  220.88   13.50
   5   3   0  228.68   17.00
   5   3   0  255.27   16.90
  -6  -3   0   78.79   35.70
  -6  -3   0   74.19   33.20
  -6  -3   0   58.39   15.10
  -6  -3   0   60.49   10.40
  -6  -3   0   40.00   11.40
   6   3   0   72.39   12.40
   6   3   0   62.29   12.10
   6   3   0   57.39   13.60
  -7  -3   0   45.00   40.00
  -7  -3   0   28.00   26.50
  -7  -3   0   22.80   11.80
  -7  -3   0    8.10   12.20
  -7  -3   0    9.40    8.10
   7   3   0   13.70   11.40
   7   3   0   20.60    9.50
  -8  -3   0    7.50   13.50
  -8  -3   0   28.80   12.00
  -8  -3   0   13.30   12.50
  -8  -3   0   -1.90   21.40
   8   3   0   22.50   11.40
   8   3   0   18.20   12.20
  -9  -3   0  -13.90   18.40
  -9  -3   0    1.70   15.40
  -9  -3   0    8.40   11.10
   9   3   0   10.70   17.30
   9   3   0   -2.10   10.40
 -10  -3   0    1.30   17.20
 -10  -3   0   -0.50   12.80
 -10  -3   0   -9.80   21.40
  10   3   0   -6.20   13.40
  10  -4   0   97.89   17.90
  10  -4   0   74.99   23.20
 -10   4   0  152.58   26.50
 -10   4   0  156.68   29.80
   9  -4   0   14.00   18.70
   9  -4   0   11.20    9.50
  -9   4   0   31.20   14.60
  -9   4   0   10.00   14.30
   8  -4   0  112.49   20.40
   8  -4   0  203.58   53.69
   8  -4   0  147.19   18.20
  -8   4   0  162.18   67.79
  -8   4   0  144.79   21.50
  -8   4   0  147.19   24.40
  -8   4   0  150.18   21.20
   7  -4   0 1034.90  145.29
   7  -4   0  992.10   41.60
   7  -4   0 1030.70   35.00
   7  -4   0 1012.00   38.20
  -7   4   0 1086.89   94.29
  -7   4   0 1007.60   39.20
  -7   4   0  968.80   37.00
  -7   4   0  996.70   43.70
   6  -4   0  820.92   36.70
   6  -4   0  743.93   27.30
   6  -4   0  783.02   70.59
   6  -4   0  743.33   33.00
  -6   4   0  690.43   82.49
  -6   4   0  730.43   30.80
  -6   4   0  799.02   49.90
  -6   4   0  780.02   29.30
  -6   4   0  722.63   33.90
   5  -4   0  206.08   16.50
   5  -4   0 -154.28  351.46
   5  -4   0  204.38   41.90
   5  -4   0  217.98   14.00
   5  -4   0  247.58   27.60
  -5   4   0  236.98   16.70
  -5   4   0  243.28   30.50
  -5   4   0  202.48   42.70
  -5   4   0  208.98   13.70
  -5   4   0  203.38   20.10
   4  -4   0  128.09   33.20
   4  -4   0   99.49   13.00
   4  -4   0  100.39   10.30
   4  -4   0   -1.70  267.57
   4  -4   0  101.19   12.20
   4  -4   0  415.06  271.17
  -4   4   0  115.29   26.30
  -4   4   0  112.89   12.20
  -4   4   0   82.49    9.40
  -4   4   0   94.99   15.80
   3  -4   0 1325.57   32.10
   3  -4   0 1410.36   37.70
   3  -4   0 1313.57   78.39
   3  -4   0 1373.26   29.70
   3  -4   0 1243.38  239.88
  -3   4   0 1352.96   31.50
  -3   4   0 1330.87   32.30
  -3   4   0 1330.57   52.99
   2  -4   0 2458.25   39.40
   2  -4   0 2441.86   49.80
   2  -4   0 2484.25  103.39
  -2   4   0 2548.15   43.30
  -2   4   0 2442.46   44.30
   1  -4   0 1983.50   85.99
   1  -4   0 1955.30  193.38
  -1   4   0 1995.50   38.80
   0  -4   0   21.90   65.69
   0  -4   0  193.68   31.50
   0  -4   0  195.78   32.40
   0  -4   0  145.89   20.20
   0  -4   0  123.19   54.29
  -1  -4   0  181.88   28.30
  -1  -4   0  185.98   33.90
  -1  -4   0  166.18   26.30
   1   4   0  165.38   11.70
   1   4   0  164.38   11.30
   1   4   0  181.58   11.10
  -2  -4   0 1342.97   32.50
  -2  -4   0 1333.67   84.09
  -2  -4   0 1410.56   36.20
  -2  -4   0 1295.87   55.79
  -2  -4   0 1366.06   67.29
   2   4   0 1400.86   34.40
   2   4   0 1408.46   36.80
   2   4   0 1419.96  144.69
   2   4   0 1354.66   37.60
   2   4   0 1448.96   35.40
   2   4   0 1263.17  126.99
  -3  -4   0  708.83   24.70
  -3  -4   0  677.63   53.09
  -3  -4   0  813.52   91.29
  -3  -4   0  739.03   26.10
  -3  -4   0  690.73   28.30
   3   4   0  414.56  155.18
   3   4   0  745.43   26.00
   3   4   0  733.73   22.50
   3   4   0  731.53   28.40
   3   4   0  730.93   26.40
  -4  -4   0  214.08   16.50
  -4  -4   0  224.28   56.19
  -4  -4   0  253.87   23.70
  -4  -4   0  209.48   18.70
   4   4   0  246.28   17.10
   4   4   0  204.08   13.10
   4   4   0  188.58   15.20
   4   4   0  384.26  216.08
   4   4   0  242.48   18.60
  -5  -4   0   10.90   20.60
  -5  -4   0   55.59   13.80
  -5  -4   0   57.49   26.80
  -5  -4   0   40.70   10.90
   5   4   0   58.19   13.30
   5   4   0   60.79   12.00
   5   4   0   44.90   10.40
  -6  -4   0  239.88   68.49
  -6  -4   0  297.47   30.70
  -6  -4   0  292.77   26.20
  -6  -4   0  260.87   55.99
   6   4   0  288.17   21.80
   6   4   0  270.67   20.90
   6   4   0  276.67   27.50
  -7  -4   0  376.66   36.60
  -7  -4   0  482.35   31.70
   7   4   0  461.05   29.20
   7   4   0  481.45   34.60
  -8  -4   0  295.17   35.20
  -8  -4   0  264.57   29.50
   8   4   0  271.97   27.60
   8   4   0  279.37   32.70
  -9  -4   0   53.79   20.00
  -9  -4   0   62.39   22.50
   9   4   0   34.10   17.20
   9   4   0   42.60   15.40
  10  -5   0   16.90   11.40
  10  -5   0   16.20   24.90
 -10   5   0   29.00   16.50
 -10   5   0   -0.80   16.40
   9  -5   0   68.99   20.10
   9  -5   0   67.89   15.60
  -9   5   0   84.39   35.00
  -9   5   0   45.50   16.00
   8  -5   0   -8.80   11.10
   8  -5   0   -4.80    5.90
   8  -5   0   -8.90   14.50
   8  -5   0    4.80    9.40
  -8   5   0   -5.00   10.80
  -8   5   0    1.60    9.50
   7  -5   0  180.58   22.70
   7  -5   0  137.49   16.00
   7  -5   0  161.28   46.30
   7  -5   0  185.68   22.80
  -7   5   0  180.98   21.00
  -7   5   0  204.78   25.60
   6  -5   0   62.09   13.20
   6  -5   0   37.20    9.20
   6  -5   0   28.60   10.00
  -6   5   0   59.59   14.10
  -6   5   0   50.09   11.80
   5  -5   0  678.13   25.20
   5  -5   0  643.94   29.70
   5  -5   0  709.63   88.69
   5  -5   0  648.84   28.40
  -5   5   0  669.93   53.99
  -5   5   0  691.13   27.90
  -5   5   0  687.83   27.30
   4  -5   0  126.29   17.00
   4  -5   0  -67.99  260.37
   4  -5   0  149.39   17.40
   4  -5   0  141.49   13.20
   4  -5   0  198.88   42.50
  -4   5   0  140.79   11.00
  -4   5   0  163.38   28.90
  -4   5   0  144.99   14.40
   3  -5   0 -259.07  223.78
   3  -5   0   22.20    5.30
   3  -5   0   17.50    5.40
   3  -5   0   24.60    7.80
   3  -5   0   33.90   20.00
  -3   5   0   14.90    6.40
  -3   5   0   26.50    5.80
   2  -5   0  774.82   63.19
   2  -5   0  778.72   23.70
   2  -5   0  681.83  206.28
   2  -5   0  793.12   28.60
   2  -5   0  790.52   21.50
  -2   5   0  789.22   23.90
  -2   5   0  771.72   25.20
  -2   5   0  773.62   21.00
   1  -5   0  296.37  127.39
   1  -5   0  217.18   17.30
   1  -5   0  248.68  139.59
   1  -5   0  280.47   45.10
  -1   5   0  248.48   12.60
  -1   5   0  247.48   13.20
  -1   5   0  257.17   14.50
   0  -5   0  954.60   93.69
   0  -5   0  910.51   80.99
   0  -5   0  826.32   57.99
   0  -5   0  925.91   53.29
   0  -5   0  903.01   43.20
   0  -5   0  894.51   27.50
   0   5   0  857.11   24.90
   0   5   0  855.01   25.00
   0   5   0  867.31   25.30
   0   5   0  877.21   27.20
  -1  -5   0   47.50   17.00
  -1  -5   0   29.00    6.70
  -1  -5   0   49.40   15.90
  -1  -5   0   37.10   18.40
   1   5   0   36.80    7.90
   1   5   0   45.10    7.50
   1   5   0   39.60    8.30
   1   5   0   30.80    6.90
  -2  -5   0  528.65   45.30
  -2  -5   0  496.75   66.79
  -2  -5   0  585.54   22.40
  -2  -5   0  589.34   43.60
  -2  -5   0  575.94   24.00
   2   5   0  601.44   25.00
   2   5   0  627.34   24.90
   2   5   0  601.74   21.40
   2   5   0  572.34   23.20
  -3  -5   0 1413.36   36.50
  -3  -5   0 1492.95   82.79
  -3  -5   0 1345.97  101.29
  -3  -5   0 1382.56   42.20
  -3  -5   0 1400.86   38.70
   3   5   0 1429.16  175.38
   3   5   0 1393.76   34.60
   3   5   0 1371.96   40.40
   3   5   0 1431.86   43.10
   3   5   0 1403.16   39.40
  -4  -5   0 1262.97  108.89
  -4  -5   0 1326.57   45.50
  -4  -5   0 1134.59   36.10
  -4  -5   0 1233.98   39.10
  -4  -5   0 1125.89   80.39
   4   5   0 1356.36   40.90
   4   5   0 1194.28   42.70
   4   5   0 1200.88   33.20
   4   5   0 1168.88   38.30
  -5  -5   0   89.29   15.40
  -5  -5   0   39.20   31.30
  -5  -5   0   91.49   17.90
   5   5   0   90.59   14.80
   5   5   0   94.19   16.00
   5   5   0  112.09   16.40
  -6  -5   0   92.19   35.10
  -6  -5   0  147.59   23.80
  -6  -5   0  133.39   19.50
  -6  -5   0  103.19   48.10
   6   5   0  154.48   22.00
   6   5   0  179.28   20.30
   6   5   0  195.08   22.50
  -7  -5   0  616.34   42.10
  -7  -5   0  608.84  113.99
  -7  -5   0  532.35   34.60
   7   5   0  593.94   34.30
   7   5   0  519.05   36.80
   7   5   0  669.03   35.40
  -8  -5   0  434.76   34.50
  -8  -5   0  381.26   42.00
   8   5   0  294.07   33.80
   8   5   0  430.96   32.00
  -9  -5   0  170.48   31.40
  -9  -5   0  180.88   29.20
   9   5   0  121.09   25.40
   9   5   0  154.48   23.90
  10  -6   0  110.79   20.00
  10  -6   0  167.18   29.60
 -10   6   0  128.09   24.40
   9  -6   0   19.40   17.30
   9  -6   0   -7.50    7.90
  -9   6   0   30.50   15.90
   8  -6   0   18.90   22.50
   8  -6   0   24.30   13.00
   8  -6   0   23.80   12.40
   8  -6   0   12.50    9.60
  -8   6   0   30.60   13.80
   7  -6   0   15.00   11.00
   7  -6   0   13.20    7.40
   7  -6   0   44.80   28.20
   7  -6   0   40.60   13.50
  -7   6   0   19.70   10.80
   6  -6   0   85.99   38.30
   6  -6   0  109.69   16.70
   6  -6   0   98.19   13.70
  -6   6   0   55.89   12.30
   5  -6   0   47.40   11.90
   5  -6   0   64.99   11.70
   5  -6   0   62.79   10.30
   5  -6   0  100.89   34.90
  -5   6   0   61.39   10.80
  -5   6   0   62.89   11.90
   4  -6   0    2.20    4.90
   4  -6   0    1.00    6.30
   4  -6   0    8.20   12.10
   4  -6   0    1.00    4.70
  -4   6   0   12.70    6.50
  -4   6   0    0.70    4.10
   3  -6   0  108.79   11.30
   3  -6   0  106.59   14.70
   3  -6   0 -392.66  265.57
   3  -6   0  136.69   40.20
  -3   6   0  117.89   11.10
  -3   6   0  109.29   13.80
  -3   6   0   99.49   11.30
   2  -6   0 -131.59  236.48
   2  -6   0    5.40    6.10
   2  -6   0   10.20    4.40
   2  -6   0    9.60   15.20
  -2   6   0    5.80    5.90
  -2   6   0    8.00    4.40
  -2   6   0   12.50    4.80
  -2   6   0   15.20    5.30
   1  -6   0 -193.18  169.08
   1  -6   0   75.79    8.70
   1  -6   0   42.50   21.20
   1  -6   0   70.39   12.20
  -1   6   0   58.39    8.50
  -1   6   0   58.29    8.60
  -1   6   0   70.19    9.70
  -1   6   0   66.39   11.00
   0  -6   0   34.20   16.80
   0  -6   0   26.50   15.20
   0  -6   0    4.70    8.30
   0  -6   0   33.30    8.40
   0  -6   0   15.90    5.80
   0  -6   0   29.40    5.90
   0   6   0   14.50    6.90
   0   6   0   33.00    7.60
   0   6   0   18.00    5.90
   0   6   0   15.50    5.60
  -1  -6   0   83.89   24.40
  -1  -6   0  116.19   13.20
  -1  -6   0  123.09   10.90
  -1  -6   0  110.39   12.50
  -1  -6   0  110.39   25.50
  -1  -6   0  102.19   12.10
  -1  -6   0   80.69   27.60
   1   6   0  103.09   12.20
   1   6   0  143.99   15.40
   1   6   0  107.19   14.00
   1   6   0  119.59   12.50
  -2  -6   0   40.40   19.90
  -2  -6   0   36.70    8.60
  -2  -6   0   73.49   31.00
  -2  -6   0   29.20    7.50
  -2  -6   0   42.30    8.50
  -2  -6   0   47.40   10.30
   2   6   0   42.30    8.30
   2   6   0   54.89   11.30
   2   6   0   30.90    8.40
   2   6   0   38.80   10.10
  -3  -6   0  239.68   45.00
  -3  -6   0  116.59   37.60
  -3  -6   0  193.08   22.60
  -3  -6   0  217.08   21.60
  -3  -6   0  165.98   15.60
   3   6   0  181.88   13.80
   3   6   0  196.08   18.80
   3   6   0  186.08   19.60
   3   6   0  205.98   20.80
  -4  -6   0   83.99   33.50
  -4  -6   0  138.49   46.90
  -4  -6   0  109.39   15.90
  -4  -6   0   85.89   16.30
   4   6   0   91.59   14.50
   4   6   0   97.79   16.00
   4   6   0   76.59   14.10
   4   6   0  136.09   20.30
  -5  -6   0   94.29   49.40
  -5  -6   0  100.79   17.60
  -5  -6   0   92.09   32.70
  -5  -6   0   89.69   18.30
   5   6   0   73.69   14.40
   5   6   0  119.49   20.00
   5   6   0  103.99   16.70
  -6  -6   0   11.30   11.40
  -6  -6   0    5.80   22.80
  -6  -6   0    6.70   14.10
   6   6   0   11.20   10.80
   6   6   0   -6.10    9.90
   6   6   0   -8.80    9.10
  -7  -6   0   20.50   14.60
  -7  -6   0   22.80   17.00
   7   6   0    1.40   11.60
   7   6   0   16.10   12.60
   7   6   0   28.00   13.00
  -8  -6   0   90.69   22.40
  -8  -6   0   79.19   25.00
   8   6   0   70.69   21.40
   8   6   0   80.89   19.80
  10  -7   0  237.78   27.70
  10  -7   0  215.68   33.00
 -10   7   0  261.17   33.20
   9  -7   0  273.77   27.40
   9  -7   0  240.28   30.10
   9  -7   0  318.77   34.60
  -9   7   0  214.58   28.40
   8  -7   0  303.47   32.10
   8  -7   0  358.16   25.00
   8  -7   0  301.07   32.40
  -8   7   0  275.77   28.60
   7  -7   0   13.50    9.50
   7  -7   0   -8.10   15.20
   7  -7   0    5.90   10.80
   7  -7   0   17.00   11.40
  -7   7   0    9.00    9.90
   6  -7   0  430.76   23.40
   6  -7   0  415.26   29.30
   6  -7   0  423.16   26.10
   6  -7   0  356.76   73.09
  -6   7   0  412.76   23.90
  -6   7   0  427.46   26.20
   5  -7   0  505.95   24.90
   5  -7   0  592.04   89.69
   5  -7   0  561.94   32.00
   5  -7   0  509.35   23.70
  -5   7   0  526.05   26.50
  -5   7   0  539.25   38.10
   4  -7   0  266.47   16.40
   4  -7   0  287.77   16.40
   4  -7   0  398.66   71.89
   4  -7   0  299.97   23.50
  -4   7   0  280.67   18.00
  -4   7   0  279.67   16.10
  -4   7   0  291.67   20.00
   3  -7   0  390.16   14.40
   3  -7   0  443.66   74.89
   3  -7   0  366.26   17.80
   3  -7   0  324.17   23.20
  -3   7   0  403.16   22.50
  -3   7   0  377.36   20.00
  -3   7   0  388.46   18.10
   2  -7   0   43.90    9.60
   2  -7   0   18.00   17.40
   2  -7   0   27.50    6.80
   2  -7   0  464.55  279.37
   2  -7   0   27.20    9.40
  -2   7   0   28.90    7.10
  -2   7   0   34.60    9.30
  -2   7   0   34.80    7.40
  -2   7   0   46.20    8.60
   1  -7   0  639.64   29.20
   1  -7   0  687.13   82.29
   1  -7   0  827.82  218.78
   1  -7   0  627.84   24.50
   1  -7   0  652.83   21.50
  -1   7   0  656.73   24.00
  -1   7   0  631.54   24.60
  -1   7   0  652.23   27.80
  -1   7   0  664.13   26.10
   0  -7   0  387.96   19.60
   0  -7   0  354.26   16.10
   0  -7   0  421.86   22.50
   0  -7   0  386.26   34.20
   0  -7   0  414.86   51.99
   0   7   0  402.56   20.30
   0   7   0  369.96   19.80
   0   7   0  376.26   22.20
   0   7   0  370.96   19.90
  -1  -7   0  101.09   11.60
  -1  -7   0   88.29   11.90
  -1  -7   0   85.89   31.30
  -1  -7   0  126.99   15.00
  -1  -7   0   95.69   25.40
  -1  -7   0   90.19   29.70
  -1  -7   0  126.19   14.60
   1   7   0  106.59   14.70
   1   7   0  109.09   14.20
   1   7   0  108.79   13.10
   1   7   0   92.09   13.90
  -2  -7   0    9.40   17.80
  -2  -7   0    7.10   13.40
  -2  -7   0    3.60    7.10
   2   7   0   -4.90    5.40
   2   7   0    1.60    7.30
   2   7   0    4.90    5.70
   2   7   0   -1.10    6.50
  -3  -7   0   -2.40   12.80
  -3  -7   0   -0.80    6.70
  -3  -7   0    1.60   17.50
  -3  -7   0   -2.90    8.10
   3   7   0   -1.90    5.80
   3   7   0    7.10    6.00
   3   7   0    7.30    8.60
   3   7   0    1.60    7.80
  -4  -7   0  252.17   63.89
  -4  -7   0  218.68   49.50
  -4  -7   0  280.17   28.50
  -4  -7   0  262.47   27.50
   4   7   0  231.48   17.60
   4   7   0  240.28   25.10
   4   7   0  257.57   24.90
   4   7   0  282.47   22.60
  -5  -7   0   19.30   12.00
  -5  -7   0   17.70   13.90
  -5  -7   0   48.30   30.30
  -5  -7   0   -9.10   20.90
   5   7   0    9.80   10.60
   5   7   0   10.20   13.70
   5   7   0    5.70   10.40
  -6  -7   0    2.70   11.70
  -6  -7   0   13.30   14.80
   6   7   0    5.20   11.40
   6   7   0    6.00   10.60
   6   7   0    9.10   11.30
  -7  -7   0   -7.10   15.90
  -7  -7   0    8.60   14.10
   7   7   0   11.20   12.70
   7   7   0    5.80   13.20
   7   7   0   14.10   13.30
   8   7   0   20.60   28.10
   9  -8   0  689.63   48.00
   9  -8   0  535.95   33.10
   9  -8   0  560.74   39.70
  -9   8   0  525.95   38.80
   8  -8   0  465.85   36.20
   8  -8   0  422.66   28.40
   8  -8   0  450.55   37.90
  -8   8   0  475.85   34.00
   7  -8   0  391.76   32.40
   7  -8   0  348.97   24.40
   7  -8   0  357.36   27.10
  -7   8   0  322.17   29.50
   6  -8   0   -1.70    8.10
   6  -8   0    8.00    8.50
   6  -8   0   -2.70    9.60
  -6   8   0    3.80    7.70
  -6   8   0    4.10    8.80
  -6   8   0    0.10    8.60
   5  -8   0  671.93  111.89
   5  -8   0  693.03   28.10
   5  -8   0  641.14   27.60
   5  -8   0  642.44   36.80
  -5   8   0  676.13   30.30
  -5   8   0  667.53   32.80
  -5   8   0  702.43   26.60
   4  -8   0 1104.99   99.69
   4  -8   0 1223.18   36.00
   4  -8   0 1165.38   47.30
   4  -8   0 1194.78   30.20
  -4   8   0 1191.98   42.60
  -4   8   0 1215.58   39.90
  -4   8   0 1180.48   34.40
   3  -8   0 1244.98   47.10
   3  -8   0 1157.28   33.40
   3  -8   0 1249.57  101.39
   3  -8   0 1127.39   37.60
  -3   8   0 1145.69   34.30
  -3   8   0 1159.98   41.70
  -3   8   0 1155.38   37.90
   2  -8   0  102.29   14.10
   2  -8   0   95.49   38.40
   2  -8   0   76.59   10.50
   2  -8   0  110.19   18.00
  -2   8   0   90.79   17.00
  -2   8   0  100.79   13.40
  -2   8   0   94.99   11.40
  -2   8   0   84.89   14.50
   1  -8   0  227.78   22.80
   1  -8   0  179.58   46.80
   1  -8   0  184.68   17.30
   1  -8   0  184.58   13.30
  -1   8   0  227.08   16.40
  -1   8   0  216.68   16.90
  -1   8   0  242.18   19.30
  -1   8   0  236.78   16.80
   0  -8   0 1114.39   87.29
   0  -8   0  954.30   32.90
   0  -8   0  965.20   37.10
   0   8   0  950.50   37.60
   0   8   0 1040.10   35.20
   0   8   0  982.90   34.30
   0   8   0  973.70   35.00
  -1  -8   0  667.53   81.49
  -1  -8   0  601.94   27.80
  -1  -8   0  630.14   27.70
   1   8   0  625.54   27.40
   1   8   0  650.43   29.80
   1   8   0  634.14   30.20
  -2  -8   0  322.57   21.60
  -2  -8   0  378.36   56.89
   2   8   0  322.27   20.60
   2   8   0  358.76   25.30
   2   8   0  310.87   23.70
   2   8   0  352.96   24.00
  -3  -8   0    4.10    9.50
  -3  -8   0   12.60    9.20
  -3  -8   0   10.60   21.50
  -3  -8   0   19.50   19.60
   3   8   0    9.80   10.10
   3   8   0   31.00   13.00
   3   8   0   12.10    9.20
  -4  -8   0   59.29   14.70
  -4  -8   0   53.59   16.60
  -4  -8   0   11.40   20.70
  -4  -8   0   29.70   31.20
   4   8   0   49.90   15.20
   4   8   0   36.40   14.60
   4   8   0   24.10   11.30
  -5  -8   0  370.76   36.00
  -5  -8   0  301.47   30.10
  -5  -8   0  499.25   80.49
   5   8   0  349.27   28.10
   5   8   0  416.06   38.90
   5   8   0  331.57   32.10
  -6  -8   0   69.49   21.70
  -6  -8   0  109.99   21.70
   6   8   0  112.49   23.50
   6   8   0  106.69   20.50
   6   8   0   78.39   18.90
  -7  -8   0   49.70   24.40
  -7  -8   0    8.10   18.10
   7   8   0   50.39   17.30
   7   8   0   40.10   18.80
   7   8   0   70.89   18.80
   9  -9   0    3.10   15.00
   9  -9   0   -5.80   11.00
   9  -9   0    4.30   16.10
  -9   9   0   25.90   17.00
   8  -9   0  150.08   21.60
   8  -9   0  132.99   21.40
   8  -9   0  109.79   24.30
  -8   9   0  134.89   23.40
  -8   9   0  138.29   22.80
   7  -9   0   88.99   18.50
   7  -9   0  100.49   22.50
   7  -9   0  117.59   18.10
  -7   9   0  112.19   19.80
  -7   9   0  103.79   20.60
   6  -9   0   31.40   11.70
   6  -9   0   22.30   13.70
   6  -9   0   36.50   16.10
  -6   9   0   18.90   10.30
  -6   9   0   27.90   13.00
   5  -9   0  283.97   32.60
   5  -9   0  250.97   17.20
   5  -9   0  236.28   18.80
  -5   9   0  276.97   30.80
  -5   9   0  296.67   32.60
   4  -9   0  635.14   27.30
   4  -9   0  569.74   36.10
   4  -9   0  629.04   97.39
  -4   9   0  597.04   32.40
  -4   9   0  626.04   27.40
  -4   9   0  581.14   29.80
   3  -9   0 1343.77   51.99
   3  -9   0 1277.57   42.10
   3  -9   0 1213.68  106.69
   3  -9   0 1304.87   37.40
  -3   9   0 1278.77   45.50
  -3   9   0 1290.37   43.10
  -3   9   0 1292.37   39.90
   2  -9   0  466.05   25.20
   2  -9   0  419.36   20.50
   2  -9   0  459.05   77.59
   2  -9   0  501.65   30.80
  -2   9   0  477.35   25.80
  -2   9   0  448.16   24.50
  -2   9   0  448.36   27.60
   1  -9   0    5.60    7.60
   1  -9   0   23.10   10.80
   1  -9   0   14.80   18.20
  -1   9   0    1.30    6.60
  -1   9   0    4.50    6.30
  -1   9   0   14.60    9.60
   0  -9   0  181.58   21.30
   0  -9   0  139.39   40.00
   0   9   0  183.28   19.50
   0   9   0  209.88   21.00
   0   9   0  240.58   22.50
   0   9   0  234.38   25.00
  -1  -9   0  543.45   29.20
   1   9   0  529.85   31.20
   1   9   0  534.85   29.50
   1   9   0  540.55   30.00
   1   9   0  525.75   27.30
   2   9   0  522.55   30.70
   2   9   0  525.55   27.40
   2   9   0  457.35   30.50
   2   9   0  462.15   29.70
   3   9   0  186.78   19.70
   3   9   0  218.98   25.10
   3   9   0  211.48   25.10
   3   9   0  233.18   27.50
   4   9   0  150.98   24.60
   4   9   0  172.48   24.30
   4   9   0  160.08   24.10
  -5  -9   0   25.30   21.00
   5   9   0   28.00   15.20
   5   9   0   51.19   18.90
   5   9   0   33.40   14.40
  -6  -9   0   47.90   22.50
   6   9   0   97.29   21.20
   6   9   0   89.49   23.80
   6   9   0   73.49   20.30
   8 -10   0   48.50   20.20
   8 -10   0   36.50   14.60
   8 -10   0   70.79   17.90
  -8  10   0   45.60   18.50
   7 -10   0   10.20   11.80
   7 -10   0   21.70   16.30
   7 -10   0    7.70   10.40
  -7  10   0   28.80   14.80
  -7  10   0   21.50   13.20
   6 -10   0   -3.20    9.10
   6 -10   0   20.50   11.30
   6 -10   0   -5.10   11.40
  -6  10   0   13.60   10.40
  -6  10   0   13.00   12.90
   5 -10   0   -0.30   11.20
   5 -10   0   15.50   10.40
  -5  10   0   11.10   12.20
  -5  10   0   17.40   10.00
   4 -10   0    0.50    7.10
   4 -10   0    5.20   11.30
  -4  10   0    1.70    7.40
  -4  10   0    6.20   10.30
   3 -10   0   29.20   14.20
  -3  10   0   45.40   12.60
  -3  10   0   55.69   13.20
   2 -10   0    4.70   10.60
   2 -10   0   25.10   28.60
  -2  10   0    7.60    8.50
  -2  10   0    1.80    6.90
  -2  10   0    1.00    9.80
   1 -10   0   29.40   13.00
   1 -10   0   21.20   24.00
  -1  10   0   34.50   13.60
  -1  10   0    7.20    8.90
  -1  10   0   21.50    9.80
   0 -10   0   17.10   11.00
   0  10   0   20.40   13.20
   0  10   0   16.30   10.90
   0  10   0    5.60    9.00
   1  10   0   96.39   17.70
   1  10   0   82.39   16.80
   1  10   0   74.39   14.40
   1  10   0   91.19   18.80
   2  10   0  189.58   24.30
   2  10   0  128.49   20.70
   2  10   0  142.69   18.70
   2  10   0  117.79   20.90
   3  10   0   36.10   12.70
   3  10   0    3.70   12.10
   3  10   0   19.10   12.50
   3  10   0   21.20   14.30
   4  10   0   62.49   18.10
   4  10   0   35.00   15.60
   4  10   0    4.70   14.20
   5  10   0  -12.30   13.70
   5  10   0    5.30   14.30
   5  10   0   -2.90   13.10
   7 -11   0  168.58   19.50
   7 -11   0  117.49   20.90
   7 -11   0  143.99   29.70
  -7  11   0  180.98   25.90
  -7  11   0  160.58   26.90
   6 -11   0   29.40   13.10
   6 -11   0   10.40   14.90
  -6  11   0   19.40   12.00
  -6  11   0   18.70   14.90
   5 -11   0    5.40   13.00
  -5  11   0   -4.50    7.50
   4 -11   0   85.09   22.10
  -4  11   0   95.89   19.30
  -4  11   0   51.29   17.80
   3 -11   0  263.37   32.40
  -3  11   0  310.97   31.30
  -3  11   0  360.96   27.00
   2 -11   0   69.99   18.90
  -2  11   0  116.09   21.30
  -2  11   0   61.29   14.40
   1 -11   0  143.79   22.90
  -1  11   0  159.78   24.20
  -1  11   0  120.99   18.00
  -1  11   0  112.39   18.50
   0 -11   0   12.20   13.30
   0  11   0   -4.50   10.50
   0  11   0  -15.60    9.50
   0  11   0    1.50    8.40
   1  11   0   -1.30   12.30
   1  11   0   15.90   10.90
   1  11   0    7.60   12.00
   1  11   0   15.70   12.60
   2  11   0   10.30   17.90
   2  11   0   -8.10   11.70
   2  11   0    1.90   12.80
   2  11   0    0.70    9.70
   3  11   0    9.40   12.80
   3  11   0   14.70   15.20
   3  11   0   15.50   14.80
   5 -12   0  152.98   29.40
  -5  12   0  139.69   22.50
  -5  12   0  143.49   26.50
   4 -12   0   -2.60   12.90
  -4  12   0  -10.90   12.00
  -4  12   0    0.10    9.10
   3 -12   0   79.79   21.50
  -3  12   0   58.69   18.20
  -3  12   0   44.10   14.40
   2 -12   0  115.29   32.80
  -2  12   0  145.29   21.20
  -2  12   0  129.89   24.60
   1 -12   0  333.27   36.40
  -1  12   0  327.87   34.80
  -1  12   0  270.57   29.50
  -1  12   0  305.67   29.50
   0  12   0   70.09   19.00
   0  12   0   61.09   16.20
   1  12   0    9.20   11.10
   1  12   0   -2.50   11.90
   1  12   0   -8.60   12.20
   2  12   0   74.09   19.80
   2  12   0   28.70   17.40
   2  12   0   58.39   16.40
   2  12  -1   18.40   14.20
   2  12  -1    5.80   14.50
   2  12  -1   16.00   14.00
   1  12  -1   13.20   13.80
   1  12  -1  -10.40   13.10
   1  12  -1    1.20   10.20
   0  12  -1   13.50   11.00
   0  12  -1   -4.50   11.20
   0  12  -1   -5.30   12.90
  -1  12  -1    1.50   11.60
  -1  12  -1    1.90   13.40
  -1  12  -1    4.20   10.30
   1 -12   1   21.00   17.60
  -2  12  -1    0.40   11.20
  -2  12  -1   39.60   17.30
  -2  12  -1    0.10    9.70
   2 -12   1    6.80   13.70
  -3  12  -1   23.00   16.00
  -3  12  -1   21.70   12.40
   3 -12   1   26.40   16.50
  -4  12  -1   -0.80   13.40
  -4  12  -1    2.00   10.20
   4 -12   1    8.60   15.10
  -5  12  -1   43.20   19.50
  -5  12  -1   77.59   18.70
   5 -12   1   71.89   23.20
   4  11  -1   58.59   19.10
   4  11  -1   58.69   20.50
   4  11  -1   46.90   18.90
   3  11  -1  152.38   25.70
   3  11  -1  189.48   27.90
   3  11  -1  167.28   27.30
   2  11  -1  133.79   27.90
   2  11  -1  133.79   22.90
   2  11  -1  115.79   22.80
   2  11  -1   93.39   17.20
   1  11  -1    2.60    8.20
   1  11  -1   13.00   12.60
   1  11  -1    2.50   12.50
   0  11  -1   -2.10   10.00
   0  11  -1    1.60    8.50
   0  11  -1    8.20   12.50
   0 -11   1    5.90   10.90
  -1  11  -1  139.79   21.30
  -1  11  -1  111.19   18.10
  -1  11  -1  138.49   23.60
   1 -11   1   96.69   20.90
  -2  11  -1  165.28   21.30
  -2  11  -1  146.99   19.70
  -2  11  -1  215.18   27.30
   2 -11   1  214.38   28.30
  -3  11  -1    9.50    9.20
  -3  11  -1    7.70   11.80
  -3  11  -1    3.20    9.90
   3 -11   1   12.90   13.30
  -4  11  -1   -2.80   12.50
   4 -11   1    4.50   14.20
  -5  11  -1   80.79   20.00
  -5  11  -1   89.09   18.20
   5 -11   1  110.79   24.60
  -6  11  -1   23.80   13.40
  -6  11  -1    6.50   14.80
   6 -11   1   16.50   16.20
  -7  11  -1    7.50   15.10
   7 -11   1    9.60   12.10
   7 -11   1    0.90   10.90
   7 -11   1   -5.70   14.60
   5  10  -1   21.80   15.50
   5  10  -1   33.20   16.90
   5  10  -1   35.40   17.60
   4  10  -1   11.50   14.00
   4  10  -1   19.30   13.80
   3  10  -1  254.67   29.00
   3  10  -1  261.97   29.90
   3  10  -1  264.37   29.10
   2  10  -1  459.45   31.90
   2  10  -1  501.85   34.90
   2  10  -1  466.95   46.30
   1  10  -1  504.75   30.10
   1  10  -1  512.55   33.20
   1  10  -1  504.25   31.50
   1  10  -1  435.66   32.40
   0  10  -1   33.30   11.90
   0  10  -1   60.19   18.60
   0  10  -1   19.60   12.10
   0 -10   1   17.10   11.40
  -1  10  -1   12.60   10.60
  -1  10  -1    6.00    8.40
   1 -10   1   -7.20   15.20
   1 -10   1    0.00    9.10
  -2  10  -1  270.17   35.90
  -2  10  -1  274.87   21.80
  -2  10  -1  265.27   24.70
   2 -10   1  298.97   36.40
   2 -10   1  198.78   59.89
   2 -10   1  248.78   24.10
  -3  10  -1  103.49   16.50
  -3  10  -1   86.49   17.40
  -3  10  -1   70.69   14.40
   3 -10   1  115.49   18.30
   3 -10   1   92.29   20.30
  -4  10  -1    1.20    7.70
  -4  10  -1   12.00   11.30
  -4  10  -1   15.90    9.80
   4 -10   1    3.50   10.60
   4 -10   1   -5.70   10.10
  -5  10  -1    9.30    8.90
  -5  10  -1   18.90   13.00
  -5  10  -1   31.90   17.20
   5 -10   1    8.40   12.80
   5 -10   1    2.70    8.80
  -6  10  -1  140.89   21.50
  -6  10  -1  128.09   23.60
   6 -10   1  118.79   17.40
   6 -10   1  150.78   18.30
  -7  10  -1  179.88   26.40
   7 -10   1  205.88   32.80
   7 -10   1  136.79   21.40
   7 -10   1  221.88   25.10
  -8  10  -1  152.78   27.60
   8 -10   1  145.29   28.50
   8 -10   1  176.48   25.40
   8 -10   1  195.18   25.90
   6   9  -1    7.20   14.20
   6   9  -1    3.50   14.60
   6   9  -1   10.10   13.10
   5   9  -1  122.59   21.80
   5   9  -1  178.88   27.10
  -5  -9   1   91.09   19.70
   4   9  -1   -8.50   11.10
   4   9  -1    0.10   10.70
   4   9  -1    4.10   10.10
  -4  -9   1   11.40   26.20
  -4  -9   1   -4.90   11.00
   3   9  -1  108.39   19.20
   3   9  -1  120.19   20.20
   3   9  -1  144.29   20.70
   3   9  -1  108.79   15.30
  -3  -9   1   96.99   17.20
   2   9  -1  272.87   27.90
   2   9  -1  311.47   25.10
   2   9  -1  328.77   30.10
   2   9  -1  257.87   20.00
  -2  -9   1  285.17   23.00
   1   9  -1  384.36   25.80
   1   9  -1  331.67   26.30
   1   9  -1  381.66   27.00
   1   9  -1  389.46   23.50
  -1  -9   1  351.96   24.60
  -1  -9   1  397.46   24.90
   0   9  -1  560.74   32.30
   0   9  -1  572.34   27.10
   0   9  -1  589.54   29.80
   0   9  -1  565.94   27.50
   0  -9   1  562.44   28.60
   0  -9   1  550.74   46.90
   0  -9   1  654.43   99.99
  -1   9  -1   15.10    9.80
  -1   9  -1   15.70    7.80
  -1   9  -1   23.60    9.20
   1  -9   1   10.40    9.60
   1  -9   1   36.70   24.10
   1  -9   1    7.90    7.60
  -2   9  -1  282.67   26.90
  -2   9  -1  222.18   18.60
  -2   9  -1  262.77   26.70
   2  -9   1  240.58   26.10
   2  -9   1  270.27   62.39
   2  -9   1  203.28   20.80
  -3   9  -1  592.54   29.50
  -3   9  -1  642.74   30.70
  -3   9  -1  650.63   33.20
   3  -9   1  848.12  119.09
   3  -9   1  643.64   36.60
   3  -9   1  598.14   24.60
   3  -9   1  634.84   31.20
  -4   9  -1  599.84   30.10
  -4   9  -1  500.35   25.50
  -4   9  -1  533.15   31.90
   4  -9   1  552.44   35.10
   4  -9   1  604.04   37.80
   4  -9   1  466.05   82.59
  -5   9  -1  396.46   23.10
  -5   9  -1  429.96   27.40
  -5   9  -1  440.26   30.20
   5  -9   1  391.46   22.10
   5  -9   1  376.46   23.10
   5  -9   1  384.06   31.50
  -6   9  -1   10.00   10.90
  -6   9  -1    7.10   10.00
  -6   9  -1    4.10    8.70
   6  -9   1   -3.10    9.50
   6  -9   1   12.50   13.60
   6  -9   1   13.60   11.20
  -7   9  -1  285.27   32.10
  -7   9  -1  251.77   27.90
   7  -9   1  260.47   26.00
   7  -9   1  206.68   29.30
   7  -9   1  296.17   29.20
  -8   9  -1  265.67   32.30
  -8   9  -1  220.28   39.70
   8  -9   1  212.58   27.60
   8  -9   1  264.17   26.80
   8  -9   1  193.48   31.00
   7   8  -1   14.20   14.40
   7   8  -1   -3.00   14.10
   7   8  -1   -4.00   12.50
  -7  -8   1   15.30   16.80
  -7  -8   1   -8.00   16.20
   6   8  -1   27.30   15.00
   6   8  -1    3.80   13.60
   6   8  -1    4.30   11.50
  -6  -8   1   21.50   15.40
  -6  -8   1    7.80   14.90
   5   8  -1   22.90   13.70
   5   8  -1   37.80   14.80
   5   8  -1   34.50   13.90
  -5  -8   1   72.59   60.79
  -5  -8   1   18.00   29.40
  -5  -8   1   28.80   16.70
   4   8  -1   20.70   11.00
   4   8  -1    0.60   10.40
   4   8  -1   -2.20    9.40
  -4  -8   1   14.20   12.40
  -4  -8   1   -3.90    8.90
  -4  -8   1   -7.40   20.60
  -4  -8   1   -7.10   19.00
   3   8  -1    0.70    8.20
   3   8  -1    0.60    6.20
   3   8  -1   -0.20    7.40
   3   8  -1    4.20    8.50
  -3  -8   1   32.00   19.70
  -3  -8   1   -7.70   14.40
   2   8  -1   -3.80    7.90
   2   8  -1   -3.40    5.50
   2   8  -1   -0.90    7.00
   2   8  -1    2.50    7.80
  -2  -8   1    6.80   14.20
  -2  -8   1    5.50    7.60
   1   8  -1   20.40    7.90
   1   8  -1   20.80    9.90
   1   8  -1   13.50    8.40
  -1  -8   1    9.30   13.80
  -1  -8   1   20.20   21.00
  -1  -8   1    8.60    7.70
  -1  -8   1   17.20    8.30
   0   8  -1    5.00    7.30
   0   8  -1   25.10   12.10
   0   8  -1    1.50    5.60
   0   8  -1    6.10    6.90
   0  -8   1   -4.30    6.80
   0  -8   1   13.60   18.60
   0  -8   1    9.30    7.50
  -1   8  -1   55.89   12.60
  -1   8  -1   50.69    9.80
  -1   8  -1   56.19   10.10
  -1   8  -1   51.49   10.70
   1  -8   1   33.30    9.50
   1  -8   1   62.89   13.80
   1  -8   1   36.40   24.10
  -2   8  -1  156.08   24.70
  -2   8  -1  138.69   17.70
  -2   8  -1  186.48   17.70
   2  -8   1  187.18   19.30
   2  -8   1  228.78   53.59
   2  -8   1  150.38   13.90
   2  -8   1  149.88   19.40
  -3   8  -1  174.98   20.10
  -3   8  -1  225.78   17.50
  -3   8  -1  197.58   15.70
   3  -8   1  199.08   14.40
   3  -8   1  220.38   25.10
   3  -8   1  217.68   53.09
  -4   8  -1  351.86   21.60
  -4   8  -1  461.75   22.30
  -4   8  -1  411.16   25.90
   4  -8   1  443.56   21.50
   4  -8   1  364.86   27.70
   4  -8   1  473.45   80.69
   4  -8   1  432.56   20.00
  -5   8  -1  297.77   23.40
  -5   8  -1  276.77   20.80
  -5   8  -1  265.47   18.20
   5  -8   1  268.37   28.90
   5  -8   1  288.47   20.10
   5  -8   1  281.97   19.50
   5  -8   1  251.37   61.29
  -6   8  -1   32.10   13.10
  -6   8  -1    6.00   11.10
   6  -8   1    5.80    7.60
   6  -8   1   22.50   11.40
  -7   8  -1   -3.30   10.30
   7  -8   1  -11.10   10.00
   7  -8   1   -9.00   10.00
   7  -8   1    9.50    9.20
  -8   8  -1   49.00   17.80
   8  -8   1   48.40   19.30
   8  -8   1   63.39   18.60
   8  -8   1   34.30   12.20
  -9   8  -1  173.98   28.10
   9  -8   1  217.58   25.30
   9  -8   1  243.78   31.40
   9  -8   1  259.07   33.80
   8   7  -1   84.89   23.30
   8   7  -1   95.79   21.60
   8   7  -1   79.89   20.40
  -8  -7   1   63.59   24.50
  -8  -7   1  108.89   25.00
   7   7  -1   17.00   13.50
   7   7  -1    2.00   12.90
   7   7  -1    2.60   10.80
  -7  -7   1    8.60   22.80
  -7  -7   1   11.80   15.00
   6   7  -1  110.69   19.70
   6   7  -1  130.49   20.20
   6   7  -1   85.29   20.00
  -6  -7   1   55.99   19.60
  -6  -7   1  150.68   23.40
   5   7  -1  397.46   50.59
   5   7  -1  388.56   27.40
   5   7  -1  316.77   41.70
  -5  -7   1  348.67   65.79
  -5  -7   1  367.46   34.00
  -5  -7   1  316.57   25.90
   4   7  -1  252.97   25.20
   4   7  -1  209.58   22.80
   4   7  -1  281.17   23.60
  -4  -7   1  226.38   62.59
  -4  -7   1  230.88   25.20
  -4  -7   1  223.98   24.80
  -4  -7   1   82.89   38.10
   3   7  -1  219.68   22.80
   3   7  -1  173.68   14.20
   3   7  -1  235.68   23.10
   3   7  -1  222.88   22.20
  -3  -7   1  234.88   46.60
  -3  -7   1  171.68   19.40
  -3  -7   1  173.48   51.49
  -3  -7   1  206.18   21.60
   2   7  -1   19.80    9.10
   2   7  -1   14.10    6.50
   2   7  -1   19.50    9.10
   2   7  -1   26.20    9.00
  -2  -7   1   23.60    8.90
  -2  -7   1   31.70    9.60
  -2  -7   1   22.40   20.40
  -2  -7   1   22.80   16.90
  -2  -7   1   33.20    9.10
   1   7  -1  441.16   22.90
   1   7  -1  421.36   24.20
   1   7  -1  443.46   22.90
   1   7  -1  466.85   21.40
  -1  -7   1  429.06   22.40
  -1  -7   1  375.86   56.79
  -1  -7   1  389.46   21.50
  -1  -7   1  486.65   60.59
  -1  -7   1  360.96   45.80
   0   7  -1  336.67   19.00
   0   7  -1  383.46   19.90
   0   7  -1  378.86   22.70
   0   7  -1  385.16   19.50
   0  -7   1  408.76   21.10
   0  -7   1  380.96   42.70
   0  -7   1  359.26   14.70
   0  -7   1  357.16   23.80
  -1   7  -1  632.24   25.00
  -1   7  -1  589.34   23.10
  -1   7  -1  621.94   27.70
  -1   7  -1  664.53   28.50
   1  -7   1  657.73   26.50
   1  -7   1  662.73   29.90
   1  -7   1  736.73   83.99
  -2   7  -1   87.79   13.50
  -2   7  -1  131.79   13.70
  -2   7  -1  105.79    9.90
   2  -7   1  160.98   19.50
   2  -7   1  103.19   13.90
   2  -7   1  107.59   37.90
   2  -7   1  102.89   11.10
  -3   7  -1    0.80    4.10
  -3   7  -1    3.40    4.70
  -3   7  -1    6.50    6.70
   3  -7   1   -0.90    4.30
   3  -7   1    3.60   13.50
   3  -7   1   11.30    5.60
   3  -7   1   -2.50    6.10
  -4   7  -1  641.74   27.20
  -4   7  -1  673.13   30.10
  -4   7  -1  681.53   25.10
   4  -7   1  664.93   24.90
   4  -7   1  705.13   34.60
   4  -7   1  677.23   25.70
   4  -7   1  555.04   84.29
  -5   7  -1    2.10    5.90
  -5   7  -1   -5.10    6.30
   5  -7   1    2.30    5.80
   5  -7   1   -3.30    6.20
   5  -7   1    9.70   18.90
   5  -7   1    9.70    9.40
  -6   7  -1   89.79   15.70
   6  -7   1  166.08   20.20
   6  -7   1   43.90   30.90
   6  -7   1   95.89   14.50
   6  -7   1  116.29   19.50
  -7   7  -1   15.80   11.70
   7  -7   1    9.80   11.20
   7  -7   1   21.60   12.20
  -8   7  -1    0.00   10.90
   8  -7   1    3.50   12.60
   8  -7   1    4.70    8.80
   8  -7   1   17.40   14.80
  -9   7  -1  -13.00   11.50
   9  -7   1   -5.00   13.60
   9  -7   1   -1.10    9.40
   9  -7   1   -6.40   13.50
 -10   7  -1   -0.20   15.70
  10  -7   1    2.80   19.50
  10  -7   1   32.10   19.20
   8   6  -1  119.19   22.00
   8   6  -1   86.79   20.90
   8   6  -1  140.99   23.60
  -8  -6   1  129.49   27.40
  -8  -6   1  167.98   27.10
   7   6  -1   94.09   17.90
   7   6  -1  100.09   19.30
   7   6  -1   77.29   18.90
  -7  -6   1   61.99   17.00
  -7  -6   1   92.09   22.00
   6   6  -1    7.80   10.30
   6   6  -1    9.20   11.00
   6   6  -1   11.10    9.70
  -6  -6   1    1.40    9.70
  -6  -6   1    0.30   12.00
  -6  -6   1   24.50   35.90
   5   6  -1  399.36   28.70
   5   6  -1  444.86   27.40
   5   6  -1  449.76   27.40
  -5  -6   1  448.46   31.30
  -5  -6   1  402.66   65.79
  -5  -6   1  460.65   28.40
  -5  -6   1  385.16   79.99
   4   6  -1  599.24   30.10
   4   6  -1  621.14   29.60
   4   6  -1  630.94   23.70
   4   6  -1  594.54   41.20
  -4  -6   1  564.24   31.10
  -4  -6   1  598.14   96.39
  -4  -6   1  648.14   77.09
  -4  -6   1  661.33   30.80
   3   6  -1 1111.59   31.30
   3   6  -1 1110.99   39.20
   3   6  -1 1201.58   39.60
   3   6  -1 1097.59   37.60
  -3  -6   1 1158.18   37.70
  -3  -6   1 1017.90   90.59
  -3  -6   1 1100.29   38.50
  -3  -6   1 1217.28   98.49
   2   6  -1  118.09   14.90
   2   6  -1   91.59   10.70
   2   6  -1  113.19   14.00
   2   6  -1  117.69   14.40
  -2  -6   1  106.79   13.60
  -2  -6   1  163.98   43.30
  -2  -6   1  109.39   13.60
  -2  -6   1  167.18   33.30
  -2  -6   1  122.09   26.50
  -2  -6   1  130.59   14.70
   1   6  -1   31.90    6.80
   1   6  -1   27.00    9.10
   1   6  -1   24.10    7.40
   1   6  -1   41.00    8.90
  -1  -6   1   17.10   12.70
  -1  -6   1   30.90   18.50
  -1  -6   1   23.40   13.30
  -1  -6   1   20.40    6.90
  -1  -6   1   34.50    8.40
   0   6  -1 1957.70   41.70
   0   6  -1 1981.80   47.20
   0   6  -1 1928.41   43.60
   0   6  -1 2000.80   43.20
   0  -6   1 1992.90   47.60
   0  -6   1 1877.61   94.09
   0  -6   1 1933.51   70.09
   0  -6   1 1914.41   43.50
  -1   6  -1 1918.01  250.07
  -1   6  -1 2130.99   44.10
  -1   6  -1 2147.69   45.10
  -1   6  -1 2204.98   49.40
   1  -6   1 2001.80  102.49
   1  -6   1 2043.00   42.50
   1  -6   1 2102.99   46.10
   1  -6   1 2117.99   50.79
   1  -6   1 2234.98  285.97
   1  -6   1 2128.79   62.69
  -2   6  -1  948.31   26.80
  -2   6  -1  921.61   28.40
  -2   6  -1  952.10   31.20
  -2   6  -1  992.60  266.67
   2  -6   1  936.01   20.30
   2  -6   1  655.93  268.77
   2  -6   1  924.61   34.20
   2  -6   1  876.51   71.79
  -3   6  -1   74.39   10.10
  -3   6  -1   67.59   11.20
  -3   6  -1   89.19   10.40
   3  -6   1   57.89    9.00
   3  -6   1   62.89   12.80
   3  -6   1   55.79    8.30
   3  -6   1   29.80   20.70
  -4   6  -1  204.18   15.00
  -4   6  -1  212.68   19.40
   4  -6   1  172.08   42.00
   4  -6   1  222.28   19.40
   4  -6   1  230.88   14.50
   4  -6   1  262.27   16.70
  -5   6  -1 1711.43   45.30
  -5   6  -1 1600.34   46.30
   5  -6   1 1681.93   46.90
   5  -6   1 1591.64   51.39
   5  -6   1 1511.85  108.99
   5  -6   1 1692.63   42.40
  -6   6  -1  835.52   35.20
   6  -6   1  804.42   35.70
   6  -6   1  848.72   31.20
   6  -6   1  877.91  111.69
   6  -6   1  773.82   46.70
  -7   6  -1  184.28   23.20
   7  -6   1  200.38   24.50
   7  -6   1  215.48   82.49
   7  -6   1  230.58   21.70
   7  -6   1  239.58   26.80
  -8   6  -1   46.60   15.50
   8  -6   1   64.89   14.70
   8  -6   1   80.19   19.50
   8  -6   1   69.49   17.00
  -9   6  -1   35.50   19.10
   9  -6   1   84.79   21.30
   9  -6   1   80.49   21.30
 -10   6  -1   45.90   20.50
  10  -6   1   35.80   20.20
  10  -6   1   49.90   16.40
   9   5  -1   15.50   14.50
   9   5  -1   10.10   16.80
  -9  -5   1   28.50   19.90
  -9  -5   1   19.00   17.60
   8   5  -1   55.49   23.10
  -8  -5   1   87.69   27.70
  -8  -5   1   60.59   18.70
   7   5  -1  202.38   23.60
   7   5  -1  160.68   22.00
   7   5  -1  161.68   24.40
  -7  -5   1  130.99   21.90
  -7  -5   1  184.48   50.39
  -7  -5   1  172.58   26.90
   6   5  -1   79.79   15.60
   6   5  -1   78.79   15.00
   6   5  -1   68.19   15.70
  -6  -5   1   64.69   15.60
  -6  -5   1   88.99   19.30
  -6  -5   1  104.59   39.30
   5   5  -1  133.29   16.50
   5   5  -1  184.28   22.00
   5   5  -1  187.28   20.70
  -5  -5   1  171.18   54.09
  -5  -5   1  150.88   41.30
  -5  -5   1  158.48   19.70
  -5  -5   1  185.08   23.30
   4   5  -1  321.67   22.30
   4   5  -1  359.06   21.80
   4   5  -1  352.66   16.30
   4   5  -1  350.86   21.10
  -4  -5   1  345.77   23.80
  -4  -5   1  350.96   22.10
  -4  -5   1  392.56   30.10
  -4  -5   1  380.56   72.89
  -4  -5   1  370.16   56.29
   3   5  -1  950.70   33.20
   3   5  -1 1019.40   40.70
   3   5  -1  999.10   33.10
   3   5  -1  993.30   28.90
  -3  -5   1 1048.90   35.40
  -3  -5   1 1025.40   68.59
  -3  -5   1  964.80   82.69
  -3  -5   1  991.90   33.10
   2   5  -1  881.81   30.30
   2   5  -1  838.12  183.88
   2   5  -1  907.31   29.40
   2   5  -1  949.11   31.00
   2   5  -1  860.91   29.20
  -2  -5   1  880.51   28.80
  -2  -5   1  879.21   29.50
  -2  -5   1  882.71   49.20
  -2  -5   1  878.31   69.49
  -2  -5   1  886.91   57.29
   1   5  -1   60.49   11.40
   1   5  -1   53.39    8.60
   1   5  -1   60.09    9.90
   1   5  -1   94.39   11.00
  -1  -5   1  102.39   28.10
  -1  -5   1   83.09   10.40
  -1  -5   1   63.99   19.60
  -1  -5   1   85.89   10.60
  -1  -5   1   74.59   19.20
  -1  -5   1  135.29   87.79
   0   5  -1  372.16   15.80
   0   5  -1  304.47  114.79
   0   5  -1  343.37   16.00
   0   5  -1  350.66   17.60
   0  -5   1  509.55   57.49
   0  -5   1  540.55  134.39
   0  -5   1  380.76   18.10
   0  -5   1  323.07   29.60
   0  -5   1  353.76   27.90
   0  -5   1  384.56   17.10
  -1   5  -1 1710.03   39.60
  -1   5  -1 1753.32   36.50
  -1   5  -1 2145.69  232.98
  -1   5  -1 1761.52   37.10
   1  -5   1 1811.82   39.10
   1  -5   1 1685.33  229.88
   1  -5   1 1686.43   49.90
   1  -5   1 1776.92   88.19
   1  -5   1 1691.33   41.80
  -2   5  -1 2569.74  303.87
  -2   5  -1 2034.20   41.20
  -2   5  -1 1984.20   43.60
   2  -5   1 1995.50   48.10
   2  -5   1 1924.81   97.99
   2  -5   1 2032.10   35.80
   2  -5   1 1963.30   35.90
   2  -5   1 1635.94  285.87
  -3   5  -1  439.96  262.77
  -3   5  -1  840.22   25.60
  -3   5  -1  826.92   27.10
   3  -5   1  911.91  109.59
   3  -5   1  819.42   23.20
   3  -5   1  796.02   24.80
   3  -5   1  874.61   31.90
   3  -5   1  563.94  256.27
  -4   5  -1   49.70    8.50
  -4   5  -1   29.10    8.00
  -4   5  -1  -37.90  324.07
   4  -5   1   27.20   17.50
   4  -5   1   50.79    9.80
   4  -5   1   36.30    7.20
   4  -5   1  -63.59  372.56
   4  -5   1   54.89   11.70
  -5   5  -1  475.75   27.00
  -5   5  -1  448.46   23.90
   5  -5   1  416.66   24.70
   5  -5   1  476.45   21.00
   5  -5   1  491.95   72.59
   5  -5   1  407.36   23.60
  -6   5  -1  905.91   40.10
  -6   5  -1  904.61   36.40
   6  -5   1  864.51   37.10
   6  -5   1  892.61   36.90
   6  -5   1  862.81   82.69
   6  -5   1  924.21   40.50
  -7   5  -1  787.32   36.70
  -7   5  -1  627.54   37.30
   7  -5   1  749.92   30.70
   7  -5   1  741.03   37.70
   7  -5   1  537.55   82.39
   7  -5   1  739.63   34.90
  -8   5  -1   57.19   18.80
  -8   5  -1   45.90   15.00
   8  -5   1   36.30   13.60
   8  -5   1   39.10   11.20
   8  -5   1   48.00   16.60
   8  -5   1    5.50   18.20
  -9   5  -1    0.70   14.60
  -9   5  -1   10.00   12.80
   9  -5   1   -4.70   12.90
   9  -5   1    1.80    9.30
 -10   5  -1  105.49   23.10
 -10   5  -1   79.99   30.50
  10  -5   1   95.49   25.20
  10  -5   1   85.89   19.00
   9   4  -1   -6.90   10.80
   9   4  -1    2.10   13.90
  -9  -4   1   -2.20   14.30
  -9  -4   1    2.20   14.50
   8   4  -1   16.50   14.00
   8   4  -1   30.50   13.20
  -8  -4   1   28.40   16.30
  -8  -4   1    7.50   13.50
   7   4  -1   -1.10    7.90
   7   4  -1    1.10    9.70
   7   4  -1    0.40   11.60
  -7  -4   1    8.30    6.70
  -7  -4   1    2.70   21.80
  -7  -4   1   13.20   13.10
  -7  -4   1   10.70   32.10
  -7  -4   1    2.10    9.70
   6   4  -1   74.29   15.60
   6   4  -1   73.39   13.30
   6   4  -1   79.89   14.50
  -6  -4   1   79.59   34.30
  -6  -4   1   55.89   13.60
  -6  -4   1  107.89   48.00
  -6  -4   1   58.89   15.90
   5   4  -1   35.60   10.50
   5   4  -1   38.20    9.70
   5   4  -1   38.60   11.40
  -5  -4   1   64.09   27.40
  -5  -4   1   71.89   15.00
  -5  -4   1   33.60   10.90
  -5  -4   1   30.70   28.90
   4   4  -1   82.99   11.80
   4   4  -1 -241.78  215.08
   4   4  -1   73.49   11.40
   4   4  -1   67.19   12.00
  -4  -4   1  116.19   40.60
  -4  -4   1   81.69   12.60
  -4  -4   1   78.79   11.50
  -4  -4   1   76.39   14.20
  -4  -4   1   56.79   22.70
   3   4  -1   41.00    8.40
   3   4  -1   41.40    9.40
   3   4  -1 -179.08  141.29
   3   4  -1   18.50    7.00
  -3  -4   1   16.70    6.50
  -3  -4   1   51.99   10.20
  -3  -4   1   16.10   13.60
  -3  -4   1   28.80   20.80
   2   4  -1  216.28   25.70
   2   4  -1  195.38   13.00
   2   4  -1  168.58   13.00
   2   4  -1  206.48  103.29
  -2  -4   1  211.28   33.50
  -2  -4   1  172.98   12.60
  -2  -4   1  167.58   23.80
   1   4  -1  317.57   14.50
   1   4  -1  312.17   15.70
   1   4  -1  437.26   92.99
  -1  -4   1  311.77   28.90
  -1  -4   1  312.87   42.00
  -1  -4   1  319.47   34.90
  -1  -4   1  309.47   70.49
   0   4  -1   29.80   86.39
   0   4  -1   88.99   10.00
   0  -4   1  306.47  108.49
   0  -4   1  127.49   20.60
   0  -4   1  123.39   25.30
   0  -4   1   83.29   15.30
  -1   4  -1    5.70    3.10
  -1   4  -1   97.89  118.89
  -1   4  -1    7.20    4.50
   1  -4   1   -1.50    3.60
   1  -4   1    1.90    4.40
   1  -4   1    2.50    6.50
   1  -4   1  -23.90  129.89
  -2   4  -1  400.46   15.60
  -2   4  -1  412.76   17.10
  -2   4  -1  436.86   19.50
  -2   4  -1  573.14  182.88
   2  -4   1  407.96   14.80
   2  -4   1  130.39  170.98
   2  -4   1  422.96   19.20
   2  -4   1  379.86   47.40
  -3   4  -1  717.93  235.18
  -3   4  -1  554.14   23.80
  -3   4  -1  598.04   20.20
  -3   4  -1  553.74   25.90
   3  -4   1  585.14   51.99
   3  -4   1  899.91  251.67
   3  -4   1  561.54   18.20
   3  -4   1  550.64   20.80
   3  -4   1  590.14   24.10
  -4   4  -1  162.48   32.70
  -4   4  -1  207.68  293.97
  -4   4  -1  252.67   28.50
  -4   4  -1  235.08   15.50
   4  -4   1  209.38   15.20
   4  -4   1  195.78   40.70
   4  -4   1  192.58   12.30
   4  -4   1  778.82  310.87
   4  -4   1  243.38   16.70
  -5   4  -1   15.70   12.90
  -5   4  -1   42.10   15.90
  -5   4  -1   12.20   12.60
  -5   4  -1   25.50    8.30
  -5   4  -1   27.50    7.50
   5  -4   1   36.00   21.80
   5  -4   1   35.60    9.30
   5  -4   1 -633.04  631.54
   5  -4   1   28.10    7.50
   5  -4   1   43.80   10.70
  -6   4  -1  240.88   25.00
  -6   4  -1  242.78   19.60
  -6   4  -1  245.38   37.80
  -6   4  -1  220.28   17.20
  -6   4  -1  189.48   46.90
   6  -4   1  286.97   27.00
   6  -4   1  212.88   18.10
   6  -4   1  225.68   16.30
   6  -4   1  200.68   45.70
  -7   4  -1  527.25   28.20
  -7   4  -1  525.65   30.20
  -7   4  -1  549.85   33.70
  -7   4  -1  584.64   88.29
   7  -4   1  501.15   74.89
   7  -4   1  502.25   59.99
   7  -4   1  575.64   28.90
   7  -4   1  556.34   26.20
  -8   4  -1  152.68   24.20
   8  -4   1  110.29   40.60
   8  -4   1  146.29   18.70
   8  -4   1  138.79   23.10
  -9   4  -1   64.19   18.30
  -9   4  -1   36.10   18.00
   9  -4   1   53.79   19.50
   9  -4   1   66.09   14.90
 -10   4  -1   30.20   19.60
 -10   4  -1   35.40   18.00
  10  -4   1   20.60   12.90
  10  -4   1   30.40   19.30
  10   3  -1  121.29   25.20
 -10  -3   1  185.48   29.10
 -10  -3   1  141.29   20.80
 -10  -3   1  139.19   30.00
   9   3  -1  100.09   22.50
   9   3  -1   92.39   17.60
  -9  -3   1   79.89   28.90
  -9  -3   1  100.09   17.80
  -9  -3   1  112.09   32.60
   8   3  -1  366.46   36.60
   8   3  -1  249.97   25.00
  -8  -3   1  253.07   28.00
  -8  -3   1  347.67   71.69
  -8  -3   1  221.28   30.30
  -8  -3   1  240.68   21.90
   7   3  -1  381.96   24.50
   7   3  -1  411.96   29.10
  -7  -3   1  434.36   22.90
  -7  -3   1  338.87   33.20
  -7  -3   1  423.56   93.49
  -7  -3   1  493.15   74.59
  -7  -3   1  420.06   28.30
   6   3  -1  496.55   25.10
  -6  -3   1  471.65   27.30
  -6  -3   1  499.95   21.80
  -6  -3   1  592.04   99.69
  -6  -3   1  433.96   63.69
   5   3  -1   49.20   10.90
   5   3  -1   46.60    9.80
   5   3  -1   39.30    9.60
  -5  -3   1   52.69   11.20
  -5  -3   1   53.59    8.30
  -5  -3   1   43.30   21.50
  -5  -3   1   41.70   11.30
  -5  -3   1   28.50   22.00
   4   3  -1  159.28   15.10
   4   3  -1  156.08   16.20
   4   3  -1  142.39   14.70
   4   3  -1  205.08  203.28
  -4  -3   1  141.19    8.90
  -4  -3   1  132.29   14.30
  -4  -3   1  157.18   17.40
  -4  -3   1  141.39   31.60
   3   3  -1  801.92   25.80
   3   3  -1  837.92   25.50
   3   3  -1  830.32   27.10
   3   3  -1 1034.80  177.58
   3   3  -1  848.52  169.58
  -3  -3   1  807.52   31.60
  -3  -3   1  881.51   69.69
   2   3  -1   37.30    6.50
   2   3  -1   53.29   87.99
   2   3  -1   41.30    7.60
  -2  -3   1   59.19   17.10
  -2  -3   1   89.99   24.90
  -2  -3   1   88.39   98.99
   1   3  -1  621.34   93.59
  -1  -3   1  587.94   33.90
  -1  -3   1  621.34   83.19
  -1  -3   1  577.64   39.80
  -1  -3   1  575.34   32.40
   0   3  -1  236.08   74.09
   0  -3   1   25.20   76.29
   0  -3   1  169.48   25.70
   0  -3   1  163.68   19.70
   0  -3   1  106.69   14.90
  -1   3  -1  457.85  113.49
  -1   3  -1  520.05   22.10
   1  -3   1  652.93  134.59
   1  -3   1  569.44   40.20
  -2   3  -1  144.29  152.28
  -2   3  -1  204.38   14.30
   2  -3   1  325.47   42.50
   2  -3   1  294.37  134.89
  -3   3  -1  293.07   36.70
  -3   3  -1  269.77   13.90
  -3   3  -1  261.47   21.00
  -3   3  -1  499.95  204.98
  -3   3  -1  289.77   13.20
   3  -3   1  242.68   14.10
   3  -3   1  183.68  177.28
   3  -3   1  277.07   12.20
   3  -3   1  277.67   15.20
   3  -3   1  266.17   40.10
  -4   3  -1 -214.98  257.47
  -4   3  -1   -4.30    5.30
  -4   3  -1   -0.50    4.70
  -4   3  -1   16.70   11.50
   4  -3   1   15.50   12.90
   4  -3   1   11.10    6.10
   4  -3   1    6.20    3.80
   4  -3   1  119.29  265.87
   4  -3   1    7.80    4.90
  -5   3  -1   -1.70    5.70
  -5   3  -1    0.70    7.80
  -5   3  -1   15.10   16.60
  -5   3  -1   41.50  375.66
   5  -3   1    6.10   11.50
   5  -3   1    2.40    5.10
   5  -3   1   -1.90    5.60
   5  -3   1   -0.40    3.90
   5  -3   1 -592.24  323.07
  -6   3  -1   57.39   12.30
  -6   3  -1   79.39   18.40
  -6   3  -1   81.39   24.30
  -6   3  -1   53.39   29.30
  -6   3  -1   56.09   11.70
   6  -3   1   67.59   10.20
   6  -3   1   42.80    9.40
   6  -3   1 -249.18  543.25
   6  -3   1   56.89   12.60
   6  -3   1   54.19   23.30
   6  -3   1  557.34  475.65
   6  -3   1   75.39   11.20
  -7   3  -1   16.20   11.00
  -7   3  -1    7.60   15.10
  -7   3  -1    8.30    8.70
  -7   3  -1    6.60    9.00
  -7   3  -1   -2.00   14.20
   7  -3   1   13.60   10.00
   7  -3   1    9.60   15.70
   7  -3   1    0.50    5.90
   7  -3   1    7.20    6.90
  -8   3  -1   -8.90   18.80
  -8   3  -1   20.50   12.80
  -8   3  -1   -1.90    9.90
  -8   3  -1    2.70   10.30
  -8   3  -1   32.90   23.00
   8  -3   1    6.90   12.50
   8  -3   1    7.50    8.70
  -9   3  -1   20.50   15.80
  -9   3  -1    3.60   13.20
  -9   3  -1    9.80   12.80
  -9   3  -1   -0.90   27.00
   9  -3   1   10.50    9.10
   9  -3   1    4.80   14.10
 -10   3  -1    7.10   16.90
 -10   3  -1   -8.30   14.20
 -10   3  -1   12.20   15.00
  10  -3   1  -10.40    9.20
  10   2  -1  185.28   29.60
 -10  -2   1  228.38   32.30
 -10  -2   1  194.68   25.00
 -10  -2   1  205.58   34.20
   9   2  -1   -2.90   10.70
   9   2  -1   -5.20    9.20
  -9  -2   1   -9.60   11.10
  -9  -2   1   13.20   12.20
  -9  -2   1   -1.40   11.30
   8   2  -1   -0.30    7.10
   8   2  -1    5.10   10.50
   8   2  -1   14.20    9.30
  -8  -2   1   21.00   16.40
  -8  -2   1    3.60   16.60
  -8  -2   1   -9.10   16.60
  -8  -2   1   17.30   14.20
   7   2  -1  266.07   25.90
   7   2  -1  297.67   20.80
   7   2  -1  313.57   18.30
  -7  -2   1  288.37   23.10
  -7  -2   1  167.68   44.60
  -7  -2   1  355.56   80.39
  -7  -2   1  352.46   27.80
  -7  -2   1  359.16   22.40
   6   2  -1  772.02   29.00
   6   2  -1  725.33   32.10
   6   2  -1  774.62   29.10
  -6  -2   1  537.55   89.99
  -6  -2   1  842.92   70.89
  -6  -2   1  705.43   31.40
  -6  -2   1  756.02   28.60
  -6  -2   1  814.92   36.80
   5   2  -1  737.23   30.80
   5   2  -1  668.33   26.00
   5   2  -1  722.23   26.00
   5   2  -1  688.93   21.10
   5   2  -1  631.84  271.77
  -5  -2   1  775.22   39.10
  -5  -2   1  761.12   61.39
  -5  -2   1  696.83   89.69
  -5  -2   1  733.23   32.00
   4   2  -1   31.40    7.60
   4   2  -1  208.78  186.18
   4   2  -1   44.40    7.90
   4   2  -1   54.49    9.50
   4   2  -1   29.50    5.30
  -4  -2   1   38.20    6.60
  -4  -2   1   15.10   14.80
  -4  -2   1   34.60    8.20
  -4  -2   1   39.90    9.70
  -4  -2   1   24.00   14.60
   3   2  -1  752.82  155.48
   3   2  -1  535.65  160.98
   3   2  -1  636.24   21.60
   3   2  -1  620.94   20.60
   3   2  -1  628.54   20.00
  -3  -2   1  708.63   58.69
  -3  -2   1  713.33   46.90
  -3  -2   1  715.53   24.10
  -3  -2   1  651.73   17.40
  -3  -2   1  645.54   21.80
   2   2  -1  353.86   93.29
  -2  -2   1  459.15   32.60
  -2  -2   1  399.76   47.00
  -2  -2   1  320.97   97.29
   1   2  -1 9999.00  259.27
  -1  -2   1 9714.13  150.88
  -1  -2   1 9859.11  135.89
  -1  -2   1 9965.60  170.78
  -1  -2   1 9559.14  246.78
   0   2  -1  622.44   82.59
   0  -2   1  567.54   29.90
   0  -2   1  574.74  140.49
  -1   2  -1   72.99    9.30
   1  -2   1   81.19   17.00
   1  -2   1   51.19   77.29
  -2   2  -1  693.53  167.38
  -2   2  -1  710.73   36.70
  -2   2  -1  759.92   30.20
   2  -2   1  672.33   42.70
   2  -2   1  640.64  234.88
  -3   2  -1  672.03  190.38
  -3   2  -1  272.17   28.80
  -3   2  -1  255.27   36.10
   3  -2   1   79.69  170.68
   3  -2   1  304.77   41.00
  -4   2  -1 1923.71   72.19
  -4   2  -1 1804.82   41.60
  -4   2  -1 2705.13  412.26
  -4   2  -1 1917.71   45.80
  -4   2  -1 1839.42  107.49
   4  -2   1 2312.47  362.56
   4  -2   1 1908.31   44.70
   4  -2   1 1862.71   37.00
   4  -2   1 1818.02   83.39
  -5   2  -1  137.49   15.50
  -5   2  -1   95.19   13.80
  -5   2  -1   86.79   12.70
  -5   2  -1  469.85  368.16
  -5   2  -1  151.48   40.80
  -5   2  -1   51.89   18.90
   5  -2   1  101.89   10.90
   5  -2   1  100.19   10.60
   5  -2   1  135.29  322.27
   5  -2   1  120.19   28.70
   5  -2   1   84.59   10.90
   5  -2   1  121.09   15.60
  -6   2  -1   25.00    9.40
  -6   2  -1    8.90    8.30
  -6   2  -1   25.70   13.90
  -6   2  -1   15.50   18.00
  -6   2  -1   33.40   18.70
   6  -2   1   22.10    7.10
   6  -2   1    2.80    7.10
   6  -2   1    7.50   13.50
   6  -2   1   11.00    6.10
  -7   2  -1  244.78   47.80
  -7   2  -1  235.78   23.90
  -7   2  -1  318.97   30.90
  -7   2  -1  275.87   22.90
   7  -2   1  281.07   51.69
   7  -2   1  259.97   19.00
   7  -2   1  241.58   25.80
   7  -2   1  262.77   18.20
  -8   2  -1  375.56   64.99
  -8   2  -1  342.57   81.69
  -8   2  -1  392.36   28.80
  -8   2  -1  358.96   28.70
  -8   2  -1  356.76   29.60
   8  -2   1  298.87   22.90
   8  -2   1  303.37   21.10
  -9   2  -1  178.08   27.00
  -9   2  -1  113.49   38.40
  -9   2  -1  174.18   27.40
  -9   2  -1  175.08   24.60
   9  -2   1  172.68   21.10
 -10   2  -1   18.40   17.30
 -10   2  -1  -11.40   13.80
 -10   2  -1    6.90   15.00
  10  -2   1   24.90   12.30
  10   1  -1   22.30   20.30
  10   1  -1   36.70   13.70
 -10  -1   1   34.00   18.20
 -10  -1   1   38.40   19.20
 -10  -1   1   31.90   17.20
   9   1  -1  135.49   22.90
   9   1  -1  122.69   17.00
  -9  -1   1   99.69   20.30
  -9  -1   1  132.29   21.40
  -9  -1   1  124.49   46.90
  -9  -1   1   83.99   20.70
   8   1  -1   31.10    9.40
   8   1  -1   15.40   10.60
   8   1  -1   38.30   10.90
  -8  -1   1   39.20   13.20
  -8  -1   1   33.90   11.80
  -8  -1   1   24.70   12.80
  -8  -1   1   -8.40   18.70
  -8  -1   1    0.30   18.10
   7   1  -1   59.69   11.20
   7   1  -1   68.29   10.90
  -7  -1   1   41.30   12.40
  -7  -1   1   53.79   25.70
  -7  -1   1   65.59   12.90
  -7  -1   1   85.49   44.00
  -7  -1   1   75.29   16.10
   6   1  -1  548.35   26.30
   6   1  -1  538.05   23.10
  -6  -1   1  558.54   25.80
  -6  -1   1  618.14   91.69
  -6  -1   1  506.15   25.70
  -6  -1   1  594.24   70.39
  -6  -1   1  533.05   29.20
   5   1  -1 1235.68   35.60
   5   1  -1 1215.08   28.30
   5   1  -1  903.71  259.77
   5   1  -1 1117.79   30.90
  -5  -1   1 1147.29   33.50
  -5  -1   1 1248.38   95.39
  -5  -1   1 1175.98   35.40
  -5  -1   1 1165.78   38.40
  -5  -1   1 1214.48   73.19
   4   1  -1  836.42   21.00
   4   1  -1  823.22   25.80
   4   1  -1  864.51   25.40
   4   1  -1  812.52   23.20
   4   1  -1  809.02  237.88
  -4  -1   1  885.21   25.60
  -4  -1   1  861.31   63.29
  -4  -1   1  876.51   29.10
  -4  -1   1  851.81   27.10
  -4  -1   1  846.52   69.59
  -3  -1   1  248.98   31.70
  -3  -1   1  212.48   38.00
   2   1  -1  755.72  122.39
  -2  -1   1  900.71  129.39
  -2  -1   1  696.23   36.70
  -2  -1   1  661.53   43.80
   1   1  -1   88.39   44.30
  -1  -1   1   85.29   14.90
  -1  -1   1   82.29   12.20
  -1  -1   1   44.10   43.60
   0   1  -1 1706.23   32.70
   0  -1   1 1759.52  109.99
   0  -1   1 1712.23   41.70
  -1   1  -1  485.85   24.00
  -1   1  -1  431.26   19.30
  -1   1  -1  457.25   87.79
   1  -1   1  466.95   88.49
   1  -1   1  440.96   25.70
  -2   1  -1  560.14   29.20
  -2   1  -1  617.94   39.00
  -2   1  -1  538.35  137.59
   2  -1   1  530.45   32.80
   2  -1   1  716.83  142.79
  -3   1  -1 1430.26   74.39
  -3   1  -1 1496.25   58.09
   3  -1   1 1902.61  257.37
   3  -1   1 1502.95   62.29
  -4   1  -1 2361.36   85.49
  -4   1  -1 2361.06   48.70
  -4   1  -1 2238.58   46.70
  -4   1  -1 2456.85  354.66
  -4   1  -1 2291.87  110.19
  -4   1  -1 2268.57   49.30
   4  -1   1 2033.40  334.77
   4  -1   1 2178.28   83.89
   4  -1   1 2227.38   40.70
  -5   1  -1 1668.93  106.29
  -5   1  -1 1735.13   46.00
  -5   1  -1 1662.33   80.59
  -5   1  -1 1604.64   44.40
  -5   1  -1 1728.43   44.10
   5  -1   1 1779.12   81.89
   5  -1   1 1247.38  362.26
   5  -1   1 1691.93   39.20
   5  -1   1 1657.43   37.50
   5  -1   1 1741.23   46.40
  -6   1  -1  160.78   39.00
  -6   1  -1  141.79   18.70
  -6   1  -1  136.69   17.10
  -6   1  -1  150.88   18.90
  -6   1  -1  175.28   51.39
   6  -1   1  175.68   16.00
   6  -1   1  177.08   19.90
   6  -1   1  156.18   16.20
   6  -1   1  178.28   35.70
  -7   1  -1  205.18   23.00
  -7   1  -1  167.88   41.40
  -7   1  -1  172.08   21.90
  -7   1  -1  157.08   51.59
  -7   1  -1  147.59   20.70
   7  -1   1  140.39   17.40
   7  -1   1  157.38   16.80
  -8   1  -1  505.25   33.70
  -8   1  -1  351.96   29.20
  -8   1  -1  470.25   31.00
  -8   1  -1  459.65   72.09
   8  -1   1  441.46   27.60
   8  -1   1  466.85   25.70
  -9   1  -1  728.03   41.10
  -9   1  -1  671.83   41.50
  -9   1  -1  654.73   42.40
  -9   1  -1  780.72   97.49
   9  -1   1  737.13   34.60
   9  -1   1  655.13   37.00
 -10   1  -1   75.69   21.40
 -10   1  -1   90.89   24.90
 -10   1  -1   61.69   19.90
  10  -1   1   64.39   16.10
  11   0  -1   28.90   16.80
  11   0  -1   22.20   14.10
 -11   0   1    2.60   16.60
  10   0  -1    2.90    9.80
  10   0  -1   18.20   13.70
 -10   0   1    7.70   14.10
 -10   0   1  -10.50   12.30
 -10   0   1    7.50   17.60
   9   0  -1   41.10   12.10
   9   0  -1   40.70   14.90
  -9   0   1   40.00   15.00
  -9   0   1   74.49   18.50
  -9   0   1   70.59   20.00
  -9   0   1   19.50   37.00
   8   0  -1   17.40   10.90
   8   0  -1   25.40    9.20
  -8   0   1   14.00   37.90
  -8   0   1   34.70   23.10
  -8   0   1   44.60   15.40
  -8   0   1   24.20   11.60
  -8   0   1   33.10   12.50
   7   0  -1   41.10   10.80
   7   0  -1   38.40    8.90
  -7   0   1   38.90   31.30
  -7   0   1   71.69   30.40
  -7   0   1   34.60   12.00
  -7   0   1   46.60   12.80
   6   0  -1    6.80    5.50
   6   0  -1   28.20   13.00
   6   0  -1   -1.30    6.70
   6   0  -1   18.60    7.30
   6   0  -1   15.00    5.90
  -6   0   1   23.30   21.80
  -6   0   1   14.60    8.50
  -6   0   1    7.10    6.50
  -6   0   1    8.60    7.00
  -6   0   1    3.10   12.20
   5   0  -1  137.39   10.00
   5   0  -1 -237.68  269.67
   5   0  -1  214.18  238.08
   5   0  -1  141.79   13.70
   5   0  -1  142.99   10.60
   5   0  -1  159.78   23.80
  -5   0   1  134.69   15.50
  -5   0   1  162.18   32.30
  -5   0   1  138.99   14.20
  -5   0   1  133.69   37.10
  -5   0   1  130.29   14.40
   4   0  -1 -238.78  192.98
   4   0  -1  -67.69  174.38
  -4   0   1  102.99   23.40
  -4   0   1   98.59   30.90
   3   0  -1  558.84  157.58
   3   0  -1  452.15   24.80
  -3   0   1  427.16   31.60
  -3   0   1  405.76   49.40
   2   0  -1  980.80   32.30
   2   0  -1 1116.29  145.29
  -2   0   1 1111.59  151.98
  -2   0   1 1045.80   39.90
  -2   0   1 1068.29   51.19
   1   0  -1 1466.15   35.40
   1   0  -1 1605.74  106.79
   1   0  -1 1432.56   37.80
  -1   0   1 1394.16   33.90
  -1   0   1 1512.45   99.49
  -1   0  -1   -0.90    3.50
  -1   0  -1   31.50   55.59
  -1   0  -1    5.50    6.80
   1   0   1    9.90    5.70
   1   0   1    4.30   55.49
  -2   0  -1  585.24  125.79
  -2   0  -1  655.83   34.90
  -2   0  -1  692.73   46.20
   2   0   1  720.53   33.90
   2   0   1  800.72  148.29
  -3   0  -1  134.09  152.48
  -3   0  -1   70.99   17.60
  -3   0  -1   70.29   22.70
   3   0   1   84.29   18.30
   3   0   1  159.58  143.69
  -4   0  -1  998.70   66.69
  -4   0  -1  962.10   29.60
  -4   0  -1  994.10   29.30
  -4   0  -1 1164.18  346.37
  -4   0  -1  893.41   72.89
  -4   0  -1 1011.20   32.10
   4   0   1 1011.60   52.19
   4   0   1 1032.70   28.40
   4   0   1  988.60   24.70
   4   0   1 1297.47  326.67
  -5   0  -1  515.55   24.00
  -5   0  -1  578.44   27.30
  -5   0  -1  575.04   25.30
  -5   0  -1  585.74   50.89
  -5   0  -1  494.15   74.79
   5   0   1  604.04   43.80
   5   0   1  559.54   20.60
   5   0   1  521.45   22.70
  -6   0  -1  359.76   75.39
  -6   0  -1  238.58   19.40
  -6   0  -1  252.17   19.80
  -6   0  -1  299.47   50.99
  -6   0  -1  269.27   21.80
   6   0   1  246.78   38.60
   6   0   1  265.27   18.70
   6   0   1  249.78   15.90
  -7   0  -1   18.00   18.50
  -7   0  -1   12.60   23.70
  -7   0  -1   11.90    9.80
  -7   0  -1   29.70   11.50
  -7   0  -1    9.30   10.00
   7   0   1   12.90    7.30
   7   0   1   31.80   10.90
  -8   0  -1   18.50   13.20
  -8   0  -1   19.90   15.90
  -8   0  -1   30.90   32.90
  -8   0  -1   17.60   22.10
   8   0   1   22.00    9.50
   8   0   1   17.10   10.90
  -9   0  -1  480.05   38.80
  -9   0  -1  466.65  102.59
  -9   0  -1  505.85   35.90
  -9   0  -1  459.05   34.10
   9   0   1  433.46   27.80
   9   0   1  420.06   32.30
 -10   0  -1  244.48   32.30
 -10   0  -1  150.08   25.90
 -10   0  -1  206.68   32.30
  10   0   1  211.18   24.00
  10   0   1  196.08   28.40
  11  -1  -1    1.00   14.20
  11  -1  -1   -6.50   10.90
 -11   1   1   16.10   18.20
 -11   1   1   45.60   20.10
 -11   1   1   -4.60   15.90
  10  -1  -1   69.59   19.10
  10  -1  -1   61.69   15.40
 -10   1   1   47.90   17.40
 -10   1   1   70.29   20.90
 -10   1   1   47.90   19.60
   9  -1  -1  400.96   29.00
   9  -1  -1  440.06   25.90
  -9   1   1  425.66   32.70
  -9   1   1  386.86   37.30
  -9   1   1  537.55   83.39
  -9   1   1  409.16   32.10
   8  -1  -1  418.66   23.50
   8  -1  -1  447.76   26.60
  -8   1   1  450.75   30.80
  -8   1   1  413.06   29.60
  -8   1   1  371.06   83.99
  -8   1   1  442.76   29.30
  -8   1   1  417.46   96.79
   7  -1  -1  109.09   17.40
   7  -1  -1  194.98   18.10
   7  -1  -1  183.48   19.10
  -7   1   1  160.58   40.00
  -7   1   1  145.19   19.40
  -7   1   1  151.58   49.30
  -7   1   1  122.39   19.40
  -7   1   1  168.68   20.50
   6  -1  -1    5.00    9.30
   6  -1  -1    2.90    6.10
   6  -1  -1 -211.88  353.76
   6  -1  -1   13.50    5.90
   6  -1  -1   16.20    8.60
  -6   1   1   12.30    7.20
  -6   1   1    4.80    6.20
  -6   1   1   -3.60   10.10
  -6   1   1    8.10   13.00
  -6   1   1    9.00    7.30
   5  -1  -1  475.65   38.60
   5  -1  -1  394.36  277.97
   5  -1  -1  459.75   17.70
   5  -1  -1  920.01  306.97
  -5   1   1  471.65   21.30
  -5   1   1  475.45   22.80
  -5   1   1  576.24   74.69
   4  -1  -1  886.41  244.78
   4  -1  -1  776.42   45.00
   4  -1  -1  854.11   21.90
   4  -1  -1  825.72  258.37
  -4   1   1  842.72   47.40
  -4   1   1  830.92   25.30
  -4   1   1  881.01   63.39
  -4   1   1  848.12   27.50
   3  -1  -1 5306.67  339.77
   3  -1  -1 4800.62  322.07
   3  -1  -1 4713.13  111.69
  -3   1   1 5071.09  131.39
  -3   1   1 4692.03  102.19
   2  -1  -1 8219.78  326.47
   2  -1  -1 8222.18  132.89
   2  -1  -1 8274.87  143.29
  -2   1   1 7850.81  329.97
  -2   1   1 8138.59  119.79
   1  -1  -1  378.46   19.00
   1  -1  -1  363.06   62.29
   1  -1  -1  424.86   25.30
  -1   1   1  490.65   74.99
   0  -1  -1   28.80    8.50
   0  -1  -1   24.30    8.40
   0  -1  -1   20.50    5.30
   0  -1  -1   23.80   33.30
   0   1   1   15.00   29.20
  -1  -1  -1 1376.16   58.49
  -1  -1  -1 1421.86  111.49
  -1  -1  -1 1339.97   44.10
   1   1   1 1366.56   39.90
   1   1   1 1385.16  113.29
  -2  -1  -1    6.90    8.70
  -2  -1  -1   -1.60   96.79
   2   1   1   47.80   11.70
   2   1   1   35.40  101.09
  -3  -1  -1    0.40    3.40
  -3  -1  -1   12.80   13.00
  -3  -1  -1   75.29  155.18
  -3  -1  -1   11.40    8.90
  -3  -1  -1    8.70    5.10
   3   1   1   14.40    9.10
   3   1   1   10.90    5.30
   3   1   1    0.60    2.90
   3   1   1   29.00  154.48
  -4  -1  -1   76.69    9.80
  -4  -1  -1   73.99   11.80
  -4  -1  -1   79.49   22.70
  -4  -1  -1   62.89    9.80
  -4  -1  -1   72.89   28.20
   4   1   1  -28.20  223.68
   4   1   1  110.49   21.30
   4   1   1   80.19    9.90
   4   1   1   76.09   10.40
   4   1   1   88.49    9.30
  -5  -1  -1    9.40    6.20
  -5  -1  -1   10.00   15.90
  -5  -1  -1    9.10    7.50
  -5  -1  -1   -0.30    8.90
   5   1   1   16.60    7.20
   5   1   1   12.10    5.10
   5   1   1  -43.30  473.15
   5   1   1   15.90   10.80
   5   1   1    7.00    5.80
  -6  -1  -1    9.70    7.70
  -6  -1  -1   22.40   11.00
  -6  -1  -1    2.60    6.80
  -6  -1  -1   24.30   25.30
  -6  -1  -1    9.80   12.70
   6   1   1   12.30    6.60
   6   1   1   18.20    7.10
   6   1   1   12.00    8.60
  -7  -1  -1  171.88   23.90
  -7  -1  -1  184.48   60.79
  -7  -1  -1  153.28   20.10
  -7  -1  -1  126.89   18.80
  -7  -1  -1  153.18   42.80
   7   1   1  171.98   21.50
   7   1   1  152.68   16.50
  -8  -1  -1   -2.30   11.60
  -8  -1  -1   30.00   13.90
  -8  -1  -1   19.60   11.60
  -8  -1  -1    6.90   19.90
   8   1   1   32.00   13.90
   8   1   1   11.70    9.30
  -9  -1  -1    3.70   12.60
  -9  -1  -1   11.70   13.80
  -9  -1  -1    5.90   13.70
   9   1   1    0.80   12.00
 -10  -1  -1   13.70   18.30
 -10  -1  -1   28.70   18.90
 -10  -1  -1   59.49   19.30
  10   1   1   49.00   18.10
  11  -2  -1   26.10   13.90
 -11   2   1   32.00   19.10
 -11   2   1   19.00   17.80
 -11   2   1    9.10   17.20
  10  -2  -1   -2.50    8.70
  10  -2  -1   -2.90   10.00
 -10   2   1   -3.40   13.70
 -10   2   1   18.50   20.90
 -10   2   1   14.60   16.10
   9  -2  -1   43.90   13.10
   9  -2  -1   70.39   14.40
  -9   2   1   48.60   15.40
  -9   2   1   42.30   15.50
  -9   2   1   65.39   33.30
  -9   2   1   75.59   18.80
  -9   2   1   14.30   27.70
   8  -2  -1 1152.48   37.50
   8  -2  -1 1064.29   46.30
   8  -2  -1 1108.89   40.40
  -8   2   1 1149.89   45.30
  -8   2   1 1316.07  119.79
  -8   2   1 1180.38   47.00
  -8   2   1 1113.29   47.20
  -8   2   1  889.01   74.19
   7  -2  -1  630.64   57.49
   7  -2  -1  606.74   37.30
   7  -2  -1  680.63   26.80
  -7   2   1  689.93   33.80
  -7   2   1  618.74   31.30
  -7   2   1  647.64   30.90
  -7   2   1  728.13   99.79
   6  -2  -1  171.78  389.76
   6  -2  -1  289.67   16.10
   6  -2  -1  294.17   17.60
   6  -2  -1  365.66   53.69
   6  -2  -1  283.67   20.70
   6  -2  -1  261.07  407.46
  -6   2   1  326.07   20.30
  -6   2   1  284.67   20.90
  -6   2   1  350.96   62.49
  -6   2   1  356.46   49.10
  -6   2   1  304.97   19.60
   5  -2  -1  203.38  282.17
   5  -2  -1  201.68   20.50
   5  -2  -1  140.49   10.60
   5  -2  -1  151.28   31.70
   5  -2  -1  137.79   11.70
   5  -2  -1   52.79  282.37
  -5   2   1  144.09   38.20
  -5   2   1  190.68   14.10
  -5   2   1  172.48   17.00
  -5   2   1  186.68   31.60
   4  -2  -1 4100.29   75.39
   4  -2  -1 4080.49  390.36
   4  -2  -1 3953.10   71.29
   4  -2  -1 4143.09  388.96
   4  -2  -1 4159.48  123.29
  -4   2   1 4003.90  113.79
  -4   2   1 4075.69   65.19
  -4   2   1 4095.89  133.99
   3  -2  -1 8734.23  154.08
   3  -2  -1 7604.44  413.06
   3  -2  -1 8517.15  177.08
   3  -2  -1 8300.57  421.76
  -3   2   1 8487.35  133.39
   2  -2  -1 5645.64  293.17
   2  -2  -1 5718.83  102.89
   2  -2  -1 5770.52  132.39
   1  -2  -1  114.59   58.59
   1  -2  -1  102.29   15.00
  -1   2   1   49.99   60.79
   0  -2  -1 1049.40   72.39
   0  -2  -1 1005.10   44.20
   0  -2  -1  966.50   44.70
   0   2   1 1012.70   68.29
  -1  -2  -1 4128.39   95.59
  -1  -2  -1 4285.77   93.99
  -1  -2  -1 4096.89  162.88
  -1  -2  -1 4189.88  118.09
   1   2   1 4401.16  214.68
  -2  -2  -1 3660.63  228.48
  -2  -2  -1 3537.95   99.49
  -2  -2  -1 3628.84   90.19
  -2  -2  -1 3616.74  128.89
   2   2   1 3323.67  220.78
  -3  -2  -1  410.76   14.40
  -3  -2  -1  449.95   64.39
  -3  -2  -1  389.16   45.40
  -3  -2  -1  406.86   17.20
   3   2   1  527.65  174.58
   3   2   1  385.56   16.40
   3   2   1  404.36   18.80
  -4  -2  -1  135.69   29.90
  -4  -2  -1  125.99   10.50
  -4  -2  -1  116.49   15.50
  -4  -2  -1  111.29   12.60
   4   2   1   99.19   11.00
   4   2   1  267.47  208.38
   4   2   1  113.29   12.30
   4   2   1   97.79   12.80
  -5  -2  -1  440.56   59.09
  -5  -2  -1  417.36   76.09
  -5  -2  -1  418.56   22.10
  -5  -2  -1  377.86   24.70
  -5  -2  -1  395.06   19.60
   5   2   1  398.76   23.50
   5   2   1  389.86   18.10
   5   2   1  398.86   20.30
  -6  -2  -1  464.85   23.90
  -6  -2  -1  426.06   25.60
  -6  -2  -1  627.54   78.69
  -6  -2  -1  452.05   88.09
   6   2   1  464.45   27.60
   6   2   1  476.85   24.30
  -7  -2  -1  276.37   31.00
  -7  -2  -1  193.28   22.60
  -7  -2  -1  213.68   69.49
  -7  -2  -1  252.17   23.00
  -7  -2  -1  226.38   52.29
   7   2   1  254.37   26.50
   7   2   1  232.88   19.10
  -8  -2  -1   15.10   12.10
  -8  -2  -1    4.20   11.30
  -8  -2  -1   33.50   15.50
  -8  -2  -1   10.80   25.80
   8   2   1   18.10   13.40
  -9  -2  -1   21.90   20.50
  -9  -2  -1    7.60   15.80
  -9  -2  -1    3.20   17.30
   9   2   1   10.60   13.80
 -10  -2  -1   -4.30   16.40
 -10  -2  -1   16.20   18.20
 -10  -2  -1   30.20   16.40
  10   2   1   -8.10   13.20
  11  -3  -1   49.90   16.00
 -11   3   1   71.79   23.80
 -11   3   1   42.00   19.70
 -11   3   1   76.59   24.60
 -10   3   1   76.59   29.80
 -10   3   1   65.59   22.50
 -10   3   1   66.49   21.00
   9  -3  -1    0.60    7.90
   9  -3  -1   22.50   15.10
   9  -3  -1   10.90   10.50
  -9   3   1    8.80   12.90
  -9   3   1    5.80   11.00
  -9   3   1   -0.90   17.90
  -9   3   1   -5.90   20.20
   8  -3  -1  494.75   58.69
   8  -3  -1  404.26   23.70
  -8   3   1  457.65   62.39
  -8   3   1  457.65   89.39
  -8   3   1  394.46   39.40
  -8   3   1  387.76   30.40
  -8   3   1  370.56   26.60
   7  -3  -1  432.06   29.70
   7  -3  -1  456.45   28.80
   7  -3  -1  524.05   71.09
   7  -3  -1  466.65   24.70
  -7   3   1  414.36   25.20
  -7   3   1  497.95   59.49
  -7   3   1  458.65   26.40
  -7   3   1  283.27   64.39
  -7   3   1  418.66   27.90
   6  -3  -1  602.54   23.60
   6  -3  -1  628.64  390.66
   6  -3  -1  441.66  454.95
   6  -3  -1  576.54   25.80
   6  -3  -1  634.14   31.30
   6  -3  -1  778.62  100.69
  -6   3   1  594.24   29.70
  -6   3   1  614.84   26.90
   5  -3  -1  185.98   12.60
   5  -3  -1  181.38   15.30
   5  -3  -1  451.55  296.47
   5  -3  -1  153.18   34.40
   5  -3  -1  188.58   14.80
  -5   3   1  197.28   41.40
  -5   3   1  176.28   16.10
  -5   3   1  149.79   16.70
  -5   3   1  187.78   28.00
   4  -3  -1  -44.90  209.28
   4  -3  -1  141.09  214.28
   4  -3  -1   17.60   11.90
   4  -3  -1   16.00    4.70
   4  -3  -1    7.70    5.10
   4  -3  -1    1.50    4.20
  -4   3   1    0.90    5.40
  -4   3   1    9.50    4.90
  -4   3   1   24.10   13.80
   3  -3  -1 1806.02   58.99
   3  -3  -1 1727.53  101.59
   3  -3  -1 1574.04  233.08
   3  -3  -1 1814.42   37.20
   3  -3  -1 1359.96  223.68
   3  -3  -1 1745.23   33.20
   2  -3  -1  760.02  145.89
   2  -3  -1 1354.46  179.28
   2  -3  -1  905.91   35.70
   2  -3  -1  863.21   54.79
   1  -3  -1  854.91   51.19
   1  -3  -1  937.81   39.30
   1  -3  -1  952.50  125.59
   1  -3  -1 1010.40  117.69
   0  -3  -1   29.00   40.70
   0  -3  -1   -1.10    7.20
  -1  -3  -1 3123.79   95.69
  -1  -3  -1 2968.20  107.39
  -1  -3  -1 2962.50   89.09
   1   3   1 2952.10  130.09
  -2  -3  -1 4969.30  128.99
  -2  -3  -1 4980.70   78.29
  -2  -3  -1 4839.82  161.68
   2   3   1 5061.99   74.19
   2   3   1 5094.69   78.29
   2   3   1 4928.31   71.99
   2   3   1 5077.39  252.17
   2   3   1 5592.44  261.27
  -3  -3  -1 2956.10   56.59
  -3  -3  -1 2985.50  108.99
  -3  -3  -1 3018.90  141.79
  -3  -3  -1 2904.71   53.69
  -3  -3  -1 3074.79   62.19
   3   3   1 2921.61   53.79
   3   3   1 2999.30   54.29
   3   3   1 2915.11   53.59
   3   3   1 2965.50   59.19
   3   3   1 2876.91  299.27
  -4  -3  -1  361.36   67.39
  -4  -3  -1  237.18   11.40
  -4  -3  -1  269.07   45.30
  -4  -3  -1  183.58   14.40
  -4  -3  -1  283.27   31.90
   4   3   1  239.28   15.80
   4   3   1  226.38   13.80
   4   3   1  236.98   31.00
   4   3   1   50.29  225.88
   4   3   1  272.57   28.90
  -5  -3  -1  382.76   87.89
  -5  -3  -1  201.28   13.40
  -5  -3  -1  260.57   25.20
  -5  -3  -1  250.27   47.10
  -5  -3  -1  218.38   17.70
   5   3   1  216.28   21.40
   5   3   1  222.28   16.90
   5   3   1  227.98   15.30
   5   3   1  222.68   16.50
  -6  -3  -1  450.65   86.99
  -6  -3  -1  498.85   27.30
  -6  -3  -1  594.94   77.79
  -6  -3  -1  483.35   31.80
   6   3   1  520.15   30.50
   6   3   1  532.95   26.80
  -7  -3  -1  231.08   25.60
  -7  -3  -1  208.58   18.90
  -7  -3  -1  281.17   59.89
  -7  -3  -1  209.38   29.20
  -7  -3  -1   71.49   44.10
   7   3   1  200.88   25.70
   7   3   1  220.28   22.00
  -8  -3  -1  321.87   23.20
  -8  -3  -1  248.78   27.60
  -8  -3  -1  293.77   35.30
   8   3   1  286.47   31.20
   8   3   1  324.37   25.00
  -9  -3  -1    0.80   14.80
  -9  -3  -1   16.40   18.70
  -9  -3  -1   11.70   15.40
   9   3   1   -7.60   11.40
  11  -4  -1   13.80   23.40
  11  -4  -1   20.40   13.10
 -11   4   1   27.90   19.80
 -11   4   1   37.20   21.20
  10  -4  -1   12.70   15.90
  10  -4  -1    7.30   10.80
 -10   4   1   13.00   16.10
 -10   4   1   16.10   15.70
   9  -4  -1   28.60   16.40
   9  -4  -1   31.70   11.50
  -9   4   1   41.70   16.00
  -9   4   1   26.00   13.00
  -9   4   1   33.90   16.90
   8  -4  -1   16.00   21.70
   8  -4  -1    0.00   10.20
   8  -4  -1   -2.00    6.90
   8  -4  -1   11.60    9.50
  -8   4   1   -2.00    9.40
  -8   4   1    8.30    9.50
  -8   4   1   15.60   23.80
  -8   4   1    3.80   10.10
   7  -4  -1   16.20   19.60
   7  -4  -1   43.60   13.30
   7  -4  -1   35.00   11.50
   7  -4  -1   27.90    8.90
  -7   4   1   29.40   23.30
  -7   4   1   33.50   10.60
  -7   4   1   35.00   12.30
   6  -4  -1   11.00    7.30
   6  -4  -1   34.90   20.20
   6  -4  -1   17.30    6.50
   6  -4  -1   21.10    9.40
  -6   4   1   14.70    8.40
  -6   4   1    9.90    7.30
  -6   4   1   18.50   11.60
  -6   4   1   28.40   19.10
   5  -4  -1  242.28   47.10
   5  -4  -1  255.37   17.00
   5  -4  -1  244.78   17.90
   5  -4  -1  228.88   17.30
   5  -4  -1  268.07  342.07
  -5   4   1  254.67   44.30
  -5   4   1  258.17   14.10
  -5   4   1  236.08   17.90
  -5   4   1  330.87   35.50
  -5   4   1  233.58   16.00
   4  -4  -1  376.56   59.89
   4  -4  -1  432.06  282.97
   4  -4  -1  270.87  283.67
   4  -4  -1  279.67   14.20
   4  -4  -1  318.07   17.20
   4  -4  -1  256.47   17.40
  -4   4   1  308.07   14.30
  -4   4   1  313.27   18.60
   3  -4  -1    9.60    5.50
   3  -4  -1   15.50    5.10
   3  -4  -1 -234.48  162.48
   3  -4  -1   19.10    8.30
   3  -4  -1   22.10    5.60
   3  -4  -1   30.60   18.80
   3  -4  -1 -365.46  173.38
  -3   4   1   20.20    4.70
   2  -4  -1  408.66  165.08
   2  -4  -1  573.94   22.50
   2  -4  -1  562.84   15.40
   2  -4  -1  562.14   49.80
   2  -4  -1  318.27  154.68
   2  -4  -1  549.95   29.20
  -2   4   1  545.45   18.00
   1  -4  -1  520.95   32.70
   1  -4  -1  405.96  106.09
   1  -4  -1  568.44   47.30
   1  -4  -1  560.94  113.69
  -1   4   1  497.35   17.30
   0  -4  -1  405.46   26.80
   0  -4  -1  387.36   35.70
   0  -4  -1  453.65   39.50
   0   4   1  371.66   15.30
  -1  -4  -1   22.50   11.50
  -1  -4  -1    9.20    8.70
  -1  -4  -1   17.70   13.80
   1   4   1   11.20    4.40
   1   4   1   20.60    5.20
   1   4   1    9.20    4.60
   1   4   1   15.70    5.70
  -2  -4  -1 1009.30   76.29
  -2  -4  -1 1003.60   58.89
  -2  -4  -1  997.10   53.89
  -2  -4  -1  907.01   37.50
  -2  -4  -1  994.20   31.50
   2   4   1 1009.90   28.60
   2   4   1 1051.89   29.40
   2   4   1 1013.30   31.10
   2   4   1 1014.00  119.69
   2   4   1 1070.99  145.99
   2   4   1  993.20   27.70
  -3  -4  -1  184.58   35.50
  -3  -4  -1  159.98   15.90
  -3  -4  -1  189.58   19.20
  -3  -4  -1  153.28   14.50
   3   4   1  183.88   12.90
   3   4   1  180.18   17.50
   3   4   1  123.69  154.48
   3   4   1  159.38   13.00
   3   4   1  154.28   13.00
  -4  -4  -1  806.12   30.20
  -4  -4  -1  881.31   33.10
  -4  -4  -1  717.53   62.09
  -4  -4  -1  855.91   35.50
  -4  -4  -1  844.22  110.59
   4   4   1  858.21   34.50
   4   4   1  847.72   30.30
   4   4   1  488.25  248.68
   4   4   1  782.02   27.20
   4   4   1  805.12   30.30
  -5  -4  -1   78.69   37.60
  -5  -4  -1   75.09   29.10
  -5  -4  -1   71.89   12.60
  -5  -4  -1   92.59   15.60
  -5  -4  -1  117.69   18.50
   5   4   1   85.99   12.00
   5   4   1  109.49   22.90
   5   4   1   89.29   13.90
  -6  -4  -1   28.40   33.50
  -6  -4  -1   -0.40   10.30
  -6  -4  -1   18.40   23.80
  -6  -4  -1   10.70    9.70
   6   4   1   11.40    9.00
   6   4   1   10.50   10.10
   6   4   1   16.30    9.40
  -7  -4  -1  278.47   28.50
  -7  -4  -1  264.97   32.40
  -7  -4  -1  220.18   58.99
   7   4   1  295.77   30.70
   7   4   1  196.38   21.90
  -8  -4  -1  263.17   29.60
  -8  -4  -1  238.38   33.60
   8   4   1  254.77   26.50
   8   4   1  205.88   28.70
  -9  -4  -1  107.79   26.60
  -9  -4  -1   60.69   20.70
   9   4   1   37.50   18.40
   9   4   1   72.99   18.40
  10  -5  -1  139.49   20.60
  10  -5  -1  120.79   27.60
 -10   5   1  138.39   25.10
 -10   5   1  184.68   31.90
   9  -5  -1   40.70   11.90
   9  -5  -1   57.49   18.40
  -9   5   1   58.99   16.90
  -9   5   1   30.10   16.90
   8  -5  -1   36.20   12.60
   8  -5  -1    7.80   19.20
   8  -5  -1   37.30   15.00
  -8   5   1   35.70   13.40
  -8   5   1   39.50   18.00
   7  -5  -1  458.25   28.70
   7  -5  -1  467.85   24.20
   7  -5  -1  431.16   73.49
   7  -5  -1  421.86   27.20
  -7   5   1  435.16   30.10
  -7   5   1  432.26   26.70
   6  -5  -1  954.60   36.80
   6  -5  -1 1023.30   84.99
   6  -5  -1  899.01   31.30
   6  -5  -1  880.91   36.90
  -6   5   1  950.90   34.80
  -6   5   1  906.81   72.89
  -6   5   1  938.81   30.70
  -6   5   1  997.60   54.49
   5  -5  -1    2.10    6.10
   5  -5  -1    2.10    4.90
   5  -5  -1   15.00   15.60
   5  -5  -1   10.50    6.20
  -5   5   1   13.30    6.90
  -5   5   1   15.40   15.60
  -5   5   1    2.90    4.10
   4  -5  -1 -572.14  263.67
   4  -5  -1  184.38   19.70
   4  -5  -1  248.28   53.19
   3  -5  -1  239.38   21.00
   3  -5  -1  220.98   12.60
   3  -5  -1  210.98   16.00
   3  -5  -1  232.78  266.87
   3  -5  -1  227.88   12.40
   3  -5  -1  273.77   53.29
  -3   5   1  219.08   13.00
  -3   5   1  208.08   12.60
   2  -5  -1  768.72   28.10
   2  -5  -1  700.83   21.10
   2  -5  -1  713.03   15.70
   2  -5  -1  648.04   58.79
   2  -5  -1  733.93   35.50
   2  -5  -1  692.23  190.98
  -2   5   1  716.53   27.50
  -2   5   1  730.43   23.30
   1  -5  -1  208.68   11.10
   1  -5  -1  179.88   38.20
   1  -5  -1  394.66  130.99
   1  -5  -1  214.98   18.70
   1  -5  -1  209.38   30.40
   1  -5  -1  153.58  107.59
  -1   5   1  186.68   11.90
  -1   5   1  210.38   12.20
  -1   5   1  190.08   12.60
   0  -5  -1  317.17   46.80
   0  -5  -1  298.27   25.70
   0  -5  -1  284.27   15.40
   0  -5  -1  313.17   44.70
   0   5   1  291.47   14.40
   0   5   1  279.77   14.80
   0   5   1  279.37   15.40
   0   5   1  271.07   22.80
  -1  -5  -1  239.68   38.40
  -1  -5  -1  268.47   36.00
  -1  -5  -1  193.88   13.20
  -1  -5  -1  205.98   12.50
  -1  -5  -1  211.48   42.30
   1   5   1  182.88   13.00
   1   5   1  189.98   13.00
   1   5   1  192.78   12.90
   1   5   1  203.48   14.60
  -2  -5  -1   38.80   16.60
  -2  -5  -1   22.10   15.40
  -2  -5  -1   18.40    6.50
  -2  -5  -1   16.00    6.70
  -2  -5  -1   21.00    7.70
  -2  -5  -1   57.49   26.80
   2   5   1   10.20    5.40
   2   5   1   14.40    5.80
   2   5   1   17.70    7.00
   2   5   1   12.70    6.90
  -3  -5  -1   28.50   24.30
  -3  -5  -1   16.60   15.80
  -3  -5  -1   17.50    7.10
  -3  -5  -1   18.60   12.90
  -3  -5  -1   13.60   10.00
  -3  -5  -1   13.90    7.70
   3   5   1    8.60    5.70
   3   5   1   21.80    7.40
   3   5   1 -113.69  150.68
   3   5   1   19.80    7.70
   3   5   1   25.30    8.40
  -4  -5  -1   55.19   25.10
  -4  -5  -1   69.59   13.00
  -4  -5  -1   44.20   12.70
  -4  -5  -1    2.70   19.50
  -4  -5  -1   60.19   11.70
   4   5   1   42.70   11.20
   4   5   1   49.60    9.50
   4   5   1   55.89   11.20
   4   5   1   52.59   11.00
  -5  -5  -1   56.29   27.50
  -5  -5  -1   51.39   35.40
  -5  -5  -1   20.10   11.50
  -5  -5  -1   22.10   12.60
  -5  -5  -1   38.30   12.00
   5   5   1   27.90    9.80
   5   5   1   22.50   10.60
   5   5   1   35.00   11.00
  -6  -5  -1   -8.20   10.00
  -6  -5  -1   33.20   38.90
  -6  -5  -1   11.50   21.80
  -6  -5  -1   19.90   11.70
   6   5   1   -0.10   11.10
   6   5   1    7.40    9.20
  -7  -5  -1   33.80   17.60
  -7  -5  -1   58.89   16.40
   7   5   1   71.49   18.60
   7   5   1   71.09   16.30
  -8  -5  -1   70.49   20.20
  -8  -5  -1   33.70   19.30
   8   5   1   23.20   16.10
   8   5   1    9.40   11.90
  10  -6  -1  392.36   30.00
  10  -6  -1  477.45   45.90
 -10   6   1  486.45   37.00
   9  -6  -1  211.68   29.70
   9  -6  -1  234.48   29.00
   9  -6  -1  249.08   26.60
  -9   6   1  223.78   26.90
   8  -6  -1   38.50   29.20
   8  -6  -1   58.99   16.20
   8  -6  -1   45.70   16.30
   8  -6  -1   53.89   12.90
  -8   6   1   37.80   14.10
   7  -6  -1   56.59   12.00
   7  -6  -1   79.89   16.60
   7  -6  -1  126.79   45.50
   7  -6  -1  108.89   19.20
  -7   6   1  101.29   17.00
   6  -6  -1  686.33   40.00
   6  -6  -1  655.03   31.40
   6  -6  -1  785.12   95.99
   6  -6  -1  687.43   27.70
  -6   6   1  635.64   26.80
  -6   6   1  731.33   30.90
   5  -6  -1 1300.47   36.30
   5  -6  -1 1260.37   45.20
   5  -6  -1 1322.27   39.80
  -5   6   1 1275.47   38.20
  -5   6   1 1292.27   36.40
   4  -6  -1  239.68   15.10
   4  -6  -1  238.78   15.10
   4  -6  -1  227.48   54.19
   4  -6  -1  263.37   20.10
  -4   6   1  263.47   16.00
  -4   6   1  237.58   15.70
  -4   6   1  255.47   13.20
   3  -6  -1    6.20    4.00
   3  -6  -1   18.10    7.70
   3  -6  -1   13.60   19.20
   3  -6  -1 -253.77  237.58
   3  -6  -1    7.80    4.90
  -3   6   1    7.70    5.70
   2  -6  -1  660.63   22.00
   2  -6  -1  694.03   22.70
   2  -6  -1  637.04  222.88
   2  -6  -1  650.43   81.69
   2  -6  -1  710.73   29.30
  -2   6   1  671.53   24.40
  -2   6   1  663.73   21.40
  -2   6   1  666.33   25.10
   1  -6  -1 1222.68   60.19
   1  -6  -1 1232.38   83.89
   1  -6  -1 1258.97   30.20
   1  -6  -1 1039.60  178.38
   1  -6  -1 1294.97   38.40
  -1   6   1 1265.17   32.90
  -1   6   1 1273.87   31.30
  -1   6   1 1312.37   35.00
  -1   6   1 1274.47   35.20
   0  -6  -1  798.82   64.59
   0  -6  -1  790.52   58.49
   0  -6  -1  782.02   28.10
   0  -6  -1  828.32   27.50
   0  -6  -1  785.42   24.00
   0  -6  -1  750.12   43.30
   0   6   1  793.72   25.80
   0   6   1  798.32   27.60
   0   6   1  758.02   26.20
   0   6   1  741.23   27.40
  -1  -6  -1  315.97   54.29
  -1  -6  -1  392.96   18.40
  -1  -6  -1  449.76   49.80
  -1  -6  -1  425.36   55.29
  -1  -6  -1  360.26   19.00
  -1  -6  -1  391.86   18.90
  -1  -6  -1  369.96   17.70
   1   6   1  418.26   20.00
   1   6   1  374.86   19.50
   1   6   1  394.06   20.40
   1   6   1  383.16   21.00
  -2  -6  -1   -1.20   13.60
  -2  -6  -1    6.00    5.90
  -2  -6  -1   -0.90    5.80
  -2  -6  -1   -1.70    4.80
  -2  -6  -1    1.90    9.50
  -2  -6  -1   -1.40    5.20
  -2  -6  -1    4.60    9.80
   2   6   1    8.70    7.10
   2   6   1    1.60    5.20
   2   6   1   -2.10    5.60
   2   6   1    0.60    4.70
  -3  -6  -1  243.48   17.60
  -3  -6  -1  262.77   61.29
  -3  -6  -1  273.27   18.70
  -3  -6  -1  241.58   23.50
  -3  -6  -1  246.28   44.10
   3   6   1  271.97   21.00
   3   6   1  260.07   18.40
   3   6   1  280.17   18.00
   3   6   1  247.48   19.00
  -4  -6  -1  723.53   32.00
  -4  -6  -1  760.62   32.80
  -4  -6  -1  778.22  111.89
  -4  -6  -1  798.62   39.20
  -4  -6  -1  821.32   72.79
   4   6   1  791.62   30.30
   4   6   1  863.71   38.10
   4   6   1  786.12   33.40
   4   6   1  799.22   33.50
  -5  -6  -1  291.37   30.20
  -5  -6  -1  257.47   57.89
  -5  -6  -1  296.17   23.80
  -5  -6  -1  321.37  125.49
   5   6   1  255.07   26.80
   5   6   1  308.67   23.70
   5   6   1  277.37   22.90
  -6  -6  -1  162.28   49.60
  -6  -6  -1  135.19   24.50
  -6  -6  -1  163.68   21.70
   6   6   1  147.39   21.20
   6   6   1  180.58   24.90
   6   6   1  146.19   20.50
  -7  -6  -1   12.70   13.30
  -7  -6  -1   11.70   15.70
   7   6   1   10.20   13.00
   7   6   1    1.50   17.50
  -8  -6  -1   -0.20   16.20
  -8  -6  -1   -4.20   13.90
   8   6   1    2.20   14.50
   8   6   1    4.20   12.90
  10  -7  -1   30.90   19.40
  10  -7  -1   32.00   13.80
 -10   7   1   34.00   18.50
   9  -7  -1  241.28   26.80
   9  -7  -1  248.88   30.40
   9  -7  -1  230.18   35.50
  -9   7   1  222.88   27.60
   8  -7  -1  206.88   28.10
   8  -7  -1  196.38   22.20
   8  -7  -1  172.48   24.70
  -8   7   1  204.38   29.20
   7  -7  -1   76.79   18.00
   7  -7  -1   54.49   13.10
   7  -7  -1   63.29   34.80
  -7   7   1   36.00   10.30
  -7   7   1   38.60   12.00
   6  -7  -1  252.77   28.60
   6  -7  -1  239.58   18.30
   6  -7  -1  253.37   20.60
   6  -7  -1  215.78   56.99
  -6   7   1  226.48   22.10
  -6   7   1  255.57   19.10
   5  -7  -1  187.88   52.19
   5  -7  -1  210.08   16.80
   5  -7  -1  246.48   26.30
   5  -7  -1  207.58   16.20
  -5   7   1  218.28   17.90
  -5   7   1  207.98   16.30
  -5   7   1  252.27   15.00
  -5   7   1  200.18   20.80
   4  -7  -1 1431.36   34.70
   4  -7  -1 1486.85  110.19
   4  -7  -1 1406.66   38.10
   4  -7  -1 1454.65   49.40
  -4   7   1 1554.84   41.80
  -4   7   1 1483.85   34.90
  -4   7   1 1473.55   42.90
   3  -7  -1  413.46   25.30
   3  -7  -1  508.95   76.89
   3  -7  -1  424.26   19.90
  -3   7   1  370.36   20.10
  -3   7   1  401.66   16.90
  -3   7   1  392.26   17.80
  -3   7   1  399.96   21.80
   2  -7  -1  119.19  237.58
   2  -7  -1   19.20    8.80
   2  -7  -1   11.70   14.70
   2  -7  -1   18.80    7.30
   2  -7  -1   22.40    6.90
  -2   7   1   22.70    6.60
  -2   7   1   15.70    7.40
  -2   7   1   19.10    7.10
  -2   7   1   13.60    6.10
   1  -7  -1  793.32   25.10
   1  -7  -1  791.02   38.50
   1  -7  -1  860.41   74.69
   1  -7  -1  753.92   51.09
  -1   7   1  730.43   26.90
  -1   7   1  790.32   29.90
  -1   7   1  810.72   29.10
  -1   7   1  749.42   26.40
   0  -7  -1 1444.96   42.10
   0  -7  -1 1470.15   95.09
   0  -7  -1 1483.45   36.60
   0  -7  -1 1390.26   63.49
   0  -7  -1 1526.45   85.99
   0  -7  -1 1381.86   34.40
   0   7   1 1489.35   42.80
   0   7   1 1499.15   40.80
   0   7   1 1377.06   55.39
  -1  -7  -1 1116.09   31.40
  -1  -7  -1 1147.99   86.09
  -1  -7  -1 1058.79   32.30
  -1  -7  -1 1072.39   78.19
  -1  -7  -1 1087.69   64.59
  -1  -7  -1 1144.89   35.10
  -1  -7  -1 1035.00   33.50
   1   7   1 1137.79   36.40
   1   7   1 1167.78   38.30
   1   7   1 1046.30   36.20
   1   7   1 1150.38   35.40
  -2  -7  -1  301.97   18.40
  -2  -7  -1  326.77   63.29
  -2  -7  -1  328.37   50.49
  -2  -7  -1  304.67   25.30
  -2  -7  -1  317.57   19.30
   2   7   1  332.37   22.90
   2   7   1  334.97   20.00
   2   7   1  316.87   21.40
   2   7   1  328.17   20.80
  -3  -7  -1  480.95   29.10
  -3  -7  -1  478.85   65.29
  -3  -7  -1  449.36   24.70
   3   7   1  467.15   24.10
   3   7   1  403.06   24.40
   3   7   1  459.05   28.40
   3   7   1  474.05   27.40
  -4  -7  -1  633.14   79.39
  -4  -7  -1  649.43   36.10
  -4  -7  -1  494.65   90.99
  -4  -7  -1  628.64   31.70
   4   7   1  662.43   36.00
   4   7   1  587.14   31.30
   4   7   1  630.74   32.20
   4   7   1  629.94   28.40
  -5  -7  -1  320.77   25.90
  -5  -7  -1  257.37   56.59
  -5  -7  -1  347.87   34.70
  -5  -7  -1  266.27   82.39
   5   7   1  369.86   27.20
   5   7   1  382.86   28.80
   5   7   1  363.36   29.60
  -6  -7  -1  257.37   33.60
  -6  -7  -1  289.47   29.10
   6   7   1  239.48   30.60
   6   7   1  269.27   28.40
   6   7   1  307.17   30.10
  -7  -7  -1   18.10   18.20
  -7  -7  -1   -1.50   13.10
   7   7   1   11.90   14.40
   7   7   1   29.00   14.60
   7   7   1   -1.40   11.50
   9  -8  -1    0.00   13.90
   9  -8  -1   -5.70    8.90
  -9   8   1    4.00   14.10
   8  -8  -1   16.80   10.80
   8  -8  -1   11.00   13.40
   8  -8  -1   24.60   14.10
  -8   8   1    3.70   11.50
   7  -8  -1   45.00   15.90
   7  -8  -1   81.89   17.00
   7  -8  -1   59.89   13.50
  -7   8   1   71.29   15.20
  -7   8   1   76.19   16.40
   6  -8  -1   19.70    9.50
   6  -8  -1   18.90   26.60
   6  -8  -1   12.20   11.10
   6  -8  -1    4.50    8.10
  -6   8   1   15.00    8.50
  -6   8   1   18.00    9.50
  -6   8   1   -7.00    7.60
   5  -8  -1   72.89   11.90
   5  -8  -1   92.29   13.90
   5  -8  -1   45.70   13.70
  -5   8   1   80.19   15.40
  -5   8   1   66.29   12.30
   4  -8  -1  115.19   14.40
   4  -8  -1   89.49   17.60
   4  -8  -1  121.59   11.10
   4  -8  -1  144.19   47.20
  -4   8   1  121.69   16.10
  -4   8   1  121.49   13.30
  -4   8   1  113.79   19.10
   3  -8  -1  434.96   77.69
   3  -8  -1  367.06   39.20
   3  -8  -1  309.57   18.10
   3  -8  -1  332.57   20.00
  -3   8   1  322.97   16.90
  -3   8   1  294.17   19.50
  -3   8   1  313.27   18.30
  -3   8   1  355.86   22.60
   2  -8  -1   62.99   10.80
   2  -8  -1   27.20    8.30
   2  -8  -1   31.60   25.00
   2  -8  -1   50.79   12.80
  -2   8   1   43.50    9.90
  -2   8   1   26.20    7.80
  -2   8   1   43.70   11.30
  -2   8   1   17.30   14.20
   1  -8  -1    8.70    8.60
   1  -8  -1    2.60    5.70
   1  -8  -1    1.00   13.40
   1  -8  -1    5.70    5.70
  -1   8   1    7.20    6.60
  -1   8   1    2.60    5.10
  -1   8   1    3.60    6.10
  -1   8   1   -2.20    6.70
   0  -8  -1  248.08   15.80
   0  -8  -1  249.88   19.70
   0  -8  -1  326.17   33.30
   0  -8  -1  240.68   50.59
   0   8   1  262.87   18.70
   0   8   1  226.08   19.10
   0   8   1  275.27   19.70
   0   8   1  287.17   19.30
  -1  -8  -1  490.85   27.70
  -1  -8  -1  444.16   64.99
   1   8   1  503.55   26.20
   1   8   1  585.24   38.40
   1   8   1  494.75   27.40
   1   8   1  526.45   28.50
  -2  -8  -1   65.09   32.70
  -2  -8  -1  104.79   16.60
  -2  -8  -1  119.19   33.80
   2   8   1  148.29   18.90
   2   8   1  159.98   21.00
   2   8   1  105.59   14.90
   2   8   1   83.29   15.80
  -3  -8  -1   66.99   33.30
  -3  -8  -1  155.98   50.79
  -3  -8  -1   54.99   24.40
   3   8   1  121.29   17.80
   3   8   1   96.99   17.60
   3   8   1  127.99   20.00
   3   8   1   99.09   15.00
  -4  -8  -1  129.69   42.00
  -4  -8  -1   85.39   19.20
  -4  -8  -1   67.69   38.80
   4   8   1   79.89   17.30
   4   8   1   92.99   16.60
   4   8   1   92.39   19.00
   4   8   1   64.39   16.90
  -5  -8  -1  186.68   58.39
  -5  -8  -1  223.68   29.40
   5   8   1  204.98   27.90
   5   8   1  247.88   27.20
   5   8   1  217.18   26.50
   6   8   1  318.07   35.00
   6   8   1  343.77   32.60
   6   8   1  197.88   26.00
  -7  -8  -1    8.90   19.10
   7   8   1    2.70   13.40
   9  -9  -1   29.30   17.60
   9  -9  -1   43.40   14.60
   9  -9  -1   69.59   20.60
  -9   9   1   37.20   17.50
   8  -9  -1  108.19   24.80
   8  -9  -1  118.99   21.50
   8  -9  -1  118.39   19.20
  -8   9   1  115.09   22.60
  -8   9   1  119.09   22.60
   7  -9  -1   59.09   18.20
   7  -9  -1   49.90   14.40
   7  -9  -1   59.99   15.00
  -7   9   1   82.59   18.70
  -7   9   1   74.89   20.30
  -7   9   1   65.49   14.80
   6  -9  -1   10.40   11.50
   6  -9  -1    7.10    9.00
   6  -9  -1    7.80    8.90
  -6   9   1    4.00    8.20
  -6   9   1    5.10   10.70
   5  -9  -1    1.60    6.50
   5  -9  -1   -0.40    7.40
   5  -9  -1   -1.20    9.20
  -5   9   1    1.60    7.90
  -5   9   1    9.60   10.70
   4  -9  -1  218.48   27.60
   4  -9  -1  131.89   47.70
   4  -9  -1  222.48   20.80
  -4   9   1  227.58   24.10
  -4   9   1  236.48   22.40
   3  -9  -1    8.70   21.80
   3  -9  -1   14.10   11.20
   3  -9  -1   14.20    7.70
  -3   9   1   13.90    8.10
  -3   9   1   16.90    8.40
  -3   9   1    1.10    8.00
   2  -9  -1   42.90   13.80
   2  -9  -1   32.60    9.30
   2  -9  -1   41.30   30.90
  -2   9   1   27.80   10.80
  -2   9   1   29.80    9.30
  -2   9   1   18.10    8.40
  -2   9   1   32.70    9.20
   1  -9  -1   12.70   10.10
   1  -9  -1    3.40    6.20
   1  -9  -1   11.00   18.40
  -1   9   1    0.80    6.60
  -1   9   1   11.40    7.40
  -1   9   1    0.10    6.30
  -1   9   1   25.20   11.00
   0  -9  -1   17.80   22.70
   0  -9  -1   35.60   12.00
   0   9   1   26.20   10.90
   0   9   1   23.60   12.00
   0   9   1   21.60    8.90
   0   9   1   35.00   10.90
   1   9   1    3.80    7.60
   1   9   1    9.10    9.10
   1   9   1   -7.90    5.80
   1   9   1    5.30    8.80
   2   9   1   52.89   14.70
   2   9   1   52.69   12.40
   2   9   1   28.90   11.30
   2   9   1   49.80   14.80
   3   9   1   -1.80   11.10
   3   9   1   18.70   11.40
   3   9   1   10.00    9.50
   3   9   1   10.30   11.00
  -4  -9  -1   28.30   33.90
   4   9   1    1.90   10.30
   4   9   1   -3.70   10.80
   4   9   1   -4.10   11.10
  -5  -9  -1    9.90   16.80
   5   9   1   20.60   14.20
   5   9   1   16.50   15.50
   5   9   1   12.00   14.10
  -6  -9  -1   24.90   21.30
   6   9   1   24.60   15.50
   6   9   1   55.59   18.50
   6   9   1   53.69   21.40
   8 -10  -1  354.86   31.80
   8 -10  -1  263.17   36.90
   8 -10  -1  272.27   28.60
  -8  10   1  272.57   32.10
   7 -10  -1  496.25   39.70
   7 -10  -1  505.75   32.30
  -7  10   1  491.15   57.29
  -7  10   1  528.75   55.19
   6 -10  -1  770.22   27.10
   6 -10  -1  826.12   36.20
   6 -10  -1  829.02   48.20
  -6  10   1  741.03   40.30
  -6  10   1  672.23   35.70
   5 -10  -1   60.69   18.50
  -5  10   1   62.09   13.40
  -5  10   1   86.79   19.20
   4 -10  -1   99.09   20.40
   4 -10  -1  103.69   15.20
  -4  10   1  119.09   18.00
  -4  10   1  131.79   21.80
   3 -10  -1  386.06   31.20
   3 -10  -1  430.06   23.50
  -3  10   1  442.86   27.70
  -3  10   1  379.26   27.70
   2 -10  -1  542.05   93.29
   2 -10  -1  467.55   32.60
  -2  10   1  488.45   28.80
  -2  10   1  457.75   26.40
  -2  10   1  417.36   29.00
   1 -10  -1   65.99   16.10
   1 -10  -1  129.09   54.79
  -1  10   1   71.99   14.70
  -1  10   1   60.19   12.90
  -1  10   1   86.49   17.90
  -1  10   1   74.29   14.70
   0 -10  -1   -4.40    9.20
   0  10   1    7.80    9.50
   0  10   1   -7.60    8.40
   0  10   1   -0.10    8.00
   0  10   1   -6.70    6.60
   1  10   1  175.08   20.80
   1  10   1  190.88   24.10
   1  10   1  212.88   25.30
   1  10   1  140.89   25.80
   2  10   1  161.78   22.00
   2  10   1  179.28   24.20
   2  10   1  179.48   23.90
   2  10   1  179.28   21.80
   3  10   1    8.90   12.80
   3  10   1   25.10   14.90
   3  10   1   28.20   12.00
   3  10   1   62.29   16.80
   4  10   1    9.50   13.00
   4  10   1    3.00   13.50
   4  10   1   -3.50   10.30
   5  10   1    0.50   13.00
   5  10   1    6.40   15.30
   5  10   1    2.50   14.60
   7 -11  -1  304.17   39.30
   7 -11  -1  400.56   30.00
  -7  11   1  301.67   30.90
  -7  11   1  364.26   37.80
   6 -11  -1  474.75   39.50
   6 -11  -1  440.66   28.90
  -6  11   1  487.85   33.30
  -6  11   1  402.36   33.90
   5 -11  -1  358.76   39.20
   5 -11  -1  318.17   27.40
  -5  11   1  312.27   32.60
  -5  11   1  354.16   28.10
   4 -11  -1   19.20   14.80
  -4  11   1   21.70   11.70
  -4  11   1   38.00   15.40
   3 -11  -1  201.98   27.70
  -3  11   1  218.38   27.80
  -3  11   1  264.77   26.90
   2 -11  -1  488.65   36.00
  -2  11   1  533.15   31.60
  -2  11   1  492.85   34.10
   1 -11  -1  545.85   36.80
  -1  11   1  572.74   34.70
  -1  11   1  576.94   33.10
  -1  11   1  635.64   37.30
   0  11   1   34.80   13.90
   0  11   1   38.20   13.10
   0  11   1   21.40   13.00
   0  11   1   19.60   13.30
   1  11   1   12.50   10.80
   1  11   1    4.00   13.10
   1  11   1    5.50   11.50
   1  11   1    7.20   11.60
   2  11   1  147.69   32.10
   2  11   1  175.08   32.20
   2  11   1  147.09   21.30
   2  11   1  146.19   24.80
   3  11   1   72.49   20.60
   3  11   1   66.99   18.30
   3  11   1   44.00   18.40
  -6  12   1   27.10   16.40
  -6  12   1   27.40   17.00
   5 -12  -1    7.80   15.20
  -5  12   1   26.20   16.70
  -5  12   1   18.50   13.30
   4 -12  -1    8.50   14.10
  -4  12   1    4.20   13.20
  -4  12   1    3.70   10.90
   3 -12  -1    5.10   13.30
  -3  12   1    1.30   12.60
  -3  12   1    5.80   10.40
  -2  12   1   85.89   18.00
  -2  12   1  115.69   30.30
   1 -12  -1  273.97   32.00
  -1  12   1  357.06   28.60
  -1  12   1  314.87   33.70
   0  12   1  105.39   28.90
   0  12   1   68.59   19.90
   0  12   1   58.19   15.50
   1  12   1    4.60   12.70
   1  12   1   12.30   15.10
   1  12   1   -1.50    9.80
   2  12  -2  184.78   28.30
   2  12  -2  145.29   27.20
   1  12  -2   23.30   16.70
   1  12  -2   29.70   16.30
   1  12  -2    9.20   11.30
   0  12  -2   16.40   14.60
   0  12  -2   25.20   11.90
   0  12  -2   13.70   14.30
   0 -12   2    6.80   13.80
  -1  12  -2  194.48   28.80
  -1  12  -2  214.08   32.80
  -1  12  -2  151.08   21.20
   1 -12   2  265.37   44.00
  -2  12  -2  234.68   34.60
  -2  12  -2  264.17   28.60
  -2  12  -2  210.78   31.10
   2 -12   2  233.58   30.50
  -3  12  -2   31.00   16.60
  -3  12  -2   31.80   14.60
  -3  12  -2   27.40   16.10
   3 -12   2    5.20   14.50
  -4  12  -2   13.60   16.30
  -4  12  -2   14.40   12.50
   4 -12   2   40.50   19.20
  -5  12  -2   83.09   23.40
  -5  12  -2   88.39   19.50
   5 -12   2   81.49   25.20
   4  11  -2   61.79   21.80
   4  11  -2   84.79   22.00
   4  11  -2   86.59   22.10
   3  11  -2  132.19   23.30
   3  11  -2  114.79   24.40
   3  11  -2  103.59   22.80
   2  11  -2   96.49   17.30
   2  11  -2   99.59   22.20
   2  11  -2  146.59   23.70
   1  11  -2  192.68   27.90
   1  11  -2  226.38   23.50
   1  11  -2  280.17   29.90
   0  11  -2    8.50   12.90
   0  11  -2    1.60    8.30
   0  11  -2    8.50   10.40
   0 -11   2    9.90   12.00
  -1  11  -2  214.88   28.10
  -1  11  -2  259.97   26.10
  -1  11  -2  290.27   29.50
   1 -11   2  255.07   31.40
  -2  11  -2  528.35   31.80
  -2  11  -2  565.84   37.50
  -2  11  -2  602.54   33.60
   2 -11   2  540.65   38.30
  -3  11  -2  481.85   31.50
  -3  11  -2  511.05   37.00
  -3  11  -2  554.34   32.60
   3 -11   2  409.66   44.30
   3 -11   2  560.94   39.50
  -4  11  -2   85.39   17.00
  -4  11  -2  166.58   22.70
   4 -11   2  100.99   25.50
   4 -11   2  102.19   20.80
  -5  11  -2   28.70   15.80
  -5  11  -2   65.49   17.00
   5 -11   2   39.80   18.40
   5 -11   2   16.20   14.90
  -6  11  -2  245.18   31.00
   6 -11   2  268.47   36.40
   5  10  -2   -6.70   13.60
   5  10  -2   -5.70   11.70
   5  10  -2   -5.30   12.70
   4  10  -2   38.70   16.20
   4  10  -2   17.00   14.70
   4  10  -2   16.30   14.60
  -4 -10   2    8.70   13.90
   3  10  -2    0.30   11.50
   3  10  -2   11.10   13.30
   3  10  -2   16.70   13.20
  -3 -10   2   -4.20   11.10
   2  10  -2   53.49   16.70
   2  10  -2   37.50   13.20
   2  10  -2   33.10   13.90
   2  10  -2   29.60   10.80
  -2 -10   2   30.40   13.60
   1  10  -2   88.59   15.30
   1  10  -2   93.99   18.10
   1  10  -2   32.30   14.40
  -1 -10   2   97.09   19.00
  -1 -10   2   65.19   16.10
   0  10  -2    8.00    8.70
   0  10  -2   11.60   11.80
   0 -10   2   21.20   11.60
   0 -10   2   10.20   10.10
  -1  10  -2    0.10    7.50
  -1  10  -2   15.60   12.20
  -1  10  -2   -3.40    7.20
   1 -10   2   -7.10   20.00
   1 -10   2   -6.20    9.20
   1 -10   2    8.50   10.00
  -2  10  -2   70.49   13.70
  -2  10  -2  101.89   19.50
  -2  10  -2   71.19   15.00
   2 -10   2   72.69   15.30
   2 -10   2   79.39   18.50
   2 -10   2   67.69   38.90
  -3  10  -2  136.89   19.20
  -3  10  -2  158.88   23.50
  -3  10  -2  163.98   20.30
   3 -10   2   87.59   19.00
   3 -10   2  152.88   21.40
  -4  10  -2  491.15   28.40
  -4  10  -2  465.65   30.00
  -4  10  -2  520.85   34.40
   4 -10   2  554.84   37.70
   4 -10   2  488.45   33.50
  -5  10  -2   97.79   16.30
  -5  10  -2   68.79   15.90
  -5  10  -2   68.49   17.80
   5 -10   2  101.59   13.00
   5 -10   2  104.89   22.90
  -6  10  -2   -1.90   12.70
  -6  10  -2   12.00   11.40
   6 -10   2   16.40   13.60
   6 -10   2    8.20   11.90
   6 -10   2   16.00   11.00
  -7  10  -2  144.29   26.60
   7 -10   2  143.29   21.80
   7 -10   2  107.59   24.60
   6   9  -2  139.59   24.50
   6   9  -2  148.79   25.20
   6   9  -2  167.08   27.10
  -6  -9   2  160.08   26.90
   5   9  -2   19.30   13.80
   5   9  -2   22.70   14.70
   5   9  -2   18.80   14.20
  -5  -9   2    8.10   13.80
   4   9  -2  132.59   22.50
   4   9  -2   81.49   19.80
   4   9  -2   83.59   17.70
  -4  -9   2  102.79   19.90
  -4  -9   2   45.30   29.10
   3   9  -2   11.80   11.80
   3   9  -2   25.60   12.20
   3   9  -2   34.30   13.50
  -3  -9   2   -0.20   10.30
   2   9  -2   91.49   17.10
   2   9  -2   98.99   16.90
   2   9  -2   83.19   19.30
   2   9  -2   86.29   13.50
  -2  -9   2   73.59   15.80
   1   9  -2   19.30   10.10
   1   9  -2   16.20    9.40
   1   9  -2   10.40    7.30
   1   9  -2    2.30    9.60
  -1  -9   2    6.70    9.10
   0   9  -2   26.70    9.00
   0   9  -2   49.90   14.60
   0   9  -2   35.10   11.10
   0  -9   2   39.40   12.20
   0  -9   2   10.60   18.90
   0  -9   2   55.39   13.90
  -1   9  -2  278.57   21.30
  -1   9  -2  296.07   28.00
  -1   9  -2  264.07   19.90
   1  -9   2  462.35   78.49
   1  -9   2  278.27   27.80
   1  -9   2  233.68   22.80
  -2   9  -2  126.49   19.20
  -2   9  -2  145.99   17.20
  -2   9  -2  140.59   17.90
   2  -9   2  165.38   22.60
   2  -9   2  152.08   49.99
   2  -9   2   95.19   20.30
  -3   9  -2   83.79   13.70
  -3   9  -2  115.19   15.20
  -3   9  -2  106.49   18.10
   3  -9   2  109.99   17.40
   3  -9   2   80.49   49.40
   3  -9   2  116.19   19.50
  -4   9  -2  107.09   26.30
  -4   9  -2   65.29   19.40
  -4   9  -2  111.99   16.00
   4  -9   2  109.59   48.20
   4  -9   2   91.69   11.40
  -5   9  -2   67.89   14.00
  -5   9  -2   47.50   15.20
  -5   9  -2   49.80   11.70
   5  -9   2   42.10   11.30
   5  -9   2   61.99   13.60
   5  -9   2   52.69   17.40
  -6   9  -2    4.30    8.60
  -6   9  -2   -6.30    9.50
   6  -9   2   -2.70    8.10
   6  -9   2   -1.20   10.10
   6  -9   2   -2.30   11.30
  -7   9  -2   -5.70   12.20
   7  -9   2    4.70   10.30
   7  -9   2   -1.30   13.00
   7  -9   2   10.50   12.30
  -8   9  -2    2.80   13.60
  -8   9  -2    0.70   13.60
   8  -9   2    6.30   13.90
   8  -9   2    1.00   10.60
   8  -9   2   29.30   16.50
   7   8  -2    1.10   13.40
   7   8  -2   -2.50   14.80
   7   8  -2    3.30   13.50
  -7  -8   2   -3.70   15.60
  -7  -8   2    4.70   17.20
   6   8  -2  231.68   31.90
   6   8  -2  320.77   32.80
   6   8  -2  400.16   45.30
  -6  -8   2  243.48   31.30
  -6  -8   2  262.17   29.70
   5   8  -2  677.43   37.20
   5   8  -2  685.73   39.20
  -5  -8   2  616.24   89.99
  -5  -8   2  654.93   39.80
  -5  -8   2  464.95  102.39
  -5  -8   2  595.94   36.50
   4   8  -2  307.07   30.10
   4   8  -2  294.97   29.30
   4   8  -2  314.47   29.00
  -4  -8   2  303.77   29.70
  -4  -8   2  330.57   61.49
  -4  -8   2  311.17   28.50
   3   8  -2   68.39   11.30
   3   8  -2   92.09   16.90
   3   8  -2   76.29   15.60
   3   8  -2   66.79   15.20
  -3  -8   2   68.89   14.80
  -3  -8   2   84.69   32.00
   2   8  -2   74.49   14.80
   2   8  -2   61.99   10.60
   2   8  -2   49.50   13.60
   2   8  -2   42.60   11.50
  -2  -8   2   68.39   13.50
  -2  -8   2   75.39   14.40
  -2  -8   2   51.89   23.30
   1   8  -2  440.86   25.40
   1   8  -2  482.85   28.40
   1   8  -2  442.06   24.30
   1   8  -2  459.95   22.90
  -1  -8   2  465.35   26.00
  -1  -8   2  438.16   24.80
  -1  -8   2  441.46   54.09
  -1  -8   2  484.95   65.69
   0   8  -2  476.95   31.30
   0   8  -2  448.86   22.70
   0   8  -2  481.15   24.80
   0   8  -2  460.65   22.10
   0  -8   2  501.25   71.99
   0  -8   2  445.66   24.90
   0  -8   2  402.46   25.20
  -1   8  -2  205.58   19.30
  -1   8  -2  198.48   15.90
   1  -8   2  245.98   24.70
   1  -8   2  162.38   43.70
   1  -8   2  187.08   19.60
  -2   8  -2  150.28   19.50
  -2   8  -2  148.09   16.20
  -2   8  -2  143.59   16.10
   2  -8   2  152.58   17.90
   2  -8   2  213.88   52.09
   2  -8   2  144.09   26.50
   2  -8   2  164.88   12.60
  -3   8  -2   52.39   12.70
  -3   8  -2   35.20    9.30
  -3   8  -2   48.10   10.10
   3  -8   2   77.99   16.00
   3  -8   2   53.79    8.00
   3  -8   2   50.39   30.90
   3  -8   2   48.50    9.30
  -4   8  -2  523.85   28.50
  -4   8  -2  492.05   29.20
  -4   8  -2  495.25   26.60
   4  -8   2  537.85   33.10
   4  -8   2  483.35   22.90
   4  -8   2  499.55   23.10
   4  -8   2  437.56   78.39
  -5   8  -2  138.69   16.50
  -5   8  -2  133.19   19.70
  -5   8  -2   99.49   15.60
   5  -8   2   95.99   40.60
   5  -8   2  110.79   15.30
   5  -8   2  115.49   21.30
   5  -8   2  119.49   16.50
  -6   8  -2   10.20   10.90
  -6   8  -2   12.20   11.30
   6  -8   2   32.00   12.40
   6  -8   2   10.90    8.70
   6  -8   2   37.90   15.60
  -7   8  -2  160.68   23.50
   7  -8   2  189.38   28.70
   7  -8   2  214.58   23.00
   7  -8   2  180.38   24.70
   8  -8   2   19.00   15.10
   8  -8   2   52.19   19.20
  -9   8  -2   -1.10   15.20
   9  -8   2   44.70   19.30
   9  -8   2   -2.40   10.80
   9  -8   2   12.70   17.10
   8   7  -2   74.09   23.00
   8   7  -2   50.99   17.30
   8   7  -2   68.39   19.60
  -8  -7   2   88.89   27.20
  -8  -7   2   81.29   22.20
   7   7  -2   21.80   15.80
   7   7  -2    5.00   12.70
   7   7  -2    5.30   11.70
  -7  -7   2  -15.50   13.10
  -7  -7   2   20.90   15.10
   6   7  -2  180.68   26.20
   6   7  -2  142.89   22.20
   6   7  -2  206.48   25.40
  -6  -7   2  172.18   23.80
  -6  -7   2  118.79   23.80
  -6  -7   2  155.18   50.39
   5   7  -2  312.57   25.10
   5   7  -2  295.77   30.00
   5   7  -2  357.06   41.90
  -5  -7   2  286.47   72.89
  -5  -7   2  298.27   29.50
  -5  -7   2  275.27   28.20
  -5  -7   2  302.57   62.39
   4   7  -2  706.03   35.50
   4   7  -2  647.94   34.40
   4   7  -2  665.73   32.70
  -4  -7   2  682.93   34.70
  -4  -7   2  700.73  101.89
  -4  -7   2  679.83   33.60
   3   7  -2  546.75   28.30
   3   7  -2  506.25   22.10
   3   7  -2  496.15   27.70
   3   7  -2  531.95   29.30
  -3  -7   2  464.45   76.19
  -3  -7   2  517.35   27.70
  -3  -7   2  495.75   27.30
  -3  -7   2  527.95   66.79
   2   7  -2   91.89   11.50
   2   7  -2   68.89   12.50
   2   7  -2   62.89   13.00
   2   7  -2   60.19   11.80
  -2  -7   2   56.29   26.40
  -2  -7   2   69.79   12.20
  -2  -7   2   84.59   13.70
  -2  -7   2   55.89   23.00
  -2  -7   2   86.39   12.60
   1   7  -2 1150.08   37.00
   1   7  -2 1112.39   39.30
   1   7  -2 1134.69   35.30
   1   7  -2 1109.19   32.80
  -1  -7   2 1201.38   67.79
  -1  -7   2 1079.59   36.60
  -1  -7   2 1015.90   70.89
  -1  -7   2 1139.19   36.80
   0   7  -2 2415.86   58.09
   0   7  -2 2407.66   54.19
   0   7  -2 2381.46   51.09
   0   7  -2 2686.83  301.57
   0   7  -2 2390.46   49.00
   0  -7   2 2360.36  114.29
   0  -7   2 2412.46   86.99
   0  -7   2 2383.76   62.89
   0  -7   2 2362.16   57.19
   0  -7   2 2369.96  270.37
  -1   7  -2 2010.70  306.17
  -1   7  -2 1832.02   45.10
  -1   7  -2 1878.01   50.39
  -1   7  -2 1867.21   39.20
  -1   7  -2 1978.10   46.00
   1  -7   2 2058.99  341.57
   1  -7   2 1885.51   35.80
   1  -7   2 2182.78  115.09
   1  -7   2 1895.21   55.09
   1  -7   2 1995.80   52.99
  -2   7  -2 1008.50   36.00
  -2   7  -2 1006.80   32.70
  -2   7  -2 1000.20   31.20
   2  -7   2 1012.00   35.50
   2  -7   2  938.61   37.80
   2  -7   2 1057.69   84.99
   2  -7   2  988.70   26.10
  -3   7  -2  161.28   16.00
  -3   7  -2  149.88   18.20
  -3   7  -2  163.58   15.30
   3  -7   2  156.38   11.90
   3  -7   2  163.98   13.10
   3  -7   2  144.99   19.30
   3  -7   2  112.49   47.00
  -4   7  -2  579.94   42.30
  -4   7  -2  582.44   31.90
   4  -7   2  549.65   37.00
   4  -7   2  596.74   23.90
   4  -7   2  640.14   87.29
  -5   7  -2  541.85   29.70
   5  -7   2  528.85   27.40
   5  -7   2  529.35   32.10
   5  -7   2  604.34   26.10
   5  -7   2  503.75   85.79
  -6   7  -2  492.15   30.20
   6  -7   2  432.26   27.90
   6  -7   2  505.15   32.50
   6  -7   2  439.46   24.30
   6  -7   2  416.56   77.49
  -7   7  -2    4.30   10.40
   7  -7   2   11.80   12.60
   7  -7   2   42.90   16.00
   7  -7   2   22.20   10.00
  -8   7  -2   87.09   20.30
   8  -7   2  107.49   22.00
   8  -7   2   97.69   16.70
   8  -7   2   71.99   18.80
  -9   7  -2  197.38   28.70
   9  -7   2  222.68   30.30
   9  -7   2  138.99   22.50
   8   6  -2    0.50   12.40
   8   6  -2    7.00   12.40
   8   6  -2   13.10   13.60
  -8  -6   2    3.60   14.70
  -8  -6   2    3.50   16.00
   7   6  -2    1.60   10.00
   7   6  -2   -6.00    9.80
   7   6  -2  -10.00   10.60
  -7  -6   2   14.70   16.40
  -7  -6   2    9.30   13.50
   6   6  -2   -3.60    9.30
   6   6  -2    7.20    9.20
   6   6  -2    4.80   11.20
  -6  -6   2   -5.10   17.70
  -6  -6   2  -12.80    8.80
  -6  -6   2    5.60   24.30
  -6  -6   2    0.60   11.20
   5   6  -2   20.70    9.50
   5   6  -2    2.70    8.80
   5   6  -2    5.10    9.30
  -5  -6   2    2.80   20.20
  -5  -6   2    5.40    9.80
  -5  -6   2   15.70   11.40
  -5  -6   2    1.10   15.10
   4   6  -2   93.59   16.40
   4   6  -2   66.59   13.40
   4   6  -2   87.99   15.90
  -4  -6   2   92.39   38.20
  -4  -6   2   82.09   14.20
  -4  -6   2   58.19   13.40
  -4  -6   2  107.29   33.90
   3   6  -2  351.16   22.20
   3   6  -2  361.36   21.90
   3   6  -2  337.17   21.90
   3   6  -2  312.17   15.90
  -3  -6   2  295.97   20.00
  -3  -6   2  319.57   21.10
  -3  -6   2  248.18   52.49
  -3  -6   2  417.96   69.99
   2   6  -2    9.00    6.10
   2   6  -2   14.00    7.60
   2   6  -2   23.10    7.70
   2   6  -2   14.20    5.30
  -2  -6   2   -2.50   10.90
  -2  -6   2   13.30    6.40
  -2  -6   2   11.00   14.80
  -2  -6   2   37.00   16.70
  -2  -6   2    9.70    6.40
   1   6  -2  207.58   16.80
   1   6  -2  186.78   13.80
   1   6  -2  209.08   13.10
   1   6  -2  335.77  131.99
  -1  -6   2  192.88   15.00
  -1  -6   2  214.18   15.20
  -1  -6   2  249.38   42.10
  -1  -6   2  171.38   32.90
  -1  -6   2  207.48   34.70
  -1  -6   2  320.27  138.39
   0   6  -2 1151.68   35.70
   0   6  -2 1174.88  197.98
   0   6  -2 1184.58   31.40
   0   6  -2 1099.89   32.20
   0   6  -2 1151.08   29.90
   0  -6   2 1119.09   72.29
   0  -6   2 1284.37  224.78
   0  -6   2 1170.38   35.70
   0  -6   2 1171.18   54.79
   0  -6   2 1156.98   34.20
  -1   6  -2 1344.97   38.30
  -1   6  -2 1403.26   34.90
  -1   6  -2 1205.68  382.46
  -1   6  -2 1343.17   34.50
   1  -6   2 1320.47   83.29
   1  -6   2 1284.37   51.29
   1  -6   2 1312.17   36.90
   1  -6   2 1379.06   40.60
   1  -6   2  912.81  279.77
  -2   6  -2  583.24  249.97
  -2   6  -2  409.96   18.20
  -2   6  -2  443.46   25.30
  -2   6  -2  471.55   21.30
   2  -6   2  421.06   27.90
   2  -6   2  438.26   16.30
   2  -6   2  473.65   65.19
   2  -6   2 -220.48  278.47
   2  -6   2  423.86   15.80
  -3   6  -2  123.79   14.70
  -3   6  -2  110.89   13.10
   3  -6   2  100.69   34.00
   3  -6   2  136.59   13.70
   3  -6   2  108.89   15.70
   3  -6   2  105.19   11.40
  -4   6  -2  454.75   24.20
  -4   6  -2  470.15   22.80
   4  -6   2  445.76   22.60
   4  -6   2  476.95   75.59
   4  -6   2  509.55   27.80
   4  -6   2  491.85   20.70
  -5   6  -2  947.11   36.60
   5  -6   2  859.11   39.60
   5  -6   2  916.31   38.80
   5  -6   2  929.91   88.49
   5  -6   2  907.11   30.50
  -6   6  -2 1023.00   41.10
   6  -6   2 1048.10   43.00
   6  -6   2 1082.99   42.00
   6  -6   2 1044.30   35.20
   6  -6   2 1047.00   95.79
  -7   6  -2  211.48   24.40
   7  -6   2  181.98   23.60
   7  -6   2  219.48   57.39
   7  -6   2  165.38   23.60
   7  -6   2  195.98   20.90
  -8   6  -2    2.00   12.10
   8  -6   2    3.60    8.60
   8  -6   2    1.40   10.90
   8  -6   2   11.40   14.10
  -9   6  -2   97.39   22.20
   9  -6   2  116.39   19.30
   9  -6   2  101.09   34.20
 -10   6  -2  396.26   39.90
  10  -6   2  303.27   32.90
  10  -6   2  387.96   42.50
   9   5  -2   75.59   17.90
   9   5  -2  107.39   25.50
  -9  -5   2   52.99   22.10
  -9  -5   2   49.80   20.00
   8   5  -2   95.99   20.10
   8   5  -2  101.09   21.20
   8   5  -2  119.09   21.10
  -8  -5   2  131.39   24.20
  -8  -5   2  106.49   24.90
   7   5  -2   73.39   18.00
   7   5  -2  146.59   21.50
   7   5  -2   93.89   17.00
  -7  -5   2  106.39   20.50
  -7  -5   2   92.09   21.90
  -7  -5   2   70.29   35.80
   6   5  -2   -3.40    7.10
   6   5  -2   -3.30    7.80
   6   5  -2   -5.90    8.70
  -6  -5   2   -2.90   18.80
  -6  -5   2   10.40   17.70
  -6  -5   2    5.00    9.80
  -6  -5   2    9.80   11.10
   5   5  -2    4.70    7.60
   5   5  -2    3.50    8.10
   5   5  -2   -1.10    6.70
  -5  -5   2   -6.80   10.90
  -5  -5   2    3.10    8.50
  -5  -5   2   -0.40    7.90
  -5  -5   2    9.00   17.60
   4   5  -2  246.98   23.00
   4   5  -2  220.88   17.20
   4   5  -2  257.77   19.20
  -4  -5   2  214.38   53.19
  -4  -5   2  212.58   42.70
  -4  -5   2  225.98   18.60
  -4  -5   2  227.68   22.60
   3   5  -2   12.70    6.90
   3   5  -2   10.50    7.10
   3   5  -2  394.06  185.08
  -3  -5   2   12.90    7.00
  -3  -5   2    5.70   11.80
  -3  -5   2    8.80   10.60
   2   5  -2  263.87   13.00
   2   5  -2  269.67   17.30
   2   5  -2  259.37   16.30
   2   5  -2  171.48  153.68
   2   5  -2  263.67   16.10
  -2  -5   2  306.17  131.39
  -2  -5   2  259.57   16.70
  -2  -5   2  282.87   16.10
  -2  -5   2  191.28   32.50
  -2  -5   2  337.37   52.59
  -2  -5   2  339.17   37.70
  -2  -5   2  256.57   14.20
   1   5  -2   72.19   10.80
   1   5  -2   77.39   10.20
   1   5  -2   68.59    8.10
   1   5  -2  -20.90  130.59
   1   5  -2   68.79    9.40
  -1  -5   2   92.39   11.80
  -1  -5   2   60.49   18.50
  -1  -5   2   70.79   21.90
  -1  -5   2   69.79   10.20
  -1  -5   2   61.39  120.89
  -1  -5   2   77.69   18.80
   0   5  -2  121.39    9.50
   0   5  -2  140.59   12.60
   0   5  -2  144.69   12.20
   0  -5   2  128.69   13.40
   0  -5   2  127.79   27.90
   0  -5   2  139.49   22.00
   0  -5   2  281.57  169.88
  -1   5  -2   40.50    8.30
  -1   5  -2   38.40    6.70
  -1   5  -2   24.20    5.80
  -1   5  -2   46.10  167.88
   1  -5   2   56.99   21.50
   1  -5   2   41.10    8.80
   1  -5   2   47.40    9.10
   1  -5   2   20.30    9.10
   1  -5   2   43.00    7.40
   1  -5   2   60.89  197.78
  -2   5  -2    2.40    4.20
  -2   5  -2    3.20    3.40
  -2   5  -2   10.30    5.60
  -2   5  -2   60.89  217.08
   2  -5   2    0.30    2.70
   2  -5   2   -1.30    4.10
   2  -5   2    8.70    4.50
   2  -5   2   15.40   14.30
   2  -5   2  125.39  271.57
  -3   5  -2   95.09   14.20
  -3   5  -2  121.59   13.60
  -3   5  -2  112.59   12.10
   3  -5   2   95.69   29.70
   3  -5   2  127.59   15.60
   3  -5   2   28.90  292.27
   3  -5   2  122.79   12.60
   3  -5   2  117.99    9.30
  -4   5  -2   57.79   10.90
  -4   5  -2   56.39   14.90
   4  -5   2   50.99   11.10
   4  -5   2   56.19   10.40
   4  -5   2   68.29   28.00
   4  -5   2   52.29    8.60
  -5   5  -2   27.90   11.00
  -5   5  -2   71.19   13.00
   5  -5   2   42.40   10.90
   5  -5   2   41.60    8.80
   5  -5   2   33.80   10.30
   5  -5   2   34.90   25.30
  -6   5  -2   83.09   18.30
  -6   5  -2   34.70   11.50
   6  -5   2   66.79   14.60
   6  -5   2   46.90   10.60
   6  -5   2   17.50   18.80
   6  -5   2   70.99   15.60
  -7   5  -2  200.68   23.80
  -7   5  -2  221.58   28.30
   7  -5   2  279.37   28.60
   7  -5   2  211.78   27.00
   7  -5   2  269.17   61.29
   7  -5   2  244.68   19.10
  -8   5  -2   -3.70   12.70
  -8   5  -2   28.10   14.30
   8  -5   2    9.90    9.30
   8  -5   2    5.40   13.60
   8  -5   2   27.60   29.20
  -9   5  -2   10.70   16.70
   9  -5   2   27.30   18.30
   9  -5   2   35.00   17.60
 -10   5  -2   53.79   23.30
 -10   5  -2   56.79   20.40
  10  -5   2   18.60   19.10
  10  -5   2   32.60   14.40
   9   4  -2    8.20   14.10
   9   4  -2   -5.20   10.60
  -9  -4   2   11.60   16.40
  -9  -4   2   -1.80   13.10
   8   4  -2  212.98   29.80
   8   4  -2  200.18   23.80
  -8  -4   2  239.58   32.60
  -8  -4   2  248.18   28.90
  -8  -4   2  226.68   21.80
   7   4  -2  506.65   30.40
   7   4  -2  652.43   31.70
   7   4  -2  591.64   35.30
  -7  -4   2  624.14   39.10
  -7  -4   2  657.53  109.89
  -7  -4   2  549.15   21.10
  -7  -4   2  601.14   83.49
  -7  -4   2  637.74   36.10
   6   4  -2  831.62   35.50
   6   4  -2  834.22   38.20
   6   4  -2  759.22   32.40
  -6  -4   2  821.42   91.69
  -6  -4   2  825.62   37.50
  -6  -4   2  833.82  117.09
  -6  -4   2  839.82   22.70
  -6  -4   2  824.02   40.40
   5   4  -2   14.90    8.60
   5   4  -2    6.50    6.50
   5   4  -2    9.30    7.60
  -5  -4   2    9.00    7.60
  -5  -4   2    6.40   16.50
  -5  -4   2   -4.40    6.50
  -5  -4   2   21.40   18.40
   4   4  -2  267.27   17.50
   4   4  -2  238.38  228.48
   4   4  -2  278.97   18.40
   4   4  -2  283.57   18.90
  -4  -4   2  277.87   45.60
  -4  -4   2  237.68   18.70
  -4  -4   2  282.77   60.39
   3   4  -2 1120.59   34.00
   3   4  -2 1085.99  195.48
   3   4  -2 1163.28   34.40
   3   4  -2 1234.18   34.30
  -3  -4   2 1145.09   33.80
  -3  -4   2 1162.98   34.70
  -3  -4   2 1201.88   69.39
  -3  -4   2 1188.38   83.89
  -3  -4   2 1144.89  196.98
   2   4  -2 2507.85   48.70
   2   4  -2 2510.35   50.49
   2   4  -2 2539.75  266.07
   2   4  -2 2451.45   48.70
  -2  -4   2 2361.66   88.59
  -2  -4   2 2575.44   64.99
  -2  -4   2 2631.74  108.49
  -2  -4   2 2496.05  211.28
   1   4  -2  910.01   27.30
   1   4  -2  925.71  156.58
   1   4  -2  879.41   24.90
  -1  -4   2  891.11   51.89
  -1  -4   2  752.02  139.09
  -1  -4   2  900.71   46.70
  -1  -4   2  965.50   49.99
  -1  -4   2  878.21   26.00
   0   4  -2   41.20  115.99
   0   4  -2   49.00    8.00
   0   4  -2   42.80    6.50
   0  -4   2  132.89  137.19
   0  -4   2   60.19   13.50
   0  -4   2   47.90   16.90
  -1   4  -2  715.03   22.90
  -1   4  -2  489.75  162.58
  -1   4  -2  733.63   20.80
  -1   4  -2  766.12   20.60
  -1   4  -2  797.12   30.30
   1  -4   2  742.83   24.80
   1  -4   2  930.61  204.78
   1  -4   2  715.53   18.20
   1  -4   2  710.13   52.09
  -2   4  -2  705.63   22.80
  -2   4  -2  637.74   28.30
  -2   4  -2  652.53   25.70
  -2   4  -2  657.33   22.20
   2  -4   2  705.93   55.09
   2  -4   2  634.84   21.20
   2  -4   2  821.12  232.88
  -3   4  -2 1006.50   30.10
  -3   4  -2 1036.80   28.70
  -3   4  -2 1004.50   41.70
  -3   4  -2 1222.88  346.37
   3  -4   2 1040.00   30.00
   3  -4   2 1040.40   71.69
   3  -4   2 1025.40   29.70
   3  -4   2 1279.17  321.97
   3  -4   2 1036.00   32.20
  -4   4  -2   59.89   21.40
  -4   4  -2 -174.38  304.57
  -4   4  -2   44.60   15.00
  -4   4  -2   43.10    9.20
   4  -4   2   47.90    8.10
   4  -4   2   35.10    9.00
   4  -4   2  218.18  341.77
   4  -4   2   37.70    9.10
   4  -4   2   45.70   22.10
  -5   4  -2   99.89   16.00
  -5   4  -2  146.69   39.10
  -5   4  -2  145.59   28.00
  -5   4  -2  100.69   14.30
  -5   4  -2   98.79   12.40
   5  -4   2   99.59   13.70
   5  -4   2   80.69   29.90
   5  -4   2  116.69   15.60
   5  -4   2  101.89   11.90
  -6   4  -2  133.09   19.30
  -6   4  -2  104.49   14.90
  -6   4  -2  108.19   21.90
  -6   4  -2  114.39   28.60
  -6   4  -2   57.89   29.80
   6  -4   2  128.19   19.00
   6  -4   2  122.69   16.40
   6  -4   2   91.99   13.70
   6  -4   2  125.79   40.50
  -7   4  -2    6.20   10.50
  -7   4  -2   18.00   10.90
   7  -4   2    4.10   10.20
   7  -4   2    6.40    8.40
   7  -4   2    9.60    7.40
   7  -4   2    0.40   17.20
  -8   4  -2    6.30   11.50
  -8   4  -2   -6.20   11.30
   8  -4   2    2.60   12.90
   8  -4   2    2.10    8.10
   8  -4   2    6.80   18.60
  -9   4  -2   65.29   19.90
  -9   4  -2   11.50   15.90
   9  -4   2   47.20   19.50
   9  -4   2   47.00   13.70
 -10   4  -2   27.90   20.80
 -10   4  -2    6.10   15.10
  10  -4   2   17.20   32.60
  10  -4   2    1.70   11.40
  10   3  -2  320.37   38.30
  10   3  -2  298.77   29.40
 -10  -3   2  337.87   26.70
 -10  -3   2  262.07   38.70
 -10  -3   2  332.27   38.50
   9   3  -2   14.00   14.30
   9   3  -2    1.90   10.30
  -9  -3   2   24.60   21.00
  -9  -3   2    9.80   13.90
  -9  -3   2   16.40   11.70
   8   3  -2  127.79   21.60
   8   3  -2  144.09   22.00
  -8  -3   2  152.78   19.60
  -8  -3   2  124.19   23.10
  -8  -3   2  148.29   23.00
  -8  -3   2   65.39   35.60
   7   3  -2  578.84   29.20
   7   3  -2  643.54   34.40
   7   3  -2  573.34   30.40
  -7  -3   2  576.24   25.90
  -7  -3   2  697.53  177.58
  -7  -3   2  604.14   32.90
  -7  -3   2  548.25   78.89
  -7  -3   2  605.44   36.90
   6   3  -2  776.52   30.60
   6   3  -2  798.02   34.60
   6   3  -2  787.92   36.10
  -6  -3   2  723.93   33.80
  -6  -3   2  671.53   82.79
  -6  -3   2  804.22   38.10
  -6  -3   2  565.64   93.09
  -6  -3   2  746.73   26.10
   5   3  -2  658.23   28.70
   5   3  -2  604.04   25.10
   5   3  -2  656.43   27.20
  -5  -3   2  608.24   27.70
  -5  -3   2  552.64   20.10
  -5  -3   2  570.14   83.49
  -5  -3   2  634.04   30.40
  -5  -3   2  586.44   69.49
   4   3  -2   10.10    5.90
   4   3  -2    6.70    4.90
   4   3  -2 -279.27  190.88
   4   3  -2    5.70    5.40
  -4  -3   2   15.10   12.30
  -4  -3   2   18.60    7.40
  -4  -3   2    3.30    6.10
  -4  -3   2    4.90    3.70
  -4  -3   2   -0.80    9.50
   3   3  -2  613.34   22.60
   3   3  -2  587.24   22.50
   3   3  -2  660.73   22.50
   3   3  -2  688.43  173.68
  -3  -3   2  603.04   23.10
  -3  -3   2  608.94   23.20
  -3  -3   2  510.75  164.58
  -3  -3   2  634.74   57.99
  -3  -3   2  603.84   14.70
   2   3  -2 2189.08  217.38
   2   3  -2 2312.27   44.70
   2   3  -2 2346.67   43.20
  -2  -3   2 2205.28  201.48
  -2  -3   2 2465.75   97.99
  -2  -3   2 2418.26   51.49
  -2  -3   2 2335.97   79.99
   1   3  -2 3539.45  228.48
  -1  -3   2 3694.93  220.58
  -1  -3   2 3382.16   86.79
  -1  -3   2 3364.06   95.69
   0   3  -2   71.09  103.09
   0  -3   2  -35.00  107.29
  -1   3  -2   53.99  126.39
  -1   3  -2   69.79   11.40
   1  -3   2   43.20   14.90
   1  -3   2   33.30  119.09
  -2   3  -2 2235.38   43.80
  -2   3  -2 2046.50   56.29
  -2   3  -2 2381.96  292.47
   2  -3   2 1911.31   86.49
   2  -3   2 2200.18   51.69
   2  -3   2 2315.07  290.77
  -3   3  -2 2443.36   86.29
  -3   3  -2 2343.27   47.20
  -3   3  -2 2195.48  356.86
   3  -3   2 2287.47   46.70
   3  -3   2 2358.66   40.80
   3  -3   2 2358.26  100.99
   3  -3   2 2301.37   47.30
   3  -3   2 2645.04  351.76
  -4   3  -2 1046.70   53.19
  -4   3  -2 1035.30   32.10
  -4   3  -2  999.40  436.66
  -4   3  -2 1028.70   34.70
  -4   3  -2 1027.40   67.89
   4  -3   2 1183.78  417.76
   4  -3   2 1021.00   27.20
   4  -3   2 1067.79   36.80
   4  -3   2 1057.99   71.19
   4  -3   2 1083.79   34.10
  -5   3  -2   65.69   12.80
  -5   3  -2  359.26  422.26
  -5   3  -2   51.89   10.30
  -5   3  -2   47.60   17.90
  -5   3  -2   97.99   33.40
  -5   3  -2   58.59   11.50
   5  -3   2  149.59   38.00
   5  -3   2   59.69   12.20
   5  -3   2   68.49   11.30
   5  -3   2  -96.19  352.56
   5  -3   2   69.09   10.00
  -6   3  -2  245.58   19.80
  -6   3  -2  251.37   57.59
  -6   3  -2  223.38   18.80
  -6   3  -2  259.67   44.00
  -6   3  -2  244.98   25.70
   6  -3   2  218.18   15.80
   6  -3   2  225.98   16.90
   6  -3   2  225.08   23.80
   6  -3   2  297.87   57.59
  -7   3  -2  244.08   47.20
  -7   3  -2  246.48   25.10
  -7   3  -2  199.88   22.10
  -7   3  -2  219.88   36.20
  -7   3  -2  277.77   67.49
   7  -3   2  237.88   27.10
   7  -3   2  190.18   19.10
  -8   3  -2  626.44   35.70
  -8   3  -2  477.45   91.99
  -8   3  -2  563.94   34.70
  -8   3  -2  521.35   76.99
  -8   3  -2  525.75   37.20
   8  -3   2  653.33   30.90
   8  -3   2  571.04   37.60
  -9   3  -2   93.19   19.80
  -9   3  -2   91.59   22.70
  -9   3  -2   91.29   29.10
   9  -3   2   76.59   16.30
 -10   3  -2   24.50   19.90
 -10   3  -2   13.30   16.80
  10  -3   2    4.70   11.10
  10   2  -2   -2.40   13.60
 -10  -2   2    8.20   16.30
 -10  -2   2   -0.70   12.70
 -10  -2   2  -13.00   13.30
   9   2  -2   -6.10   10.10
   9   2  -2    5.60    9.30
   9   2  -2   -1.90    8.40
  -9  -2   2   -0.40   12.40
  -9  -2   2    1.00   12.00
  -9  -2   2   -3.00    9.80
   8   2  -2   -1.60    8.70
   8   2  -2    7.80    8.70
   8   2  -2    3.40    7.30
  -8  -2   2   11.90   17.30
  -8  -2   2    3.20    8.70
  -8  -2   2   25.20   29.40
   7   2  -2   -0.80    6.50
   7   2  -2   -0.40    7.00
   7   2  -2   -2.10    5.10
  -7  -2   2   -7.30   14.50
  -7  -2   2    0.20    6.80
  -7  -2   2   -3.40    6.70
  -7  -2   2   -5.70    8.60
  -7  -2   2   -5.80   12.60
   6   2  -2   80.09   13.30
   6   2  -2  111.99   15.70
   6   2  -2  111.49   11.30
   6   2  -2   84.69   12.30
  -6  -2   2  106.19   16.70
  -6  -2   2  126.79   14.70
  -6  -2   2  105.69   15.60
  -6  -2   2   67.09   28.20
   5   2  -2  210.08   11.50
   5   2  -2  233.38   14.90
   5   2  -2  196.18  254.57
   5   2  -2  238.18   27.50
  -5  -2   2  253.97   57.19
  -5  -2   2  289.17   45.70
  -5  -2   2  229.28   17.40
   4   2  -2  503.75   20.80
   4   2  -2  502.35  192.68
   4   2  -2  532.05   21.50
   4   2  -2  478.15   19.10
  -4  -2   2  503.35   21.70
  -4  -2   2  509.35   18.40
  -4  -2   2  528.75   71.19
  -4  -2   2  504.75   44.30
   3   2  -2  129.19   10.00
   3   2  -2   72.09  132.99
   3   2  -2  131.29    9.90
   3   2  -2  126.09    9.70
  -3  -2   2  146.09   13.10
  -3  -2   2  187.68   38.00
  -3  -2   2  129.69    8.40
  -3  -2   2  161.98   28.50
  -3  -2   2  330.17  187.58
   2   2  -2  113.09   94.29
  -2  -2   2   76.79   21.10
  -2  -2   2   55.99   15.10
  -2  -2   2   92.79  116.09
   1   2  -2 4321.17   86.09
   1   2  -2 3960.90  211.08
  -1  -2   2 4289.27   89.49
  -1  -2   2 3931.11  212.68
  -1  -2   2 4236.88   82.49
   0   2  -2  111.79   88.49
   0   2  -2   36.90    7.40
   0   2  -2   43.90    8.90
   0  -2   2   15.90   84.99
   0  -2   2   49.00   14.40
  -1   2  -2  414.36   22.10
  -1   2  -2  529.35  120.69
   1  -2   2  350.36  123.49
   1  -2   2  431.56   32.20
  -2   2  -2   62.79   13.50
  -2   2  -2   46.60   13.80
  -2   2  -2  -38.50  147.69
   2  -2   2   53.69   15.90
   2  -2   2  193.68  144.79
  -3   2  -2 2135.59   71.29
  -3   2  -2 2244.38   43.90
  -3   2  -2 2291.57   92.99
  -3   2  -2 2517.95  332.87
   3  -2   2 2275.97   90.29
   3  -2   2 2536.05  341.17
   3  -2   2 2158.48   38.30
  -4   2  -2 1691.23   71.49
  -4   2  -2 1589.34   44.10
  -4   2  -2 2080.59  362.86
  -4   2  -2 1633.74   91.19
  -4   2  -2 1580.04   38.50
  -4   2  -2 1623.74   39.90
   4  -2   2 1669.33   83.59
   4  -2   2 1629.94   42.40
   4  -2   2 2331.97  379.16
   4  -2   2 1623.14   34.70
  -5   2  -2  302.97   58.19
  -5   2  -2  298.17   20.90
  -5   2  -2 -170.08  376.36
  -5   2  -2  277.27   18.10
  -5   2  -2  326.87   43.80
  -5   2  -2  286.97   18.70
   5  -2   2  306.37   20.50
   5  -2   2  335.27   51.79
   5  -2   2  651.23  390.16
   5  -2   2  319.77   16.70
   5  -2   2  278.07   15.60
   5  -2   2  263.37   14.60
  -6   2  -2    6.00    6.50
  -6   2  -2   -4.90   12.80
  -6   2  -2   -2.30    7.30
  -6   2  -2   -4.20   10.20
  -6   2  -2    6.70    7.70
   6  -2   2   -2.40    8.30
   6  -2   2    1.90    5.80
   6  -2   2   -4.70   10.10
   6  -2   2   -3.50    4.20
  -7   2  -2  266.67   49.30
  -7   2  -2  370.86   26.90
  -7   2  -2  407.46   29.30
  -7   2  -2  439.16   27.80
  -7   2  -2  251.97   63.59
   7  -2   2  385.56   21.90
   7  -2   2  373.66   59.39
   7  -2   2  318.37   26.40
   7  -2   2  347.87   21.90
  -8   2  -2  678.33   39.80
  -8   2  -2  691.73   38.80
  -8   2  -2  726.53  115.49
  -8   2  -2  740.33   87.19
  -8   2  -2  723.13   37.90
   8  -2   2  686.63   32.10
  -9   2  -2  579.24   38.30
  -9   2  -2  488.75   38.00
  -9   2  -2  439.86   76.59
  -9   2  -2  528.75   38.50
   9  -2   2  517.35   30.80
 -10   2  -2   90.99   33.80
 -10   2  -2   66.29   22.10
 -10   2  -2   96.09   23.40
  10  -2   2   57.89   15.80
  10   1  -2   66.69   34.00
  10   1  -2   58.49   14.20
 -10  -1   2   38.40   18.60
 -10  -1   2   67.09   19.00
 -10  -1   2   48.40   17.70
   9   1  -2  148.59   17.50
   9   1  -2  165.18   23.70
  -9  -1   2  120.49   47.80
  -9  -1   2  139.59   24.90
  -9  -1   2  129.79   22.70
  -9  -1   2  114.09   19.40
   8   1  -2    2.70    7.70
   8   1  -2    0.50    7.90
   8   1  -2   14.50    7.90
  -8  -1   2    6.80    9.60
  -8  -1   2    6.10    8.40
  -8  -1   2    8.60   11.60
  -8  -1   2    4.40   22.50
  -8  -1   2  -10.10   14.30
   7   1  -2  112.89   14.40
   7   1  -2  124.49   28.30
   7   1  -2  106.69   12.50
  -7  -1   2  141.69   18.00
  -7  -1   2  177.78   59.89
  -7  -1   2  108.19   16.20
  -7  -1   2  134.79   38.80
  -7  -1   2  128.99   20.10
   6   1  -2  429.16   18.10
   6   1  -2  469.25   21.30
   6   1  -2  447.76   23.50
  -6  -1   2  414.26   22.30
  -6  -1   2  363.36   54.89
  -6  -1   2  429.06   23.90
  -6  -1   2  433.76   25.60
  -6  -1   2  442.46   77.19
   5   1  -2   66.99   10.50
   5   1  -2   42.60    6.80
   5   1  -2   41.10    7.50
   5   1  -2 -115.99  215.08
   5   1  -2   45.90    8.60
  -5  -1   2   45.00    8.90
  -5  -1   2   31.90   21.00
  -5  -1   2   58.09   22.40
  -5  -1   2   42.80    8.60
   4   1  -2   41.70    6.70
   4   1  -2  -28.20  160.48
   4   1  -2   41.00    7.80
  -4  -1   2   42.80   17.00
  -4  -1   2   22.00    6.80
  -4  -1   2   32.00    6.30
  -4  -1   2  104.89  177.88
  -4  -1   2   54.49   21.00
  -3  -1   2  -78.09  124.69
  -3  -1   2   22.30   11.00
  -3  -1   2   14.10   11.80
   2   1  -2  310.97   25.10
  -2  -1   2  327.87   24.80
  -2  -1   2  305.37   99.49
   1   1  -2 1220.28   40.60
  -1  -1   2 1346.97  130.99
  -1  -1   2 1145.59   36.20
   0   1  -2  470.75   22.00
   0   1  -2  451.75   89.69
   0   1  -2  450.25   20.70
   0  -1   2  473.15   99.19
   0  -1   2  466.45   26.50
  -1   1  -2  947.01   35.50
  -1   1  -2 1045.70  162.08
  -1   1  -2  949.40   40.90
   1  -1   2  957.60   43.90
   1  -1   2 1002.80  141.09
  -2   1  -2  194.58   30.50
  -2   1  -2  142.69   20.90
  -2   1  -2  167.48  132.49
   2  -1   2  185.78   27.50
   2  -1   2  220.98  140.29
  -3   1  -2   23.70    5.90
  -3   1  -2   18.20   14.20
  -3   1  -2   20.50   11.40
  -3   1  -2   82.19  182.98
   3  -1   2   -8.20  181.48
   3  -1   2   37.60    6.00
   3  -1   2   31.00   13.70
  -4   1  -2  171.38   14.20
  -4   1  -2  189.78   34.50
  -4   1  -2  129.39   37.20
  -4   1  -2  427.16  285.67
  -4   1  -2  178.38   13.20
   4  -1   2  186.88  273.17
   4  -1   2  174.38   11.20
   4  -1   2  178.18   32.00
  -5   1  -2   93.59   26.30
  -5   1  -2  157.28   18.30
  -5   1  -2  114.29   14.50
  -5   1  -2   97.39   42.90
  -5   1  -2  117.49   15.20
   5  -1   2   89.29   11.40
   5  -1   2  102.99   14.60
   5  -1   2  146.69   33.40
   5  -1   2  114.59   11.60
  -6   1  -2   40.00   11.60
  -6   1  -2   46.80   20.70
  -6   1  -2   70.69   13.90
  -6   1  -2   60.59   13.10
  -6   1  -2   31.70   24.10
   6  -1   2   93.49   30.20
   6  -1   2   80.99   15.00
   6  -1   2   93.29   12.40
   6  -1   2   87.09   13.00
  -7   1  -2   77.49   16.60
  -7   1  -2   91.09   45.30
  -7   1  -2   57.19   15.10
  -7   1  -2   65.49   28.40
  -7   1  -2  113.09   18.60
   7  -1   2   69.09   12.00
   7  -1   2   46.40   12.00
  -8   1  -2   98.49   21.00
  -8   1  -2  162.78   23.20
  -8   1  -2   96.59   39.20
  -8   1  -2  139.59   23.70
  -8   1  -2  100.09   54.09
   8  -1   2  133.89   18.60
   8  -1   2  138.59   20.70
  -9   1  -2  145.99   26.50
  -9   1  -2  134.49   23.40
  -9   1  -2   85.49   20.40
  -9   1  -2  105.79   44.10
   9  -1   2  121.19   18.10
 -10   1  -2   15.40   16.50
 -10   1  -2   20.20   18.10
 -10   1  -2    6.80   15.10
  10  -1   2   12.20   12.80
  11   0  -2   18.30   16.50
  11   0  -2   23.70   13.50
 -11   0   2   28.10   17.90
 -11   0   2   24.00   18.80
 -11   0   2   24.80   20.10
  10   0  -2   64.49   14.10
  10   0  -2   79.99   19.00
 -10   0   2   85.79   21.50
 -10   0   2   85.29   21.60
 -10   0   2  119.19   38.20
   9   0  -2  700.83   38.70
   9   0  -2  749.03   32.90
  -9   0   2  857.31   43.80
  -9   0   2  821.02   41.30
  -9   0   2  744.23   43.90
  -9   0   2  770.52   95.89
   8   0  -2  404.46   22.20
   8   0  -2  387.46   25.90
  -8   0   2  520.85   76.59
  -8   0   2  332.07   91.19
  -8   0   2  381.36   29.80
  -8   0   2  422.86   28.90
  -8   0   2  473.45   30.00
   7   0  -2   15.80    7.00
   7   0  -2   11.80    7.90
   7   0  -2    4.30    5.30
  -7   0   2    7.50    8.70
  -7   0   2   10.10    9.60
  -7   0   2   21.40    9.00
  -7   0   2   30.20   20.80
  -7   0   2   15.20   26.50
   6   0  -2  168.58   12.60
   6   0  -2  167.58   12.20
   6   0  -2  154.48   18.40
  -6   0   2  241.78   45.00
  -6   0   2  205.38   52.59
  -6   0   2  183.08   18.50
  -6   0   2  187.68   19.50
   5   0  -2 1525.15   57.99
   5   0  -2 1547.45   34.50
   5   0  -2 1586.34   32.90
   5   0  -2 1443.36  332.37
   5   0  -2 1645.04  320.47
  -5   0   2 1563.74   78.09
  -5   0   2 1470.25   39.00
  -5   0   2 1592.14   40.90
  -5   0   2 1733.43  103.89
   4   0  -2 1492.45   53.19
   4   0  -2 1346.37  258.67
  -4   0   2 1589.14  244.98
  -4   0   2 1479.25   35.20
  -4   0   2 1680.73   70.39
  -4   0   2 1513.65   86.39
  -4   0   2 1479.75   35.80
   3   0  -2   18.50    8.00
   3   0  -2   -2.70  123.09
   3   0  -2   12.40    8.90
  -3   0   2   16.80  120.29
  -3   0   2    6.50    7.60
   2   0  -2 2011.50   56.69
   2   0  -2 1965.40   61.39
   2   0  -2 1691.83  218.68
  -2   0   2 1970.70   54.99
  -2   0   2 1810.72  168.78
   1   0  -2  166.18   19.30
   1   0  -2  121.79   10.60
   1   0  -2  210.78   24.50
   1   0  -2  160.28  105.39
  -1   0   2  300.17   74.69
   0   0  -2 1832.42   45.30
   0   0  -2 1917.51   54.89
   0   0  -2 1770.42  144.89
   0   0   2 1956.80   54.49
   0   0   2 2012.70  149.39
  -1   0  -2  383.76  104.19
  -1   0  -2  494.85   35.20
  -1   0  -2  498.75   27.30
   1   0   2  493.85   30.20
   1   0   2  466.55  107.29
  -2   0  -2   13.70  126.39
  -2   0  -2    1.20    7.30
   2   0   2    7.40    7.40
   2   0   2  153.38  219.08
  -3   0  -2   17.80    5.50
  -3   0  -2   13.50    5.90
  -3   0  -2   25.90   16.80
  -3   0  -2   89.29  183.38
  -3   0  -2   17.10    5.70
  -3   0  -2   16.60   11.80
   3   0   2   19.10    4.70
   3   0   2   46.20   15.50
   3   0   2   66.69  163.48
  -4   0  -2  292.57   18.40
  -4   0  -2  300.67   56.39
  -4   0  -2  271.97   40.00
  -4   0  -2  291.77   17.50
  -4   0  -2  305.17   17.00
  -4   0  -2  593.84  262.07
   4   0   2  356.26   42.00
   4   0   2  376.06  253.27
   4   0   2  322.27   14.50
   4   0   2  335.17   16.70
  -5   0  -2  273.57   58.09
  -5   0  -2  317.87   25.10
  -5   0  -2  262.57   18.10
  -5   0  -2  225.48   39.40
  -5   0  -2  277.57   19.30
   5   0   2  296.17   15.70
   5   0   2  324.07   18.80
   5   0   2  285.07   42.00
  -6   0  -2  282.47   73.29
  -6   0  -2  283.97   27.30
  -6   0  -2  261.57   49.90
  -6   0  -2  242.68   19.60
  -6   0  -2  259.67   21.30
   6   0   2  281.17   17.30
   6   0   2  322.67   49.70
   6   0   2  291.77   20.30
  -7   0  -2   -4.10   13.50
  -7   0  -2   -0.90   19.20
  -7   0  -2    3.40    9.40
  -7   0  -2   -2.60    8.30
  -7   0  -2   -6.60    8.60
   7   0   2   10.70    7.70
   7   0   2    8.80    9.40
  -8   0  -2    3.20   10.50
  -8   0  -2   29.40   25.30
  -8   0  -2   -1.80   11.30
   8   0   2   -9.50    6.80
   8   0   2    8.50   10.60
  -9   0  -2   13.10   14.60
  -9   0  -2   19.40   15.50
  -9   0  -2   37.60   18.40
   9   0   2   45.40   14.00
   9   0   2   18.00   14.80
 -10   0  -2   38.90   21.10
 -10   0  -2   65.79   21.90
 -10   0  -2   88.39   22.80
  11  -1  -2   11.70   14.90
  11  -1  -2   13.00   12.70
 -11   1   2   20.50   17.80
 -11   1   2   17.80   18.20
 -11   1   2   27.60   19.00
  10  -1  -2   69.59   15.10
  10  -1  -2   82.19   19.20
 -10   1   2   69.09   23.00
 -10   1   2  107.59   23.50
 -10   1   2   43.60   52.79
   9  -1  -2  756.42   37.60
   9  -1  -2  813.72   49.70
  -9   1   2  828.82  102.39
  -9   1   2  720.03   40.70
  -9   1   2  728.63   48.00
  -9   1   2  784.42   41.20
   8  -1  -2  851.91   31.50
   8  -1  -2  807.52   35.10
  -8   1   2  850.81   39.50
  -8   1   2  815.22   38.00
  -8   1   2  714.13   37.70
  -8   1   2  848.92  127.79
  -8   1   2  701.13   82.09
   7  -1  -2  573.94   31.50
   7  -1  -2  614.44   24.50
  -7   1   2  637.24   31.80
  -7   1   2  591.14  112.89
  -7   1   2  606.94   29.60
  -7   1   2  689.53   61.29
  -7   1   2  615.24   31.50
   6  -1  -2   29.60  354.96
   6  -1  -2    4.70    5.40
   6  -1  -2   -4.60    5.20
  -6   1   2   -1.20    5.10
  -6   1   2   -5.10    9.60
  -6   1   2   -1.50    9.00
  -6   1   2   -5.40    9.30
   5  -1  -2   86.69  232.58
   5  -1  -2   68.99    8.80
   5  -1  -2   72.09   20.20
   5  -1  -2  119.69  269.17
   5  -1  -2   59.89   11.50
  -5   1   2   81.99   22.50
  -5   1   2   96.79   12.70
  -5   1   2   73.59   10.60
  -5   1   2  140.59   39.80
   4  -1  -2 2244.48   38.90
   4  -1  -2 2184.48   37.70
   4  -1  -2 1615.94  262.07
   4  -1  -2 2124.69   77.39
  -4   1   2 2126.99   97.99
  -4   1   2 2137.09   74.99
  -4   1   2 2254.77   42.80
   3  -1  -2 1980.30   70.29
   3  -1  -2 1912.91   68.49
   3  -1  -2 2157.88  248.98
  -3   1   2 2045.40  253.37
  -3   1   2 1982.70   60.69
   2  -1  -2  737.63   40.40
   2  -1  -2  623.14  126.89
   2  -1  -2  718.53   35.50
  -2   1   2  725.93   28.50
  -2   1   2  681.13  123.69
   1  -1  -2 1016.70  118.29
   1  -1  -2  911.61   37.80
   1  -1  -2  970.00   26.90
   1  -1  -2  965.80   45.30
  -1   1   2  929.21  113.99
   0  -1  -2 1011.70   48.10
   0  -1  -2 1032.60  120.89
   0  -1  -2 1055.09   46.50
   0  -1  -2 1018.00   34.30
   0   1   2 1011.60  117.89
  -1  -1  -2 7990.20  137.09
  -1  -1  -2 7960.70  307.97
  -1  -1  -2 8230.98  172.58
   1   1   2 7377.36  309.57
   1   1   2 7980.50  137.99
  -2  -1  -2 1616.14  199.98
  -2  -1  -2 1566.64   81.99
  -2  -1  -2 1644.74   64.19
   2   1   2 1576.14  205.98
   2   1   2 1642.44   59.29
  -3  -1  -2  135.19   36.20
  -3  -1  -2  131.39   10.10
  -3  -1  -2  181.28   31.20
  -3  -1  -2  144.99   10.90
  -3  -1  -2  295.57  224.98
  -3  -1  -2  154.38   14.90
   3   1   2  118.19    9.50
   3   1   2  204.08  187.78
   3   1   2  128.39   24.10
   3   1   2  128.29    9.00
   3   1   2  123.89   10.30
  -4  -1  -2  505.15   55.79
  -4  -1  -2  517.15   78.19
  -4  -1  -2  513.85   21.70
  -4  -1  -2  506.15   24.70
  -4  -1  -2  516.35   21.70
   4   1   2  501.95   18.60
   4   1   2  527.25   22.50
   4   1   2  469.35   38.80
   4   1   2  470.45   19.10
  -5  -1  -2 1081.99   98.79
  -5  -1  -2 1339.07   39.50
  -5  -1  -2 1238.68   79.19
  -5  -1  -2 1227.38   37.40
  -5  -1  -2 1151.58   41.90
   5   1   2 1237.08   68.69
   5   1   2 1265.87   34.70
   5   1   2 1238.78   38.90
   5   1   2 1301.17   33.80
  -6  -1  -2  350.36   56.59
  -6  -1  -2  408.36   84.69
  -6  -1  -2  329.77   25.00
  -6  -1  -2  331.07   25.50
  -6  -1  -2  371.26   24.00
   6   1   2  358.96   19.80
   6   1   2  340.67   23.30
  -7  -1  -2  714.93  129.09
  -7  -1  -2  656.23   86.69
  -7  -1  -2  580.24   31.60
  -7  -1  -2  560.24   32.50
  -7  -1  -2  593.74   36.80
   7   1   2  600.34   32.70
   7   1   2  617.04   27.80
  -8  -1  -2    2.50   10.80
  -8  -1  -2   -0.20   18.80
  -8  -1  -2    2.00   11.50
  -8  -1  -2  -11.50    9.80
   8   1   2    3.40   10.60
  -9  -1  -2   73.79   24.10
  -9  -1  -2   30.50   22.70
  -9  -1  -2   27.90   16.70
   9   1   2   82.09   20.70
 -10  -1  -2  146.49   29.40
 -10  -1  -2  157.68   26.10
 -10  -1  -2  180.08   28.60
  10   1   2  106.79   24.00
  11  -2  -2    2.50   10.80
  11  -2  -2   -0.90   13.10
 -11   2   2   -1.10   15.70
 -11   2   2    4.00   16.30
 -11   2   2    1.70   15.90
  10  -2  -2   -0.40   10.60
  10  -2  -2   -0.90    9.20
 -10   2   2  -19.40   11.10
 -10   2   2   21.70   15.40
 -10   2   2    4.90   14.20
   9  -2  -2   24.80   11.40
   9  -2  -2   18.60    9.90
  -9   2   2   45.40   18.00
  -9   2   2   26.20   29.40
  -9   2   2   37.80   15.10
  -9   2   2   20.60   12.80
  -9   2   2   14.70   22.90
   8  -2  -2  181.18   24.10
   8  -2  -2  240.38   18.20
  -8   2   2  257.17   50.09
  -8   2   2  231.28   26.30
  -8   2   2  186.18   22.70
  -8   2   2  130.59   47.80
  -8   2   2  205.98   24.00
   7  -2  -2  136.79   16.50
   7  -2  -2  163.48   31.50
   7  -2  -2  159.28   16.50
   7  -2  -2  123.09   31.40
  -7   2   2  157.78   20.00
  -7   2   2  195.58   54.19
  -7   2   2  148.39   18.50
  -7   2   2  119.09   33.70
   6  -2  -2  398.56   52.99
   6  -2  -2  465.95  366.66
   6  -2  -2  329.97   22.10
   6  -2  -2  -40.60  350.86
   6  -2  -2  310.17   16.60
   6  -2  -2  372.66   20.10
  -6   2   2  308.27   57.99
  -6   2   2  358.66   20.90
  -6   2   2  418.86   50.79
  -6   2   2  351.06   22.40
   5  -2  -2  540.95   19.60
   5  -2  -2  670.23  271.57
   5  -2  -2  502.75   24.20
   5  -2  -2  497.45   45.50
   5  -2  -2  525.85   22.20
   5  -2  -2  795.02  307.47
  -5   2   2  489.25   21.30
  -5   2   2  546.05   32.40
  -5   2   2  525.95   39.80
  -5   2   2  646.24   75.59
   4  -2  -2 3034.60   57.49
   4  -2  -2 3009.90   48.80
   4  -2  -2 3616.94  384.16
   4  -2  -2 3109.19  107.39
   4  -2  -2 3131.79  364.86
  -4   2   2 2967.30   94.29
  -4   2   2 3004.70   52.19
   3  -2  -2 5349.46  120.19
   3  -2  -2 5406.76  341.07
   3  -2  -2 5364.36  139.09
  -3   2   2 4917.31  335.27
  -3   2   2 5434.76   99.29
   2  -2  -2 1772.22   74.59
   2  -2  -2 1918.71  287.17
   2  -2  -2 1906.61   60.99
  -2   2   2 1891.61   41.30
  -2   2   2 1994.10  191.88
   1  -2  -2  168.98   11.60
   1  -2  -2  169.08   28.10
   1  -2  -2  190.88   26.50
   1  -2  -2  175.68   69.69
  -1   2   2   91.89   73.69
   0  -2  -2  130.69   82.29
   0  -2  -2   98.59   21.10
   0  -2  -2  108.59   23.00
   0  -2  -2   81.89   13.70
   0   2   2  153.38   67.09
  -1  -2  -2 4123.79   97.39
  -1  -2  -2 4029.30  109.99
  -1  -2  -2 4178.68  128.19
  -1  -2  -2 4199.38  215.98
   1   2   2 3975.40  228.18
  -2  -2  -2  735.13   25.20
  -2  -2  -2  717.43   45.50
  -2  -2  -2  770.52  153.28
  -2  -2  -2  846.92   65.09
  -2  -2  -2  752.72   48.60
   2   2   2  562.64  154.48
  -3  -2  -2  768.82   21.60
  -3  -2  -2  772.02   53.99
  -3  -2  -2  761.92   70.19
  -3  -2  -2  755.72   23.30
  -3  -2  -2  734.43   28.00
   3   2   2  819.82   44.10
   3   2   2  762.62   22.70
   3   2   2  780.22   23.80
   3   2   2  784.52   23.70
   3   2   2  774.72   26.60
   3   2   2  698.83  215.98
  -4  -2  -2  106.69   11.70
  -4  -2  -2   84.59   34.80
  -4  -2  -2   59.29   23.60
  -4  -2  -2   97.79   14.50
  -4  -2  -2   73.39   10.70
   4   2   2   91.19   21.50
   4   2   2   75.69   10.10
   4   2   2   78.29   11.80
   4   2   2  100.59   11.70
  -5  -2  -2  182.58   41.80
  -5  -2  -2  229.58   60.79
  -5  -2  -2  208.38   19.40
  -5  -2  -2  211.88   22.50
  -5  -2  -2  210.28   15.90
   5   2   2  180.88   19.60
   5   2   2  242.28   16.60
   5   2   2  227.68   15.60
  -6  -2  -2 1236.98   39.40
  -6  -2  -2 1227.48   42.90
  -6  -2  -2  994.10  130.39
  -6  -2  -2 1262.77   49.40
   6   2   2 1230.48   45.00
   6   2   2 1188.48   38.20
   6   2   2 1275.07   37.70
  -7  -2  -2  397.06   27.90
  -7  -2  -2  312.27   33.00
  -7  -2  -2  319.57   82.99
  -7  -2  -2  332.87   24.40
  -7  -2  -2  267.57   57.69
   7   2   2  406.06   29.30
  -8  -2  -2   81.39   19.80
  -8  -2  -2  166.48   23.90
  -8  -2  -2  164.28   21.50
   8   2   2  136.99   21.60
  -9  -2  -2    9.20   15.00
  -9  -2  -2   14.10   16.90
  -9  -2  -2    9.90   12.60
   9   2   2   16.30   14.10
  11  -3  -2   32.70   14.00
 -11   3   2   21.60   18.60
 -11   3   2   40.20   19.20
 -11   3   2   61.99   22.70
  10  -3  -2    7.80   22.60
  10  -3  -2   -1.20    9.80
  10  -3  -2    2.20    9.60
 -10   3   2    3.40   15.00
 -10   3   2    3.40   13.60
 -10   3   2    6.10   14.00
   9  -3  -2    8.60    8.40
   9  -3  -2    9.50   13.70
  -9   3   2   10.80   11.80
  -9   3   2   11.50   24.00
  -9   3   2    8.40   11.20
  -9   3   2   10.30   12.70
   8  -3  -2   31.60    9.50
   8  -3  -2   23.20   13.30
  -8   3   2   27.80   11.90
  -8   3   2   27.90   12.00
  -8   3   2   47.40   16.60
  -8   3   2   17.40   18.10
  -8   3   2   50.59   34.10
   7  -3  -2  332.77   26.50
   7  -3  -2  400.06   26.90
   7  -3  -2  449.36   64.09
   7  -3  -2  366.36   20.20
  -7   3   2  379.66   23.70
  -7   3   2  412.06   52.89
  -7   3   2  403.56   27.20
  -7   3   2  287.87   62.39
   6  -3  -2  159.98   12.80
   6  -3  -2  142.79   17.00
   6  -3  -2 -655.83  384.56
   6  -3  -2  149.69   18.80
   6  -3  -2  202.18   43.10
   6  -3  -2  249.18  416.16
  -6   3   2  147.29   41.40
  -6   3   2  232.78   36.30
  -6   3   2  217.88   20.70
  -6   3   2  156.18   18.50
   5  -3  -2  790.42   63.19
   5  -3  -2  771.82   24.40
   5  -3  -2  761.72   29.30
   5  -3  -2  787.52   29.20
   5  -3  -2 1033.30  361.26
   5  -3  -2 1314.07  322.37
  -5   3   2  713.03   29.00
  -5   3   2  757.32   61.79
  -5   3   2  774.62   43.50
  -5   3   2  767.42   26.50
  -5   3   2  767.12   21.50
   4  -3  -2  395.86  233.68
   4  -3  -2  395.96   16.00
   4  -3  -2  364.76   32.40
   4  -3  -2  451.45   57.29
   4  -3  -2  375.96   18.60
   4  -3  -2  418.26  217.08
  -4   3   2  377.06   25.50
  -4   3   2  393.46   16.50
   3  -3  -2  111.79    9.80
   3  -3  -2  128.59   13.50
   3  -3  -2  136.89   22.90
   3  -3  -2  113.59    9.40
   3  -3  -2  137.69   31.00
   3  -3  -2 -160.68  138.49
   2  -3  -2  315.87   44.70
   2  -3  -2  245.78  125.69
   2  -3  -2  256.27   23.10
  -2   3   2  398.46  143.39
   1  -3  -2  635.34  109.09
   1  -3  -2  618.14   38.20
   1  -3  -2  534.25   22.50
   1  -3  -2  525.15   43.00
  -1   3   2  610.54  105.99
   0  -3  -2   14.50   74.39
   0  -3  -2    8.70   10.10
   0  -3  -2   20.60    8.60
   0  -3  -2   11.70   10.50
   0   3   2  -20.80   59.39
  -1  -3  -2  271.37   44.70
  -1  -3  -2  292.67   33.80
  -1  -3  -2  360.86   95.99
  -1  -3  -2  278.87   37.30
   1   3   2  262.87   14.50
   1   3   2  179.78   95.79
  -2  -3  -2  297.27   38.90
  -2  -3  -2  318.27   17.70
  -2  -3  -2  304.67  129.19
  -2  -3  -2  340.67   54.59
  -2  -3  -2  264.87   36.70
  -2  -3  -2  309.07   17.20
   2   3   2  299.17   16.20
   2   3   2  315.87   14.60
   2   3   2  334.17   15.60
   2   3   2  237.78  142.29
   2   3   2  307.07   13.90
  -3  -3  -2  185.88   31.50
  -3  -3  -2  208.98   10.90
  -3  -3  -2  370.56   65.09
  -3  -3  -2  216.38   16.80
  -3  -3  -2  194.08   36.80
  -3  -3  -2  210.48   16.30
  -3  -3  -2  210.88   13.40
   3   3   2  172.08   12.30
   3   3   2  193.48   12.90
   3   3   2  189.48   18.00
   3   3   2  220.58   15.60
  -4  -3  -2  101.59   15.80
  -4  -3  -2  103.19   25.00
  -4  -3  -2  108.19   13.20
  -4  -3  -2  100.39    9.60
  -4  -3  -2  265.47   62.89
   4   3   2  106.69   12.60
   4   3   2  121.79   16.00
   4   3   2  110.19   13.10
   4   3   2  119.29   13.40
  -5  -3  -2   15.90   16.90
  -5  -3  -2    5.00    6.90
  -5  -3  -2   33.00   26.40
  -5  -3  -2   17.10   10.70
  -5  -3  -2   15.50    7.40
   5   3   2   23.50    8.40
   5   3   2   16.60    7.30
   5   3   2   16.90    8.70
   5   3   2    5.10    6.20
  -6  -3  -2   41.50    9.90
  -6  -3  -2   26.20   10.70
  -6  -3  -2   20.90   11.90
  -6  -3  -2   39.40   28.70
  -6  -3  -2   17.70   21.10
   6   3   2   35.10   12.50
   6   3   2   24.20    9.30
  -7  -3  -2  211.68   19.30
  -7  -3  -2  222.18   24.70
  -7  -3  -2  195.58   27.80
   7   3   2  181.48   20.70
   7   3   2  167.88   23.40
  -8  -3  -2   89.79   22.30
  -8  -3  -2  100.69   20.60
  -8  -3  -2   96.19   16.20
   8   3   2   64.89   17.70
  -9  -3  -2   16.50   13.10
  -9  -3  -2   10.30   15.20
  -9  -3  -2    6.80   17.00
   9   3   2    7.50   13.90
  11  -4  -2  298.87   30.00
  11  -4  -2  356.16   41.10
 -11   4   2  406.06   44.90
 -11   4   2  354.66   38.70
  10  -4  -2  283.97   35.60
 -10   4   2  270.77   35.80
 -10   4   2  220.48   29.30
 -10   4   2  233.68   32.70
   9  -4  -2   14.20   13.60
   9  -4  -2   14.90    9.60
  -9   4   2   11.10   13.40
  -9   4   2   34.00   14.40
  -9   4   2   40.10   14.80
   8  -4  -2  125.09   44.00
   8  -4  -2   49.60   13.40
   8  -4  -2   60.89   12.00
   8  -4  -2   89.99   18.80
  -8   4   2   81.19   16.30
  -8   4   2   82.19   15.90
  -8   4   2  105.09   28.00
  -8   4   2  103.89   42.90
   7  -4  -2  534.25   25.40
   7  -4  -2  578.44   29.80
   7  -4  -2  628.24   78.79
   7  -4  -2  560.24   31.30
  -7   4   2  569.44   32.50
  -7   4   2  567.84   28.40
  -7   4   2  625.14   87.39
   6  -4  -2 1132.19   82.99
   6  -4  -2 1018.50   37.70
   6  -4  -2  958.90   36.70
   6  -4  -2 1060.19   32.20
  -6   4   2  885.71   75.99
  -6   4   2  950.30   38.00
  -6   4   2 1099.29   54.09
  -6   4   2 1072.79   34.90
  -6   4   2 1026.30   29.00
   5  -4  -2  181.48   18.00
   5  -4  -2  133.29    9.50
   5  -4  -2  187.08   23.90
   5  -4  -2  226.88  328.37
   5  -4  -2  190.68   20.00
   5  -4  -2  165.08   40.10
  -5   4   2  161.98   13.20
  -5   4   2  158.98   22.50
  -5   4   2  126.39    9.80
   4  -4  -2   22.60    6.60
   4  -4  -2  259.87  236.78
   4  -4  -2   19.10    7.50
   4  -4  -2   -6.40  259.77
   4  -4  -2   38.80   14.40
   4  -4  -2   32.50   18.50
   4  -4  -2   12.70    5.00
  -4   4   2   24.90    6.80
  -4   4   2   13.30    5.60
   3  -4  -2  749.92  222.98
   3  -4  -2  780.92   28.30
   3  -4  -2  819.62   23.50
   3  -4  -2 1186.38  225.58
   3  -4  -2  854.11   23.90
   3  -4  -2  806.72   43.30
   3  -4  -2  825.62   63.79
  -3   4   2  870.31   23.60
   2  -4  -2 1338.37   35.70
   2  -4  -2 1222.78  181.18
   2  -4  -2 1365.36   78.39
   2  -4  -2 1331.37   29.40
   2  -4  -2 1340.87   25.30
   2  -4  -2 1374.36   55.59
  -2   4   2 1393.26   30.90
   1  -4  -2 2318.47   53.89
   1  -4  -2 2398.46   83.19
   1  -4  -2 2406.26  103.09
   1  -4  -2 2400.36  187.78
  -1   4   2 2314.77   43.60
  -1   4   2 2377.26  194.58
   0  -4  -2  725.43   53.79
   0  -4  -2  867.01  109.59
   0  -4  -2  721.43   37.40
   0  -4  -2  712.73   52.19
   0   4   2  712.53   22.90
   0   4   2  850.51   89.39
   0   4   2  735.13   23.30
  -1  -4  -2  140.49   11.60
  -1  -4  -2   99.29   76.99
  -1  -4  -2  145.59   36.50
  -1  -4  -2  172.88   32.20
  -1  -4  -2  162.88   14.00
  -1  -4  -2  153.68   26.30
   1   4   2  119.39    9.50
   1   4   2  136.39   10.50
   1   4   2  135.79   78.99
   1   4   2  137.29   11.00
   1   4   2  163.68   12.40
  -2  -4  -2  344.47   58.49
  -2  -4  -2  367.76   19.90
  -2  -4  -2  289.57   41.00
  -2  -4  -2  379.86   46.30
   2   4   2  367.56   18.10
   2   4   2  335.37   18.70
   2   4   2  352.46   16.80
   2   4   2  310.57   16.00
  -3  -4  -2  638.74   87.89
  -3  -4  -2  675.53   28.00
  -3  -4  -2  639.54   54.49
  -3  -4  -2  600.34   47.80
  -3  -4  -2  637.04   24.00
  -3  -4  -2  644.94   29.10
   3   4   2  673.53   24.80
   3   4   2  677.03   28.30
   3   4   2  354.66  205.48
   3   4   2  631.24   27.80
   3   4   2  683.33   25.50
  -4  -4  -2    5.80    6.30
  -4  -4  -2   28.30   23.80
  -4  -4  -2    3.30    8.10
  -4  -4  -2   15.30   16.50
   4   4   2    1.70    6.50
   4   4   2    7.60    6.10
   4   4   2   14.20    7.40
   4   4   2    1.50    5.80
  -5  -4  -2   19.60   24.60
  -5  -4  -2   10.40    8.00
  -5  -4  -2   -3.30    8.90
  -5  -4  -2    3.90   21.30
  -5  -4  -2    3.50    8.90
   5   4   2    5.10    7.40
   5   4   2    2.10    6.60
   5   4   2    3.50    7.90
   5   4   2    5.30    8.40
  -6  -4  -2   35.80   12.50
  -6  -4  -2   17.50   24.90
  -6  -4  -2   29.80   14.60
  -6  -4  -2   43.70   15.80
  -6  -4  -2   54.89   39.30
   6   4   2   32.90   12.50
   6   4   2   23.50   10.00
  -7  -4  -2   15.00   30.60
  -7  -4  -2   -1.70   13.90
  -7  -4  -2   43.50   17.50
   7   4   2   -4.50   10.70
   7   4   2    1.40    8.60
  -8  -4  -2   22.40   18.30
  -8  -4  -2   -5.20   13.10
  -8  -4  -2   -3.60   16.30
   8   4   2   14.90   12.00
   8   4   2    3.20   16.30
  -9  -4  -2    8.80   17.00
  -9  -4  -2   16.00   21.40
  -9  -4  -2    7.20   16.80
   9   4   2   12.00   16.20
  11  -5  -2  169.68   31.40
  11  -5  -2  169.58   25.90
 -11   5   2  168.58   28.90
 -11   5   2  159.58   31.10
  10  -5  -2  221.38   25.30
  10  -5  -2  234.38   31.30
 -10   5   2  294.37   45.60
 -10   5   2  217.08   32.50
   9  -5  -2  162.48   20.90
   9  -5  -2  210.58   29.00
   9  -5  -2  149.69   23.40
  -9   5   2  155.08   27.00
  -9   5   2  138.49   21.70
   8  -5  -2   18.50   23.80
   8  -5  -2   22.90   11.80
   8  -5  -2   57.89   16.10
   8  -5  -2   40.10   11.50
  -8   5   2   36.00   15.00
  -8   5   2   32.90   12.50
   7  -5  -2  313.87   24.00
   7  -5  -2  353.66   32.00
   7  -5  -2  366.26   21.60
   7  -5  -2  501.85   82.19
  -7   5   2  307.37   62.29
  -7   5   2  330.27   23.00
   6  -5  -2  236.98   19.80
   6  -5  -2  267.37   21.60
   6  -5  -2  307.17   18.20
   6  -5  -2  262.17   55.39
  -6   5   2  242.58   47.70
  -6   5   2  258.07   19.30
  -6   5   2  261.97   18.70
   5  -5  -2 1259.17   92.79
   5  -5  -2 1182.18   41.50
   5  -5  -2 1180.78   27.00
   5  -5  -2 1173.78   37.10
   5  -5  -2 1183.48   33.80
   5  -5  -2 1238.38   63.79
  -5   5   2 1192.58   32.20
  -5   5   2 1188.58   33.90
   4  -5  -2  616.64   28.20
   4  -5  -2  630.84  301.77
   4  -5  -2  654.53   41.50
   4  -5  -2  574.44   22.60
   4  -5  -2  598.84   22.00
   4  -5  -2  682.43   65.29
  -4   5   2  576.94   21.30
  -4   5   2  569.74   24.30
   3  -5  -2  101.59    8.70
   3  -5  -2   79.09   28.00
   3  -5  -2   93.19  207.38
   3  -5  -2   93.79   19.90
   3  -5  -2  106.29   11.50
   3  -5  -2   97.79   13.50
  -3   5   2  121.89   11.80
  -3   5   2  106.29   11.60
   2  -5  -2 2149.88   74.69
   2  -5  -2 2074.59   49.40
   2  -5  -2 2046.20   40.60
   2  -5  -2 2054.49  248.58
   2  -5  -2 1938.01  102.79
  -2   5   2 2012.30   42.50
  -2   5   2 2116.99   41.70
  -2   5   2 2087.19   40.00
   1  -5  -2 1736.33   92.29
   1  -5  -2 1685.43   35.80
   1  -5  -2 1658.53   74.49
   1  -5  -2 1701.53   49.90
   1  -5  -2 1804.02  187.58
  -1   5   2 1784.62   39.70
  -1   5   2 1806.72   37.80
  -1   5   2 1733.73   45.20
   0  -5  -2 1661.23   61.89
   0  -5  -2 1653.33   97.59
   0  -5  -2 1723.53   89.49
   0  -5  -2 1681.13   39.00
   0  -5  -2 1609.84   36.50
   0   5   2 1601.24   37.00
   0   5   2 1641.54   35.80
   0   5   2 1674.53   39.70
   0   5   2 1674.83   39.20
  -1  -5  -2  174.78   39.70
  -1  -5  -2  121.89   25.60
  -1  -5  -2  171.48   15.00
  -1  -5  -2  145.69   15.20
  -1  -5  -2  119.19   30.80
   1   5   2  147.99   14.30
   1   5   2  139.89   11.60
   1   5   2  158.48   13.40
   1   5   2  118.49   11.80
  -2  -5  -2  401.86   98.39
  -2  -5  -2  192.88   41.70
  -2  -5  -2  256.77   14.70
  -2  -5  -2  281.17   42.60
  -2  -5  -2  285.77   17.80
  -2  -5  -2  308.27   19.60
   2   5   2  296.87   17.50
   2   5   2  302.67   17.10
   2   5   2  264.67   16.70
   2   5   2  263.47  128.39
   2   5   2  265.77   18.70
  -3  -5  -2  550.94   48.20
  -3  -5  -2  726.13   26.60
  -3  -5  -2  691.13   31.60
  -3  -5  -2  751.52   30.90
  -3  -5  -2  657.23   93.29
   3   5   2  705.83   31.20
   3   5   2  651.43  195.98
   3   5   2  721.83   27.50
   3   5   2  710.83   27.90
   3   5   2  657.13   27.10
  -4  -5  -2  183.38   18.10
  -4  -5  -2  159.48   18.80
  -4  -5  -2  201.28   44.00
  -4  -5  -2  188.18   55.59
  -4  -5  -2  174.58   21.80
   4   5   2  184.08   28.80
   4   5   2  163.08   17.00
   4   5   2  195.88   19.50
   4   5   2  198.68   20.80
  -5  -5  -2  144.99   43.70
  -5  -5  -2  114.69   16.60
  -5  -5  -2   98.29   44.50
  -5  -5  -2  107.49   18.60
  -5  -5  -2   87.39   18.30
   5   5   2  125.19   17.10
   5   5   2  134.09   16.10
   5   5   2  111.99   16.20
   5   5   2  107.69   18.60
  -6  -5  -2   15.00   11.80
  -6  -5  -2   29.70   15.20
  -6  -5  -2    4.60   13.30
   6   5   2   14.10   10.40
   6   5   2   14.00   12.10
   6   5   2   21.60   10.80
  -7  -5  -2   72.39   18.50
  -7  -5  -2   82.09   21.70
   7   5   2   76.19   19.80
   7   5   2   49.50   15.10
  -8  -5  -2   81.39   24.90
   8   5   2   40.90   14.90
   8   5   2   47.40   17.90
  10  -6  -2  -14.70   13.70
  10  -6  -2    8.10   10.60
 -10   6   2   -6.60   14.40
   9  -6  -2   20.10   14.90
   9  -6  -2    6.00    9.20
   9  -6  -2    5.60   11.50
  -9   6   2   19.10   13.90
   8  -6  -2   54.09   29.80
   8  -6  -2   86.79   18.50
   8  -6  -2   80.39   15.00
   8  -6  -2   62.69   17.20
  -8   6   2   52.59   14.20
   7  -6  -2   56.89   29.70
   7  -6  -2   46.40   11.50
   7  -6  -2   75.19   16.20
   7  -6  -2   66.49   15.00
  -7   6   2   43.90    9.40
  -7   6   2   62.19   15.20
   6  -6  -2  526.85   27.40
   6  -6  -2  576.24   91.69
   6  -6  -2  526.85   24.50
  -6   6   2  494.15   25.00
  -6   6   2  539.85   23.50
   5  -6  -2  186.98   14.70
   5  -6  -2  202.18   22.40
   5  -6  -2  182.78   15.50
  -5   6   2  185.98   16.90
  -5   6   2  196.78   14.40
   4  -6  -2  751.02   25.40
   4  -6  -2  811.82   94.89
   4  -6  -2  724.03   25.70
   4  -6  -2  729.83   33.00
   4  -6  -2  656.13   42.00
  -4   6   2  746.63   20.90
  -4   6   2  754.52   32.10
  -4   6   2  709.93   25.90
  -4   6   2  702.73   24.50
   3  -6  -2  107.29   21.50
   3  -6  -2  506.15  259.27
   3  -6  -2  113.49   15.70
   3  -6  -2  141.69   13.90
   3  -6  -2  102.49   35.00
   3  -6  -2   98.29    8.00
  -3   6   2  110.49   17.10
  -3   6   2  111.89   10.90
  -3   6   2  144.89   14.30
  -3   6   2  118.79   10.50
   2  -6  -2  191.58  200.28
   2  -6  -2   10.80    9.40
   2  -6  -2   25.60    6.90
   2  -6  -2   19.20   15.90
   2  -6  -2   19.50    7.50
  -2   6   2   24.60    7.10
  -2   6   2   18.50    5.80
  -2   6   2   27.70    6.20
  -2   6   2   23.90    6.60
   1  -6  -2  531.75   20.30
   1  -6  -2  509.55   29.50
   1  -6  -2  505.35  178.68
   1  -6  -2  483.75   23.60
   1  -6  -2  632.54   79.29
   1  -6  -2  677.13   50.79
  -1   6   2  539.55   21.80
  -1   6   2  569.34   22.90
  -1   6   2  515.15   21.70
  -1   6   2  526.35   23.10
   0  -6  -2  877.81   48.00
   0  -6  -2  875.11   29.70
   0  -6  -2  860.31   65.89
   0  -6  -2  895.01   27.30
   0  -6  -2  821.62   26.80
   0  -6  -2  863.51   68.49
   0   6   2  827.92   28.90
   0   6   2  844.62   29.70
   0   6   2  845.32   28.50
   0   6   2  859.81   27.30
  -1  -6  -2  593.74   54.99
  -1  -6  -2  510.45   21.60
  -1  -6  -2  580.94   25.00
  -1  -6  -2  792.92   89.99
  -1  -6  -2  583.84   23.60
  -1  -6  -2  533.95   20.10
  -1  -6  -2  546.85   45.40
   1   6   2  611.84   26.70
   1   6   2  584.94   24.90
   1   6   2  562.04   23.30
   1   6   2  597.24   24.50
  -2  -6  -2   80.79   33.60
  -2  -6  -2   58.59    9.70
  -2  -6  -2   67.89   24.50
  -2  -6  -2   58.29   17.90
  -2  -6  -2   68.69   22.80
  -2  -6  -2   76.39   11.70
   2   6   2   55.09   10.80
   2   6   2   69.99   11.20
   2   6   2   64.19   12.90
   2   6   2   93.19   12.80
  -3  -6  -2  153.38   17.40
  -3  -6  -2  126.39   46.20
  -3  -6  -2  131.49   36.30
  -3  -6  -2  166.58   20.50
  -3  -6  -2  125.09   15.30
   3   6   2  164.98   28.60
   3   6   2  126.09   16.00
   3   6   2  119.39   15.00
   3   6   2  124.09   15.60
  -4  -6  -2  581.14  100.89
  -4  -6  -2  637.74   29.30
  -4  -6  -2  635.04   32.30
  -4  -6  -2  614.24   34.90
   4   6   2  603.64   33.30
   4   6   2  613.54   29.80
   4   6   2  677.23   31.30
   4   6   2  661.83   29.20
  -5  -6  -2  642.24   84.79
  -5  -6  -2  731.73   44.80
  -5  -6  -2  755.72   34.40
  -5  -6  -2  641.84   39.20
  -5  -6  -2  643.74  115.69
   5   6   2  703.33   34.00
   5   6   2  772.32   37.90
  -6  -6  -2   69.09   16.10
  -6  -6  -2   73.89   20.70
   6   6   2   61.39   17.50
   6   6   2   63.19   15.30
   6   6   2   95.19   17.70
  -7  -6  -2   12.00   16.60
  -7  -6  -2    7.50   14.80
   7   6   2   -3.50   12.20
   7   6   2    7.40   11.80
  -8  -6  -2   66.69   20.10
  -8  -6  -2   90.39   26.40
   8   6   2   97.99   20.80
   8   6   2   36.80   18.80
  10  -7  -2   79.99   23.20
  10  -7  -2   73.69   17.40
 -10   7   2   77.79   21.40
   9  -7  -2  144.29   39.90
   9  -7  -2   52.39   17.80
  -9   7   2   94.79   19.80
   8  -7  -2   15.80   11.90
   8  -7  -2    2.90   11.50
   8  -7  -2    3.00    8.60
  -8   7   2    8.20   10.80
   7  -7  -2    0.90    9.10
   7  -7  -2    2.40    7.20
   7  -7  -2    1.00   10.00
   7  -7  -2   -7.40   14.70
  -7   7   2   -5.60    7.50
  -7   7   2   -0.20    6.20
   6  -7  -2  113.19   15.60
   6  -7  -2  126.69   20.70
   6  -7  -2  112.99   16.00
   6  -7  -2   62.29   31.30
  -6   7   2  116.09   15.70
  -6   7   2  109.09   13.90
   5  -7  -2  187.98   18.80
   5  -7  -2  188.18   15.80
   5  -7  -2  156.28   21.50
   5  -7  -2  220.18   56.09
  -5   7   2  185.08   15.30
  -5   7   2  192.18   19.60
  -5   7   2  200.58   21.30
   4  -7  -2    2.40    4.80
   4  -7  -2   13.50   16.10
   4  -7  -2   -2.50    4.90
   4  -7  -2   -1.80    6.00
  -4   7   2    1.30    4.00
  -4   7   2    0.30    4.20
  -4   7   2   15.70    7.50
   3  -7  -2   48.80    9.30
   3  -7  -2   49.20   12.70
   3  -7  -2   56.59   28.60
  -3   7   2   49.99   10.40
  -3   7   2   53.99    8.70
  -3   7   2   29.40    8.30
  -3   7   2   41.20    7.90
   2  -7  -2   55.19   12.60
   2  -7  -2 -178.78  246.58
   2  -7  -2   49.99   19.50
   2  -7  -2   54.49    8.80
   2  -7  -2   40.60   23.50
   2  -7  -2   72.99   10.80
  -2   7   2   61.99   10.20
  -2   7   2   82.49   11.10
  -2   7   2   52.29    8.80
   1  -7  -2   -2.60    5.20
   1  -7  -2   -3.10    9.50
   1  -7  -2    4.20    5.80
   1  -7  -2   20.70   16.10
   1  -7  -2    3.30    5.00
   1  -7  -2   -4.90   12.80
  -1   7   2   -3.50    5.60
  -1   7   2   -2.70    5.90
  -1   7   2   -4.60    4.10
  -1   7   2   -2.30    4.30
   0  -7  -2   81.09   28.00
   0  -7  -2   76.99   21.00
   0  -7  -2  100.89   34.40
   0  -7  -2   93.59   14.30
   0  -7  -2  125.99   13.90
   0  -7  -2  101.29   12.30
   0   7   2   97.19   13.80
   0   7   2  111.59   14.40
   0   7   2  101.19   13.70
   0   7   2  101.89   13.20
  -1  -7  -2  219.08   17.20
  -1  -7  -2  211.38   15.90
  -1  -7  -2  211.28   37.70
  -1  -7  -2  197.88   52.49
  -1  -7  -2  210.58   16.00
  -1  -7  -2  210.38   48.80
   1   7   2  190.48   18.50
   1   7   2  201.48   16.20
   1   7   2  235.68   17.60
   1   7   2  245.98   22.90
  -2  -7  -2   21.50   18.40
  -2  -7  -2    0.80    7.80
  -2  -7  -2    4.00   18.80
  -2  -7  -2   11.60    8.00
   2   7   2   10.50    8.10
   2   7   2   -1.30   11.30
   2   7   2   -0.40    5.90
   2   7   2   12.80    7.60
  -3  -7  -2  211.08   20.70
  -3  -7  -2  254.07   62.79
  -3  -7  -2  189.58   42.60
  -3  -7  -2  210.48   23.90
   3   7   2  264.77   20.60
   3   7   2  238.78   22.70
   3   7   2  239.08   25.50
   3   7   2  222.08   20.80
  -4  -7  -2  139.99   42.40
  -4  -7  -2  124.09   21.60
  -4  -7  -2   96.19   25.10
  -4  -7  -2   49.60   38.30
   4   7   2  128.89   18.30
   4   7   2   95.49   18.80
   4   7   2   98.09   14.90
   4   7   2   95.39   16.30
  -5  -7  -2  265.47   31.60
  -5  -7  -2  283.27   64.39
   5   7   2  188.58   25.90
   5   7   2  238.68   25.00
   5   7   2  193.68   22.80
  -6  -7  -2  175.58   29.00
   6   7   2  155.38   33.40
   6   7   2  212.18   25.20
  -7  -7  -2    4.60   17.40
   7   7   2    4.10   13.40
   7   7   2    4.40   15.20
   7   7   2  -12.30   10.10
  10  -8  -2   46.50   20.00
  10  -8  -2   25.00   24.40
  10  -8  -2   39.80   19.20
 -10   8   2   52.59   20.00
   9  -8  -2  421.06   38.90
   9  -8  -2  427.16   29.60
  -9   8   2  419.76   33.10
   8  -8  -2  194.48   28.80
   8  -8  -2  195.08   22.70
   8  -8  -2  175.08   24.00
  -8   8   2  144.39   24.80
   7  -8  -2  147.99   20.50
   7  -8  -2  121.19   22.20
   7  -8  -2  133.39   18.50
  -7   8   2   99.99   16.30
  -7   8   2  107.79   17.70
   6  -8  -2    9.60    8.40
   6  -8  -2   10.10   18.90
   6  -8  -2    6.20    7.30
   6  -8  -2   -6.60    8.50
  -6   8   2   11.60    9.00
  -6   8   2    5.90    6.80
  -6   8   2   11.30    9.20
   5  -8  -2  430.36   20.80
   5  -8  -2  423.46   30.10
   5  -8  -2  455.85   24.20
  -5   8   2  383.56   25.00
  -5   8   2  427.46   24.20
   4  -8  -2  543.35   24.90
   4  -8  -2  571.74   33.40
   4  -8  -2  562.24   92.99
  -4   8   2  552.94   26.80
  -4   8   2  534.75   27.20
   3  -8  -2  343.67   19.70
   3  -8  -2  360.46   31.10
   3  -8  -2  531.75   86.39
  -3   8   2  371.96   19.10
  -3   8   2  386.86   19.30
  -3   8   2  357.56   21.90
  -3   8   2  354.16   21.90
   2  -8  -2   91.59   16.30
   2  -8  -2   90.69   36.80
   2  -8  -2   95.89   12.70
  -2   8   2  116.19   13.50
  -2   8   2   76.29   13.50
  -2   8   2  102.09   14.00
  -2   8   2  111.29   13.80
   1  -8  -2    4.70    5.90
   1  -8  -2   17.60   21.90
   1  -8  -2   10.90    8.20
  -1   8   2    0.70    7.10
  -1   8   2    6.80    5.80
  -1   8   2    8.80    6.60
  -1   8   2    7.90    6.50
   0  -8  -2  162.78   19.30
   0  -8  -2  181.68   17.00
   0  -8  -2  164.18   45.40
   0   8   2  204.68   19.90
   0   8   2  208.28   21.10
   0   8   2  239.58   22.60
   0   8   2  186.68   18.90
  -1  -8  -2  427.66   24.70
  -1  -8  -2  395.06   22.00
  -1  -8  -2  337.67   64.19
  -1  -8  -2  460.25   70.39
   1   8   2  449.06   24.60
   1   8   2  419.96   24.30
   1   8   2  405.86   24.80
   1   8   2  430.46   26.60
  -2  -8  -2   99.99   49.90
  -2  -8  -2  184.48   20.40
  -2  -8  -2  221.38   23.00
  -2  -8  -2  214.88   45.50
   2   8   2  201.88   19.90
   2   8   2  216.38   22.20
   2   8   2  248.48   22.90
   2   8   2  196.48   23.90
  -3  -8  -2    3.20   11.50
  -3  -8  -2    8.80   24.00
  -3  -8  -2   -4.60   16.80
   3   8   2    2.80    8.20
   3   8   2   -6.30    8.50
   3   8   2   18.80    9.70
   3   8   2    0.60    8.50
  -4  -8  -2    3.20   30.00
  -4  -8  -2   25.30   26.50
  -4  -8  -2   28.70   15.50
   4   8   2   25.20   11.70
   4   8   2   21.00   13.70
   4   8   2   13.20    9.70
   4   8   2    7.80   11.40
  -5  -8  -2   17.80   16.10
   5   8   2    1.50   14.70
   5   8   2   -2.30   10.80
   5   8   2    1.80   11.00
  -6  -8  -2   13.90   18.00
   6   8   2    8.90   14.80
   6   8   2   14.80   14.20
   6   8   2    0.20   12.20
   9  -9  -2  100.89   22.40
   9  -9  -2   59.49   16.70
   9  -9  -2  106.69   25.50
   8  -9  -2  350.56   39.80
   8  -9  -2  419.26   29.50
   8  -9  -2  368.86   29.50
  -8   9   2  369.56   28.10
  -8   9   2  401.96   44.30
   7  -9  -2  409.36   26.90
   7  -9  -2  394.06   26.90
   7  -9  -2  401.06   40.20
  -7   9   2  387.66   27.30
  -7   9   2  428.86   30.90
   6  -9  -2  318.87   27.30
   6  -9  -2  286.17   20.10
   6  -9  -2  350.06   36.50
  -6   9   2  263.57   21.80
  -6   9   2  411.36   45.30
   5  -9  -2   48.90   12.20
   5  -9  -2   34.20    8.00
   5  -9  -2   59.59   17.40
  -5   9   2   40.10   11.40
  -5   9   2   40.00   12.90
   4  -9  -2  625.54   36.80
   4  -9  -2  575.64   27.30
   4  -9  -2  599.84   98.09
  -4   9   2  645.14   31.10
  -4   9   2  620.74   31.90
   3  -9  -2  547.75   37.00
   3  -9  -2  604.64   35.30
   3  -9  -2  602.44   95.99
  -3   9   2  605.24   25.50
  -3   9   2  576.04   29.70
  -3   9   2  520.85   29.20
   2  -9  -2  989.30   33.90
   2  -9  -2  995.20   43.50
   2  -9  -2 1061.79   99.19
  -2   9   2 1033.80   35.50
  -2   9   2  978.50   38.30
  -2   9   2 1028.90   35.00
  -2   9   2  947.81   37.70
   1  -9  -2   -2.80   14.10
   1  -9  -2    1.90    6.90
   1  -9  -2    6.80    9.30
  -1   9   2    1.90    7.70
  -1   9   2    3.30    6.70
  -1   9   2   -3.10   10.60
  -1   9   2   13.00    9.90
   0  -9  -2   79.99   12.70
   0  -9  -2   95.69   16.30
   0  -9  -2   71.69   34.60
   0   9   2   81.29   14.60
   0   9   2   95.39   14.90
   0   9   2  109.29   17.10
   0   9   2  120.09   17.80
   1   9   2  462.85   27.00
   1   9   2  387.06   25.00
   1   9   2  363.76   26.20
   1   9   2  388.76   27.40
   2   9   2  283.97   22.50
   2   9   2  222.68   24.30
   2   9   2  301.97   27.10
   2   9   2  260.27   35.30
   3   9   2  271.87   27.50
   3   9   2  300.07   30.90
   3   9   2  327.47   27.30
  -4  -9  -2    1.20   13.80
   4   9   2    4.60   11.50
   4   9   2   -5.40   12.30
   4   9   2   -4.50    9.50
   5   9   2  139.39   23.60
   5   9   2   83.19   18.70
   5   9   2   87.99   21.00
   8 -10  -2   59.49   16.60
   8 -10  -2   12.30   16.10
   8 -10  -2   45.90   15.20
  -8  10   2   32.80   15.70
  -8  10   2   31.00   13.80
   7 -10  -2  318.17   36.10
   7 -10  -2  370.56   24.40
   7 -10  -2  323.27   39.00
  -7  10   2  361.66   36.20
  -7  10   2  333.57   34.40
   6 -10  -2  253.57   33.50
   6 -10  -2  316.17   28.30
  -6  10   2  201.38   23.20
  -6  10   2  240.38   28.30
   5 -10  -2   22.40   14.30
   5 -10  -2   39.10   11.80
  -5  10   2   36.60   14.10
  -5  10   2   37.40   12.50
   4 -10  -2   14.40   13.30
   4 -10  -2   24.00   10.40
  -4  10   2   15.10   11.30
  -4  10   2   33.70   12.30
   3 -10  -2  213.88   29.60
   3 -10  -2  201.48   19.80
  -3  10   2  150.28   20.60
  -3  10   2  217.38   23.10
   2 -10  -2  484.65   25.80
   2 -10  -2  543.85   93.19
   2 -10  -2  530.25   34.70
  -2  10   2  526.95   31.60
  -2  10   2  493.65   29.80
  -2  10   2  521.25   27.30
   1 -10  -2  468.05  119.39
   1 -10  -2  301.37   29.80
  -1  10   2  314.87   23.50
  -1  10   2  323.07   26.00
  -1  10   2  341.47   24.40
  -1  10   2  315.67   24.50
   0  10   2   12.60   10.90
   0  10   2    2.10    9.90
   0  10   2    0.30    8.50
   0  10   2   -5.10    7.00
   1  10   2  148.89   21.30
   1  10   2  152.28   22.00
   1  10   2  111.99   16.80
   1  10   2  173.88   28.80
   2  10   2  384.26   29.90
   2  10   2  326.57   25.80
   2  10   2  376.16   30.50
   2  10   2  410.76   29.30
   3  10   2  328.77   31.30
   3  10   2  341.27   26.90
   3  10   2  323.57   46.40
   3  10   2  362.06   30.70
   4  10   2   80.29   21.20
   4  10   2   82.99   18.30
   4  10   2   66.49   18.10
   7 -11  -2    1.40   14.60
   7 -11  -2    4.20   10.80
  -7  11   2    7.50   14.90
  -7  11   2   18.30   12.40
   6 -11  -2   27.30   17.10
   6 -11  -2   35.60   14.70
  -6  11   2   45.50   22.20
  -6  11   2   25.80   12.40
   5 -11  -2    0.20   13.20
   5 -11  -2    8.00    9.90
  -5  11   2   -1.00    8.60
  -5  11   2    8.80   12.80
   4 -11  -2    1.70    9.60
   4 -11  -2    8.60   13.50
  -4  11   2  -14.50    9.20
  -4  11   2    3.30    9.80
   3 -11  -2    3.10   12.30
  -3  11   2   -2.10    8.80
  -3  11   2    1.30   10.20
   2 -11  -2   59.69   18.60
  -2  11   2   19.80   11.80
  -2  11   2   36.00   14.70
   1 -11  -2    4.50   13.00
  -1  11   2   52.49   16.50
  -1  11   2   27.30   12.50
  -1  11   2   24.50   12.00
   0  11   2    2.10   12.00
   0  11   2   16.20   10.50
   0  11   2    4.90   11.30
   0  11   2   -3.10    9.70
   1  11   2   -0.80   11.80
   1  11   2   -7.80    9.70
   1  11   2   -9.40   10.80
   1  11   2   -6.00   10.10
   2  11   2   14.70   14.60
   2  11   2   17.80   14.00
   2  11   2   15.00   12.00
   3  11   2   50.69   17.20
   3  11   2   65.69   19.10
   3  11   2   66.09   20.10
   3  11   2   41.90   14.60
   6 -12  -2  114.99   20.00
  -6  12   2  156.98   27.40
  -6  12   2  150.88   23.50
   5 -12  -2  191.48   32.00
  -5  12   2  175.08   24.90
  -5  12   2  150.78   26.00
   4 -12  -2   30.10   18.10
  -4  12   2   52.39   15.80
  -4  12   2   23.50   15.60
   3 -12  -2   20.80   15.30
  -3  12   2   26.90   13.70
  -2  12   2    5.40   10.10
  -2  12   2   -2.30   18.90
  -1  12   2   51.09   15.90
   0  12   2   11.70   14.70
   0  12   2   45.20   15.10
   1  12   2   35.30   15.10
   1  12   2   41.90   17.30
   1  12   2   19.70   14.50
   1  12   2   40.20   17.70
   2  12  -3   48.80   21.60
   2  12  -3  122.09   24.40
   1  12  -3   -4.50   14.50
   1  12  -3   -1.60   12.90
   1  12  -3    1.60    9.90
   0  12  -3   68.69   22.30
   0  12  -3   37.40   16.20
   0  12  -3   60.49   14.80
   0 -12   3   47.10   23.20
  -1  12  -3  294.07   30.10
  -1  12  -3  317.47   33.40
  -1  12  -3  285.07   35.50
   1 -12   3  257.27   32.00
  -2  12  -3  119.39   21.00
  -2  12  -3  180.08   30.10
  -2  12  -3   98.09   19.60
   2 -12   3  133.99   25.00
  -3  12  -3  139.09   21.60
  -3  12  -3  106.59   23.30
  -3  12  -3  132.99   23.00
   3 -12   3  130.89   27.10
  -4  12  -3   39.70   16.00
  -4  12  -3   19.70   12.90
  -4  12  -3   17.40   17.20
   4 -12   3    3.50   15.10
   4  11  -3   10.40   14.60
   4  11  -3   44.40   19.40
   3  11  -3   10.80   14.40
   3  11  -3    2.20   13.20
  -3 -11   3   -7.30   16.10
   2  11  -3   -3.90   12.00
   2  11  -3    1.50   13.00
   2  11  -3   11.90   12.70
  -2 -11   3   17.80   14.80
   1  11  -3   22.00   11.00
   1  11  -3   20.70   13.60
  -1 -11   3    3.00   11.50
  -1 -11   3   30.50   15.70
   0  11  -3   -2.80    9.90
   0  11  -3   -0.40    8.10
   0  11  -3    6.30   13.30
   0 -11   3   10.10   12.60
   0 -11   3    0.00   11.30
  -1  11  -3   -6.60    9.30
  -1  11  -3    8.40   13.40
  -1  11  -3    2.20    9.60
   1 -11   3  -13.20   10.30
   1 -11   3    9.50   12.50
  -2  11  -3   41.20   14.10
  -2  11  -3   54.29   17.20
  -2  11  -3   30.50   12.60
   2 -11   3   48.40   17.60
   2 -11   3   21.40   14.10
  -3  11  -3   48.80   15.20
  -3  11  -3   32.60   20.70
   3 -11   3   19.70   13.90
   3 -11   3   71.39   26.00
  -4  11  -3   -2.90   11.40
  -4  11  -3   13.60   11.20
  -4  11  -3   -3.70   10.30
   4 -11   3    0.50   12.80
   4 -11   3   15.50   14.60
  -5  11  -3   28.20   16.30
  -5  11  -3   33.50   14.30
   5 -11   3   40.10   18.60
   5 -11   3   25.20   16.90
  -6  11  -3   22.40   17.10
   6 -11   3   27.60   12.00
   6 -11   3   50.59   21.30
   5  10  -3   17.50   15.90
   5  10  -3   19.30   14.00
   5  10  -3   17.60   16.20
  -5 -10   3   32.30   17.40
   4  10  -3    9.10   12.90
   4  10  -3    2.40   13.20
   4  10  -3   22.50   14.70
  -4 -10   3   -1.00   13.40
   3  10  -3   23.00   13.70
   3  10  -3   47.80   15.90
   3  10  -3   17.60   14.60
  -3 -10   3   32.60   14.80
   2  10  -3   95.89   20.50
   2  10  -3  101.29   15.90
   2  10  -3  123.69   21.40
   1  10  -3  303.67   30.10
   1  10  -3  247.18   28.00
   1  10  -3  266.17   24.30
  -1 -10   3  237.48   26.20
  -1 -10   3  214.58   25.30
   0  10  -3   65.69   21.60
   0  10  -3   82.99   18.40
   0  10  -3   59.69   15.20
   0 -10   3   82.49   17.10
   0 -10   3   83.29   18.00
  -1  10  -3   15.50    8.90
  -1  10  -3    9.00   10.60
   1 -10   3   -2.60    9.40
   1 -10   3    7.60   18.20
   1 -10   3    1.70   23.40
  -2  10  -3   30.80   14.00
  -2  10  -3   57.39   13.70
   2 -10   3   26.60   28.30
   2 -10   3   18.20   11.30
   2 -10   3   46.80   16.00
  -3  10  -3  273.87   26.50
  -3  10  -3  324.67   38.90
  -3  10  -3  235.58   27.60
   3 -10   3  235.18   26.00
   3 -10   3  286.77   33.10
  -4  10  -3   60.69   14.40
  -4  10  -3   32.80   14.30
  -4  10  -3   38.90   12.80
   4 -10   3   25.60   13.80
   4 -10   3   46.40   16.00
  -5  10  -3   34.10   14.90
  -5  10  -3   13.80   10.60
   5 -10   3    7.70   12.90
   5 -10   3   23.20   10.70
  -6  10  -3  148.89   26.80
  -6  10  -3   84.79   16.70
   6 -10   3  112.19   19.10
   6 -10   3   99.09   24.00
  -7  10  -3   13.00   15.10
   7 -10   3   -0.50   10.40
   7 -10   3   38.90   19.20
   7 -10   3   15.10   15.20
   6   9  -3   37.90   17.40
   6   9  -3   32.90   16.60
   6   9  -3   49.60   17.70
  -6  -9   3   47.30   18.90
   5   9  -3  170.08   25.70
   5   9  -3  208.08   28.90
   5   9  -3  169.28   24.90
  -5  -9   3  194.88   27.80
   4   9  -3   89.59   18.90
   4   9  -3  154.78   23.00
   4   9  -3   73.49   18.00
  -4  -9   3  123.69   21.60
  -4  -9   3  124.09   43.80
   3   9  -3   33.90   13.70
   3   9  -3   25.00   13.70
   3   9  -3   24.20   12.30
  -3  -9   3   16.90   12.00
   2   9  -3  502.45   25.30
   2   9  -3  504.35   29.30
   2   9  -3  427.16   45.70
  -2  -9   3  468.95   30.60
   1   9  -3  737.03   35.20
   1   9  -3  658.63   36.30
   1   9  -3  728.73   30.60
  -1  -9   3  666.63   34.40
  -1  -9   3  720.13   35.20
   0   9  -3  426.86   24.40
   0   9  -3  466.75   30.90
   0   9  -3  446.36   26.60
   0  -9   3  478.45   76.79
   0  -9   3  445.26   28.60
   0  -9   3  425.16   27.50
  -1   9  -3  165.98   21.90
  -1   9  -3  146.69   17.50
  -1   9  -3  142.69   19.10
   1  -9   3  174.08   50.99
   1  -9   3  129.79   18.60
   1  -9   3  165.98   22.60
  -2   9  -3   45.30   10.80
  -2   9  -3   34.50   12.70
  -2   9  -3   37.80   10.70
   2  -9   3   91.29   40.00
   2  -9   3   42.80   12.80
   2  -9   3   37.50   13.40
  -3   9  -3  380.16   24.10
  -3   9  -3  366.56   24.90
  -3   9  -3  402.56   28.80
   3  -9   3  348.07   27.30
   3  -9   3  398.66   30.80
   3  -9   3  326.17   71.19
  -4   9  -3  266.87   29.20
  -4   9  -3  274.97   22.60
  -4   9  -3  232.58   22.10
   4  -9   3  234.78   28.10
   4  -9   3  215.48   16.50
  -5   9  -3  168.18   20.10
  -5   9  -3  107.29   19.90
   5  -9   3  141.39   23.70
   5  -9   3  182.38   19.30
   5  -9   3  171.38   20.00
  -6   9  -3   22.20   11.10
  -6   9  -3   32.30   13.70
   6  -9   3    0.40   11.60
   6  -9   3   20.70   11.10
   6  -9   3   29.30   16.20
  -7   9  -3  103.69   21.70
   7  -9   3  161.48   24.40
   7  -9   3  109.29   32.50
   7  -9   3  150.58   20.80
  -8   9  -3  159.38   28.50
  -8   9  -3  172.98   28.50
   8  -9   3  141.29   24.80
   8  -9   3  159.28   22.30
   8  -9   3  132.39   26.80
   7   8  -3    1.00   11.60
   7   8  -3    7.30   14.90
   7   8  -3   -6.70   12.60
  -7  -8   3    2.60   16.40
  -7  -8   3  -12.60   14.10
   6   8  -3  115.69   23.60
   6   8  -3   66.89   18.10
   6   8  -3  126.09   24.00
  -6  -8   3   97.09   21.60
  -6  -8   3   72.79   20.70
   5   8  -3   16.10   11.90
   5   8  -3   30.80   14.40
   5   8  -3    6.40   10.50
  -5  -8   3   -0.40   20.80
  -5  -8   3   20.50   13.20
  -5  -8   3   20.50   13.90
   4   8  -3  312.97   29.50
   4   8  -3  283.67   27.90
   4   8  -3  295.17   29.80
  -4  -8   3  319.47   30.50
  -4  -8   3  246.98   53.39
   3   8  -3   43.10   12.40
   3   8  -3   62.79   14.50
   3   8  -3   61.59   11.90
   3   8  -3   54.09   14.70
  -3  -8   3   83.09   33.40
  -3  -8   3   26.50   12.00
   2   8  -3   14.90    9.10
   2   8  -3   17.20   10.80
   2   8  -3   13.90    9.80
   2   8  -3   17.50    7.40
  -2  -8   3   10.00   10.70
  -2  -8   3   15.80    9.10
  -2  -8   3   18.50   18.30
   1   8  -3   61.09   14.20
   1   8  -3   42.80    9.50
   1   8  -3   56.89   11.80
   1   8  -3   45.90   10.60
  -1  -8   3   78.59   15.20
  -1  -8   3   65.69   25.40
  -1  -8   3   44.00   22.60
  -1  -8   3   51.09   12.70
   0   8  -3  285.57   18.80
   0   8  -3  228.98   24.00
   0   8  -3  294.57   31.70
   0  -8   3  276.77   21.60
   0  -8   3  315.77   57.99
   0  -8   3  284.57   21.50
  -1   8  -3  328.87   21.30
  -1   8  -3  318.37   33.70
  -1   8  -3  289.47   22.50
   1  -8   3  281.17   21.90
   1  -8   3  340.97   41.70
   1  -8   3  330.07   88.49
  -2   8  -3  179.58   20.00
  -2   8  -3  173.18   20.30
  -2   8  -3  139.09   15.80
   2  -8   3  125.89   17.40
   2  -8   3  136.29   19.80
   2  -8   3  144.09   44.10
  -3   8  -3   13.30    7.50
  -3   8  -3   25.80   10.40
  -3   8  -3   54.49   11.20
   3  -8   3   69.69   35.50
   3  -8   3   41.10    8.70
   3  -8   3   41.60   11.10
   3  -8   3   59.79   14.90
  -4   8  -3  795.22   34.60
  -4   8  -3  882.81   39.00
  -4   8  -3  843.92   32.10
   4  -8   3  860.21   29.40
   4  -8   3  825.62   31.20
   4  -8   3  820.92   40.40
   4  -8   3  823.42  161.38
   5  -8   3  832.12   31.60
   5  -8   3  854.41   43.00
   5  -8   3  796.82   35.40
  -6   8  -3  190.38   25.10
  -6   8  -3  142.19   22.10
   6  -8   3  204.28   24.40
   6  -8   3  204.28   27.50
   6  -8   3  197.88   20.00
  -7   8  -3    7.40   13.40
   7  -8   3   21.80   13.30
   7  -8   3   11.70    9.60
   7  -8   3    2.10   12.70
  -8   8  -3  154.38   26.20
   8  -8   3  113.79   26.10
   8  -8   3  135.89   24.70
   8  -8   3  163.18   21.60
   9  -8   3  253.27   27.90
   9  -8   3  304.87   55.09
   8   7  -3   39.40   16.20
   8   7  -3   42.90   17.40
   8   7  -3   44.70   20.00
  -8  -7   3   32.30   21.00
  -8  -7   3   35.80   18.70
   7   7  -3   11.30   15.50
   7   7  -3   23.90   14.00
   7   7  -3    7.50   11.90
  -7  -7   3   17.80   15.80
  -7  -7   3   15.30   17.20
   6   7  -3   -2.20    9.70
   6   7  -3   13.30   12.70
   6   7  -3   10.30   12.20
  -6  -7   3   -3.70   20.30
  -6  -7   3   -9.80   16.60
  -6  -7   3    3.10   11.60
   5   7  -3   -3.50    8.70
   5   7  -3    2.80   10.00
   5   7  -3   11.40   11.20
  -5  -7   3    1.30   21.10
  -5  -7   3   11.10   11.10
  -5  -7   3   24.10   12.90
  -5  -7   3   11.30   21.30
   4   7  -3   65.89   15.50
   4   7  -3   29.50   11.90
   4   7  -3   44.60   12.20
  -4  -7   3   42.60   13.40
  -4  -7   3   69.19   56.39
  -4  -7   3   39.60   12.70
   3   7  -3  102.59   16.00
   3   7  -3  124.59   17.40
   3   7  -3   93.79   15.70
   3   7  -3  101.69   17.20
  -3  -7   3  115.99   41.00
  -3  -7   3   76.89   14.90
  -3  -7   3  128.99   37.50
  -3  -7   3   52.99   11.90
  -3  -7   3  102.59   14.70
   2   7  -3   29.50    9.20
   2   7  -3   27.00   10.00
   2   7  -3   19.50    8.60
   2   7  -3   34.00    7.90
  -2  -7   3   33.20   35.20
  -2  -7   3   28.70   17.90
  -2  -7   3   26.60    9.60
   1   7  -3  230.88   15.10
   1   7  -3  237.68   19.70
   1   7  -3  257.87   17.20
   1   7  -3  255.47   18.10
  -1  -7   3  267.57   19.60
  -1  -7   3  209.08   37.90
  -1  -7   3  270.47   46.50
  -1  -7   3  216.88   17.90
   0   7  -3   38.30  281.37
   0   7  -3   -0.40    6.20
   0   7  -3   -0.80    4.10
   0   7  -3    0.50    4.70
   0   7  -3   -0.50    5.00
   0  -7   3   -5.30    5.50
   0  -7   3   12.00   13.40
   0  -7   3   -1.10    5.80
   0  -7   3    3.40    9.20
  -1   7  -3  376.86   19.90
  -1   7  -3  357.46   22.40
  -1   7  -3  359.66   19.70
   1  -7   3  466.85   49.30
   1  -7   3  350.06   22.30
   1  -7   3  345.87   23.20
   1  -7   3  517.55   72.59
  -2   7  -3  162.38   16.00
  -2   7  -3  168.58   19.50
  -2   7  -3  138.49   15.00
   2  -7   3  143.29   10.50
   2  -7   3  135.49   38.70
   2  -7   3  145.49   18.60
   2  -7   3  120.79   16.80
   2  -7   3  122.49   10.00
  -3   7  -3    2.50    5.50
  -3   7  -3    0.10    4.70
  -3   7  -3    2.40    7.30
   3  -7   3    7.00    6.70
   3  -7   3    2.50    4.90
   3  -7   3   14.80   21.30
   3  -7   3    3.00    7.20
  -4   7  -3   -7.00    6.90
   4  -7   3   11.20    8.50
   4  -7   3    1.90    7.50
   4  -7   3   10.70   17.50
   4  -7   3    5.30    5.70
  -5   7  -3  125.89   18.10
  -5   7  -3  124.49   19.50
   5  -7   3  154.68   60.99
   5  -7   3  147.19   25.70
   5  -7   3  115.99   19.50
   5  -7   3  147.39   18.70
  -6   7  -3  435.36   29.90
   6  -7   3  416.26   30.40
   6  -7   3  398.26   23.20
   6  -7   3  522.45   56.79
  -7   7  -3   43.80   15.60
   7  -7   3   47.30   15.90
   7  -7   3   33.70   11.40
   7  -7   3   31.30   14.50
   8  -7   3   -5.50   11.90
   8  -7   3   11.50   10.30
  -9   7  -3  131.69   25.80
   9  -7   3  121.69   21.40
   9  -7   3   73.29   22.10
   9   6  -3  130.59   23.80
   9   6  -3   78.39   38.40
  -9  -6   3  121.59   31.10
  -9  -6   3  112.39   25.50
   8   6  -3  188.18   25.70
   8   6  -3  257.27   28.70
   8   6  -3  253.27   33.20
  -8  -6   3  307.67   38.60
  -8  -6   3  234.58   31.30
   7   6  -3  351.76   29.10
   7   6  -3  325.27   33.40
   7   6  -3  346.47   31.50
  -7  -6   3  304.87   32.60
  -7  -6   3  267.47   32.90
   6   6  -3    4.30   10.10
   6   6  -3    7.60   10.40
  -6  -6   3   21.60   24.80
  -6  -6   3    3.40   11.90
  -6  -6   3   25.10   32.60
  -6  -6   3   14.70   12.10
   5   6  -3  130.29   18.90
   5   6  -3  188.78   22.80
   5   6  -3  122.79   17.60
  -5  -6   3  188.88   57.89
  -5  -6   3  110.69   24.90
  -5  -6   3  174.68   47.10
  -5  -6   3  134.89   20.00
   4   6  -3  535.35   29.00
   4   6  -3  530.65   27.90
   4   6  -3  522.65   29.10
  -4  -6   3  678.43   96.79
  -4  -6   3  485.65   66.09
  -4  -6   3  508.65   28.60
  -4  -6   3  580.34   30.10
   3   6  -3  791.72  267.47
   3   6  -3  949.40   35.20
   3   6  -3 1037.20   27.90
   3   6  -3 1061.49   37.20
   3   6  -3  953.80   36.70
  -3  -6   3  966.90   71.09
  -3  -6   3 1022.80   32.50
  -3  -6   3  853.31  248.88
  -3  -6   3 1016.20   37.60
  -3  -6   3  934.01   34.20
   2   6  -3  451.05   18.30
   2   6  -3  473.95   23.10
   2   6  -3  161.88  351.86
   2   6  -3  425.26   23.50
   2   6  -3  452.25   22.30
  -2  -6   3  415.06   23.20
  -2  -6   3  433.26   60.19
  -2  -6   3  457.05  186.88
  -2  -6   3  462.95   21.00
  -2  -6   3  420.56   53.39
  -2  -6   3  431.06   21.50
   1   6  -3   12.00    6.00
   1   6  -3    9.10    6.30
   1   6  -3   11.70    7.40
   1   6  -3  197.88  199.88
   1   6  -3   19.40    5.40
  -1  -6   3   44.00   19.20
  -1  -6   3  163.58  196.98
  -1  -6   3   11.30   11.70
  -1  -6   3   12.20   10.70
  -1  -6   3   20.60    8.00
   0   6  -3  472.55  210.28
   0   6  -3   78.29   17.00
   0   6  -3  114.09   16.20
   0   6  -3  124.79   12.20
   0  -6   3  607.64  235.68
   0  -6   3  135.79   34.40
   0  -6   3  128.39   24.60
   0  -6   3  133.39   15.80
   0  -6   3  103.59   13.50
  -1   6  -3  140.39   11.50
  -1   6  -3  154.18   15.80
  -1   6  -3  -76.79  238.98
  -1   6  -3  156.78   12.60
   1  -6   3  152.78   16.10
   1  -6   3  125.49   35.30
   1  -6   3  135.69    8.00
   1  -6   3  162.78   23.90
   1  -6   3  156.88  264.07
  -2   6  -3   74.39   10.80
  -2   6  -3   72.59   12.00
  -2   6  -3  100.89   16.20
  -2   6  -3  113.29   17.80
   2  -6   3   88.19   10.50
   2  -6   3   76.49   12.70
   2  -6   3   38.50   21.10
   2  -6   3   72.69    8.40
  -3   6  -3   91.89   13.60
  -3   6  -3   68.39   10.70
   3  -6   3   72.99   14.00
   3  -6   3  104.59   35.80
   3  -6   3   81.79   11.60
   3  -6   3   66.79    9.10
  -4   6  -3  100.79   16.10
   4  -6   3   99.39   13.90
   4  -6   3  101.79   16.30
   4  -6   3   78.69   10.80
   4  -6   3   59.99   29.00
  -5   6  -3   86.29   15.50
   5  -6   3   97.69   15.70
   5  -6   3   98.79   39.80
   5  -6   3   76.99   11.80
   5  -6   3   75.19   15.40
  -6   6  -3   10.90    9.90
   6  -6   3   -2.70    6.20
   6  -6   3    2.40    9.30
   6  -6   3    8.70    9.50
   6  -6   3    1.50   18.30
  -7   6  -3   15.00   12.40
   7  -6   3    5.10   12.00
   7  -6   3   10.50   11.30
   7  -6   3   -1.60    7.70
  -8   6  -3    2.40   12.20
   8  -6   3   11.80   14.00
   8  -6   3    1.30    9.10
  -9   6  -3    3.80   13.30
   9  -6   3   10.80   11.80
   9  -6   3    5.40   15.30
   9   5  -3  106.79   21.40
   9   5  -3   87.29   24.10
  -9  -5   3   66.89   23.60
  -9  -5   3  104.09   24.60
   8   5  -3  271.67   28.70
   8   5  -3  313.37   30.20
   8   5  -3  350.16   36.40
  -8  -5   3  378.16   36.60
  -8  -5   3  344.07   39.50
   7   5  -3  327.77   27.00
   7   5  -3  306.97   32.70
   7   5  -3  402.76   27.80
  -7  -5   3  299.77   30.90
  -7  -5   3  281.37   62.89
  -7  -5   3  336.27   35.40
   6   5  -3  333.77   25.90
   6   5  -3  320.57   23.70
   6   5  -3  313.47   26.20
  -6  -5   3  283.37   61.19
  -6  -5   3  313.67   31.50
  -6  -5   3  317.17   76.59
  -6  -5   3  316.57   28.80
   5   5  -3   21.30    8.80
   5   5  -3   45.80   11.60
   5   5  -3   28.00   14.60
  -5  -5   3   13.30   10.00
  -5  -5   3   54.79   25.20
  -5  -5   3   48.40   20.00
  -5  -5   3   -4.70   13.90
   4   5  -3 1216.78   40.90
   4   5  -3 1243.48   41.00
   4   5  -3 1132.69   37.90
  -4  -5   3 1003.50   90.29
  -4  -5   3 1186.88   40.60
  -4  -5   3 1195.18   41.40
  -4  -5   3 1101.49   77.39
   3   5  -3 2389.36   41.40
   3   5  -3 1609.14  276.17
   3   5  -3 2326.97   52.79
   3   5  -3 2273.17   54.69
   3   5  -3 2350.96   54.09
  -3  -5   3 1974.30  258.57
  -3  -5   3 2262.47   47.30
  -3  -5   3 2376.46  122.79
  -3  -5   3 2196.18  101.89
  -3  -5   3 2419.76   53.59
  -3  -5   3 2352.36   65.29
   2   5  -3 4402.06  356.86
   2   5  -3 4449.65   74.29
   2   5  -3 4485.05   75.59
   2   5  -3 4549.65   78.59
   2   5  -3 4534.65   65.29
  -2  -5   3 4789.22  324.17
  -2  -5   3 4498.35   78.59
  -2  -5   3 4483.25  132.09
  -2  -5   3 4355.06  148.19
  -2  -5   3 4232.08   82.49
  -2  -5   3 4448.46   71.59
  -2  -5   3 4442.26  115.99
   1   5  -3  173.88   14.50
   1   5  -3  -35.10  183.38
   1   5  -3  150.58   12.30
  -1  -5   3  197.08   33.10
  -1  -5   3  121.39  173.18
  -1  -5   3  224.18   34.20
  -1  -5   3  155.88   12.70
  -1  -5   3  159.28   15.20
  -1  -5   3  164.38   34.80
   0   5  -3   79.29    9.90
   0   5  -3   75.19   11.10
   0   5  -3  -23.20  179.28
   0   5  -3   73.79    8.50
   0  -5   3   69.79    5.90
   0  -5   3   69.69   10.30
   0  -5   3   54.49   20.40
   0  -5   3  375.16  195.58
   0  -5   3   58.59   10.20
   0  -5   3   56.99   15.80
  -1   5  -3 1611.64   52.49
  -1   5  -3 1589.64   36.10
  -1   5  -3 1551.44   35.00
  -1   5  -3 1311.57  250.17
  -1   5  -3 1534.85   39.10
   1  -5   3 1473.95   85.49
   1  -5   3 1574.24   41.60
   1  -5   3 1526.95   30.30
   1  -5   3 1462.65  287.37
   1  -5   3 1509.55   39.10
  -2   5  -3 2326.57   48.10
  -2   5  -3 2298.17   63.99
  -2   5  -3 2440.36   51.09
  -2   5  -3 2049.70  320.07
   2  -5   3 2347.86   39.90
   2  -5   3 2320.27   45.70
   2  -5   3 2370.16   53.99
   2  -5   3 2208.58  350.56
  -3   5  -3 1128.89   36.00
  -3   5  -3 1033.60  365.96
  -3   5  -3 1171.28   47.70
   3  -5   3 1132.39   37.90
   3  -5   3 1144.09   38.60
   3  -5   3 1281.27  352.96
   3  -5   3 1173.48   28.70
   3  -5   3 1254.77   86.99
  -4   5  -3    7.40    9.70
  -4   5  -3    0.80    7.30
  -4   5  -3   12.40    7.20
   4  -5   3    4.80   12.20
   4  -5   3   -3.70    5.00
   4  -5   3    9.90    7.50
  -5   5  -3  316.77   25.00
  -5   5  -3  360.76   23.80
   5  -5   3  332.47   18.50
   5  -5   3  315.47   22.60
   5  -5   3  280.77   58.59
   5  -5   3  320.97   22.20
  -6   5  -3  395.56   30.00
  -6   5  -3  361.86   26.00
   6  -5   3  460.05   27.00
   6  -5   3  404.26   27.80
   6  -5   3  441.56   22.80
   6  -5   3  393.46   68.99
  -7   5  -3  704.13   66.19
  -7   5  -3  531.15   40.70
   7  -5   3  541.95   28.20
   7  -5   3  420.66  100.89
   7  -5   3  541.05   30.70
   7  -5   3  562.64   35.30
  -8   5  -3  145.29   23.30
  -8   5  -3  127.59   25.80
   8  -5   3  168.48   21.30
   8  -5   3  129.49   24.10
  -9   5  -3   24.30   19.50
  -9   5  -3    4.30   14.10
   9  -5   3   -0.10   15.60
   9  -5   3   21.50   11.90
 -10   5  -3   97.19   28.30
 -10   5  -3  126.49   42.30
  10  -5   3   95.89   31.10
  10  -5   3   84.19   24.70
  10   4  -3   -2.10   12.60
  10   4  -3   -1.20   15.30
 -10  -4   3    9.40   22.20
 -10  -4   3    1.40   16.90
   9   4  -3   -1.60   12.30
   9   4  -3    7.20   17.80
  -9  -4   3    3.50   13.40
  -9  -4   3    1.40    9.20
  -9  -4   3   20.60   18.20
   8   4  -3   35.00   15.50
   8   4  -3   25.80   11.80
   8   4  -3   22.40   12.30
  -8  -4   3   31.40   16.90
  -8  -4   3   36.40   15.40
   7   4  -3  312.37   23.50
   7   4  -3  303.77   26.10
   7   4  -3  289.87   24.00
  -7  -4   3  328.67   18.00
  -7  -4   3  322.07   31.30
  -7  -4   3  392.66   73.59
  -7  -4   3  326.67   33.30
  -7  -4   3  265.27   71.29
   6   4  -3  384.36   24.70
   6   4  -3  398.16   24.00
   6   4  -3  420.16   27.20
  -6  -4   3  402.76   17.10
  -6  -4   3  564.94   79.29
  -6  -4   3  398.16   29.00
  -6  -4   3  378.16   76.09
  -6  -4   3  421.46   27.60
   5   4  -3  217.38   19.70
   5   4  -3  256.67   19.10
   5   4  -3  236.68   19.20
  -5  -4   3  238.28   22.50
  -5  -4   3  196.08   42.50
  -5  -4   3  308.67   66.49
  -5  -4   3  252.67   24.90
  -5  -4   3  219.98   11.40
   4   4  -3  174.08   16.70
   4   4  -3  172.78   17.10
   4   4  -3 -100.79  236.38
   4   4  -3  184.08   17.80
  -4  -4   3  178.28   18.90
  -4  -4   3  165.58   44.30
  -4  -4   3  144.29   16.30
  -4  -4   3  682.43  305.57
  -4  -4   3  174.28   37.60
   3   4  -3  944.01   31.10
   3   4  -3 1051.29  223.08
   3   4  -3  987.80   30.40
   3   4  -3  994.60   30.70
  -3  -4   3  955.00   73.99
  -3  -4   3  930.31   30.10
  -3  -4   3 1115.69  217.48
  -3  -4   3  920.91   61.09
  -3  -4   3  981.10   32.30
   2   4  -3 2878.81   52.99
   2   4  -3 2919.81   51.99
   2   4  -3 2971.50   56.09
   2   4  -3 2783.62  297.77
  -2  -4   3 2729.03  109.19
  -2  -4   3 2816.92   58.99
  -2  -4   3 2844.22  269.17
  -2  -4   3 2915.51   98.79
  -2  -4   3 2939.01   82.39
  -2  -4   3 2860.31   55.89
   1   4  -3  871.61   28.90
   1   4  -3  755.82  197.78
  -1  -4   3  702.43  166.98
  -1  -4   3  770.92   46.70
  -1  -4   3  906.11   27.70
  -1  -4   3  889.71   49.80
  -1  -4   3  769.22   24.30
  -1  -4   3  893.41   48.10
   0   4  -3   31.50    7.20
   0   4  -3   36.10  153.38
   0   4  -3   21.70    4.60
   0   4  -3   22.10    5.30
   0  -4   3   67.19  170.88
   0  -4   3   21.20    6.60
   0  -4   3   32.60    4.90
   0  -4   3    6.60    8.70
   0  -4   3   31.30    6.90
  -1   4  -3 1446.56  234.38
  -1   4  -3 1391.06   54.59
  -1   4  -3 1294.57   30.30
  -1   4  -3 1266.07   36.80
   1  -4   3 1464.35   76.39
   1  -4   3 1315.97   33.60
   1  -4   3 1079.99  229.48
  -2   4  -3 4081.39   66.89
  -2   4  -3 4246.48  377.56
  -2   4  -3 4027.90  101.59
  -2   4  -3 4106.49   67.99
   2  -4   3 4104.89   65.99
   2  -4   3 4188.08   71.59
   2  -4   3 3378.96  378.96
   2  -4   3 4252.07  143.09
  -3   4  -3 4223.98  491.95
  -3   4  -3 3486.95   63.89
  -3   4  -3 3395.66   89.89
   3  -4   3 2833.32  435.36
   3  -4   3 3519.45   54.99
   3  -4   3 3468.75   63.29
   3  -4   3 3365.36   64.89
  -4   4  -3  354.96   20.50
  -4   4  -3  324.17   45.90
  -4   4  -3  336.67   39.40
  -4   4  -3  796.42  371.96
  -4   4  -3  343.97   22.30
   4  -4   3  323.87   23.00
   4  -4   3  373.26   62.19
   4  -4   3  299.27  361.56
   4  -4   3  346.77   16.60
   4  -4   3  343.47   20.00
  -5   4  -3    4.80    7.90
  -5   4  -3    0.40    6.80
  -5   4  -3    1.90    7.80
  -5   4  -3    1.60   12.70
  -5   4  -3    9.10   12.50
   5  -4   3   -2.50    4.40
   5  -4   3    2.60    7.20
   5  -4   3   -3.50   11.80
  -6   4  -3  590.94   64.09
  -6   4  -3  513.55   29.00
  -6   4  -3  505.15   32.20
   6  -4   3  447.56   71.09
   6  -4   3  552.24   27.40
   6  -4   3  574.04   25.70
   6  -4   3  604.34   32.70
  -7   4  -3  660.43   39.30
  -7   4  -3  634.74   34.30
   7  -4   3  668.53   37.90
   7  -4   3  611.14   29.20
   7  -4   3  564.64   86.29
  -8   4  -3  511.65   34.60
  -8   4  -3  524.35   47.70
   8  -4   3  495.35   28.80
   8  -4   3  425.66   34.90
   8  -4   3  385.46   74.59
  -9   4  -3    9.00   16.70
  -9   4  -3   -2.80   12.70
   9  -4   3   -4.30   14.70
   9  -4   3    8.80   11.20
 -10   4  -3   -4.20   15.80
 -10   4  -3   -2.20   18.20
  10  -4   3   -7.30   11.00
  10   3  -3   -6.60   13.90
  10   3  -3   21.00   13.50
 -10  -3   3   10.30   13.00
 -10  -3   3    5.70   16.80
 -10  -3   3    7.70   17.60
   9   3  -3    6.80   12.60
   9   3  -3    1.80    9.60
  -9  -3   3   11.80   15.40
  -9  -3   3   21.90   14.70
  -9  -3   3   11.00   11.30
   8   3  -3    9.90    9.50
   8   3  -3   -7.70    8.80
  -8  -3   3    4.50   12.10
  -8  -3   3    4.80   11.40
  -8  -3   3   -9.60   16.40
  -8  -3   3   -9.40   11.20
   7   3  -3   24.50   10.90
   7   3  -3   17.70   10.00
   7   3  -3   25.90    9.50
  -7  -3   3   29.50   28.10
  -7  -3   3   16.00   11.80
  -7  -3   3   19.60   11.80
  -7  -3   3   22.60   21.20
  -7  -3   3   22.40    8.90
   6   3  -3   27.10    6.90
   6   3  -3   17.40    8.00
   6   3  -3   16.10    8.70
   6   3  -3   27.30    9.90
  -6  -3   3   62.89   38.90
  -6  -3   3   57.29   29.80
  -6  -3   3   19.70   10.10
  -6  -3   3    9.00    8.60
  -6  -3   3   38.90    8.90
   5   3  -3    4.20    5.80
   5   3  -3   -1.00    3.50
   5   3  -3   -2.30    5.60
   5   3  -3   -1.10    5.40
  -5  -3   3    3.50    4.20
  -5  -3   3    7.20   12.80
  -5  -3   3   14.20   18.80
  -5  -3   3    4.30    6.90
  -5  -3   3    4.40    6.70
   4   3  -3   95.59  202.98
   4   3  -3    4.40    4.90
   4   3  -3    0.40    4.90
   4   3  -3    3.40    4.80
  -4  -3   3    7.10    4.20
  -4  -3   3 -182.38  211.58
  -4  -3   3    9.20   11.30
  -4  -3   3    5.40   11.10
  -4  -3   3    2.50    5.30
   3   3  -3   52.59    9.40
   3   3  -3   46.90    8.30
   3   3  -3  171.38  163.58
   3   3  -3   47.10    7.80
  -3  -3   3   61.09    9.70
  -3  -3   3   47.00   16.80
  -3  -3   3    0.60  158.28
  -3  -3   3   81.19   27.50
  -3  -3   3   54.19    7.80
   2   3  -3    1.80    4.00
   2   3  -3  -16.70  135.49
   2   3  -3    2.50    3.60
  -2  -3   3    6.80    7.60
  -2  -3   3 -100.39  123.79
  -2  -3   3    1.10    5.20
  -2  -3   3    2.60    4.10
  -2  -3   3    6.20    3.40
  -2  -3   3   -1.40    5.80
   1   3  -3  601.54  166.08
   1   3  -3  575.94   31.80
  -1  -3   3  570.04   35.70
  -1  -3   3  723.63  166.18
  -1  -3   3  556.24   35.50
   0   3  -3   15.00  136.99
   0   3  -3  158.08   17.00
   0   3  -3  150.88   19.00
   0  -3   3  151.48   26.70
   0  -3   3  228.58  149.69
  -1   3  -3   74.39  151.88
  -1   3  -3   16.50    8.00
   1  -3   3   19.80   12.50
   1  -3   3  -30.60  161.08
  -2   3  -3  796.92   39.30
  -2   3  -3  761.82   38.70
  -2   3  -3  787.52   24.30
  -2   3  -3  674.53  213.28
   2  -3   3  767.32   23.90
   2  -3   3  784.82   24.90
   2  -3   3  695.13   52.49
   2  -3   3  592.64  215.98
  -3   3  -3  444.16   33.70
  -3   3  -3  433.06   38.70
  -3   3  -3  369.66  301.77
  -3   3  -3  406.16   19.00
   3  -3   3  411.86   51.59
   3  -3   3  391.76   15.30
   3  -3   3  125.09  265.57
   3  -3   3  378.46   18.10
   3  -3   3  386.66   19.20
  -4   3  -3  851.11   51.99
  -4   3  -3  900.41   31.10
  -4   3  -3  952.60  418.56
  -4   3  -3  975.60   41.70
  -4   3  -3  873.01   39.70
   4  -3   3  918.71   32.40
   4  -3   3  873.31  108.39
   4  -3   3  867.81   25.80
   4  -3   3  867.71   28.60
   4  -3   3 1403.56  377.46
  -5   3  -3  374.76   20.70
  -5   3  -3  368.56   47.10
  -5   3  -3  342.87   59.19
  -5   3  -3  377.96   22.70
  -5   3  -3  380.56   25.10
  -5   3  -3  869.91  485.55
   5  -3   3  168.88  398.86
   5  -3   3  376.66   23.90
   5  -3   3  382.26   19.00
   5  -3   3  391.36   63.39
   5  -3   3  411.56   20.70
  -6   3  -3   33.40   18.30
  -6   3  -3   42.80   28.20
  -6   3  -3   28.50   11.80
  -6   3  -3   41.30   28.30
  -6   3  -3   35.10   10.50
   6  -3   3   37.10   10.10
   6  -3   3   33.50   12.10
   6  -3   3   17.40   18.60
   6  -3   3   27.80    9.30
  -7   3  -3  151.98   23.60
  -7   3  -3  144.19   38.80
  -7   3  -3   99.99   43.40
  -7   3  -3  106.49   18.90
  -7   3  -3  119.29   19.30
   7  -3   3  124.49   40.70
   7  -3   3  135.29   17.20
   7  -3   3  105.29   19.10
  -8   3  -3  501.85   34.50
  -8   3  -3  396.06   65.49
  -8   3  -3  600.24   59.49
  -8   3  -3  461.05   32.80
   8  -3   3  522.45   37.10
   8  -3   3  520.65   29.10
  -9   3  -3   52.49   20.50
  -9   3  -3  103.29   31.60
   9  -3   3   78.89   19.70
 -10   3  -3   20.40   19.40
 -10   3  -3   20.70   17.70
  10  -3   3   21.20   14.20
  10   2  -3  425.56   32.60
  10   2  -3  412.26   35.10
 -10  -2   3  488.35   39.60
 -10  -2   3  383.76   42.30
 -10  -2   3  489.65   33.10
   9   2  -3  209.28   27.70
   9   2  -3  192.58   22.60
  -9  -2   3  227.28   25.60
  -9  -2   3  199.18   30.30
  -9  -2   3  221.28   28.20
   8   2  -3    2.90    8.20
   8   2  -3    2.50    7.20
   8   2  -3   -2.50    8.40
  -8  -2   3   -0.30   10.40
  -8  -2   3   -4.50   34.10
  -8  -2   3   -0.20    8.20
  -8  -2   3    4.40   12.40
  -8  -2   3    1.80   18.70
   7   2  -3  184.48   13.70
   7   2  -3  175.08   18.50
   7   2  -3  202.48   22.30
  -7  -2   3  253.07   53.29
  -7  -2   3  155.48   21.70
  -7  -2   3  124.89   45.70
  -7  -2   3  158.88   20.00
  -7  -2   3  208.18   20.40
   6   2  -3  629.44   29.00
   6   2  -3  637.14   27.80
   6   2  -3  618.94   20.80
   6   2  -3  618.34   25.50
  -6  -2   3  632.74   31.70
  -6  -2   3  712.93   31.70
  -6  -2   3  687.33   78.09
  -6  -2   3  611.84   26.10
  -6  -2   3  594.24  105.69
   5   2  -3  839.32   27.50
   5   2  -3  895.31   39.30
   5   2  -3  822.22   33.40
   5   2  -3  835.02   21.10
   5   2  -3  996.20  278.57
  -5  -2   3  911.31   82.49
  -5  -2   3  889.81   43.30
  -5  -2   3  486.25  286.57
  -5  -2   3  760.12   60.19
   4   2  -3  375.36   16.70
   4   2  -3  201.18  195.38
   4   2  -3  330.07   17.30
  -4  -2   3  391.66   19.60
  -4  -2   3  366.66   59.29
  -4  -2   3  342.17   44.10
  -4  -2   3  351.16   16.00
  -4  -2   3  474.95  219.78
   3   2  -3  759.32   25.60
   3   2  -3  726.73   22.90
   3   2  -3  749.03  169.88
  -3  -2   3  698.53   46.10
  -3  -2   3  739.83   24.10
  -3  -2   3  626.84   52.49
  -3  -2   3  726.93   20.50
  -3  -2   3 1212.38  214.88
   2   2  -3   18.30    9.90
   2   2  -3  -23.20  115.99
  -2  -2   3    5.00    5.70
  -2  -2   3    9.80    8.80
  -2  -2   3    6.80  117.59
   1   2  -3  483.35  153.28
   1   2  -3  601.44   30.20
  -1  -2   3  763.92  150.98
  -1  -2   3  649.54   39.90
   0   2  -3  423.46   24.60
   0   2  -3  450.75   24.50
   0   2  -3  352.66  134.99
   0  -2   3  433.86   32.80
   0  -2   3  696.23  161.08
  -1   2  -3  158.38   19.90
  -1   2  -3  200.18   23.90
  -1   2  -3  277.97  159.78
   1  -2   3  151.98  233.38
   1  -2   3  159.88   25.90
  -2   2  -3  190.48   30.30
  -2   2  -3 -504.75  175.38
  -2   2  -3  160.48   24.00
   2  -2   3  184.48  174.88
  -3   2  -3  445.36  249.28
   3  -2   3   80.69  245.18
  -4   2  -3    1.80    5.10
  -4   2  -3    6.70   12.20
  -4   2  -3   13.90    7.20
  -4   2  -3   12.50    6.20
  -4   2  -3    9.00  309.57
  -4   2  -3   -3.20    7.70
   4  -2   3    7.70    4.90
   4  -2   3 -202.58  297.97
   4  -2   3    5.80    4.30
   4  -2   3    2.70    6.90
   4  -2   3   -1.20    8.00
  -5   2  -3  161.88   26.60
  -5   2  -3  -10.60  437.06
  -5   2  -3  107.19   35.80
  -5   2  -3   84.99   27.50
  -5   2  -3  121.89   15.30
  -5   2  -3  117.59   15.20
   5  -2   3  246.18  389.56
   5  -2   3  112.49   15.60
   5  -2   3   90.79   29.20
   5  -2   3  133.09   13.20
   5  -2   3   99.69   11.90
   5  -2   3  114.19   12.60
  -6   2  -3   56.29   13.10
  -6   2  -3   81.29   16.10
  -6   2  -3   95.39   39.10
  -6   2  -3  102.09   19.00
  -6   2  -3   41.90   22.30
   6  -2   3   91.29   12.80
   6  -2   3   56.89   16.60
   6  -2   3   54.09   24.90
  -7   2  -3   13.10    9.50
  -7   2  -3  -12.80   13.70
  -7   2  -3   14.20   12.30
  -7   2  -3   -0.30   19.00
   7  -2   3   -0.90   11.10
   7  -2   3   -1.10    6.80
   7  -2   3   -7.10   13.10
  -8   2  -3  -15.80   15.80
  -8   2  -3   19.80   13.40
  -8   2  -3   31.80   15.50
  -8   2  -3   29.60   35.10
  -8   2  -3   33.60   15.00
   8  -2   3   25.60   11.10
  -9   2  -3   38.40   33.40
  -9   2  -3   58.99   21.20
  -9   2  -3   45.50   18.20
 -10   2  -3   36.20   20.60
 -10   2  -3   41.40   19.80
 -10   2  -3   46.50   22.70
  10  -2   3   59.49   18.00
  11   1  -3   46.70   19.50
 -11  -1   3   21.30   24.10
 -11  -1   3   72.89   24.10
 -11  -1   3   39.00   22.80
  10   1  -3  340.57   24.40
 -10  -1   3  280.07   30.80
 -10  -1   3  333.97   40.20
 -10  -1   3  313.97   35.20
   9   1  -3  457.55   26.70
   9   1  -3  459.25   32.30
   9   1  -3  465.15   24.90
  -9  -1   3  433.86   75.09
  -9  -1   3  505.45   32.60
  -9  -1   3  466.75   34.60
  -9  -1   3  456.25   36.20
   8   1  -3  109.99   18.00
   8   1  -3  111.89   15.70
  -8  -1   3  112.29   17.60
  -8  -1   3  109.19   18.80
  -8  -1   3   60.89   39.40
  -8  -1   3   72.79   34.90
  -8  -1   3   91.29   19.20
   7   1  -3   15.90    6.80
   7   1  -3   16.80    7.40
   7   1  -3   -0.30   11.40
  -7  -1   3    5.90    8.20
  -7  -1   3    8.50    8.60
  -7  -1   3    8.30    7.60
  -7  -1   3    6.00   15.30
  -7  -1   3   -4.50   13.00
   6   1  -3  270.77   16.30
   6   1  -3  288.87   14.40
  -6  -1   3  319.97   21.10
  -6  -1   3  254.27   57.29
  -6  -1   3  217.98   43.40
  -6  -1   3  280.77   18.90
   5   1  -3 1524.75  300.17
   5   1  -3 1504.45   30.60
   5   1  -3 1478.75   34.70
   5   1  -3 1587.34   38.80
  -5  -1   3 1402.76  340.67
  -5  -1   3 1519.95  102.99
  -5  -1   3 1598.74   42.50
  -5  -1   3 1576.34   39.80
  -5  -1   3 1424.76   78.19
   4   1  -3 1129.49  241.28
   4   1  -3 1217.08   28.20
  -4  -1   3 1239.58   76.89
  -4  -1   3 1209.78   32.80
  -4  -1   3 1173.98   78.09
  -4  -1   3 1441.06  274.37
  -4  -1   3 1211.08   31.10
   3   1  -3  872.31   50.39
   3   1  -3  659.53  162.28
  -3  -1   3  812.62  174.38
  -3  -1   3  866.41   47.80
   2   1  -3 4231.98  281.07
   2   1  -3 4306.77  104.09
  -2  -1   3 4195.08   83.99
  -2  -1   3 4366.56  262.07
   1   1  -3  458.15  120.49
   1   1  -3  395.06   30.80
   1   1  -3  422.16   23.90
  -1  -1   3  479.35   29.80
  -1  -1   3  534.35  123.49
   0   1  -3 7995.90  372.56
   0   1  -3 7416.26  132.49
   0   1  -3 7671.53  125.29
   0  -1   3 7676.43  144.59
   0  -1   3 7398.56  421.66
  -1   1  -3  876.71  171.28
  -1   1  -3  844.52   38.80
   1  -1   3  877.91  179.78
   1  -1   3  861.41   46.80
  -2   1  -3   95.19  153.08
  -2   1  -3   53.89   19.50
  -2   1  -3   46.00   14.40
   2  -1   3   50.19  166.78
   2  -1   3   48.30   16.10
  -3   1  -3  383.36  239.88
  -3   1  -3  923.91   27.10
  -3   1  -3  901.21   29.30
  -3   1  -3  910.41   52.19
   3  -1   3  871.51   56.79
   3  -1   3  857.51  253.77
  -4   1  -3 1398.16   37.10
  -4   1  -3 1330.67   39.90
  -4   1  -3 1322.87   70.59
  -4   1  -3 1422.66  355.56
  -4   1  -3 1354.06   38.40
  -4   1  -3 1415.46   94.29
   4  -1   3 1381.26   32.60
   4  -1   3  998.20  330.57
   4  -1   3 1433.96   77.59
  -5   1  -3  656.43   30.60
  -5   1  -3  565.14   26.30
  -5   1  -3  651.93   29.50
  -5   1  -3  596.64   65.29
  -5   1  -3  583.84   83.29
   5  -1   3  623.34   55.49
   5  -1   3  615.04   23.30
   5  -1   3  633.14   24.70
  -6   1  -3  238.38   24.40
  -6   1  -3  185.18   55.09
  -6   1  -3  223.98   21.90
  -6   1  -3  231.28   44.40
  -6   1  -3  243.38   24.80
   6  -1   3  254.57   26.50
   6  -1   3  243.08   25.10
   6  -1   3  223.58   17.90
   6  -1   3  153.48   36.20
  -7   1  -3    9.50   10.40
  -7   1  -3   13.40   23.60
  -7   1  -3   -8.40    8.90
  -7   1  -3    9.00   10.00
  -7   1  -3   -0.60   14.80
   7  -1   3    9.90    8.30
   7  -1   3   -0.70    8.00
  -8   1  -3   16.80   24.50
  -8   1  -3   27.30   15.90
  -8   1  -3   12.50   13.20
  -8   1  -3    1.50   26.90
  -8   1  -3   25.70   13.80
   8  -1   3   16.70    9.80
  -9   1  -3   10.10   14.50
  -9   1  -3    5.40   22.50
 -10   1  -3    7.00   17.50
 -10   1  -3    8.70   16.00
 -10   1  -3   24.60   18.30
  11   0  -3    3.10   14.80
  11   0  -3    2.40   11.30
 -11   0   3   -9.00   14.80
 -11   0   3   20.50   18.40
 -11   0   3    7.50   16.30
  10   0  -3    6.20    9.20
  10   0  -3   -8.40   10.20
 -10   0   3   -1.10   14.00
 -10   0   3  -10.30   19.50
   9   0  -3  170.58   22.90
   9   0  -3  176.08   19.00
  -9   0   3  126.29   23.10
  -9   0   3  186.78   25.50
  -9   0   3  235.58   28.00
  -9   0   3  104.69   40.50
   8   0  -3   49.90   10.50
   8   0  -3   42.80   10.30
   8   0  -3   44.20   12.50
  -8   0   3   27.10   11.50
  -8   0   3   36.60   27.60
  -8   0   3   20.70   27.20
  -8   0   3   56.89   15.50
  -8   0   3   45.60   12.80
   7   0  -3  378.26   18.80
   7   0  -3  346.17   18.80
  -7   0   3  388.86   24.60
  -7   0   3  412.26   25.30
  -7   0   3  410.56   59.49
  -7   0   3  304.07   66.79
   6   0  -3   40.30   10.40
   6   0  -3   40.00    7.20
   6   0  -3   41.00    7.50
  -6   0   3   50.49   10.80
  -6   0   3   44.80   23.40
  -6   0   3   63.89   31.80
  -6   0   3   49.80   10.60
   5   0  -3  806.52   22.70
   5   0  -3  759.32   21.40
   5   0  -3  731.03   41.70
   5   0  -3 1272.77  308.17
  -5   0   3  803.12   28.10
  -5   0   3  773.92   27.70
  -5   0   3  758.82   53.99
  -5   0   3  747.63  281.07
  -5   0   3  770.92   88.89
   4   0  -3 1727.33   78.89
   4   0  -3 1797.52   37.60
   4   0  -3 1892.41   77.39
   4   0  -3 1916.01  299.87
  -4   0   3 1740.33  271.57
  -4   0   3 1885.11   74.59
  -4   0   3 1819.82   39.80
  -4   0   3 1809.62   40.50
   3   0  -3  106.59   20.00
   3   0  -3   82.89   18.90
   3   0  -3  -52.59  129.69
  -3   0   3  195.18  136.69
  -3   0   3   85.79   18.10
   2   0  -3 1346.57   55.39
   2   0  -3 1300.27   53.39
   2   0  -3 1337.27  189.68
  -2   0   3 1466.35  187.98
   1   0  -3  595.14   38.40
   1   0  -3  530.55   25.30
   1   0  -3  536.95  120.59
  -1   0   3  529.15   31.20
  -1   0   3  701.43  131.39
   0   0  -3 3962.20  259.07
   0   0  -3 4039.70   84.39
   0   0   3 4054.79  252.77
   0   0   3 4190.38   99.49
  -1   0  -3 3382.26  103.99
  -1   0  -3 3471.25   86.39
  -1   0  -3 3650.43  286.77
   1   0   3 3565.74   98.69
   1   0   3 3120.99  281.87
  -2   0  -3  435.86  168.68
  -2   0  -3  448.26   34.40
  -2   0  -3  500.95   46.30
   2   0   3  643.94  191.58
   2   0   3  570.04   40.80
  -3   0  -3    0.90    7.40
  -3   0  -3    3.30    4.40
  -3   0  -3    6.40   10.10
  -3   0  -3    1.60    5.40
  -3   0  -3 -106.29  210.68
  -3   0  -3   -1.10    4.70
   3   0   3    1.70    3.40
   3   0   3  116.79  208.88
   3   0   3   -4.00    6.30
  -4   0  -3 1033.50   34.00
  -4   0  -3 1068.79   35.60
  -4   0  -3 1128.09   88.69
  -4   0  -3 1023.20   31.60
  -4   0  -3 1052.29   65.39
   4   0   3 1057.29   28.40
   4   0   3 1068.69   37.30
   4   0   3 1197.68   68.89
  -5   0  -3 2577.64   57.89
  -5   0  -3 2482.95  111.89
  -5   0  -3 2551.34   60.29
  -5   0  -3 2534.85   62.69
  -5   0  -3 2572.74  149.19
   5   0   3 2584.84  108.39
   5   0   3 2462.45   55.39
   5   0   3 2507.65   51.09
  -6   0  -3  768.02   33.50
  -6   0  -3  877.31  119.69
  -6   0  -3  769.52   84.99
  -6   0  -3  730.03   36.30
  -6   0  -3  694.63   39.60
   6   0   3  766.62   32.30
   6   0   3  796.22   65.89
  -7   0  -3   31.40   25.80
  -7   0  -3   56.39   15.10
  -7   0  -3   64.69   16.00
  -7   0  -3   91.19   45.90
  -7   0  -3   77.99   15.80
   7   0   3   58.59   14.30
   7   0   3   66.09   12.80
  -8   0  -3   75.19   17.60
  -8   0  -3   43.60   16.60
  -8   0  -3  103.59   40.80
  -8   0  -3   67.19   19.20
   8   0   3   60.99   16.40
   8   0   3   52.39   13.00
  -9   0  -3  172.28   36.20
  -9   0  -3  162.68   25.70
  -9   0  -3  249.48   33.80
 -10   0  -3  379.56   43.90
 -10   0  -3  392.26   40.60
 -10   0  -3  305.57   37.80
  11  -1  -3   -2.40   12.10
  11  -1  -3   10.30   11.80
 -11   1   3    9.40   15.70
 -11   1   3   17.80   17.90
 -11   1   3  -22.60   13.20
  10  -1  -3    8.40   11.60
  10  -1  -3   17.30   10.50
 -10   1   3    4.90   14.50
 -10   1   3   23.50   29.10
 -10   1   3   21.60   15.30
 -10   1   3    1.50   12.80
   9  -1  -3   15.00   10.20
   9  -1  -3   32.20   10.80
  -9   1   3   37.00   14.20
  -9   1   3   34.70   26.10
  -9   1   3    6.60   15.90
  -9   1   3   -1.70   11.20
   8  -1  -3   13.00    7.50
  -8   1   3   28.00   32.30
  -8   1   3   17.00   11.40
  -8   1   3    6.40    9.70
  -8   1   3   28.60   25.80
  -8   1   3   22.10   10.80
   7  -1  -3    6.70    5.70
   7  -1  -3    5.60    7.60
   7  -1  -3    1.40    5.90
  -7   1   3   19.50   16.80
  -7   1   3   10.70   18.90
  -7   1   3   -4.50    6.30
  -7   1   3    3.80    7.30
   6  -1  -3  278.47  342.67
   6  -1  -3   81.49   10.10
   6  -1  -3   75.99   11.90
   6  -1  -3   86.29   13.60
  -6   1   3   56.19   13.90
  -6   1   3   89.59   34.70
  -6   1   3   47.50   20.80
  -6   1   3  102.29   14.00
   5  -1  -3  205.18   15.90
   5  -1  -3  192.78   12.00
   5  -1  -3  299.57  302.67
   5  -1  -3  236.98   35.50
   5  -1  -3  185.98   11.30
  -5   1   3  201.48   14.10
  -5   1   3  227.38  259.67
  -5   1   3  181.08   14.30
  -5   1   3  241.48   37.70
  -5   1   3  182.98   42.80
   4  -1  -3    5.40    7.20
   4  -1  -3    1.10    3.20
   4  -1  -3   -1.30    2.60
   4  -1  -3    7.10    8.80
   4  -1  -3  -82.19  182.08
  -4   1   3    3.00    3.80
  -4   1   3    3.30    7.50
  -4   1   3   13.40  190.08
   3  -1  -3  176.18   30.10
   3  -1  -3  130.59   24.00
   3  -1  -3  257.17  147.99
  -3   1   3  131.59   20.20
  -3   1   3  188.58  133.69
   2  -1  -3 1774.12   64.79
   2  -1  -3 1772.32   46.30
   2  -1  -3 2077.89  198.98
   2  -1  -3 1852.81   73.59
  -2   1   3 2008.90  194.68
   1  -1  -3 1099.59   36.90
   1  -1  -3 1128.69   56.89
   1  -1  -3 1117.39   49.90
   1  -1  -3 1060.59  160.48
  -1   1   3  956.20  142.89
   0  -1  -3  602.24   41.40
   0  -1  -3  550.44  137.09
   0  -1  -3  557.24   29.90
   0   1   3  601.44   36.70
   0   1   3  701.63  127.89
  -1  -1  -3 1993.70   85.49
  -1  -1  -3 1703.53  208.78
  -1  -1  -3 1910.01   65.49
   1   1   3 1560.64  201.78
   1   1   3 1880.11   69.19
  -2  -1  -3 1000.20  208.08
  -2  -1  -3  843.92   23.70
  -2  -1  -3  926.51   67.89
  -2  -1  -3  840.92   26.50
  -2  -1  -3  785.92   47.20
   2   1   3  912.91  216.98
   2   1   3  871.31   49.30
  -3  -1  -3 -388.06  210.28
  -3  -1  -3  287.57   52.79
  -3  -1  -3  231.78   16.00
  -3  -1  -3  223.98   34.70
  -3  -1  -3  206.48   13.60
  -3  -1  -3  199.18   12.90
   3   1   3  231.08   33.90
   3   1   3  233.78   14.00
   3   1   3  400.86  243.08
  -4  -1  -3  364.66   67.39
  -4  -1  -3  363.76   19.60
  -4  -1  -3  352.86   19.00
  -4  -1  -3  369.96   22.10
  -4  -1  -3  300.87   45.40
   4   1   3  338.47   43.80
   4   1   3  358.26   19.60
  -5  -1  -3  478.45   24.60
  -5  -1  -3  448.66   24.00
  -5  -1  -3  486.85   63.69
  -5  -1  -3  472.75   27.60
  -5  -1  -3  564.94   93.79
   5   1   3  494.95   26.50
   5   1   3  505.45   47.00
  -6  -1  -3  483.55   84.29
  -6  -1  -3  588.94   33.50
  -6  -1  -3  600.84   30.20
  -6  -1  -3  605.14   34.40
  -6  -1  -3  520.25   91.39
   6   1   3  570.04   29.70
  -7  -1  -3  154.88   20.30
  -7  -1  -3  172.28   65.09
  -7  -1  -3  178.68   24.90
  -7  -1  -3  107.19   35.90
  -7  -1  -3  152.18   21.30
   7   1   3  149.19   20.60
  -8  -1  -3   45.90   37.70
  -8  -1  -3   76.29   18.40
  -8  -1  -3   65.29   17.20
  -8  -1  -3   70.29   20.30
   8   1   3   65.79   17.80
  -9  -1  -3  233.68   29.20
  -9  -1  -3  255.77   35.60
  -9  -1  -3  249.68   30.90
   9   1   3  221.58   29.20
  11  -2  -3  233.58   29.10
  11  -2  -3  172.08   22.60
 -11   2   3  270.47   33.80
 -11   2   3  254.97   34.70
 -11   2   3  161.48   30.10
  10  -2  -3   -5.40    9.90
  10  -2  -3   -2.90    8.30
 -10   2   3   -4.70   11.90
 -10   2   3    1.40   12.80
 -10   2   3   -3.90   11.90
   9  -2  -3   27.20   18.10
   9  -2  -3   54.99   14.30
  -9   2   3   42.80   36.80
  -9   2   3   50.99   16.30
  -9   2   3   34.30   14.30
  -9   2   3   36.40   16.60
  -9   2   3   83.09   31.90
   8  -2  -3  362.86   21.10
   8  -2  -3  373.16   28.60
  -8   2   3  364.96   59.09
  -8   2   3  397.76   26.50
  -8   2   3  431.26   84.39
  -8   2   3  367.46   27.90
   7  -2  -3  219.78   15.40
   7  -2  -3  197.38   19.70
   7  -2  -3  150.38   33.40
   7  -2  -3  226.18   24.20
  -7   2   3  177.08   19.60
  -7   2   3  236.98   24.60
  -7   2   3  219.18   55.49
  -7   2   3  227.88   44.20
   6  -2  -3  -48.60  378.46
   6  -2  -3   -3.60    7.40
   6  -2  -3  -27.20  682.13
   6  -2  -3   11.60    5.70
   6  -2  -3    7.80    7.10
   6  -2  -3    0.00    5.60
  -6   2   3   -4.20    7.30
  -6   2   3   -5.00    4.90
  -6   2   3   25.90   19.40
   5  -2  -3   79.19  281.17
   5  -2  -3  132.59   30.00
   5  -2  -3  140.39   10.50
   5  -2  -3  155.58   16.10
   5  -2  -3  164.08   16.60
   5  -2  -3  200.88   38.80
   5  -2  -3  135.39   10.00
  -5   2   3  152.58   12.30
  -5   2   3  144.29   26.40
  -5   2   3  164.68   24.50
   4  -2  -3  889.71   53.79
   4  -2  -3  915.51   23.00
   4  -2  -3  960.80   61.99
   4  -2  -3 1110.49  244.18
   4  -2  -3  944.01   29.60
   4  -2  -3  949.71   24.60
  -4   2   3 1142.99  264.77
  -4   2   3  917.71   45.30
   3  -2  -3  362.56   49.10
   3  -2  -3  306.37   28.80
   3  -2  -3  553.14  164.88
  -3   2   3  211.38  150.68
  -3   2   3  307.47   21.90
   2  -2  -3  323.47   43.60
   2  -2  -3  355.66  133.99
   2  -2  -3  286.37   26.70
   2  -2  -3  270.77   16.30
  -2   2   3  232.38  112.99
   1  -2  -3   34.80   96.79
   1  -2  -3    5.90    5.60
   1  -2  -3   -6.60    5.60
   1  -2  -3    3.90   10.30
  -1   2   3  -18.80   82.39
   0  -2  -3   19.30   95.19
   0  -2  -3    9.40    7.70
   0  -2  -3   16.70   13.00
   0  -2  -3   24.20   14.70
   0   2   3  -65.89   89.89
  -1  -2  -3   11.70    9.60
  -1  -2  -3   29.70   17.60
  -1  -2  -3   32.80   14.50
  -1  -2  -3  -35.50  114.59
   1   2   3   -2.30  119.29
  -2  -2  -3 1083.39   32.20
  -2  -2  -3 1092.89   25.20
  -2  -2  -3 1110.79  196.98
  -2  -2  -3 1099.69   59.49
  -2  -2  -3 1149.08   32.70
  -2  -2  -3 1081.99   77.89
   2   2   3 1222.28  229.98
   2   2   3 1138.29   29.70
   2   2   3 1114.99   26.80
   2   2   3 1131.89   30.50
  -3  -2  -3  201.48   12.50
  -3  -2  -3  206.18   37.10
  -3  -2  -3  202.28   12.90
  -3  -2  -3  229.28   50.19
  -3  -2  -3  180.18   15.10
   3   2   3  198.78   14.10
   3   2   3  199.68   32.80
   3   2   3  183.98   13.20
   3   2   3  178.78   12.20
  -4  -2  -3   10.30   15.10
  -4  -2  -3   13.70   18.70
  -4  -2  -3    1.90    5.40
  -4  -2  -3    4.80    7.20
  -4  -2  -3    5.60    5.60
   4   2   3    9.60    6.40
   4   2   3   11.90    6.60
   4   2   3   15.90    6.00
  -5  -2  -3   55.89   10.70
  -5  -2  -3   65.09   12.10
  -5  -2  -3   55.39   13.50
  -5  -2  -3   51.69   24.00
  -5  -2  -3   61.09   33.80
   5   2   3   62.99   11.00
   5   2   3  104.09   36.40
   5   2   3   76.29   11.50
   5   2   3   68.89   13.30
  -6  -2  -3   42.80   11.60
  -6  -2  -3   33.80   14.10
  -6  -2  -3   37.90   24.80
  -6  -2  -3   18.10   29.90
  -6  -2  -3   36.10   12.80
   6   2   3   31.40   11.10
   6   2   3   52.39   12.10
  -7  -2  -3    2.30   19.00
  -7  -2  -3  -12.90    8.60
  -7  -2  -3   -4.60   10.40
  -7  -2  -3   -8.70   19.10
   7   2   3    3.40   10.10
  -8  -2  -3   46.40   19.00
  -8  -2  -3    2.10   11.70
  -8  -2  -3    9.00   13.50
   8   2   3    3.50   11.10
  -9  -2  -3    8.40   14.00
  -9  -2  -3   19.00   17.70
  -9  -2  -3   22.10   16.40
   9   2   3   21.60   16.80
  11  -3  -3  267.37   28.00
 -11   3   3  292.57   37.90
 -11   3   3  288.27   37.80
 -11   3   3  288.97   33.90
  10  -3  -3  249.88   33.10
  10  -3  -3  197.38   24.50
  10  -3  -3  246.78   25.70
 -10   3   3  234.38   32.80
 -10   3   3  229.18   30.80
 -10   3   3  214.98   28.30
   9  -3  -3   21.50    9.90
   9  -3  -3    8.10   11.30
  -9   3   3    6.90   11.70
  -9   3   3    7.00   12.50
  -9   3   3    3.30   21.60
  -9   3   3    7.10   12.20
   8  -3  -3  387.76   25.20
   8  -3  -3  429.66   23.50
   8  -3  -3  416.36   34.50
  -8   3   3  410.66   71.29
  -8   3   3  328.77   32.50
  -8   3   3  373.96   25.90
  -8   3   3  501.55   90.89
   7  -3  -3 1635.24   43.10
   7  -3  -3 1684.93   49.40
   7  -3  -3 1687.63   98.59
   7  -3  -3 1666.23   52.99
  -7   3   3 1656.93   82.79
  -7   3   3 1705.33   48.60
  -7   3   3 1708.73  119.49
  -7   3   3 1622.64   53.09
   6  -3  -3 1859.31   49.99
   6  -3  -3 1872.11   42.90
   6  -3  -3 1496.55  458.65
   6  -3  -3 1769.42  101.29
   6  -3  -3 2463.65  477.15
  -6   3   3 1907.71  110.69
  -6   3   3 1953.90   52.69
  -6   3   3 1845.12   36.60
  -6   3   3 1750.62   76.09
  -6   3   3 1861.21   52.09
   5  -3  -3 1206.68   37.90
   5  -3  -3 1245.98   31.90
   5  -3  -3 1262.07   80.89
   5  -3  -3  996.90  333.07
   5  -3  -3 1238.68   29.50
   5  -3  -3 1019.00  322.17
   5  -3  -3 1256.47   68.79
   5  -3  -3 1265.97   38.20
  -5   3   3 1174.28   37.10
  -5   3   3 1242.18   33.30
  -5   3   3 1266.37   55.99
   4  -3  -3  166.78   13.90
   4  -3  -3  165.48   15.30
   4  -3  -3  137.89    8.90
   4  -3  -3  162.48   29.40
   4  -3  -3  149.79   10.50
   4  -3  -3  367.46  201.58
   4  -3  -3  131.39   32.10
  -4   3   3   99.19  241.98
  -4   3   3  165.08   21.90
   3  -3  -3 3271.77   61.39
   3  -3  -3 2922.61  289.27
   3  -3  -3 3340.57  122.59
   3  -3  -3 3165.68   95.69
   3  -3  -3 3371.26   52.99
   3  -3  -3 3283.67   55.29
  -3   3   3 3301.77   67.29
  -3   3   3 3482.35  305.47
   2  -3  -3 2661.43  243.58
   2  -3  -3 2500.35   83.09
   2  -3  -3 2693.33  122.19
   2  -3  -3 2474.45   50.39
  -2   3   3 2506.05  237.88
   1  -3  -3 1056.29   57.19
   1  -3  -3 1197.58  163.38
   1  -3  -3 1016.10   65.29
   1  -3  -3 1072.99   38.20
  -1   3   3 1607.74  175.58
   0  -3  -3   12.60   13.60
   0  -3  -3    3.40    9.00
   0  -3  -3  -93.69  111.59
   0  -3  -3   -0.10    5.60
   0   3   3 -231.98   94.79
  -1  -3  -3  811.82   46.80
  -1  -3  -3  790.32   25.70
  -1  -3  -3  795.52   26.00
  -1  -3  -3  675.93   53.19
  -1  -3  -3  721.23   60.39
  -1  -3  -3  470.35  141.39
   1   3   3  757.82   24.60
   1   3   3  767.92   24.30
   1   3   3  762.72  188.08
  -2  -3  -3  889.31   61.19
  -2  -3  -3  696.83   51.09
  -2  -3  -3  846.22   29.40
  -2  -3  -3  680.43   81.79
  -2  -3  -3  867.71   29.50
   2   3   3  828.72   23.30
   2   3   3  824.52   26.60
   2   3   3  789.82   23.70
   2   3   3  777.52   27.40
  -3  -3  -3  714.33   56.29
  -3  -3  -3  828.82  102.29
  -3  -3  -3  576.64   52.09
  -3  -3  -3  659.83   18.00
  -3  -3  -3  639.64   28.40
  -3  -3  -3  673.63   29.20
   3   3   3  611.74   24.50
   3   3   3  616.84   22.00
   3   3   3  682.23   27.40
   3   3   3  671.83   23.90
  -4  -3  -3  134.29   11.10
  -4  -3  -3  130.29   35.00
  -4  -3  -3  145.29   19.00
  -4  -3  -3  114.59   13.30
  -4  -3  -3  164.98   48.80
  -4  -3  -3  126.69   17.30
   4   3   3  135.19   14.30
   4   3   3  143.99   17.40
   4   3   3  148.09   15.60
  -5  -3  -3   24.10    9.40
  -5  -3  -3   10.30   23.70
  -5  -3  -3   19.00   11.60
  -5  -3  -3    1.50   16.80
  -5  -3  -3   38.40    8.80
   5   3   3   27.40    9.40
   5   3   3   11.70    8.60
   5   3   3   36.20   10.60
  -6  -3  -3  125.39   15.10
  -6  -3  -3  208.28   64.39
  -6  -3  -3   65.59   16.50
  -6  -3  -3  176.48   47.10
  -6  -3  -3  100.09   17.10
   6   3   3  123.89   16.20
   6   3   3   74.49   13.70
   6   3   3   84.29   16.30
  -7  -3  -3  109.29   20.00
  -7  -3  -3   39.90   30.60
  -7  -3  -3   89.89   20.70
   7   3   3  107.19   19.50
  -8  -3  -3   21.00   30.40
  -8  -3  -3   29.70   12.70
  -8  -3  -3   32.90   16.20
   8   3   3   36.00   16.10
  -9  -3  -3   20.90   18.70
  -9  -3  -3   13.40   16.60
  -9  -3  -3   14.90   13.20
   9   3   3    0.00   14.10
  11  -4  -3  142.99   21.70
  11  -4  -3  153.88   30.20
 -11   4   3  144.49   27.50
 -11   4   3  125.89   29.10
  10  -4  -3  150.48   27.50
  10  -4  -3   85.89   18.10
 -10   4   3  152.68   26.80
 -10   4   3  127.39   23.90
 -10   4   3   89.19   20.30
   9  -4  -3   49.20   17.30
   9  -4  -3   47.70   12.30
  -9   4   3   29.20   15.60
  -9   4   3   38.50   14.00
  -9   4   3   68.89   19.50
   8  -4  -3   83.99   13.70
   8  -4  -3   72.19   16.30
   8  -4  -3   49.00   14.30
   8  -4  -3   72.59   29.50
  -8   4   3   64.59   17.30
  -8   4   3   99.69   45.00
  -8   4   3   45.60   12.80
   7  -4  -3 2268.27  122.99
   7  -4  -3 2183.78   52.09
   7  -4  -3 2313.97   61.19
   7  -4  -3 2137.29   60.99
  -7   4   3 1998.70  127.19
  -7   4   3 2230.88   63.59
  -7   4   3 2144.49   54.99
   6  -4  -3 2355.66   58.49
   6  -4  -3 2081.99  116.79
   6  -4  -3 2268.57   49.70
   6  -4  -3 2263.07   45.30
   6  -4  -3 2330.97   59.59
  -6   4   3 2227.08   44.30
  -6   4   3 2373.36   59.99
  -6   4   3 2228.88   96.29
  -6   4   3 2274.87  122.39
  -6   4   3 2353.16   61.39
   5  -4  -3 1704.83   79.09
   5  -4  -3 1436.86   93.89
   5  -4  -3 1585.84   38.60
   5  -4  -3 1564.34   33.20
   5  -4  -3 1622.04   46.70
   5  -4  -3 1554.54   57.29
   5  -4  -3 1668.13  409.46
  -5   4   3 1528.15   54.39
  -5   4   3 1525.25   37.20
  -5   4   3 1521.45   33.70
   4  -4  -3   33.60    7.40
   4  -4  -3   23.40    5.00
   4  -4  -3   45.80   22.80
   4  -4  -3   41.80    8.40
   4  -4  -3   41.80   15.40
   4  -4  -3   36.10    9.40
  -4   4   3   31.60    9.10
   3  -4  -3  144.89   10.50
   3  -4  -3  174.78  182.48
   3  -4  -3  257.27   49.40
   3  -4  -3  205.58   31.90
   3  -4  -3  149.69   15.60
   3  -4  -3  136.09   10.30
  -3   4   3  154.08   10.30
  -3   4   3  233.78  182.48
   2  -4  -3 3588.64  137.59
   2  -4  -3 3441.96  105.39
   2  -4  -3 3420.36   49.50
   2  -4  -3 3669.13  280.67
   2  -4  -3 3588.24   65.49
   2  -4  -3 3530.85   56.59
  -2   4   3 3229.98  280.27
  -2   4   3 3560.64   57.99
  -2   4   3 3452.75   55.09
   1  -4  -3 2445.86   94.39
   1  -4  -3 2470.85   45.20
   1  -4  -3 2306.87  220.88
   1  -4  -3 2512.15   50.59
   1  -4  -3 2344.67  106.99
   1  -4  -3 2387.46   62.89
  -1   4   3 2124.59  206.48
  -1   4   3 2496.05   47.50
  -1   4   3 2447.35   45.40
   0  -4  -3 1224.98   52.69
   0  -4  -3 1226.38   75.89
   0  -4  -3 1114.29   72.59
   0  -4  -3 1188.98  162.78
   0  -4  -3 1255.97   32.20
   0  -4  -3 1250.67   31.70
   0   4   3 1261.27   33.40
   0   4   3  985.90  143.29
   0   4   3 1264.57   32.50
  -1  -4  -3   -4.00    7.40
  -1  -4  -3    1.10    4.90
  -1  -4  -3   -4.10    7.90
  -1  -4  -3    1.50    4.90
  -1  -4  -3    3.10    9.70
   1   4   3    6.40    4.90
   1   4   3   -4.10    3.30
   1   4   3   -0.80    3.30
  -2  -4  -3 1115.99   66.39
  -2  -4  -3 1067.79   34.90
  -2  -4  -3 1125.09   91.49
  -2  -4  -3 1079.69   35.50
  -2  -4  -3  935.01   70.49
   2   4   3 1095.89   30.10
   2   4   3 1085.19   34.90
   2   4   3 1092.79   33.00
   2   4   3 1045.60   28.50
  -3  -4  -3  980.30   29.30
  -3  -4  -3  981.20   35.90
  -3  -4  -3  862.91  105.59
  -3  -4  -3 1051.79   71.59
  -3  -4  -3 1031.60   38.10
  -3  -4  -3  950.40   68.79
   3   4   3  979.50   31.10
   3   4   3 1059.19   31.20
   3   4   3 1076.59   34.10
   3   4   3  943.21   35.10
  -4  -4  -3  752.62   29.00
  -4  -4  -3  776.62   35.20
  -4  -4  -3  593.64   71.89
  -4  -4  -3  676.53  104.79
  -4  -4  -3  672.23   33.90
   4   4   3  712.13   27.50
   4   4   3  753.42   33.50
   4   4   3  707.53   28.70
   4   4   3  741.73   30.20
  -5  -4  -3  121.69   40.20
  -5  -4  -3  119.39   20.80
  -5  -4  -3  122.79   16.50
  -5  -4  -3   89.29   43.50
  -5  -4  -3  135.29   20.90
   5   4   3  114.29   17.50
   5   4   3  103.39   17.10
   5   4   3  139.79   17.00
   5   4   3  122.19   15.90
  -6  -4  -3  106.99   21.40
  -6  -4  -3   83.39   15.90
  -6  -4  -3  127.09   44.80
  -6  -4  -3  117.89   34.50
   6   4   3   75.99   21.80
   6   4   3  110.09   19.10
  -7  -4  -3  140.49   25.40
  -7  -4  -3  162.88   23.10
  -7  -4  -3  210.48   29.70
   7   4   3  194.78   25.80
   7   4   3  208.28   23.50
  -8  -4  -3   97.19   26.40
  -8  -4  -3  164.38   30.20
  -8  -4  -3  154.58   25.00
   8   4   3  177.38   28.30
  11  -5  -3    5.90   11.50
  11  -5  -3    1.60   16.40
 -11   5   3  -10.70   17.30
 -11   5   3   12.20   16.00
  10  -5  -3   15.70   15.80
  10  -5  -3   -7.30    8.30
 -10   5   3    8.20   15.70
 -10   5   3   10.30   13.50
   9  -5  -3   25.60   12.80
   9  -5  -3   31.00   15.80
   9  -5  -3   10.40    9.40
  -9   5   3   15.50   12.50
  -9   5   3   27.50   16.70
   8  -5  -3   -0.10    8.50
   8  -5  -3    3.40   16.10
   8  -5  -3    4.00   10.10
   8  -5  -3    8.20    7.70
  -8   5   3    6.50    8.80
   7  -5  -3    0.20   12.40
   7  -5  -3    1.90    7.80
   7  -5  -3   -0.70    5.30
   7  -5  -3   -4.00    8.80
  -7   5   3    3.20    4.90
  -7   5   3    8.80    8.40
  -7   5   3    2.00   13.90
   6  -5  -3   -4.40    5.30
   6  -5  -3   -0.70    4.30
   6  -5  -3   -4.70   11.60
   6  -5  -3   -3.80    5.80
   6  -5  -3    1.50    5.10
  -6   5   3   -0.40    3.60
  -6   5   3    8.30    7.40
   5  -5  -3  280.27   20.90
   5  -5  -3  297.27   57.09
   5  -5  -3  335.37   44.60
   5  -5  -3  245.58   15.80
   5  -5  -3  263.67   17.70
   5  -5  -3  266.97   13.10
  -5   5   3  271.07   16.10
  -5   5   3  244.88   14.60
   4  -5  -3  176.68   27.10
   4  -5  -3  197.28  291.37
   4  -5  -3  177.48   10.20
   4  -5  -3  206.68   20.10
   4  -5  -3  169.58   43.30
   4  -5  -3  217.48   14.30
   4  -5  -3  227.48   34.50
  -4   5   3  173.98   12.50
  -4   5   3  176.98   11.50
   3  -5  -3  179.68   51.99
   3  -5  -3  133.29    9.80
   3  -5  -3  133.19   12.60
   3  -5  -3  207.38   33.70
   3  -5  -3  137.49   16.50
  -3   5   3  167.88   15.50
  -3   5   3  137.59   11.10
  -3   5   3  125.99    9.80
   2  -5  -3  519.25   24.10
   2  -5  -3  547.85   43.00
   2  -5  -3  543.35   20.20
   2  -5  -3  609.74   73.19
  -2   5   3  544.85   20.10
  -2   5   3  581.34   22.10
  -2   5   3  537.25   19.20
   1  -5  -3 1253.87   32.50
   1  -5  -3 1183.18   82.29
   1  -5  -3 1291.97   36.70
   1  -5  -3 1262.17   47.50
  -1   5   3 1274.07   34.40
  -1   5   3 1253.67   30.00
  -1   5   3 1290.27   33.30
   0  -5  -3  573.84   38.30
   0  -5  -3  560.54   22.30
   0  -5  -3  589.74   22.80
   0  -5  -3  646.24   72.19
   0  -5  -3  580.24   22.80
   0  -5  -3  494.15   63.39
   0   5   3  577.84   23.40
   0   5   3  547.65   19.30
   0   5   3  574.14   20.40
   0   5   3  541.45   22.70
  -1  -5  -3  191.88   17.30
  -1  -5  -3  216.58   42.70
  -1  -5  -3  166.88   16.40
  -1  -5  -3  118.39   36.80
   1   5   3  169.88   12.30
   1   5   3  165.68   14.00
   1   5   3  151.08   11.90
   1   5   3  158.48   16.00
  -2  -5  -3   81.29   34.20
  -2  -5  -3  123.39   16.30
  -2  -5  -3   87.89   10.30
  -2  -5  -3  122.69   31.80
  -2  -5  -3  131.99   33.10
  -2  -5  -3  108.79   14.60
   2   5   3  104.89   14.60
   2   5   3   85.49   12.30
   2   5   3  102.49   12.30
   2   5   3   76.69   12.20
  -3  -5  -3  237.38   22.50
  -3  -5  -3  225.88   15.60
  -3  -5  -3  222.78   43.50
  -3  -5  -3  265.67   25.30
  -3  -5  -3  197.28   40.10
  -3  -5  -3  217.18   56.89
   3   5   3  111.49  262.57
   3   5   3  246.48   17.20
   3   5   3  263.77   20.50
   3   5   3  259.77   18.90
   3   5   3  250.47   17.30
  -4  -5  -3  275.77   52.69
  -4  -5  -3  212.38   19.20
  -4  -5  -3  268.57   69.99
  -4  -5  -3  287.97   26.20
  -4  -5  -3  253.67   27.40
   4   5   3  226.28   23.40
   4   5   3  279.07   19.70
   4   5   3  235.98   19.40
   4   5   3  287.27   20.40
  -5  -5  -3  458.65   31.80
  -5  -5  -3  283.37   56.49
  -5  -5  -3  324.67   80.89
  -5  -5  -3  439.46   26.60
  -5  -5  -3  463.85   33.50
   5   5   3  426.46   26.60
   5   5   3  466.95   26.90
   5   5   3  414.76   29.70
   5   5   3  495.35   26.90
  -6  -5  -3    5.00   13.20
  -6  -5  -3   26.60   12.20
  -6  -5  -3   31.30   17.10
  -6  -5  -3   63.89   36.10
   6   5   3   22.20   13.40
   6   5   3   28.70   12.10
  -7  -5  -3   31.70   15.00
  -7  -5  -3   15.60   21.00
  -7  -5  -3   32.50   19.60
   7   5   3   24.80   14.70
  -8  -5  -3   45.40   19.40
  -8  -5  -3   77.09   28.80
  -8  -5  -3   35.70   20.50
   8   5   3   95.29   23.60
   8   5   3   70.79   18.90
  10  -6  -3  291.57   29.60
  10  -6  -3  248.78   34.10
 -10   6   3  175.38   27.30
   9  -6  -3   63.39   19.80
   9  -6  -3   64.09   15.50
   9  -6  -3   74.79   19.10
  -9   6   3   68.49   17.60
   8  -6  -3    4.30   10.40
   8  -6  -3    4.50    9.70
   8  -6  -3   -0.20   17.30
   8  -6  -3   -3.50    7.10
  -8   6   3    8.40   10.10
   7  -6  -3   43.50   13.80
   7  -6  -3   21.20    8.30
   7  -6  -3   44.20   30.00
   7  -6  -3   31.90   12.10
  -7   6   3   26.60    8.30
  -7   6   3   28.60   10.20
   6  -6  -3  160.08   22.30
   6  -6  -3  233.88   62.19
   6  -6  -3  150.28   16.60
   6  -6  -3  190.48   21.00
  -6   6   3  163.98   15.70
  -6   6   3  179.18   18.10
   5  -6  -3  679.33  118.79
   5  -6  -3  600.64   26.00
   5  -6  -3  571.24   31.10
   5  -6  -3  584.94   25.10
   5  -6  -3  553.04   45.20
  -5   6   3  625.84   23.70
  -5   6   3  608.34   24.40
   4  -6  -3   94.59   12.40
   4  -6  -3   75.09   10.40
   4  -6  -3  103.29   16.40
   4  -6  -3   77.79    8.70
   4  -6  -3   65.49   29.80
   4  -6  -3  103.39   24.90
  -4   6   3   84.39   10.20
  -4   6   3   89.79   11.80
  -4   6   3   99.99   12.70
   3  -6  -3   78.29   31.50
   3  -6  -3   57.29    6.80
   3  -6  -3   76.49   14.00
   3  -6  -3  211.58  267.47
   3  -6  -3   55.39   27.40
  -3   6   3   78.09   11.00
  -3   6   3   77.09   11.00
  -3   6   3   61.59    9.10
   2  -6  -3    5.20    5.30
   2  -6  -3    0.40    4.10
   2  -6  -3    2.70    5.70
   2  -6  -3 -390.56  200.38
   2  -6  -3    7.60   12.50
   2  -6  -3    3.00   10.10
  -2   6   3    6.00    4.90
  -2   6   3    6.40    5.20
  -2   6   3    2.70    4.30
  -2   6   3    6.00    5.20
   1  -6  -3   91.59   17.40
   1  -6  -3   78.79   26.50
   1  -6  -3   95.09   31.10
   1  -6  -3   82.39   10.80
   1  -6  -3  100.59   14.30
   1  -6  -3   77.69   10.40
  -1   6   3   86.89   11.70
  -1   6   3  109.59   12.50
  -1   6   3   84.49   10.30
  -1   6   3   86.99   11.70
   0  -6  -3   11.90   14.80
   0  -6  -3   47.50   23.60
   0  -6  -3   32.40    8.70
   0  -6  -3   35.70    8.70
   0  -6  -3   33.60    8.50
   0  -6  -3    6.90    9.20
   0   6   3   10.40    5.30
   0   6   3   31.90    8.10
   0   6   3   19.30    7.80
   0   6   3   20.80    7.10
  -1  -6  -3    2.10    6.10
  -1  -6  -3   11.40    7.40
  -1  -6  -3    2.80   14.40
  -1  -6  -3    6.90   13.10
  -1  -6  -3    8.50    6.00
  -1  -6  -3   -4.70    8.50
   1   6   3    7.00    7.20
   1   6   3   -2.80    5.00
   1   6   3    5.30    5.70
   1   6   3    4.00    5.40
  -2  -6  -3  355.96   54.19
  -2  -6  -3  324.37   25.20
  -2  -6  -3  404.06   72.79
  -2  -6  -3  343.17   49.40
  -2  -6  -3  340.07   22.10
  -2  -6  -3  317.27   22.70
   2   6   3  370.66   20.90
   2   6   3  377.96   20.80
   2   6   3  391.46   22.50
   2   6   3  373.06   23.70
  -3  -6  -3    1.70    8.40
  -3  -6  -3    9.00   16.30
  -3  -6  -3   -8.50   15.90
  -3  -6  -3   10.20    7.80
  -3  -6  -3    8.70    9.00
   3   6   3    6.50    7.60
   3   6   3   -6.60    6.80
   3   6   3   -2.50    6.20
   3   6   3   -5.10    6.20
  -4  -6  -3   21.90   32.60
  -4  -6  -3   -0.60   10.90
  -4  -6  -3    9.70   20.10
  -4  -6  -3   -4.70    9.30
  -4  -6  -3   -5.10    7.90
   4   6   3   17.10    9.50
   4   6   3    6.60    9.10
   4   6   3   14.10    8.90
   4   6   3    6.30    8.70
  -5  -6  -3  158.48   47.00
  -5  -6  -3   98.29   21.40
  -5  -6  -3  105.79   20.40
  -5  -6  -3   90.89   31.10
   5   6   3  123.79   18.00
   5   6   3   80.29   17.80
   5   6   3  115.49   18.20
   5   6   3  137.99   18.90
  -6  -6  -3    9.60   15.60
   6   6   3    3.10    9.50
   6   6   3    4.10   12.00
   6   6   3    2.70   11.30
  -7  -6  -3   -6.00   14.90
   7   6   3    1.70   11.10
   7   6   3    0.80   13.30
  10  -7  -3  110.89   24.70
  10  -7  -3  143.49   21.70
  10  -7  -3  104.99   33.30
 -10   7   3   76.89   21.70
   9  -7  -3  487.35   51.69
   9  -7  -3  435.56   36.00
  -9   7   3  385.86   30.50
   8  -7  -3  363.16   28.80
   8  -7  -3  405.36   39.30
   8  -7  -3  420.36   27.00
  -8   7   3  409.66   25.00
  -8   7   3  439.56   28.90
   7  -7  -3  136.49   22.70
   7  -7  -3  109.59   16.90
   7  -7  -3  129.39   21.10
   7  -7  -3   75.79   35.30
  -7   7   3  109.49   14.70
   6  -7  -3  151.08   17.50
   6  -7  -3  152.58   18.60
   6  -7  -3  100.49   46.80
   6  -7  -3  160.48   23.30
  -6   7   3  149.59   18.20
  -6   7   3  133.29   15.80
   5  -7  -3 1042.60  124.99
   5  -7  -3  821.82   29.70
   5  -7  -3  762.72   38.00
   5  -7  -3  802.02   34.80
  -5   7   3  774.82   29.90
  -5   7   3  765.62   30.80
   4  -7  -3  399.86   17.10
   4  -7  -3  455.05   82.89
   4  -7  -3  411.46   27.20
   4  -7  -3  411.66   21.30
  -4   7   3  429.66   22.60
  -4   7   3  379.16   21.20
   3  -7  -3  501.05   22.90
   3  -7  -3  557.84  110.59
   3  -7  -3  372.16   68.29
   3  -7  -3  502.55   28.90
  -3   7   3  452.25   24.40
  -3   7   3  482.55   23.30
   2  -7  -3    8.30    6.40
   2  -7  -3   13.60   16.80
   2  -7  -3    6.10   12.40
   2  -7  -3    1.10    5.50
   2  -7  -3    4.90    7.40
  -2   7   3    7.40    6.50
  -2   7   3    6.30    5.50
  -2   7   3    9.60    5.40
  -2   7   3    7.00    5.70
   1  -7  -3  197.48   15.10
   1  -7  -3  217.38   15.00
   1  -7  -3  218.58   22.00
   1  -7  -3  220.68   44.60
   1  -7  -3  226.18   49.60
  -1   7   3  208.78   14.50
  -1   7   3  206.88   16.50
  -1   7   3  232.78   17.30
  -1   7   3  189.88   15.30
   0  -7  -3  532.45   74.79
   0  -7  -3  464.35   22.90
   0  -7  -3  500.65   25.00
   0  -7  -3  576.14   85.79
   0  -7  -3  491.85   40.60
   0  -7  -3  481.45   23.30
   0   7   3  530.85   25.70
   0   7   3  488.95   25.30
   0   7   3  537.95   23.70
  -1  -7  -3   12.70    8.20
  -1  -7  -3    9.80   15.60
  -1  -7  -3   11.50   17.20
  -1  -7  -3   25.00    9.10
  -1  -7  -3    8.60    9.10
  -1  -7  -3   27.50   17.50
   1   7   3   14.30    8.00
   1   7   3   29.60    8.90
   1   7   3   18.00    7.30
   1   7   3   14.40    9.20
  -2  -7  -3  350.86   22.90
  -2  -7  -3  484.85   62.69
  -2  -7  -3  351.06   24.80
  -2  -7  -3  454.35  117.59
   2   7   3  367.36   22.90
   2   7   3  337.27   23.50
   2   7   3  376.16   22.40
   2   7   3  326.37   24.00
  -3  -7  -3   22.00   11.60
  -3  -7  -3   12.00   11.80
  -3  -7  -3   26.10   27.50
  -3  -7  -3   40.50   23.80
   3   7   3   14.20   11.10
   3   7   3   26.60   10.70
   3   7   3    5.50    8.70
   3   7   3   13.10    9.10
  -4  -7  -3   68.39   16.30
  -4  -7  -3   39.00   16.30
  -4  -7  -3   41.70   28.20
  -4  -7  -3   92.59   50.09
   4   7   3   64.39   13.90
   4   7   3   61.79   15.00
   4   7   3   53.89   17.20
   4   7   3   66.79   17.20
  -5  -7  -3   74.09   39.00
  -5  -7  -3   97.19   22.90
   5   7   3   81.19   17.00
   5   7   3   75.69   18.40
   5   7   3   82.49   16.60
  -6  -7  -3    3.10   19.80
   6   7   3    4.20   12.90
   6   7   3    3.70   11.60
   6   7   3    2.30   11.30
  -7  -7  -3    6.30   18.70
   7   7   3    0.70   14.10
   7   7   3   20.40   15.70
  10  -8  -3   12.60   18.20
  10  -8  -3   32.00   14.90
  10  -8  -3   41.30   20.20
   9  -8  -3   86.79   32.40
   9  -8  -3  127.99   20.80
   9  -8  -3  112.79   23.50
   8  -8  -3  326.37   29.60
   8  -8  -3  312.47   35.90
   8  -8  -3  329.87   32.30
  -8   8   3  249.97   24.50
   7  -8  -3  199.58   27.90
   7  -8  -3  256.37   25.80
   7  -8  -3  250.27   24.20
  -7   8   3  264.17   20.70
   6  -8  -3   20.40    9.40
   6  -8  -3   22.30   29.40
   6  -8  -3   12.40   11.10
   6  -8  -3    1.70    7.50
  -6   8   3    7.00    7.70
  -6   8   3    8.00    9.20
   5  -8  -3  115.99   13.30
   5  -8  -3  104.39   15.40
   5  -8  -3  126.99   21.50
  -5   8   3  104.99   15.00
  -5   8   3   94.59   15.50
   4  -8  -3  436.56   23.40
   4  -8  -3  356.06   27.10
   4  -8  -3  474.25   84.79
  -4   8   3  417.36   24.00
  -4   8   3  372.66   22.80
   3  -8  -3  817.02   38.40
   3  -8  -3 1008.40  116.49
   3  -8  -3  850.41   31.50
  -3   8   3  836.52   29.40
  -3   8   3  787.52   32.40
  -3   8   3  810.72   32.10
   2  -8  -3  551.64   31.10
   2  -8  -3  619.94   26.50
   2  -8  -3  673.63   94.49
  -2   8   3  552.44   26.50
  -2   8   3  591.34   28.10
  -2   8   3  593.34   23.80
  -2   8   3  575.24   26.20
   1  -8  -3   -3.80   13.60
   1  -8  -3    2.80    6.70
   1  -8  -3   -9.50    6.20
  -1   8   3   -2.10    5.30
  -1   8   3   -1.40    6.50
  -1   8   3   -1.20    6.30
  -1   8   3    3.50    5.90
   0  -8  -3  444.36   30.60
   0  -8  -3  486.25   74.29
   0  -8  -3  458.95   26.20
   0  -8  -3  446.16   23.60
   0  -8  -3  519.15   79.49
   0   8   3  493.45   26.70
   0   8   3  554.04   26.80
   0   8   3  505.05   30.30
   0   8   3  513.45   24.70
  -1  -8  -3 1269.07   97.49
  -1  -8  -3 1559.84   47.90
  -1  -8  -3 1380.06  108.79
  -1  -8  -3 1521.35   44.60
   1   8   3 1536.55   46.50
   1   8   3 1554.94   45.90
   1   8   3 1527.65   47.90
   1   8   3 1582.24   50.79
  -2  -8  -3  437.96   26.60
  -2  -8  -3  419.46   76.49
  -2  -8  -3  446.16   64.19
   2   8   3  379.66   27.90
   2   8   3  360.06   24.90
   2   8   3  455.15   27.10
   2   8   3  459.55   26.30
  -3  -8  -3  396.76   66.39
  -3  -8  -3  241.68   27.40
  -3  -8  -3  199.78   23.90
   3   8   3  255.37   24.80
   3   8   3  207.28   25.90
   3   8   3  266.07   24.70
   3   8   3  233.78   23.80
  -4  -8  -3   -9.60   12.40
   4   8   3   17.20   11.50
   4   8   3   20.20   11.50
   4   8   3    5.40   12.00
   4   8   3   35.60   14.00
  -5  -8  -3  112.89   25.10
   5   8   3   71.89   18.00
   5   8   3   78.59   20.30
   5   8   3  121.59   26.70
  -6  -8  -3   27.00   21.20
   6   8   3   55.19   16.80
   6   8   3   84.39   20.00
   6   8   3   64.49   20.90
   9  -9  -3    9.50   13.90
   9  -9  -3    2.70   10.80
   9  -9  -3    3.70   14.90
   8  -9  -3   14.30   14.60
   8  -9  -3    3.10   11.70
   8  -9  -3   -1.00   10.40
  -8   9   3   -5.40   11.80
  -8   9   3    7.40    9.70
   7  -9  -3   42.00   13.40
   7  -9  -3   26.50   12.10
   7  -9  -3   37.10   16.30
  -7   9   3   27.50   13.20
  -7   9   3   30.90   11.50
   6  -9  -3   79.29   15.30
   6  -9  -3   63.69   18.40
   6  -9  -3   68.89   12.70
  -6   9   3   51.49   14.70
  -6   9   3   45.60   12.40
   5  -9  -3   -2.40    9.30
   5  -9  -3   -5.00    7.10
  -5   9   3    1.20    8.80
  -5   9   3   -6.50    6.30
   4  -9  -3   23.30   12.20
   4  -9  -3   59.99   39.50
   4  -9  -3   34.40   10.60
  -4   9   3    5.90    8.70
  -4   9   3   12.20    8.40
   3  -9  -3  394.96   23.50
   3  -9  -3  401.16   29.50
  -3   9   3  453.95   23.40
  -3   9   3  429.16   26.00
  -3   9   3  452.05   26.60
   2  -9  -3  280.97   66.89
   2  -9  -3  247.08   26.80
   2  -9  -3  266.57   24.40
  -2   9   3  267.57   20.30
  -2   9   3  235.68   19.90
   1  -9  -3    9.50   10.10
   1  -9  -3    3.20    8.40
   1  -9  -3    0.60   16.70
  -1   9   3    4.10    8.20
  -1   9   3   25.60    9.80
  -1   9   3    6.90    7.30
  -1   9   3   17.40   11.20
   0  -9  -3   67.99   34.50
   0  -9  -3   55.79   13.30
   0  -9  -3  131.19   25.10
   0   9   3   98.59   15.80
   0   9   3   87.79   16.20
   0   9   3   88.39   14.90
   0   9   3   77.09   15.00
  -1  -9  -3  275.07   23.70
   1   9   3  261.77   24.10
   1   9   3  258.07   26.50
   1   9   3  267.27   22.50
   1   9   3  249.97   24.20
   2   9   3  658.03   37.20
   2   9   3  622.54   33.90
   2   9   3  619.54   33.90
   2   9   3  632.04   33.40
  -3  -9  -3  217.18   45.50
   3   9   3  183.98   23.20
   3   9   3  163.48   21.10
   3   9   3  190.48   23.10
   3   9   3  213.78   27.30
  -4  -9  -3   22.30   17.50
   4   9   3    0.40   11.70
   4   9   3    8.40   10.80
   4   9   3    0.10   12.40
   4   9   3  -10.50   13.40
  -5  -9  -3   60.19   22.60
   5   9   3   72.89   19.10
   5   9   3   77.79   19.20
   5   9   3   54.49   20.30
   8 -10  -3   71.49   17.10
   8 -10  -3  102.09   19.80
   8 -10  -3   86.39   22.50
  -8  10   3   66.09   19.40
  -8  10   3   67.09   16.40
   7 -10  -3   83.09   14.60
   7 -10  -3   92.89   23.90
  -7  10   3   66.09   16.30
  -7  10   3   91.99   20.00
   6 -10  -3   70.99   15.90
   6 -10  -3  102.29   23.70
  -6  10   3   96.49   17.00
  -6  10   3  110.69   20.00
   5 -10  -3   -6.50    8.00
   5 -10  -3    4.10   11.60
  -5  10   3    2.30    8.60
  -5  10   3   -2.40   10.20
   4 -10  -3   17.10   10.60
   4 -10  -3   11.80   12.20
  -4  10   3   12.40    8.90
  -4  10   3   14.40   10.60
   3 -10  -3   66.69   13.70
   3 -10  -3   55.99   16.60
  -3  10   3   77.29   15.80
  -3  10   3   58.09   12.60
  -3  10   3   48.70   14.10
   2 -10  -3   -1.50   10.80
   2 -10  -3   -5.70   17.80
   2 -10  -3    4.50    8.80
  -2  10   3   -4.60    9.10
  -2  10   3   -3.90    6.70
  -2  10   3   -7.50    7.00
   1 -10  -3   26.20   13.20
   1 -10  -3   10.90    9.60
   1 -10  -3   18.60   26.60
  -1  10   3   16.60   11.50
  -1  10   3    9.90    8.80
  -1  10   3    1.80    9.00
   0  10   3    3.30    8.20
   0  10   3    0.80    9.80
   0  10   3   -0.80    9.40
   0  10   3    4.90    9.00
   1  10   3   -7.10    9.30
   1  10   3    6.60    9.90
   1  10   3   -8.00    8.20
   1  10   3    3.50   17.50
   2  10   3   38.00   16.70
   2  10   3   17.80   13.00
   2  10   3   33.60   13.40
   2  10   3   24.70   13.10
   3  10   3    5.40   10.30
   3  10   3    5.70   13.10
   3  10   3    3.90   12.10
   4  10   3   67.79   18.40
   4  10   3   69.49   20.00
   4  10   3   69.59   21.40
   7 -11  -3  207.18   33.00
   7 -11  -3  272.27   28.60
  -7  11   3  199.38   28.00
  -7  11   3  211.48   26.30
   6 -11  -3  200.88   32.50
   6 -11  -3  209.38   34.60
  -6  11   3  195.78   27.20
  -6  11   3  217.38   26.00
   5 -11  -3  191.28   30.90
   5 -11  -3  184.58   23.00
  -5  11   3  160.78   22.90
  -5  11   3  234.08   28.80
   4 -11  -3    9.90   10.60
   4 -11  -3    6.10   13.40
  -4  11   3    4.20   11.40
   3 -11  -3  129.99   24.70
   3 -11  -3   86.79   15.80
  -3  11   3  101.79   19.90
  -3  11   3  136.29   20.40
   2 -11  -3  114.89   22.20
  -2  11   3  121.39   18.40
  -2  11   3  119.49   19.90
  -2  11   3  113.89   19.60
   1 -11  -3  243.78   28.50
  -1  11   3  212.38   25.80
  -1  11   3  238.38   26.20
  -1  11   3  256.07   26.90
   0  11   3   41.60   22.90
   0  11   3   19.20   13.10
   0  11   3   36.30   15.10
   1  11   3   25.70   12.50
   1  11   3   21.10   13.60
   1  11   3   25.60   14.10
   2  11   3   25.10   13.70
   2  11   3   39.50   15.70
   2  11   3   60.79   18.50
   5 -12  -3  375.16   41.50
   5 -12  -3  346.27   27.70
  -5  12   3  254.27   28.60
  -5  12   3  315.47   33.30
   4 -12  -3   52.39   20.50
  -4  12   3   54.59   16.30
   3 -12  -3   -8.50   12.40
  -3  12   3    0.20   12.40
  -3  12   3    6.60   10.40
  -2  12   3  102.19   20.30
  -2  12   3  115.69   24.50
  -1  12   3  315.77   31.70
   0  12   3  214.38   26.20
   0  12   3  266.87   29.80
   2  12  -4   84.19   22.90
   1  12  -4   15.60   11.80
   1  12  -4   44.00   17.00
   1  12  -4   21.30   16.50
  -1 -12   4   26.20   22.60
   0  12  -4    1.50   10.30
   0  12  -4  -15.00   10.10
   0  12  -4   -9.00   14.10
   0 -12   4    6.50   14.40
   0 -12   4    4.10   20.70
  -1  12  -4    9.60   12.90
  -1  12  -4   17.00   12.30
  -1  12  -4   13.40   16.50
   1 -12   4   34.90   17.90
  -2  12  -4  121.79   21.40
  -2  12  -4   74.69   21.80
  -2  12  -4   69.99   19.00
   2 -12   4   58.29   22.50
   2 -12   4   83.59   22.30
  -3  12  -4   -2.00   10.70
  -3  12  -4   15.30   14.10
  -3  12  -4    8.00   15.00
   3 -12   4  -10.00   12.90
   3 -12   4   -2.40   14.80
  -4  12  -4    9.60   13.00
  -4  12  -4    2.20   15.80
   4 -12   4   24.30   17.50
   4 -12   4   -2.30   14.90
   4  11  -4    9.40   16.40
   4  11  -4   20.70   19.00
  -4 -11   4    8.10   16.00
   3  11  -4  342.67   37.10
   3  11  -4  436.76   40.40
  -3 -11   4  291.17   33.70
   2  11  -4  438.66   39.40
   2  11  -4  335.17   37.20
  -2 -11   4  452.65   36.50
   1  11  -4  226.48   23.40
   1  11  -4  265.77   33.30
   1  11  -4  192.38   39.40
  -1 -11   4  237.08   29.50
  -1 -11   4  241.28   30.20
   0  11  -4   25.90   13.90
   0  11  -4    6.60    9.20
   0 -11   4    3.90   11.80
   0 -11   4   50.49   17.20
  -1  11  -4   37.90   12.70
  -1  11  -4   60.09   23.40
  -1  11  -4   89.99   19.90
   1 -11   4   20.10   14.00
   1 -11   4   80.89   19.80
  -2  11  -4  149.69   20.50
  -2  11  -4  172.88   23.60
   2 -11   4  186.68   26.70
   2 -11   4  169.08   25.20
  -3  11  -4  189.98   24.00
  -3  11  -4  194.58   24.60
  -3  11  -4  227.18   30.70
   3 -11   4  247.08   30.40
   3 -11   4  198.48   29.10
  -4  11  -4   66.99   20.10
  -4  11  -4   63.59   20.60
   4 -11   4   47.60   18.90
   4 -11   4   17.30   15.40
  -5  11  -4   -2.00   10.90
  -5  11  -4   -2.10   14.50
   5 -11   4   11.70   17.30
   5 -11   4    7.70   14.90
  -6  11  -4   39.50   16.30
   6 -11   4   36.70   23.90
   6 -11   4   41.70   13.80
   5  10  -4   93.79   22.80
   5  10  -4  161.18   26.20
   5  10  -4  123.09   24.40
  -5 -10   4  159.38   28.00
   4  10  -4    8.40   14.20
   4  10  -4    6.30   12.50
   4  10  -4   32.30   17.00
  -4 -10   4    3.90   14.10
   3  10  -4   81.69   24.80
   3  10  -4   72.29   20.10
  -3 -10   4   68.99   18.80
   2  10  -4  384.36   24.80
   2  10  -4  367.36   29.10
   2  10  -4  459.95   34.50
  -2 -10   4  412.96   32.40
   1  10  -4  450.05   33.40
   1  10  -4  325.87   31.20
   1  10  -4  448.36   28.70
  -1 -10   4  467.45   44.30
  -1 -10   4  412.56   30.40
   0  10  -4  316.57   32.30
   0  10  -4  367.76   24.50
   0  10  -4  319.87   25.80
   0 -10   4  265.47   29.80
   0 -10   4  248.28   35.10
  -1  10  -4    4.60    8.20
  -1  10  -4   -7.40    8.40
  -1  10  -4    7.90   11.40
   1 -10   4   25.90   29.70
   1 -10   4   -2.90   10.70
   1 -10   4    2.20   11.10
  -2  10  -4  260.17   25.20
  -2  10  -4  230.78   28.00
  -2  10  -4  315.27   25.30
   2 -10   4  258.97   29.30
  -3  10  -4  850.61   40.20
  -3  10  -4  896.01   44.60
  -3  10  -4  929.21   39.90
   3 -10   4  904.01   47.60
   3 -10   4  887.91   45.00
  -4  10  -4  494.95   30.10
  -4  10  -4  504.45   35.30
   4 -10   4  489.55   36.50
   4 -10   4  456.85   36.60
  -5  10  -4   84.99   20.60
  -5  10  -4   71.09   15.70
   5 -10   4   50.19   21.00
   5 -10   4   71.89   14.50
  -6  10  -4   41.80   18.00
   6 -10   4   33.90   14.90
   6 -10   4   20.40   16.30
  -7  10  -4   61.19   17.40
  -7  10  -4   81.19   23.10
   7 -10   4   30.90   18.60
   7 -10   4   72.39   20.00
   6   9  -4   11.30   13.90
   6   9  -4    4.90   13.40
   6   9  -4   -6.90   13.10
  -6  -9   4   10.50   15.80
   5   9  -4   61.59   18.60
   5   9  -4  116.39   22.60
   5   9  -4  114.89   22.70
  -5  -9   4   98.49   22.60
   4   9  -4   93.09   19.20
   4   9  -4   83.59   20.60
   4   9  -4   74.39   18.20
  -4  -9   4   74.59   18.60
  -4  -9   4   81.99   51.39
   3   9  -4   27.20   14.40
   3   9  -4   11.60   11.20
   3   9  -4   14.70   11.50
  -3  -9   4   -1.00   20.50
   2   9  -4   29.50    9.40
   2   9  -4   43.70   12.90
   2   9  -4   41.10   14.40
  -2  -9   4   39.20   14.00
  -2  -9   4   36.20   14.10
   1   9  -4  184.38   22.70
   1   9  -4  190.18   24.30
   1   9  -4  174.78   18.20
  -1  -9   4  194.38   23.70
  -1  -9   4  200.48   23.10
   0   9  -4  297.87   27.30
   0   9  -4  213.58   18.10
   0   9  -4  224.48   26.40
   0  -9   4  237.88   26.20
   0  -9   4  231.28   24.60
   0  -9   4  272.07   58.49
  -1   9  -4   58.69   15.00
  -1   9  -4   72.99   14.60
  -1   9  -4   58.79   12.50
   1  -9   4   38.80   12.60
   1  -9   4   45.50   13.50
   1  -9   4   73.49   32.70
  -2   9  -4  273.17   21.30
  -2   9  -4  207.78   25.00
  -2   9  -4  256.67   24.00
   2  -9   4  206.98   25.30
   2  -9   4  235.78   25.70
  -3   9  -4  138.29   20.70
  -3   9  -4  113.19   20.30
  -3   9  -4  146.89   18.20
   3  -9   4  178.38   24.70
   3  -9   4  164.98   12.30
   3  -9   4  120.09   22.40
   3  -9   4  166.58   54.59
  -4   9  -4  179.38   24.20
  -4   9  -4  171.58   25.50
   4  -9   4  167.28   25.00
   4  -9   4  167.28   22.70
  -5   9  -4  367.86   30.90
  -5   9  -4  391.36   26.10
   5  -9   4  350.56   25.60
   5  -9   4  382.56   32.90
  -6   9  -4   50.59   14.20
   6  -9   4   23.70   17.00
   6  -9   4   28.80   11.60
   6  -9   4   41.70   17.30
  -7   9  -4   20.00   15.00
   7  -9   4   28.40   12.80
   7  -9   4   36.40   16.80
   7  -9   4   50.19   19.90
   8  -9   4  126.39   26.20
   8  -9   4  114.49   20.50
   7   8  -4   -3.10   11.90
   7   8  -4   37.40   17.70
   7   8  -4   -2.00   14.80
  -7  -8   4   -2.50   24.90
  -7  -8   4    8.20   15.80
   6   8  -4   43.30   16.80
   6   8  -4   26.30   16.60
   6   8  -4   40.20   16.60
  -6  -8   4   36.40   18.40
  -6  -8   4   39.20   16.40
   5   8  -4  129.39   21.90
   5   8  -4  174.78   25.40
   5   8  -4  160.78   22.50
  -5  -8   4  152.98   47.80
  -5  -8   4  132.99   23.00
   4   8  -4   96.89   18.50
   4   8  -4   96.79   17.90
   4   8  -4   97.09   18.90
  -4  -8   4   94.09   38.20
  -4  -8   4  145.89   22.00
   3   8  -4   45.40   12.80
   3   8  -4   38.20   12.30
   3   8  -4   38.50   13.40
  -3  -8   4   56.09   13.70
  -3  -8   4   70.59   32.40
   2   8  -4    5.50    8.10
   2   8  -4   -4.10    8.90
   2   8  -4    3.70    8.00
   2   8  -4    3.20    6.00
  -2  -8   4   11.20    9.30
  -2  -8   4   -6.30    8.00
  -2  -8   4   18.30   20.20
   1   8  -4   23.40   11.70
   1   8  -4   36.90    8.70
   1   8  -4   29.80   10.10
  -1  -8   4   48.10   22.10
  -1  -8   4   30.90   11.30
  -1  -8   4   33.30   24.00
  -1  -8   4   34.90   12.00
   0   8  -4   -2.60    6.30
   0   8  -4    9.10    8.40
   0   8  -4    1.80    5.30
   0  -8   4   -7.40    8.10
   0  -8   4   -6.50   11.10
  -1   8  -4    7.20    6.10
  -1   8  -4    2.60    7.60
  -1   8  -4    5.10    6.40
   1  -8   4    0.50   13.80
   1  -8   4    1.30    7.80
  -2   8  -4  210.08   17.20
  -2   8  -4  207.98   23.20
  -2   8  -4  210.18   20.40
   2  -8   4  132.39   19.00
   2  -8   4  177.28   22.10
   2  -8   4  196.38   11.40
   2  -8   4  139.79   47.00
  -3   8  -4    8.80    7.20
  -3   8  -4   -2.20    6.40
  -3   8  -4   -5.20    7.20
   3  -8   4    3.90    6.90
   3  -8   4   -8.40    7.40
   3  -8   4   -1.00   15.70
  -4   8  -4    1.50    9.00
  -4   8  -4    9.40    7.70
   4  -8   4  -10.10    7.90
   4  -8   4    2.80    8.30
   4  -8   4   -6.10   14.20
   4  -8   4    0.50    6.70
  -5   8  -4   91.49   18.40
   5  -8   4  101.49   17.80
   5  -8   4   92.59   19.50
   5  -8   4   71.59   12.80
  -6   8  -4   19.70   13.70
   6  -8   4   23.90   14.60
   6  -8   4   12.60   12.30
  -7   8  -4    2.50   16.10
  -7   8  -4   -4.70   12.40
   7  -8   4   -8.90   12.30
   7  -8   4   -3.20    8.70
   7  -8   4   -2.60   13.00
  -8   8  -4    7.40   16.20
   8  -8   4    0.00   15.00
   8  -8   4    6.50   14.90
   8  -8   4   -0.70   11.40
   8   7  -4  124.89   24.40
   8   7  -4   92.49   23.60
   8   7  -4   99.09   20.50
  -8  -7   4  102.19   24.10
  -8  -7   4  108.39   27.60
   7   7  -4   27.10   15.60
   7   7  -4   19.50   14.30
   7   7  -4   44.10   29.90
  -7  -7   4   33.70   18.50
  -7  -7   4    6.60   14.90
   6   7  -4   32.70   15.30
   6   7  -4   29.10   13.30
   6   7  -4   25.10   13.50
  -6  -7   4    7.50   17.00
  -6  -7   4   18.40   13.30
  -6  -7   4   51.89   34.70
   5   7  -4  408.56   30.30
   5   7  -4  395.56   29.20
   5   7  -4  401.86   30.10
  -5  -7   4  349.07   65.69
  -5  -7   4  409.66   30.30
  -5  -7   4  301.67   69.89
  -5  -7   4  404.16   29.60
   4   7  -4  160.18   20.20
   4   7  -4  147.39   20.30
   4   7  -4  151.08   20.00
  -4  -7   4   91.99   38.50
  -4  -7   4  206.18   45.60
  -4  -7   4  166.88   20.80
  -4  -7   4  172.28   21.40
   3   7  -4  339.67   25.40
   3   7  -4  347.97   23.50
   3   7  -4  363.66   19.00
   3   7  -4  384.76   24.30
  -3  -7   4  369.06   58.59
  -3  -7   4  378.36   25.80
  -3  -7   4  381.16   23.40
  -3  -7   4  365.86   74.39
   2   7  -4  101.49   11.50
   2   7  -4   71.69   18.20
  -2  -7   4   26.40   22.50
  -2  -7   4   75.69   13.90
  -2  -7   4   57.99   12.80
   1   7  -4  225.78   18.10
   1   7  -4  221.48   15.10
   1   7  -4  186.18   14.70
   1   7  -4  205.98   22.40
  -1  -7   4  227.78   39.20
  -1  -7   4  218.28   21.40
  -1  -7   4  220.68   21.80
   0   7  -4  267.77   18.30
   0   7  -4  333.67   18.20
   0   7  -4  299.77   21.40
   0  -7   4  304.97   21.60
   0  -7   4  280.17   20.70
   0  -7   4  259.77   50.19
   0  -7   4  365.46   46.50
  -1   7  -4  163.38   16.60
  -1   7  -4  167.78   19.80
  -1   7  -4  160.18   16.60
   1  -7   4  134.69   17.60
   1  -7   4  150.48    9.10
   1  -7   4  160.48   18.50
   1  -7   4  234.98   50.19
   1  -7   4  232.28   35.30
  -2   7  -4  613.14   27.20
  -2   7  -4  585.84   25.40
  -2   7  -4  599.54   29.40
   2  -7   4  627.14   30.50
   2  -7   4  577.84   30.70
   2  -7   4  596.24   21.80
   2  -7   4  665.63  104.69
  -3   7  -4   35.80    9.30
  -3   7  -4   27.60   10.40
   3  -7   4   24.40   11.90
   3  -7   4   40.90    8.10
   3  -7   4   44.20   12.30
   3  -7   4    5.00   16.30
  -4   7  -4  169.88   20.40
   4  -7   4  177.98   23.00
   4  -7   4  155.68   18.50
   4  -7   4  172.78   53.49
   4  -7   4  149.19   14.80
  -5   7  -4  217.08   24.50
  -5   7  -4  296.17   24.20
   5  -7   4  253.27   60.19
   5  -7   4  304.27   30.10
   5  -7   4  318.67   24.40
   5  -7   4  263.27   18.60
  -6   7  -4  103.89   19.50
   6  -7   4   95.59   18.90
   6  -7   4   94.99   19.10
   6  -7   4  125.39   16.60
  -7   7  -4   65.49   18.80
   7  -7   4   30.00   15.70
   7  -7   4   51.79   14.00
   7  -7   4   33.80   16.20
  -8   7  -4   19.40   16.50
   8  -7   4   43.90   18.30
   8  -7   4   26.20   18.20
   8  -7   4   37.20   13.90
  -9   7  -4   63.29   22.00
   9  -7   4  107.09   25.90
   9  -7   4   77.39   17.70
   9   6  -4   80.89   25.10
   9   6  -4  113.29   28.60
   9   6  -4   57.39   18.00
  -9  -6   4  115.79   28.80
  -9  -6   4   82.39   23.10
   8   6  -4  184.58   28.50
   8   6  -4  209.08   26.20
   8   6  -4  220.28   28.20
  -8  -6   4  202.48   50.49
  -8  -6   4  258.37   32.90
   7   6  -4  250.67   31.00
   7   6  -4  193.38   25.40
   7   6  -4  276.97   29.20
  -7  -6   4  261.77   31.10
  -7  -6   4  245.98   32.60
   6   6  -4  123.59   20.20
   6   6  -4  127.09   23.50
  -6  -6   4   66.49   27.20
  -6  -6   4   90.49   20.40
  -6  -6   4   83.69   38.70
  -6  -6   4  112.59   47.30
   5   6  -4   -7.60    7.80
   5   6  -4    5.30    9.30
   5   6  -4   -2.10    7.10
  -5  -6   4   -3.60    8.80
  -5  -6   4   47.20   35.40
  -5  -6   4   -7.30   14.40
   4   6  -4  230.98   23.60
   4   6  -4  200.18   20.60
   4   6  -4  203.28   22.00
  -4  -6   4  139.79   44.60
  -4  -6   4  162.98   19.40
  -4  -6   4  228.48   48.60
   3   6  -4  280.57   19.80
   3   6  -4  257.97   13.90
   3   6  -4  284.47   19.70
   3   6  -4  230.98   19.50
  -3  -6   4  256.67   18.30
  -3  -6   4  284.37   55.99
  -3  -6   4  215.68   21.40
  -3  -6   4  198.78   41.90
  -3  -6   4  242.78   18.20
   2   6  -4  409.46  284.57
   2   6  -4  362.46   19.80
   2   6  -4  389.16   17.20
   2   6  -4  326.97   21.50
   2   6  -4  384.16   21.20
  -2  -6   4  402.36   23.60
  -2  -6   4  437.76   55.09
  -2  -6   4  587.14  251.47
  -2  -6   4  354.06   21.10
  -2  -6   4  401.46   48.50
  -2  -6   4  308.07   50.79
  -2  -6   4  354.46   18.70
   1   6  -4   -5.20    5.60
   1   6  -4 -408.56  250.17
   1   6  -4    7.10    6.10
   1   6  -4    4.40    5.10
   1   6  -4   -2.10    3.60
  -1  -6   4    0.10    6.30
  -1  -6   4   -1.90    5.10
  -1  -6   4   -0.80    8.50
  -1  -6   4   -2.20    8.50
  -1  -6   4 -312.67  245.08
  -1  -6   4   10.50   12.20
   0   6  -4  258.37   15.20
   0   6  -4  269.17   18.50
   0   6  -4 -171.18  250.57
   0   6  -4  257.07   16.50
   0  -6   4  278.37   37.30
   0  -6   4  238.78   18.10
   0  -6   4  290.57   50.19
   0  -6   4  249.68  285.07
   0  -6   4  259.87   18.60
  -1   6  -4 1805.62   42.50
  -1   6  -4 1828.52   43.50
  -1   6  -4 1754.72   46.40
   1  -6   4 1732.93  100.69
   1  -6   4 1776.92   47.80
   1  -6   4 1785.92   48.90
  -2   6  -4 1052.29   47.30
  -2   6  -4 1037.10   31.70
  -2   6  -4 1030.40   33.40
  -2   6  -4 1027.90   35.70
   2  -6   4 1107.49   39.30
   2  -6   4 1139.99   86.19
   2  -6   4 1085.19   30.80
  -3   6  -4  229.78   28.60
  -3   6  -4  223.58   17.90
   3  -6   4  189.98   56.29
   3  -6   4  245.48   14.10
   3  -6   4  208.58   16.60
   3  -6   4  224.18   19.50
  -4   6  -4   31.50   10.80
   4  -6   4   62.99   32.60
   4  -6   4   37.80    8.60
   4  -6   4   27.90   10.90
  -5   6  -4  472.15   28.80
   5  -6   4  410.56   26.70
   5  -6   4  417.56   72.09
   5  -6   4  437.56   25.50
   5  -6   4  421.36   27.80
  -6   6  -4  561.84   33.20
   6  -6   4  607.64   34.20
   6  -6   4  592.14   34.50
   6  -6   4  637.64   29.10
   6  -6   4  692.93  105.59
  -7   6  -4  507.75   35.20
   7  -6   4  380.76   29.50
   7  -6   4  420.06   26.80
   7  -6   4  447.76   33.80
   8  -6   4    4.30   15.60
   8  -6   4   15.70   10.80
  -9   6  -4  -10.20   14.50
   9  -6   4    0.00   11.60
   9  -6   4    9.20   18.00
   9   5  -4   25.90   15.10
   9   5  -4   12.40   16.20
  -9  -5   4   15.40   18.90
  -9  -5   4    2.60   15.60
   8   5  -4    9.30   11.50
   8   5  -4   -0.90   10.20
   8   5  -4   17.50   14.50
  -8  -5   4    0.20   15.50
  -8  -5   4   22.70   15.60
   7   5  -4   46.40   14.70
   7   5  -4   55.09   14.90
   7   5  -4   67.49   16.30
  -7  -5   4   58.49   17.10
  -7  -5   4   58.19   28.30
  -7  -5   4   76.79   35.60
   6   5  -4   26.10   10.20
   6   5  -4   50.49   13.50
   6   5  -4   54.89   14.30
  -6  -5   4   75.79   36.20
  -6  -5   4   35.50   29.20
  -6  -5   4   44.80   14.20
  -6  -5   4   47.10   15.10
   5   5  -4   18.00    9.00
   5   5  -4   12.20    8.60
   5   5  -4   36.60   14.60
  -5  -5   4   26.40   11.70
  -5  -5   4   79.09   31.60
  -5  -5   4   43.90   12.60
  -5  -5   4   13.90   23.50
   4   5  -4   91.19   14.80
   4   5  -4   86.29   13.50
   4   5  -4   82.19   13.10
  -4  -5   4  107.29   34.40
  -4  -5   4   87.59   13.80
  -4  -5   4  142.39   42.90
  -4  -5   4   57.89   13.70
  -4  -5   4   72.19   11.80
   3   5  -4  517.45   17.20
   3   5  -4  513.55   25.70
   3   5  -4  438.36  281.87
   3   5  -4  475.15   22.60
   3   5  -4  527.25   24.10
  -3  -5   4  547.35   60.99
  -3  -5   4  505.75   22.70
  -3  -5   4  539.55   71.49
  -3  -5   4  463.35   22.40
  -3  -5   4  574.44  254.97
  -3  -5   4  498.65   25.40
   2   5  -4  853.51   27.70
   2   5  -4  900.61   23.70
   2   5  -4  870.61   29.70
   2   5  -4  892.41   31.70
  -2  -5   4  922.51   54.49
  -2  -5   4  902.71   30.40
  -2  -5   4  793.72   61.69
  -2  -5   4  646.04  221.78
  -2  -5   4  883.41   31.90
  -2  -5   4  893.11   59.19
   1   5  -4  193.08   11.50
   1   5  -4  195.08   15.20
   1   5  -4  -48.10  232.48
   1   5  -4  175.98   13.10
  -1  -5   4  205.38   15.90
  -1  -5   4  177.08    7.80
  -1  -5   4  160.38   29.80
  -1  -5   4  291.57  223.88
  -1  -5   4  216.38   38.80
  -1  -5   4  217.08   35.90
  -1  -5   4  196.68   14.90
   0   5  -4  110.49   11.00
   0   5  -4  122.29   12.30
   0   5  -4  124.09   14.00
   0   5  -4  142.39  222.78
   0  -5   4  261.67  236.38
   0  -5   4  160.98   34.10
   0  -5   4  104.29    8.00
   0  -5   4  127.79   14.40
   0  -5   4  106.69   13.20
  -1   5  -4  323.17   18.30
  -1   5  -4  330.37   16.70
  -1   5  -4  315.07   25.90
  -1   5  -4  250.97  250.97
  -1   5  -4  311.67   15.80
   1  -5   4  439.56  291.07
   1  -5   4  331.07   15.10
   1  -5   4  408.46   57.09
   1  -5   4  341.47   19.40
   1  -5   4  358.16   19.70
  -2   5  -4  650.83   37.10
  -2   5  -4  594.64   24.90
   2  -5   4  642.04   61.09
   2  -5   4  609.14   27.10
   2  -5   4  647.54   18.80
   2  -5   4  539.25  329.67
   2  -5   4  625.74   24.50
  -3   5  -4  712.43   42.40
  -3   5  -4  729.63   29.30
   3  -5   4  723.23   22.60
   3  -5   4  708.63   84.19
   3  -5   4  718.93   30.60
   3  -5   4  703.83   27.90
  -4   5  -4  226.78   37.80
  -4   5  -4  188.58   34.90
  -4   5  -4  190.98   20.00
   4  -5   4  195.08   19.70
   4  -5   4  226.78   22.50
   4  -5   4  180.28   13.40
   4  -5   4  208.58   63.09
  -5   5  -4   64.99   22.20
  -5   5  -4   48.10   14.90
  -5   5  -4   56.49   13.10
   5  -5   4   44.60    9.80
   5  -5   4   41.80   20.20
   5  -5   4   55.79   13.30
   5  -5   4   69.69   31.20
  -6   5  -4  450.85   33.60
  -6   5  -4  471.25   30.10
   6  -5   4  544.85   30.10
   6  -5   4  447.86   77.29
   6  -5   4  519.05   26.00
   6  -5   4  487.85   31.10
  -7   5  -4  889.91   48.70
  -7   5  -4  928.01   43.30
   7  -5   4  903.91   40.00
   7  -5   4  946.41   37.00
   7  -5   4  969.20   45.90
   7  -5   4  895.11  117.19
  -8   5  -4  130.19   26.60
  -8   5  -4  151.28   24.30
   8  -5   4  178.38   28.10
   8  -5   4  120.09   18.90
  -9   5  -4   53.89   30.80
  -9   5  -4   68.69   22.10
   9  -5   4   31.30   13.30
   9  -5   4   19.40   19.30
  10   4  -4   15.90   14.00
  10   4  -4   27.50   19.10
 -10  -4   4   20.00   18.00
 -10  -4   4   62.99   25.20
   9   4  -4    6.50   11.20
   9   4  -4   20.60   15.50
  -9  -4   4    1.90   14.90
  -9  -4   4   14.80   15.90
  -9  -4   4    3.70    9.70
   8   4  -4   50.59   16.80
   8   4  -4   39.60   14.10
   8   4  -4   75.39   16.40
  -8  -4   4   57.49   11.70
  -8  -4   4   53.09   18.30
  -8  -4   4   93.79   22.50
   7   4  -4  163.88   22.10
   7   4  -4  144.69   18.70
   7   4  -4  174.98   21.90
  -7  -4   4  121.09   41.90
  -7  -4   4  181.38   26.40
  -7  -4   4  133.89   50.79
  -7  -4   4  136.79   21.30
  -7  -4   4  188.38   17.00
   6   4  -4  424.26   27.00
   6   4  -4  428.36   26.80
   6   4  -4  431.26   25.00
  -6  -4   4  432.16   83.69
  -6  -4   4  462.25   28.70
  -6  -4   4  453.65   19.50
  -6  -4   4  488.45   70.99
  -6  -4   4  476.45   30.50
   5   4  -4  335.47   20.60
   5   4  -4  382.76   23.40
   5   4  -4  385.16   22.80
  -5  -4   4  482.05   69.29
  -5  -4   4  391.46   25.00
  -5  -4   4  349.47   23.40
  -5  -4   4  401.86   73.39
  -5  -4   4  374.26   15.90
   4   4  -4   64.39   11.00
   4   4  -4   62.89   11.80
   4   4  -4   79.49   12.90
  -4  -4   4   72.09   10.80
  -4  -4   4   47.50    6.70
  -4  -4   4   64.39   27.10
  -4  -4   4   36.60    9.70
   3   4  -4   -2.70    3.30
   3   4  -4  198.58  222.08
   3   4  -4    2.80    4.90
   3   4  -4    0.30    5.30
  -3  -4   4 -168.38  192.18
  -3  -4   4   -1.90    5.80
  -3  -4   4    0.90   11.60
  -3  -4   4   29.70   16.00
  -3  -4   4    5.80    3.20
  -3  -4   4    0.30    5.50
   2   4  -4   29.90    7.70
   2   4  -4  -88.99  180.18
   2   4  -4   26.10    6.90
   2   4  -4   23.00    5.70
  -2  -4   4   28.50   12.70
  -2  -4   4   57.79   19.90
  -2  -4   4   40.90    8.90
  -2  -4   4   24.70    7.30
  -2  -4   4   24.50   14.40
  -2  -4   4   59.39  179.28
   1   4  -4   58.19    9.50
   1   4  -4  -19.70  198.88
   1   4  -4   50.39    7.80
   1   4  -4   51.69    6.80
  -1  -4   4   54.39    6.40
  -1  -4   4   51.89   17.20
  -1  -4   4   35.90  180.98
  -1  -4   4   52.59   10.80
  -1  -4   4   48.30    9.20
  -1  -4   4   74.19   19.60
   0   4  -4    8.10    5.40
   0   4  -4    5.70    5.40
   0   4  -4   10.40  200.68
   0   4  -4   -0.60    2.80
   0   4  -4    1.60    3.60
   0   4  -4   -2.60    4.70
   0  -4   4   14.10    4.60
   0  -4   4   20.80   13.40
   0  -4   4  -83.79  195.18
   0  -4   4    1.00    5.10
   0  -4   4    7.80    5.10
  -1   4  -4   95.59   11.40
  -1   4  -4   85.69   16.50
   1  -4   4  246.48  209.58
   1  -4   4   95.19   12.20
   1  -4   4   68.79   22.20
   1  -4   4   92.69   10.30
  -2   4  -4  138.99   11.70
  -2   4  -4  118.29   20.40
  -2   4  -4  290.47  351.66
   2  -4   4  153.18   14.50
   2  -4   4  102.19   30.40
   2  -4   4  133.29    8.70
   2  -4   4  111.29   13.10
   2  -4   4  181.28  268.57
  -3   4  -4  773.52  344.47
   3  -4   4  266.67  336.37
  -4   4  -4   58.09   21.70
  -4   4  -4   31.70   16.20
  -4   4  -4   57.49   11.80
  -4   4  -4   32.40   11.50
   4  -4   4   22.40   18.70
   4  -4   4   60.69   11.40
   4  -4   4   37.40    8.20
   4  -4   4   39.60   10.10
  -5   4  -4    4.40    6.90
  -5   4  -4    5.70    9.20
  -5   4  -4   19.70   15.90
  -5   4  -4   -0.90   12.50
   5  -4   4   -2.50   12.80
   5  -4   4    6.40    8.20
   5  -4   4    1.30    6.90
   5  -4   4    1.30    5.50
  -6   4  -4   95.69   29.80
  -6   4  -4  105.69   19.90
  -6   4  -4  146.69   19.80
   6  -4   4  152.08   18.60
   6  -4   4   80.89   32.10
   6  -4   4  116.49   14.10
   6  -4   4   83.49   21.10
  -7   4  -4   35.10   14.00
  -7   4  -4   28.50   15.30
   7  -4   4   26.50   14.30
   7  -4   4   65.19   35.40
   7  -4   4   70.59   21.10
  -8   4  -4   50.69   17.00
  -8   4  -4   68.99   21.30
   8  -4   4   28.40   16.80
   8  -4   4   49.20   13.10
  -9   4  -4   30.50   29.50
  -9   4  -4   20.50   16.00
   9  -4   4   26.70   18.90
   9  -4   4   17.90   12.50
  10   3  -4  288.07   35.60
  10   3  -4  306.47   30.70
 -10  -3   4  322.47   40.10
 -10  -3   4  360.26   28.00
 -10  -3   4  431.46   42.30
   9   3  -4   31.10   16.10
   9   3  -4   40.50   14.70
  -9  -3   4   30.70   17.70
  -9  -3   4   44.30   14.20
  -9  -3   4   52.49   18.40
   8   3  -4   -1.90    8.50
   8   3  -4   -5.00    8.20
  -8  -3   4   18.70   14.30
  -8  -3   4  -10.20   16.10
  -8  -3   4   10.30   11.90
  -8  -3   4    4.10    9.20
   7   3  -4  364.86   24.50
   7   3  -4  359.76   26.20
   7   3  -4  317.87   22.00
  -7  -3   4  344.07   64.79
  -7  -3   4  261.17   70.49
  -7  -3   4  356.16   28.30
  -7  -3   4  359.76   27.30
  -7  -3   4  330.77   21.00
   6   3  -4 1068.39   35.80
   6   3  -4 1035.70   37.60
   6   3  -4 1122.89   40.30
  -6  -3   4 1070.89   45.00
  -6  -3   4 1058.09   82.09
  -6  -3   4 1088.29  124.29
  -6  -3   4 1039.70   33.10
  -6  -3   4 1082.99   42.40
   5   3  -4 1291.57   39.40
   5   3  -4 1279.97   39.60
   5   3  -4 1278.17   36.90
  -5  -3   4 1284.07   41.60
  -5  -3   4 1304.17  101.99
  -5  -3   4 1223.88   31.20
  -5  -3   4 1276.67   33.40
  -5  -3   4 1252.37   82.59
   4   3  -4  497.05   22.20
   4   3  -4  519.95   22.90
   4   3  -4  379.86  251.17
   4   3  -4  472.25   20.80
  -4  -3   4  497.55   23.80
  -4  -3   4  517.05   18.60
  -4  -3   4 1195.88  274.87
  -4  -3   4  543.45   60.09
  -4  -3   4  674.93   84.39
  -4  -3   4  514.55   20.00
   3   3  -4  987.70   27.80
   3   3  -4  863.61  240.28
   3   3  -4 1007.70   29.70
   3   3  -4  956.60   28.00
  -3  -3   4  965.20   32.40
  -3  -3   4  945.51   58.59
  -3  -3   4 1153.48   74.79
  -3  -3   4  830.62  205.78
  -3  -3   4 1008.90   24.80
  -3  -3   4 1059.69   32.00
   2   3  -4 1253.07   58.19
   2   3  -4 1298.47   30.70
   2   3  -4 1305.47  223.88
   2   3  -4 1266.07   31.80
  -2  -3   4 1223.48   60.29
  -2  -3   4 1343.57  277.87
  -2  -3   4 1320.47   55.29
  -2  -3   4 1302.97   37.40
  -2  -3   4 1321.77   26.90
   1   3  -4 4351.66   63.09
   1   3  -4 4376.86  100.39
   1   3  -4 4346.47   99.99
   1   3  -4 4048.89  347.47
  -1  -3   4 4267.67  115.29
  -1  -3   4 4324.87   68.39
  -1  -3   4 4128.59  338.87
  -1  -3   4 4292.67   60.09
  -1  -3   4 4326.67   68.49
   0   3  -4 1636.74   56.39
   0   3  -4 1712.13   33.10
   0   3  -4 1828.62   54.09
   0  -3   4 1685.33   33.70
   0  -3   4 1683.93   76.29
   0  -3   4 1629.04   37.10
   0  -3   4 1679.63   37.70
   0  -3   4 1752.42  275.17
  -1   3  -4  316.67   23.80
  -1   3  -4  166.08  200.58
  -1   3  -4  319.07   26.10
  -1   3  -4  327.77   15.00
   1  -3   4  291.67   44.20
   1  -3   4  338.57   16.20
   1  -3   4  189.98  220.88
   1  -3   4  294.07   15.00
  -2   3  -4  693.23   24.20
  -2   3  -4  739.73   43.80
  -2   3  -4  729.23  265.77
  -2   3  -4  706.43   40.70
   2  -3   4  676.13   24.20
   2  -3   4  714.53   56.99
   2  -3   4  694.13   19.00
   2  -3   4  522.25  259.87
  -3   3  -4  171.28  312.47
  -3   3  -4  676.73   25.60
  -3   3  -4  643.94   27.90
  -3   3  -4  648.94   50.09
  -3   3  -4  670.23   44.90
   3  -3   4  692.33   26.60
   3  -3   4  709.53   25.00
   3  -3   4  656.23  353.26
   3  -3   4  678.43   59.89
   3  -3   4  662.53   20.80
  -4   3  -4  472.45   26.60
  -4   3  -4  484.75   42.60
  -4   3  -4  979.40  423.56
  -4   3  -4  501.55   24.00
  -4   3  -4  475.25   62.79
  -4   3  -4  441.46   20.00
   4  -3   4  508.35   25.50
   4  -3   4  484.05   21.70
   4  -3   4  635.64  392.76
   4  -3   4  467.45   25.40
   4  -3   4  518.05   65.89
  -5   3  -4   24.60   11.20
  -5   3  -4   24.00    9.00
  -5   3  -4   15.70    8.10
  -5   3  -4   95.49   28.50
  -5   3  -4   35.60   24.60
   5  -3   4   41.90   23.70
   5  -3   4   51.39   13.10
   5  -3   4   29.70    8.70
   5  -3   4   36.80    8.40
  -6   3  -4   27.80   24.40
  -6   3  -4   37.10   13.50
  -6   3  -4   11.70    9.00
  -6   3  -4   14.20   18.70
  -6   3  -4   14.00   10.00
   6  -3   4   27.70    9.00
   6  -3   4   34.30   13.20
   6  -3   4   52.09   29.60
  -7   3  -4   -2.40    9.60
  -7   3  -4   -4.70   11.10
  -7   3  -4    2.90   24.70
  -7   3  -4   20.50   11.30
   7  -3   4   21.30   24.40
   7  -3   4   26.20   13.40
   7  -3   4   15.20    8.30
  -8   3  -4    7.20   14.20
  -8   3  -4   27.90   27.00
  -8   3  -4  -12.80   11.30
   8  -3   4    6.40   14.10
   8  -3   4    2.20    9.50
  -9   3  -4   -3.30   12.90
  -9   3  -4   -1.00   16.30
   9  -3   4   11.50   11.40
  10   2  -4  285.27   27.60
  10   2  -4  214.18   30.10
 -10  -2   4  310.97   32.10
 -10  -2   4  235.18   34.40
 -10  -2   4  342.47   37.40
   9   2  -4  213.48   27.20
   9   2  -4  231.18   23.70
  -9  -2   4  248.08   26.20
  -9  -2   4  157.38   26.80
  -9  -2   4  202.38   27.60
   8   2  -4  142.79   20.50
   8   2  -4  150.28   18.20
  -8  -2   4  179.08   49.99
  -8  -2   4  117.29   17.60
  -8  -2   4  134.19   23.40
  -8  -2   4  177.98   24.00
  -8  -2   4   94.69   63.19
   7   2  -4   58.99   13.50
   7   2  -4   58.49   13.30
   7   2  -4   51.49   10.30
   7   2  -4   57.19   11.20
  -7  -2   4   59.29   14.80
  -7  -2   4   64.99   14.30
  -7  -2   4   77.59   13.40
  -7  -2   4   69.49   37.30
  -7  -2   4   92.19   35.50
   6   2  -4 1057.39   33.20
   6   2  -4 1039.20   35.20
   6   2  -4 1075.89   37.40
   6   2  -4 1067.99   26.60
  -6  -2   4 1032.30   38.90
  -6  -2   4 1050.79   77.49
  -6  -2   4 1042.60   34.50
   5   2  -4 2350.16   43.20
   5   2  -4 2407.36   52.99
   5   2  -4 2356.46   48.50
  -5  -2   4 2154.38   50.39
  -5  -2   4 2397.36  108.49
  -5  -2   4 2401.06   50.19
  -5  -2   4 2511.05   56.99
  -5  -2   4 2279.87  132.09
   4   2  -4  188.98   12.60
   4   2  -4  184.98   13.10
  -4  -2   4  223.78   45.50
  -4  -2   4  166.18  207.78
  -4  -2   4  200.18   15.00
  -4  -2   4  172.28   34.00
  -4  -2   4  174.88   12.20
   3   2  -4  128.99    8.80
   3   2  -4  139.09   10.10
   3   2  -4  162.88   28.90
   3   2  -4  128.99   10.90
  -3  -2   4  156.28   18.90
  -3  -2   4  154.18   28.10
  -3  -2   4  208.08  164.18
   2   2  -4 1173.28   54.99
  -2  -2   4 1153.98   28.60
  -2  -2   4 1161.18   55.29
  -2  -2   4  880.41  183.98
  -2  -2   4 1277.77   52.79
   1   2  -4 6099.99  125.09
   1   2  -4 6048.69  362.76
   1   2  -4 6072.69  117.79
  -1  -2   4 6233.18  136.19
  -1  -2   4 5888.41  347.97
   0   2  -4 6328.27  120.79
   0   2  -4 6411.96  124.29
   0   2  -4 7115.49  507.25
   0  -2   4 6139.69  383.86
   0  -2   4 6256.47  145.79
  -1   2  -4  168.08  184.78
  -1   2  -4   73.49   16.00
  -1   2  -4   81.59   18.40
   1  -2   4  204.38  180.08
  -2   2  -4   11.00  214.18
  -2   2  -4   29.30   12.10
  -2   2  -4   29.00    6.90
  -2   2  -4   60.79   19.60
   2  -2   4   46.80    9.30
   2  -2   4  307.47  235.38
   2  -2   4   62.49   21.90
   2  -2   4   40.10    5.90
  -3   2  -4  734.53   29.10
  -3   2  -4  772.02   26.40
  -3   2  -4  839.72   52.59
  -3   2  -4  459.35  275.97
   3  -2   4  707.43   57.89
   3  -2   4  180.98  296.37
   3  -2   4  718.83   27.00
   3  -2   4  738.63   21.90
   3  -2   4  735.33   23.40
  -4   2  -4  919.01   30.70
  -4   2  -4 1112.49   82.09
  -4   2  -4 1044.60   37.60
  -4   2  -4  950.70   61.79
  -4   2  -4  932.21   41.00
  -4   2  -4 1169.58  469.65
   4  -2   4 1105.49  420.16
   4  -2   4  988.50   34.90
   4  -2   4  972.10   76.39
   4  -2   4  975.50   28.70
   4  -2   4  954.60   28.10
  -5   2  -4  444.96   25.10
  -5   2  -4  379.56   63.89
  -5   2  -4  456.65   24.50
  -5   2  -4  491.45   28.90
  -5   2  -4  451.85   75.19
   5  -2   4  414.66   60.89
   5  -2   4  461.25   21.10
   5  -2   4  454.55   20.20
   5  -2   4  461.05   27.00
  -6   2  -4   18.80   21.70
  -6   2  -4   21.80   10.90
  -6   2  -4    9.20   13.30
  -6   2  -4   21.20   23.90
  -6   2  -4   10.70    8.70
   6  -2   4   28.40   11.90
   6  -2   4    5.90   16.20
   6  -2   4   15.70    7.60
  -7   2  -4   96.89   42.20
  -7   2  -4   22.70   21.30
  -7   2  -4   86.69   19.00
  -7   2  -4  129.79   20.90
  -7   2  -4   85.49   17.50
   7  -2   4   87.29   14.30
   7  -2   4    8.40   17.80
  -8   2  -4  130.19   44.10
  -8   2  -4  185.28   26.70
  -8   2  -4  164.48   24.80
  -8   2  -4   60.89   47.90
  -8   2  -4  155.88   27.30
   8  -2   4  155.38   20.80
  -9   2  -4  261.17   31.30
  -9   2  -4  279.07   35.80
  -9   2  -4  374.96   39.40
   9  -2   4  352.26   27.90
  11   1  -4   -5.50   13.30
 -11  -1   4   12.50   15.40
 -11  -1   4    6.10   16.70
 -11  -1   4   19.50   19.50
 -10  -1   4   16.90   14.90
 -10  -1   4   26.60   17.30
 -10  -1   4   -4.40   13.00
   9   1  -4   20.00    9.40
   9   1  -4    5.00   10.50
   9   1  -4   15.50   10.20
  -9  -1   4   31.70   14.30
  -9  -1   4    2.20   20.90
  -9  -1   4   34.50   16.50
  -9  -1   4   10.50   11.30
   8   1  -4    2.50    8.00
   8   1  -4    1.30    8.20
   8   1  -4   23.40    8.10
  -8  -1   4   10.90   10.50
  -8  -1   4   33.40   12.10
  -8  -1   4   17.30   21.40
  -8  -1   4   15.00   12.40
  -8  -1   4   24.40   29.80
   7   1  -4    2.40    5.60
   7   1  -4   -3.90    4.30
  -7  -1   4   10.90   18.20
  -7  -1   4    9.50    7.90
  -7  -1   4    1.90   17.20
  -7  -1   4    2.20    7.90
   6   1  -4   58.49    8.40
   6   1  -4   33.90    7.80
  -6  -1   4   30.60   18.80
  -6  -1   4   21.60   22.50
  -6  -1   4   26.90    9.10
  -6  -1   4   40.30    7.90
  -6  -1   4   36.70    9.70
   5   1  -4  409.56   17.60
   5   1  -4  514.55  277.37
   5   1  -4  409.16   14.70
   5   1  -4  475.45   20.50
  -5  -1   4  393.56   20.70
  -5  -1   4  449.56   69.09
  -5  -1   4  455.75   57.39
  -5  -1   4  454.15  290.77
  -5  -1   4  432.46   20.60
  -5  -1   4  414.46   17.00
   4   1  -4 1462.05   34.30
   4   1  -4 1537.95  343.27
   4   1  -4 1465.15   75.89
   4   1  -4 1371.66   31.40
  -4  -1   4 1387.66   36.10
  -4  -1   4 1419.46   35.20
  -4  -1   4 1523.45   72.59
  -4  -1   4 1665.43  289.27
   3   1  -4  408.46   46.70
   3   1  -4  348.57   30.00
   3   1  -4  401.46  220.18
   3   1  -4  341.77   13.50
  -3  -1   4  323.77   37.10
  -3  -1   4  444.96  179.68
  -3  -1   4  367.96   18.90
  -3  -1   4  350.16   15.40
   2   1  -4   90.39   19.30
   2   1  -4 -184.38  153.28
   2   1  -4   51.69   12.70
  -2  -1   4  282.77  132.89
  -2  -1   4   77.49   16.40
   1   1  -4  315.37  137.49
   1   1  -4  501.05   33.80
   1   1  -4  480.35   28.80
  -1  -1   4  496.55   35.80
  -1  -1   4  348.47  142.79
   0   1  -4 3485.95  302.17
   0   1  -4 3428.66   85.69
   0   1  -4 3317.17   94.09
   0  -1   4 3873.01  328.57
   0  -1   4 3429.26  102.39
  -1   1  -4 1232.28   52.89
  -1   1  -4 1177.28   60.29
  -1   1  -4 1341.37  239.68
   1  -1   4 1148.19   61.39
   1  -1   4 1218.08  237.78
  -2   1  -4 1062.09   27.80
  -2   1  -4 1001.40   64.09
  -2   1  -4 1531.05  282.97
  -2   1  -4 1055.49   54.69
   2  -1   4 1073.39   24.40
   2  -1   4 1265.57  291.47
   2  -1   4 1098.89   63.79
  -3   1  -4   -1.20  248.78
   3  -1   4  238.08  291.57
  -4   1  -4  568.94   25.50
  -4   1  -4  556.24   24.40
  -4   1  -4  546.15   27.00
  -4   1  -4  571.04   49.80
  -4   1  -4  553.84   78.39
  -4   1  -4 1183.08  371.46
   4  -1   4  593.54   32.00
   4  -1   4  466.95  353.86
   4  -1   4  574.54   53.59
   4  -1   4  580.54   26.80
   4  -1   4  583.54   21.20
  -5   1  -4  588.44   88.99
  -5   1  -4  634.04   70.39
  -5   1  -4  658.03   29.10
  -5   1  -4  674.93   32.40
  -5   1  -4  634.64   30.20
   5  -1   4  565.24   68.79
   5  -1   4  624.04   24.60
   5  -1   4  593.54   24.80
   5  -1   4  667.43   31.70
  -6   1  -4  610.04   32.70
  -6   1  -4  483.05   90.59
  -6   1  -4  606.84   31.00
  -6   1  -4  694.23   80.69
  -6   1  -4  627.74   34.20
   6  -1   4  529.35   28.70
   6  -1   4  611.24   26.80
   6  -1   4  470.95   66.69
  -7   1  -4    2.40    9.40
  -7   1  -4    8.10   19.90
  -7   1  -4   -6.80   20.10
  -7   1  -4    6.20   11.10
  -7   1  -4   16.70   13.60
   7  -1   4   21.50    9.30
  -8   1  -4   87.99   19.90
  -8   1  -4   64.19   19.30
  -8   1  -4   52.79   31.30
  -8   1  -4   31.60   15.50
   8  -1   4   54.69   14.00
  -9   1  -4  112.69   24.70
  -9   1  -4  106.89   23.30
  -9   1  -4  114.09   24.70
  11   0  -4   -1.80   13.10
  11   0  -4    3.70   11.70
 -11   0   4   10.00   16.50
 -11   0   4   42.60   20.10
 -11   0   4    8.30   16.20
  10   0  -4   89.69   20.60
  10   0  -4   50.69   12.90
 -10   0   4   67.19   24.90
 -10   0   4   60.29   19.90
 -10   0   4   49.30   23.90
   9   0  -4  170.48   22.90
   9   0  -4  152.48   17.50
  -9   0   4  152.68   23.10
  -9   0   4  206.38   28.10
  -9   0   4  125.89   43.90
  -9   0   4  199.78   25.80
   8   0  -4  125.79   16.50
   8   0  -4  108.39   13.70
  -8   0   4  121.09   59.59
  -8   0   4   86.09   16.60
  -8   0   4  131.49   41.30
  -8   0   4  111.59   18.60
   7   0  -4   40.80    8.40
  -7   0   4   54.59   12.70
  -7   0   4   32.60   28.20
  -7   0   4   38.90   22.80
  -7   0   4   39.70   11.30
   6   0  -4    9.60    9.10
   6   0  -4    4.30    4.40
   6   0  -4    9.40    7.20
   6   0  -4    2.90    4.50
  -6   0   4    0.80    6.10
  -6   0   4    1.30   10.60
  -6   0   4    4.10    5.20
  -6   0   4   -1.40    9.40
   5   0  -4  209.78   13.00
   5   0  -4 -123.19  269.87
   5   0  -4  231.48   31.70
   5   0  -4  219.08   11.70
   5   0  -4  267.37   53.79
  -5   0   4  247.38   16.30
  -5   0   4  224.68   15.80
  -5   0   4  238.78   39.50
  -5   0   4  209.38   12.60
  -5   0   4  105.39  252.17
   4   0  -4  220.78   12.20
   4   0  -4  269.37  206.68
   4   0  -4  270.47   35.80
   4   0  -4  219.48   11.70
   4   0  -4  175.58   33.00
  -4   0   4  219.28   14.00
  -4   0   4  197.08   13.00
  -4   0   4  226.08   33.20
  -4   0   4  274.27  195.68
   3   0  -4   -4.60  151.18
   3   0  -4    1.20    7.70
  -3   0   4 -143.89  149.29
  -3   0   4   -4.10    5.30
   2   0  -4  179.28   31.00
   2   0  -4  151.28   24.60
   2   0  -4 -101.39  122.69
   2   0  -4  147.89   22.50
  -2   0   4   56.49  125.29
   1   0  -4   10.90    6.60
   1   0  -4   34.60  131.89
   1   0  -4   17.40   10.30
  -1   0   4   31.50   13.50
  -1   0   4   96.69  125.19
   0   0  -4  160.08   29.30
   0   0  -4  165.88  141.49
   0   0  -4  151.18   26.00
   0   0   4  204.78   29.40
   0   0   4  304.87  151.08
  -1   0  -4  288.27   41.00
  -1   0  -4  302.37  166.18
  -1   0  -4  347.47   29.40
   1   0   4  158.48  165.58
   1   0   4  338.47   40.10
  -2   0  -4  396.06   17.90
  -2   0  -4  445.06   37.30
  -2   0  -4  426.16   55.69
  -2   0  -4  330.97  210.58
  -2   0  -4  405.86   18.80
   2   0   4  532.85  224.78
   2   0   4  434.66   56.49
  -3   0  -4  282.17  260.47
  -3   0  -4   34.20    8.50
  -3   0  -4   40.90   16.90
  -3   0  -4   48.50    8.60
  -3   0  -4   57.39   24.60
  -3   0  -4   62.49   10.80
   3   0   4   14.50  256.27
   3   0   4   52.39   21.40
  -4   0  -4  124.59   15.80
  -4   0  -4   97.29   35.20
  -4   0  -4  102.89   27.50
  -4   0  -4  119.79   14.10
   4   0   4  124.99   13.00
   4   0   4  120.99   31.40
  -5   0  -4  733.03  105.59
  -5   0  -4  653.03   28.90
  -5   0  -4  702.13   62.79
  -5   0  -4  702.43   32.00
  -5   0  -4  635.44   31.50
   5   0   4  607.74   25.00
   5   0   4  668.73   27.70
  -6   0  -4  168.68   58.79
  -6   0  -4  140.09   18.60
  -6   0  -4  180.78   21.90
  -6   0  -4  131.29   19.50
   6   0   4  133.49   17.30
   6   0   4  178.78   43.60
  -7   0  -4  438.06   95.09
  -7   0  -4  546.65   36.20
  -7   0  -4  485.45   46.70
  -7   0  -4  509.25   76.09
  -7   0  -4  516.25   31.50
   7   0   4  544.35   34.90
  -8   0  -4   65.89   18.80
  -8   0  -4   45.90   17.30
  -8   0  -4   61.69   20.60
  -9   0  -4    0.60   15.60
  -9   0  -4   14.70   16.40
  -9   0  -4   11.50   15.30
  11  -1  -4    0.20   12.70
  11  -1  -4   53.29   15.00
 -11   1   4   20.40   17.40
 -11   1   4   47.50   19.90
 -11   1   4   27.00   18.10
  10  -1  -4   34.40   14.80
  10  -1  -4   42.80   13.20
 -10   1   4   50.69   16.20
 -10   1   4   58.29   35.30
 -10   1   4   37.20   17.50
 -10   1   4   21.90   16.00
   9  -1  -4  147.09   17.80
  -9   1   4  173.68   25.00
  -9   1   4  137.09   44.20
  -9   1   4  175.28   24.10
  -9   1   4  197.18   29.80
   8  -1  -4  835.62   30.40
  -8   1   4 1011.60  125.89
  -8   1   4  866.01   38.60
  -8   1   4  868.91   40.60
  -8   1   4  928.01   98.79
   7  -1  -4  444.56   20.40
   7  -1  -4  461.95   28.20
   7  -1  -4  458.65   24.20
  -7   1   4  446.56   27.10
  -7   1   4  437.66   24.70
  -7   1   4  544.45   68.39
  -7   1   4  442.36   76.79
   6  -1  -4    2.70    8.60
   6  -1  -4 -259.17  346.17
   6  -1  -4    0.90    4.50
   6  -1  -4    8.00    7.60
   6  -1  -4    7.30    4.90
   6  -1  -4    5.30    4.70
  -6   1   4   -1.10    6.20
  -6   1   4   10.40    7.50
  -6   1   4 -293.27  338.87
  -6   1   4   35.20   18.30
  -6   1   4   24.10   21.30
   5  -1  -4  295.67  264.37
   5  -1  -4  568.64   19.10
   5  -1  -4  458.95   53.39
   5  -1  -4  553.34   45.50
   5  -1  -4  543.85   25.10
   5  -1  -4  567.34   20.50
  -5   1   4  512.35  312.27
  -5   1   4  550.54   24.70
  -5   1   4  572.54   22.50
   4  -1  -4 1772.12   80.59
   4  -1  -4 1759.22   33.50
   4  -1  -4 1734.53  305.27
   4  -1  -4 1662.13   77.79
  -4   1   4 1778.32   68.89
  -4   1   4 1749.43   37.20
  -4   1   4 1767.52   41.80
  -4   1   4 1701.63   36.40
  -4   1   4 1749.92  430.26
   3  -1  -4 2223.48   90.09
   3  -1  -4 1993.00  261.67
   3  -1  -4 2131.79   96.09
  -3   1   4 2223.28  281.07
  -3   1   4 2141.59   68.59
   2  -1  -4  323.67   46.50
   2  -1  -4  231.48   18.60
   2  -1  -4  189.48  131.49
   2  -1  -4  253.47   34.60
  -2   1   4  240.48  151.38
   1  -1  -4  -44.70  204.28
   1  -1  -4   -8.40    4.10
   1  -1  -4   -1.80    9.20
   1  -1  -4    3.90    6.40
  -1   1   4   68.89  118.89
   0  -1  -4 1675.03  212.18
   0  -1  -4 1386.56   54.19
   0  -1  -4 1363.26   69.19
   0   1   4 1360.16  218.58
   0   1   4 1403.56   63.99
  -1  -1  -4 1043.80   52.59
  -1  -1  -4 1034.50   67.39
  -1  -1  -4 1008.90  211.18
   1   1   4  898.71   53.69
   1   1   4 1189.38  220.28
  -2  -1  -4  897.31   70.89
  -2  -1  -4 1049.70   58.39
  -2  -1  -4  997.10   41.30
  -2  -1  -4  754.82  218.58
  -2  -1  -4 1064.39   36.20
  -3  -1  -4  124.29   28.50
  -3  -1  -4  165.48   44.70
  -3  -1  -4  131.49   14.00
  -3  -1  -4  135.59   15.30
   3   1   4  143.99   30.80
   3   1   4  114.29   12.30
  -4  -1  -4   79.69   13.90
  -4  -1  -4   68.79   11.50
  -4  -1  -4   67.59   10.80
  -4  -1  -4  127.59   43.90
   4   1   4   71.89   24.20
   4   1   4   69.29   11.20
  -5  -1  -4  213.98   20.50
  -5  -1  -4  215.68   65.79
  -5  -1  -4  246.88   24.60
  -5  -1  -4  237.28   18.90
  -5  -1  -4  242.38   46.80
   5   1   4  314.17   47.40
   5   1   4  213.88   20.40
  -6  -1  -4   38.90   34.30
  -6  -1  -4   10.60   10.10
  -6  -1  -4   -5.60    8.30
  -6  -1  -4    6.80    8.50
  -6  -1  -4    9.30   22.30
   6   1   4   -2.30    7.60
  -7  -1  -4    3.70   11.10
  -7  -1  -4   19.30   12.40
  -7  -1  -4   17.90   22.60
   7   1   4   18.40   11.10
  -8  -1  -4   -7.00   11.90
  -8  -1  -4   10.40   12.50
  -8  -1  -4   -9.40   11.70
   8   1   4   -5.90   10.30
  -9  -1  -4   -5.10   13.90
  -9  -1  -4    1.60   15.20
  -9  -1  -4   -9.20   13.70
  11  -2  -4   47.80   14.50
  11  -2  -4   78.39   20.00
 -11   2   4   58.79   20.30
 -11   2   4   37.00   19.40
 -11   2   4   32.20   18.50
  10  -2  -4   14.20   12.50
  10  -2  -4   19.40   11.00
 -10   2   4   28.60   15.10
 -10   2   4   24.40   14.60
 -10   2   4   28.20   15.60
   9  -2  -4   24.30   13.00
   9  -2  -4   30.50   10.50
  -9   2   4   20.20   27.40
  -9   2   4   24.80   14.20
  -9   2   4    7.40   19.70
   8  -2  -4  651.23   31.40
   8  -2  -4  631.44   27.00
   8  -2  -4  586.94   34.70
  -8   2   4  623.54  102.39
  -8   2   4  682.33   36.20
  -8   2   4  577.34   31.60
  -8   2   4  758.22   82.09
   7  -2  -4  594.24   32.00
   7  -2  -4  591.54   24.50
   7  -2  -4  620.64   57.09
  -7   2   4  599.54   31.40
  -7   2   4  610.24   68.99
  -7   2   4  623.34   29.10
  -7   2   4  557.24  117.59
   6  -2  -4  298.87   19.30
   6  -2  -4  340.17   21.20
   6  -2  -4  460.85   61.29
   6  -2  -4  282.77   15.80
   6  -2  -4  326.87   51.69
   6  -2  -4  -22.10  342.07
   6  -2  -4  347.97   22.70
  -6   2   4  353.36   47.20
  -6   2   4  319.87   21.20
  -6   2   4  354.76   20.00
   5  -2  -4  247.88  264.37
  -5   2   4  305.07  290.07
   4  -2  -4  125.39   28.10
   4  -2  -4  -38.20  190.38
   4  -2  -4  197.48   40.50
   4  -2  -4  151.28   10.00
   4  -2  -4  155.98   14.10
   4  -2  -4  148.39   14.80
  -4   2   4 -180.38  196.28
  -4   2   4  186.08   26.80
   3  -2  -4 2123.69   43.10
   3  -2  -4 2030.70   37.50
   3  -2  -4 2129.39   97.09
   3  -2  -4 1855.71  262.77
  -3   2   4 2020.70  289.87
   2  -2  -4 3132.99  117.29
   2  -2  -4 3099.99  265.47
   2  -2  -4 3123.39   99.69
   2  -2  -4 3212.58   70.99
  -2   2   4 2797.72  256.57
   1  -2  -4 1169.88   71.29
   1  -2  -4 1434.26  206.68
   1  -2  -4 1161.68   44.60
   1  -2  -4 1243.68   65.79
  -1   2   4 1252.27  190.48
   0  -2  -4    8.90    8.30
   0  -2  -4    1.00    9.70
   0  -2  -4   34.30  148.19
   0  -2  -4   18.40   12.30
   0   2   4  -69.89  128.29
  -1  -2  -4 3180.98  127.09
  -1  -2  -4 3187.18   97.89
  -1  -2  -4 3219.48   50.69
  -1  -2  -4 3230.98  127.39
  -1  -2  -4 3102.59   56.59
  -1  -2  -4 3292.27   59.39
   1   2   4 2766.42  311.47
   1   2   4 3277.07   56.49
   1   2   4 3190.38   54.49
  -2  -2  -4 2650.03  129.69
  -2  -2  -4 2729.43  100.09
  -2  -2  -4 2664.83   57.09
  -2  -2  -4 2672.33   47.60
  -2  -2  -4 2700.93   56.19
   2   2   4 2661.43   52.49
   2   2   4 2707.73   99.79
   2   2   4 2741.83   47.00
   2   2   4 2822.02   53.89
   2   2   4 2431.76  422.06
  -3  -2  -4 1032.50   36.20
  -3  -2  -4  953.20   28.70
  -3  -2  -4  910.11   84.09
  -3  -2  -4 1010.10   66.59
  -3  -2  -4  971.80   34.90
   3   2   4  990.20   28.20
   3   2   4  990.30   32.30
   3   2   4  966.30   61.39
  -4  -2  -4  144.29   35.00
  -4  -2  -4  143.29   45.80
  -4  -2  -4  116.59   16.90
  -4  -2  -4  163.28   16.00
  -4  -2  -4  154.38   16.00
   4   2   4  117.59   15.30
   4   2   4  134.19   30.80
  -5  -2  -4  308.67   21.10
  -5  -2  -4  256.17   66.99
  -5  -2  -4  379.76   61.39
  -5  -2  -4  323.37   21.70
   5   2   4  294.27   56.49
   5   2   4  344.27   21.90
   5   2   4  307.27   22.40
  -6  -2  -4 1471.65  104.49
  -6  -2  -4 1508.35   56.79
  -6  -2  -4 1410.06   47.70
  -6  -2  -4 1197.18  230.68
  -6  -2  -4 1285.97   43.80
   6   2   4 1341.57   48.00
   6   2   4 1503.55   46.90
  -7  -2  -4  495.25   36.90
  -7  -2  -4  551.44   33.90
  -7  -2  -4  563.44   88.69
  -7  -2  -4  508.35   30.70
   7   2   4  490.85   32.70
  -8  -2  -4  222.38   24.70
  -8  -2  -4  184.78   26.30
  -8  -2  -4  192.38   31.70
   8   2   4  162.68   24.90
  -9  -2  -4    0.80   14.80
  -9  -2  -4    4.80   13.60
  -9  -2  -4   10.50   17.30
   9   2   4   18.00   16.10
  11  -3  -4    8.30   13.00
  11  -3  -4   -1.10   10.40
 -11   3   4    6.00   16.50
 -11   3   4   -6.50   14.00
 -11   3   4   12.60   15.80
  10  -3  -4  109.89   24.50
  10  -3  -4   72.89   15.40
 -10   3   4   44.90   17.80
 -10   3   4   85.49   20.80
 -10   3   4   61.59   18.70
   9  -3  -4  114.19   19.00
   9  -3  -4  122.49   22.40
  -9   3   4   67.59   18.00
  -9   3   4   98.39   49.30
  -9   3   4  122.79   22.00
   8  -3  -4  -10.20    4.90
   8  -3  -4   -9.90    6.40
  -8   3   4   11.80   23.20
  -8   3   4    1.30   17.10
  -8   3   4   -2.10    8.50
   7  -3  -4   -1.60   15.50
   7  -3  -4   11.70    6.70
   7  -3  -4    6.50    8.10
   7  -3  -4   14.80    9.10
  -7   3   4    2.60   11.30
  -7   3   4   19.10   23.90
  -7   3   4    8.00    8.00
  -7   3   4   -6.80    5.80
   6  -3  -4  301.67   21.80
   6  -3  -4  291.77   16.60
   6  -3  -4  316.87   52.69
   6  -3  -4  314.77   16.30
  -6   3   4  314.97   18.80
  -6   3   4  344.27   43.20
  -6   3   4  329.37   21.80
  -6   3   4  293.17   13.10
   5  -3  -4  703.53   54.29
   5  -3  -4  817.22   24.10
   5  -3  -4  842.32   31.30
   5  -3  -4  825.02   25.90
   5  -3  -4  816.22   32.00
   5  -3  -4  819.72   67.39
   5  -3  -4 1580.54  375.96
  -5   3   4  824.12   26.10
  -5   3   4  757.62   44.90
  -5   3   4  805.12   30.60
  -5   3   4 1047.70  342.87
   4  -3  -4    1.30    3.70
   4  -3  -4 -125.69  235.98
   4  -3  -4   26.40   18.60
   4  -3  -4    7.50    9.70
   4  -3  -4    9.20    4.20
   4  -3  -4    7.70    4.90
  -4   3   4 -278.87  237.48
  -4   3   4    8.90    7.70
   3  -3  -4  645.54   22.30
   3  -3  -4  654.63   28.50
   3  -3  -4  671.83   48.70
   3  -3  -4  592.74   70.39
   3  -3  -4  628.04   27.70
   3  -3  -4  352.16  210.68
  -3   3   4  574.54  201.38
   2  -3  -4 1838.22   95.69
   2  -3  -4 1857.21   35.70
   2  -3  -4 1742.13  250.47
   2  -3  -4 1872.71   51.69
   2  -3  -4 1813.32   36.70
   2  -3  -4 1929.91   81.59
  -2   3   4 1802.12   35.50
  -2   3   4 1832.02  225.18
   1  -3  -4 1404.26   27.60
   1  -3  -4 1369.96   72.79
   1  -3  -4 1472.25  194.28
   1  -3  -4 1357.56   50.39
   1  -3  -4 1394.56   82.49
  -1   3   4 1290.97  184.78
  -1   3   4 1428.16   31.50
   0  -3  -4   48.30   14.90
   0  -3  -4   53.49    9.40
   0  -3  -4   52.79   21.90
   0  -3  -4   42.50    7.70
   0  -3  -4   39.60    8.00
   0  -3  -4  112.29  154.48
   0  -3  -4   36.20   17.80
   0   3   4   41.30  128.39
   0   3   4   38.50    7.10
   0   3   4   29.10    6.20
  -1  -3  -4  156.48   15.10
  -1  -3  -4  190.48   17.20
  -1  -3  -4  118.59    6.90
  -1  -3  -4  161.88  268.57
  -1  -3  -4  216.78   32.30
  -1  -3  -4  114.69   30.70
  -1  -3  -4  173.58   39.80
   1   3   4  149.79   12.40
   1   3   4  122.19  162.08
   1   3   4  139.49   13.30
   1   3   4  134.89    9.40
  -2  -3  -4 2102.69   50.99
  -2  -3  -4 2191.88   92.59
  -2  -3  -4 2042.40   35.00
  -2  -3  -4 2202.68   51.89
  -2  -3  -4 2170.88  108.69
  -2  -3  -4 2200.88  142.49
   2   3   4 2052.29   39.10
   2   3   4 2134.49   48.80
   2   3   4 2137.89   48.40
   2   3   4 2104.39   42.50
  -3  -3  -4 1362.76   43.80
  -3  -3  -4 1399.76   35.10
  -3  -3  -4 1280.57  105.09
  -3  -3  -4 1474.65   92.69
  -3  -3  -4 1388.46   81.39
  -3  -3  -4 1359.66   30.30
   3   3   4 1401.96   49.80
   3   3   4 1377.76   39.80
   3   3   4 1366.66   33.50
  -4  -3  -4  684.13   77.19
  -4  -3  -4  780.72   35.90
  -4  -3  -4  755.82   28.90
  -4  -3  -4  795.82   25.40
  -4  -3  -4  786.12   36.50
  -4  -3  -4  831.42   72.89
  -4  -3  -4  644.94  101.39
   4   3   4  778.52   29.00
   4   3   4  873.61   33.10
   4   3   4  833.32   34.30
  -5  -3  -4  -10.60   10.50
  -5  -3  -4   16.10   10.90
  -5  -3  -4   -1.70   14.60
  -5  -3  -4   13.30   27.00
  -5  -3  -4   10.80    8.60
   5   3   4    8.80    8.60
   5   3   4    9.50    7.60
   5   3   4   17.90    9.10
  -6  -3  -4  428.46   36.90
  -6  -3  -4  432.76   33.60
  -6  -3  -4  419.26   23.70
  -6  -3  -4  614.54  121.09
  -6  -3  -4  419.06   27.60
  -6  -3  -4  493.45   74.69
   6   3   4  409.56   28.80
   6   3   4  400.36   31.30
  -7  -3  -4  459.65   37.30
  -7  -3  -4  524.65   40.50
  -7  -3  -4  535.45   40.70
  -7  -3  -4  487.05   27.20
   7   3   4  470.25   33.70
  -8  -3  -4  286.97   32.10
  -8  -3  -4  264.07   24.40
  -8  -3  -4  225.78   33.00
   8   3   4  292.97   32.10
  11  -4  -4   73.59   23.90
  11  -4  -4   75.09   17.40
 -11   4   4   79.09   22.30
 -11   4   4   79.19   22.10
 -11   4   4   97.69   25.40
  10  -4  -4   21.50   11.30
  10  -4  -4   20.90   16.20
 -10   4   4   20.40   15.10
 -10   4   4   32.00   15.70
 -10   4   4   61.19   20.80
   9  -4  -4   -9.10   10.50
   9  -4  -4    4.00    7.70
   9  -4  -4    1.00    9.20
  -9   4   4   -3.70    9.50
  -9   4   4    5.90   21.70
  -9   4   4   -5.50   11.00
   8  -4  -4    2.40    8.70
   8  -4  -4   10.00    9.60
   8  -4  -4   47.00   28.50
   8  -4  -4    0.20    6.70
  -8   4   4    6.20   10.20
  -8   4   4    8.60   21.40
  -8   4   4   14.60    9.60
   7  -4  -4   37.60    9.20
   7  -4  -4   23.20   11.20
   7  -4  -4   27.40   10.30
   7  -4  -4   28.80    7.60
   7  -4  -4   44.50   25.70
  -7   4   4   35.20   10.30
  -7   4   4   37.30   12.80
  -7   4   4   22.90   19.30
   6  -4  -4  295.27   21.40
   6  -4  -4  284.27   15.60
   6  -4  -4  272.97   21.30
   6  -4  -4  374.96   65.79
   6  -4  -4  342.87   51.09
   6  -4  -4  270.47   17.00
  -6   4   4  288.37   14.50
  -6   4   4  307.87   18.50
  -6   4   4  334.67   22.60
   5  -4  -4   10.10   12.40
   5  -4  -4   15.90    5.40
   5  -4  -4   19.80    6.50
   5  -4  -4   13.80    9.00
   5  -4  -4   11.40    6.40
   5  -4  -4    7.50   11.70
  -5   4   4   18.30   10.50
  -5   4   4    1.70    4.70
  -5   4   4   16.90    4.80
   4  -4  -4   -0.10    3.50
   4  -4  -4    1.00    4.70
   4  -4  -4   -1.40    5.50
   4  -4  -4    4.60    5.20
   4  -4  -4   -0.50    8.60
   4  -4  -4    7.40    4.70
  -4   4   4    6.80    3.90
   3  -4  -4   73.09   26.30
   3  -4  -4  108.19   10.50
   3  -4  -4   99.89   11.20
   3  -4  -4   97.89   10.70
   3  -4  -4  106.29   13.50
   3  -4  -4  114.29   15.00
   3  -4  -4  131.29   29.70
  -3   4   4  101.89   10.50
   2  -4  -4    5.10    3.10
   2  -4  -4    5.10    5.40
   2  -4  -4    2.10    4.00
   2  -4  -4   10.70   10.40
   2  -4  -4   13.00   14.50
   2  -4  -4    0.60    5.60
   2  -4  -4    7.20    4.80
  -2   4   4    8.80    4.70
  -2   4   4    7.80    4.40
  -2   4   4  -65.59  154.68
   1  -4  -4    4.30    4.80
   1  -4  -4   23.00   16.00
   1  -4  -4   -1.20    4.40
   1  -4  -4   -2.00    5.50
   1  -4  -4   -3.40    8.70
   1  -4  -4    2.00    4.70
  -1   4   4    2.60    4.30
  -1   4   4   29.10  132.99
  -1   4   4    5.80    4.40
   0  -4  -4  202.58   14.80
   0  -4  -4  204.98   16.60
   0  -4  -4  227.18   44.90
   0  -4  -4  202.08   29.80
   0  -4  -4  179.88   40.20
   0   4   4  218.88   15.10
   0   4   4  208.28   13.80
  -1  -4  -4   80.99   26.60
  -1  -4  -4   50.19   24.30
  -1  -4  -4   78.99   12.30
  -1  -4  -4   51.39   22.90
  -1  -4  -4   73.49   11.40
   1   4   4   82.29    9.10
   1   4   4  109.79   13.50
   1   4   4   72.69   10.60
  -2  -4  -4  189.68   46.70
  -2  -4  -4  247.58   21.70
  -2  -4  -4  271.17   44.20
  -2  -4  -4  177.48   39.40
  -2  -4  -4  193.58   19.60
   2   4   4  149.79   11.70
   2   4   4  150.48   12.20
   2   4   4  195.28   18.30
   2   4   4  180.48   15.00
  -3  -4  -4  286.57   48.70
  -3  -4  -4  382.56   25.20
  -3  -4  -4  322.87   70.49
  -3  -4  -4  367.66   18.70
  -3  -4  -4  450.95   61.39
  -3  -4  -4  427.46   25.90
   3   4   4  384.96   19.90
   3   4   4  405.26   22.90
   3   4   4  363.46   22.90
   3   4   4  384.96   18.90
  -4  -4  -4  445.86   84.39
  -4  -4  -4  513.25   55.59
  -4  -4  -4  478.55   67.99
  -4  -4  -4  393.56   28.00
   4   4   4  455.95   25.60
   4   4   4  498.85   25.60
   4   4   4  467.45   31.30
   4   4   4  436.36   22.10
  -5  -4  -4   36.20   15.00
  -5  -4  -4   34.40   11.10
  -5  -4  -4   24.80   24.30
  -5  -4  -4    9.70   13.10
   5   4   4   28.20   10.70
   5   4   4   37.80   11.60
   5   4   4   35.50   12.70
  -6  -4  -4   21.20   16.40
  -6  -4  -4   22.80   14.90
  -6  -4  -4    1.70    9.90
  -6  -4  -4   18.60   22.70
   6   4   4    0.20    8.20
   6   4   4   -1.80    9.20
   6   4   4   -0.10   10.70
  -7  -4  -4   59.09   17.50
  -7  -4  -4   90.49   24.50
  -7  -4  -4   70.89   20.90
   7   4   4   46.30   16.70
  -8  -4  -4   74.59   23.60
  -8  -4  -4  108.89   28.20
   8   4   4   67.89   20.20
  11  -5  -4  157.18   23.90
  11  -5  -4  184.88   33.50
 -11   5   4  176.38   32.40
 -11   5   4  131.79   25.70
  10  -5  -4  594.54   42.20
  10  -5  -4  658.13   35.70
 -10   5   4  666.33   47.20
 -10   5   4  658.63   39.60
   9  -5  -4  841.52   43.30
   9  -5  -4  869.31   45.60
   9  -5  -4  887.91   38.10
  -9   5   4  815.72   51.39
   8  -5  -4  604.94   35.10
   8  -5  -4  639.34   36.30
   8  -5  -4  604.64   91.59
   8  -5  -4  602.54   29.20
  -8   5   4  560.34   92.89
  -8   5   4  535.35   29.80
   7  -5  -4  204.08   20.60
   7  -5  -4  157.38   15.40
   7  -5  -4  205.68   57.79
   7  -5  -4  204.48   24.70
   7  -5  -4  157.98   21.20
  -7   5   4  193.48   52.99
  -7   5   4  156.78   17.70
  -7   5   4  170.28   15.50
   6  -5  -4  694.93   27.70
   6  -5  -4  691.43   34.30
   6  -5  -4  720.43   58.29
   6  -5  -4  727.33   32.00
   6  -5  -4  638.34   22.90
   6  -5  -4  930.11  112.19
  -6   5   4  704.93   27.00
  -6   5   4  687.63   24.20
   5  -5  -4  764.42   94.79
   5  -5  -4  674.83   21.90
   5  -5  -4  626.44   31.40
   5  -5  -4  696.03   53.69
   5  -5  -4  681.93   27.80
   5  -5  -4  699.93   26.10
  -5   5   4  671.93   23.50
  -5   5   4  654.03   23.70
   4  -5  -4  467.55   53.69
   4  -5  -4  505.75   77.09
   4  -5  -4  448.16   19.90
   4  -5  -4  408.16   24.40
   4  -5  -4  421.76   19.90
   4  -5  -4  399.76   19.10
  -4   5   4  424.56   18.90
   3  -5  -4    0.40    4.20
   3  -5  -4   -4.20    8.30
   3  -5  -4    3.20    5.70
   3  -5  -4    7.50    4.10
   3  -5  -4    3.40    4.10
   3  -5  -4    5.90    9.00
  -3   5   4    0.10    3.50
  -3   5   4    6.30    4.20
  -3   5   4   -0.70    3.70
   2  -5  -4  308.37   21.20
   2  -5  -4  336.47   11.00
   2  -5  -4  388.66   21.40
   2  -5  -4  318.97   15.40
   2  -5  -4  352.96   17.60
   2  -5  -4  408.66   53.49
  -2   5   4  374.16   18.60
  -2   5   4  381.46   17.90
   1  -5  -4  784.82   62.19
   1  -5  -4  730.73   40.40
   1  -5  -4  803.82   88.69
   1  -5  -4  855.01   30.30
   1  -5  -4  821.52   27.50
   1  -5  -4  794.32   31.00
  -1   5   4  818.52   28.60
  -1   5   4  821.82   27.40
   0  -5  -4   44.80    8.90
   0  -5  -4   38.60    9.00
   0  -5  -4   49.40   24.30
   0  -5  -4   66.39   27.70
   0  -5  -4   45.20   10.10
   0  -5  -4   42.30   15.80
   0   5   4   35.10    6.70
   0   5   4   50.09    9.80
   0   5   4   47.10    9.10
   0   5   4   42.40    7.60
  -1  -5  -4  115.29   14.70
  -1  -5  -4  159.18   39.20
  -1  -5  -4  209.78   48.80
  -1  -5  -4   73.79   22.00
  -1  -5  -4  112.29   14.30
   1   5   4  127.19   14.90
   1   5   4  109.09   11.70
   1   5   4  102.39   11.30
   1   5   4  108.29   14.10
  -2  -5  -4   18.60   15.80
  -2  -5  -4   11.00    8.50
  -2  -5  -4   20.30   20.70
  -2  -5  -4   11.90    6.10
  -2  -5  -4   10.00    8.50
  -2  -5  -4   -0.60   11.20
   2   5   4    3.50    6.40
   2   5   4   15.60    6.30
   2   5   4   19.90    7.20
   2   5   4   16.20    7.90
  -3  -5  -4  205.58   43.50
  -3  -5  -4  100.69   12.30
  -3  -5  -4   98.99   42.10
  -3  -5  -4  145.19   19.50
  -3  -5  -4  120.79   17.90
  -3  -5  -4   49.90   26.00
   3   5   4   99.39   14.70
   3   5   4  107.39   13.70
   3   5   4  126.19   18.20
   3   5   4   97.29   13.00
  -4  -5  -4  144.79   16.40
  -4  -5  -4  159.88   22.40
  -4  -5  -4   45.30   32.90
  -4  -5  -4  140.89   43.40
   4   5   4  118.99   17.10
   4   5   4  143.59   17.50
   4   5   4  134.49   15.90
   4   5   4  140.89   19.90
  -5  -5  -4   31.00   11.80
  -5  -5  -4    0.40   18.00
  -5  -5  -4    5.60   12.80
  -5  -5  -4   -7.80   22.50
  -5  -5  -4    9.80   12.80
   5   5   4    7.90    9.00
   5   5   4   16.60   10.60
   5   5   4   15.50   11.80
   5   5   4    9.90    9.20
  -6  -5  -4   24.10   17.20
  -6  -5  -4   19.40   13.70
  -6  -5  -4   15.20   15.40
   6   5   4   23.10   14.10
   6   5   4   23.60   11.00
  -7  -5  -4   10.80   16.00
  -7  -5  -4    3.70   17.50
   7   5   4   -5.00    9.80
   7   5   4  -11.10   11.90
  -8  -5  -4   20.00   23.80
  -8  -5  -4   23.60   22.20
   8   5   4    8.80   16.30
  10  -6  -4  399.36   39.50
  10  -6  -4  466.95   37.90
  10  -6  -4  473.05   31.40
 -10   6   4  488.35   35.90
   9  -6  -4  606.44   32.80
   9  -6  -4  613.24   39.30
   9  -6  -4  628.24   39.40
  -9   6   4  608.54   46.40
   8  -6  -4  427.46   25.70
   8  -6  -4  390.36   30.00
   8  -6  -4  369.26   31.10
   8  -6  -4  478.65   83.79
  -8   6   4  413.36   26.80
   7  -6  -4   75.69   13.20
   7  -6  -4  104.39   17.70
   7  -6  -4   97.39   19.10
   7  -6  -4   68.29   36.00
  -7   6   4   83.09   12.10
  -7   6   4   72.59   13.30
   6  -6  -4  579.94   28.90
   6  -6  -4  619.14   53.99
   6  -6  -4  637.74   28.00
   6  -6  -4  556.74   32.70
   6  -6  -4  568.24   23.00
   6  -6  -4  562.04   84.69
  -6   6   4  640.94   25.40
  -6   6   4  669.63   26.40
   5  -6  -4 1426.96   40.20
   5  -6  -4 1464.75   78.29
   5  -6  -4 1352.56   48.90
   5  -6  -4 1424.66   33.00
   5  -6  -4 1437.16   40.80
   5  -6  -4 1363.16  107.69
  -5   6   4 1479.95   39.60
  -5   6   4 1467.65   52.39
   4  -6  -4 1967.00   43.00
   4  -6  -4 1978.70   87.59
   4  -6  -4 2040.60  126.69
   4  -6  -4 2040.90   47.80
   4  -6  -4 1917.41   39.00
   4  -6  -4 1888.71   55.99
  -4   6   4 1985.90   44.10
  -4   6   4 1958.10   46.40
   3  -6  -4  951.90   37.40
   3  -6  -4  960.80   31.00
   3  -6  -4  979.60   22.80
   3  -6  -4  956.90   84.49
   3  -6  -4 1017.70   63.89
  -3   6   4  923.31   29.00
  -3   6   4  999.00   32.10
  -3   6   4  949.60   28.40
   2  -6  -4   87.69   14.90
   2  -6  -4  103.79   11.80
   2  -6  -4   38.30   24.50
   2  -6  -4   94.59   28.40
   2  -6  -4   95.99   15.10
  -2   6   4   86.39   12.60
  -2   6   4   92.89   12.10
  -2   6   4   77.69   10.20
   1  -6  -4  946.21   72.29
   1  -6  -4  898.61   33.60
   1  -6  -4  923.21   47.30
   1  -6  -4  915.41   29.70
   1  -6  -4  880.01   79.79
   1  -6  -4  896.71   46.30
  -1   6   4  914.21   32.30
  -1   6   4  920.81   31.60
  -1   6   4  893.41   25.40
  -1   6   4  926.81   27.90
   0  -6  -4 2141.99  119.59
   0  -6  -4 1947.61   80.19
   0  -6  -4 1916.91  137.09
   0  -6  -4 1949.01   48.30
   0  -6  -4 2022.50   50.79
   0  -6  -4 2002.10   48.40
   0   6   4 1990.60   43.60
   0   6   4 1941.51   50.19
   0   6   4 2006.90   42.70
   0   6   4 2031.70   50.39
  -1  -6  -4  244.18   41.90
  -1  -6  -4  285.57   54.19
  -1  -6  -4  171.68   45.10
  -1  -6  -4  232.68   20.70
  -1  -6  -4  231.68   22.30
   1   6   4  200.68   24.60
   1   6   4  188.58   18.40
   1   6   4  207.98   20.30
   1   6   4  227.08   15.40
  -2  -6  -4   47.50   31.00
  -2  -6  -4   66.09   24.00
  -2  -6  -4   29.50   21.30
  -2  -6  -4   19.70   10.70
  -2  -6  -4   45.00   12.40
   2   6   4   35.20    8.60
   2   6   4   37.30   11.10
   2   6   4   32.80    9.30
  -3  -6  -4   73.59   39.40
  -3  -6  -4   71.89   16.30
  -3  -6  -4   96.79   17.30
  -3  -6  -4  112.29   34.90
   3   6   4   90.69   22.90
   3   6   4  136.09   16.40
   3   6   4   69.59   15.30
   3   6   4   87.79   14.00
  -4  -6  -4  224.48   52.69
  -4  -6  -4  151.98   57.59
  -4  -6  -4  233.18   27.20
  -4  -6  -4  266.77   28.10
   4   6   4  263.47   21.30
   4   6   4  236.98   23.50
   4   6   4  276.57   28.60
   4   6   4  249.97   20.20
  -5  -6  -4  133.79   24.30
  -5  -6  -4  165.68   49.70
  -5  -6  -4  173.88   26.40
   5   6   4  151.58   21.20
   5   6   4  149.19   19.80
   5   6   4  151.58   19.90
   5   6   4  147.89   22.90
  -6  -6  -4   25.20   18.20
  -6  -6  -4   51.69   20.90
   6   6   4   30.20   16.10
   6   6   4   46.00   15.50
  -7  -6  -4   12.60   17.60
   7   6   4   18.90   13.90
   7   6   4    1.50   14.30
  10  -7  -4  -10.30   13.60
  10  -7  -4   11.00   11.20
  10  -7  -4   -0.50   14.40
   9  -7  -4   17.20   20.40
   9  -7  -4   42.90   17.70
   8  -7  -4  187.98   21.70
   8  -7  -4  278.57   30.10
   8  -7  -4  253.07   31.50
   7  -7  -4   50.79   33.70
   7  -7  -4  103.29   21.30
   7  -7  -4  104.69   24.00
  -7   7   4  125.09   15.80
   6  -7  -4   13.40    8.00
   6  -7  -4   -4.80    8.20
   6  -7  -4    7.90    7.80
   6  -7  -4   45.60   31.00
  -6   7   4   17.50    8.50
   5  -7  -4  455.95   30.50
   5  -7  -4  429.36   21.40
   5  -7  -4  423.36   23.30
   5  -7  -4  583.54   96.39
  -5   7   4  399.16   22.20
  -5   7   4  378.06   21.70
   4  -7  -4  878.21   32.00
   4  -7  -4  862.11   24.80
   4  -7  -4  860.51   44.10
   4  -7  -4 1121.59  130.99
  -4   7   4  877.51   32.40
  -4   7   4  843.52   30.70
   3  -7  -4 1004.90   33.60
   3  -7  -4 1008.00   29.40
   3  -7  -4 1011.10   65.89
   3  -7  -4 1016.90   41.30
   3  -7  -4  950.70   90.09
  -3   7   4  997.00   31.90
  -3   7   4  989.80   31.70
  -3   7   4 1013.50   35.10
   2  -7  -4   22.80   16.20
   2  -7  -4    6.60    8.00
   2  -7  -4   10.50   16.90
   2  -7  -4   11.60    6.10
   2  -7  -4   10.30    6.20
  -2   7   4    8.90    6.20
  -2   7   4    6.50    6.90
  -2   7   4   10.10    6.70
   1  -7  -4  127.39   17.50
   1  -7  -4   83.59   12.60
   1  -7  -4   88.19   33.90
   1  -7  -4  117.19   14.90
  -1   7   4  112.39   15.60
  -1   7   4  138.99   15.20
  -1   7   4  117.39   14.60
  -1   7   4  106.49   11.90
   0  -7  -4   85.29   32.80
   0  -7  -4  113.49   15.10
   0  -7  -4   84.39   34.70
   0  -7  -4   64.19   20.20
   0  -7  -4   96.39   14.40
   0   7   4   59.69   11.80
   0   7   4  110.79   15.00
   0   7   4  116.49   15.50
   0   7   4  101.89   13.30
  -1  -7  -4  889.41  107.09
  -1  -7  -4  904.41   36.60
  -1  -7  -4  861.01   34.80
  -1  -7  -4  867.01   63.69
  -1  -7  -4  752.72   90.29
   1   7   4  872.41   31.40
   1   7   4  856.91   31.00
   1   7   4  826.02   35.50
   1   7   4  810.22   36.00
  -2  -7  -4  485.85   28.20
  -2  -7  -4  455.45   60.99
  -2  -7  -4  515.15   39.20
  -2  -7  -4  364.56   70.59
   2   7   4  512.15   28.50
   2   7   4  441.66   24.20
   2   7   4  484.75   29.30
  -3  -7  -4   -9.10   17.80
  -3  -7  -4   21.40   12.00
  -3  -7  -4   34.00   13.30
  -3  -7  -4    4.60   18.10
   3   7   4    6.70    8.90
   3   7   4    7.60    8.50
   3   7   4   10.80    9.40
   3   7   4   -4.10    8.70
  -4  -7  -4  122.59   23.30
  -4  -7  -4  154.08   23.30
  -4  -7  -4   98.39   39.90
   4   7   4  111.49   18.60
   4   7   4  116.39   17.70
   4   7   4  127.19   17.90
   4   7   4   83.39   17.70
  -5  -7  -4   97.49   21.60
  -5  -7  -4   80.29   21.40
   5   7   4  107.09   19.20
   5   7   4   91.19   17.80
   5   7   4   97.69   17.80
   5   7   4   95.29   20.50
  -6  -7  -4  258.67   35.10
   6   7   4  279.27   29.80
   6   7   4  222.08   30.80
  10  -8  -4   24.30   14.00
  10  -8  -4   34.70   19.70
  10  -8  -4   21.90   17.60
   9  -8  -4   50.89   18.60
   9  -8  -4   37.80   13.90
   9  -8  -4   32.70   17.70
   8  -8  -4   21.20   13.90
   8  -8  -4   37.20   13.50
   8  -8  -4   11.60   13.70
  -8   8   4    9.20   13.80
   7  -8  -4    1.10    9.50
   7  -8  -4   12.40   12.70
   7  -8  -4   -0.90    8.40
  -7   8   4    4.30    8.10
   6  -8  -4   53.19   12.80
   6  -8  -4   50.39   11.50
  -6   8   4   36.90   11.80
  -6   8   4   43.90   10.70
   5  -8  -4   25.30   27.10
   5  -8  -4   14.80    7.40
   5  -8  -4   35.20   13.90
   5  -8  -4   33.80   10.90
  -5   8   4   31.80    9.10
  -5   8   4   28.20    9.90
   4  -8  -4   18.00   25.90
   4  -8  -4   26.70    9.50
   4  -8  -4   16.70   10.50
  -4   8   4   21.80    8.30
  -4   8   4   23.40    9.20
   3  -8  -4   90.79   17.60
   3  -8  -4  130.29   47.40
  -3   8   4   74.19   12.60
  -3   8   4   68.09   11.50
  -3   8   4   86.09   13.70
   2  -8  -4  147.59   47.70
   2  -8  -4  200.58   24.10
   2  -8  -4  176.38   18.20
  -2   8   4  164.58   18.00
  -2   8   4  192.28   19.20
  -2   8   4  165.28   18.00
   1  -8  -4  137.49   43.80
   1  -8  -4  176.18   49.30
   1  -8  -4  138.99   19.30
   1  -8  -4  206.78   19.90
  -1   8   4  164.58   18.80
  -1   8   4  192.58   19.30
  -1   8   4  151.88   16.00
  -1   8   4  147.29   17.80
   0  -8  -4    6.00    8.30
   0  -8  -4    0.30    7.20
   0  -8  -4   -2.40    8.30
   0  -8  -4   -2.70   16.40
   0  -8  -4   10.70   18.90
   0   8   4   23.50   10.30
   0   8   4   10.30    8.60
   0   8   4    7.40    7.50
   0   8   4   -0.70    7.10
  -1  -8  -4   70.89   21.30
  -1  -8  -4   87.29   42.50
  -1  -8  -4   75.09   15.70
   1   8   4   75.69   15.60
   1   8   4   63.39   12.60
   1   8   4   88.09   16.30
  -2  -8  -4  166.28   40.50
  -2  -8  -4   53.09   33.10
  -2  -8  -4  161.18   20.60
  -2  -8  -4  184.48   23.40
   2   8   4  202.88   22.60
   2   8   4  163.68   30.30
   2   8   4  151.58   19.20
   2   8   4  191.78   20.60
  -3  -8  -4   42.00   14.90
  -3  -8  -4   12.10   13.10
  -3  -8  -4   26.00   33.10
  -3  -8  -4   18.10   26.30
   3   8   4   26.10   11.90
   3   8   4   42.60   14.50
   3   8   4   26.70   14.40
   3   8   4   47.30   17.10
  -4  -8  -4   -8.30   21.00
  -4  -8  -4   19.50   15.80
   4   8   4   -9.50    9.40
   4   8   4   -4.30   11.80
   4   8   4    5.60   10.10
   4   8   4    9.40   11.70
  -5  -8  -4    6.30   16.80
   5   8   4   40.60   15.00
   5   8   4   48.70   15.80
   5   8   4   25.70   16.40
  -6  -8  -4   12.50   20.20
   6   8   4   45.10   16.50
   6   8   4   64.59   25.90
   6   8   4   27.20   28.00
   9  -9  -4   87.89   19.80
   9  -9  -4   43.20   19.70
   9  -9  -4   84.39   20.80
   8  -9  -4  513.85   49.30
   8  -9  -4  450.25   30.70
   8  -9  -4  410.46   29.60
  -8   9   4  448.76   32.40
  -8   9   4  474.65   29.80
   7  -9  -4   91.59   21.90
   7  -9  -4  122.69   19.00
   7  -9  -4   82.29   15.70
  -7   9   4   73.69   15.00
  -7   9   4   88.39   17.60
   6  -9  -4   51.19   17.00
   6  -9  -4   49.40   10.70
   6  -9  -4   54.29   14.10
  -6   9   4  109.89   18.00
  -6   9   4   79.99   15.40
   5  -9  -4    6.80    8.70
   5  -9  -4    9.30   11.70
  -5   9   4   29.50   11.40
   4  -9  -4  131.39   22.40
   4  -9  -4  204.18   21.20
   4  -9  -4  168.68   65.89
  -4   9   4  115.99   16.80
  -4   9   4  198.08   23.00
   3  -9  -4   77.59   17.90
   3  -9  -4  115.89   16.80
   3  -9  -4   97.09   44.40
  -3   9   4   97.89   16.00
  -3   9   4   85.59   14.30
  -3   9   4  120.49   20.20
   2  -9  -4  311.27   21.50
   2  -9  -4  312.07   26.50
   2  -9  -4  210.28   65.19
  -2   9   4  263.97   22.10
  -2   9   4  265.67   21.20
  -2   9   4  308.77   22.30
   1  -9  -4  101.99   43.70
   1  -9  -4   27.60   10.70
   1  -9  -4   57.49   14.80
  -1   9   4   35.10   12.00
  -1   9   4   22.50   10.60
  -1   9   4   59.39   13.30
   0  -9  -4   19.60   25.00
   0  -9  -4    7.30    8.80
   0   9   4   -2.10    9.00
   0   9   4   -4.10    7.90
   0   9   4   -2.40    7.00
   0   9   4   -5.40    9.80
  -1  -9  -4    1.00    9.30
   1   9   4   16.20   10.60
   1   9   4    9.50    9.30
   1   9   4   -7.10    8.70
   1   9   4    0.40    8.90
  -2  -9  -4    6.00   11.00
  -2  -9  -4    3.20   12.60
   2   9   4    5.90   16.50
   2   9   4   11.50   10.60
   2   9   4    4.40   10.90
   2   9   4   -1.50    9.40
  -3  -9  -4   15.10   15.40
   3   9   4    3.60   12.30
   3   9   4   23.20   12.70
   3   9   4    1.70   11.90
   3   9   4   11.70   11.10
  -4  -9  -4    5.50   17.10
   4   9   4    1.10   14.50
   4   9   4    5.10   12.40
   4   9   4   -1.80   11.10
  -5  -9  -4   21.90   19.50
   5   9   4   34.30   15.90
   5   9   4   30.60   20.40
   8 -10  -4   76.19   17.70
   8 -10  -4  108.79   18.60
   8 -10  -4  102.39   24.80
  -8  10   4   60.49   16.00
  -8  10   4  100.39   20.80
   7 -10  -4  388.56   22.80
   7 -10  -4  428.06   43.60
   7 -10  -4  444.66   29.70
  -7  10   4  389.66   29.60
  -7  10   4  370.56   30.60
   6 -10  -4  493.85   42.70
   6 -10  -4  441.96   29.00
  -6  10   4  466.45   30.30
  -6  10   4  469.45   31.80
   5 -10  -4  164.08   21.10
   5 -10  -4  176.88   28.70
  -5  10   4  200.48   23.90
  -5  10   4  221.68   25.20
   4 -10  -4    9.60   10.40
   4 -10  -4   35.40   16.20
  -4  10   4   35.20   12.40
  -4  10   4   40.50   12.90
   3 -10  -4  599.34   31.10
   3 -10  -4  573.34   37.40
  -3  10   4  572.94   29.30
  -3  10   4  664.03   33.50
  -3  10   4  557.64   32.40
   2 -10  -4  721.73   33.50
   2 -10  -4  823.72   42.70
  -2  10   4  783.12   36.80
  -2  10   4  821.42   36.50
  -2  10   4  780.52   37.50
   1 -10  -4  761.62   34.00
   1 -10  -4  728.63   39.10
   1 -10  -4  735.03  110.29
  -1  10   4  696.13   39.10
  -1  10   4  739.93   36.30
  -1  10   4  686.43   36.10
   0 -10  -4   10.90   10.70
   0  10   4   14.50    9.70
   0  10   4   19.90   12.00
   1  10   4    0.40    9.20
   1  10   4    9.80   10.50
   1  10   4   21.10   13.50
   2  10   4  104.99   22.70
   2  10   4   96.59   18.10
   2  10   4   83.39   17.60
   3  10   4  195.08   28.10
   3  10   4  177.68   23.70
   3  10   4  182.98   24.30
   7 -11  -4   70.09   23.30
   7 -11  -4   61.99   17.10
  -7  11   4   51.49   15.60
   6 -11  -4  272.57   28.30
   6 -11  -4  281.87   36.80
  -6  11   4  281.47   29.90
   5 -11  -4  324.57   38.60
   5 -11  -4  315.07   28.90
  -5  11   4  307.47   29.80
   4 -11  -4   39.30   13.60
   4 -11  -4   26.20   17.00
  -4  11   4   14.10   10.70
   3 -11  -4  124.89   19.20
   3 -11  -4  139.59   25.60
  -3  11   4   81.59   16.10
  -3  11   4  107.69   27.00
   2 -11  -4  204.48   23.50
   2 -11  -4  241.48   30.80
  -2  11   4  190.08   36.30
  -2  11   4  210.68   24.60
  -1  11   4  469.55   31.30
  -1  11   4  384.76   30.30
   0  11   4  191.68   24.70
   0  11   4  184.88   23.90
   1  11   4    1.30   12.60
   1  11   4    0.20    9.90
   2  11   4  275.27   31.50
   2  11   4  311.37   30.50
   2  11   4  291.77   37.10
   5 -12  -4   31.30   14.70
   5 -12  -4   17.70   17.10
  -5  12   4   18.10   13.60
   4 -12  -4   25.30   17.70
   4 -12  -4    3.30   11.40
  -4  12   4   -6.10    9.20
   3 -12  -4    3.40   14.30
  -3  12   4   15.00   11.60
   2 -12  -4   24.40   18.40
  -2  12   4   40.00   15.50
  -1  12   4   58.69   17.30
  -1  12   4   80.29   19.20
   0  12   4    7.70   13.90
   0  12   4   33.70   14.40
   1  12  -5  116.69   25.70
   1  12  -5  100.39   22.10
   1  12  -5  136.49   21.50
  -1 -12   5  113.79   25.40
  -1 -12   5  133.29   26.80
   0  12  -5   13.90   11.90
   0  12  -5   45.70   17.40
   0  12  -5    0.60   14.70
   0 -12   5   15.50   17.60
   0 -12   5   28.30   18.30
  -1  12  -5  123.29   26.00
  -1  12  -5  185.48   26.60
  -1  12  -5  135.39   21.60
   1 -12   5   82.09   22.00
   1 -12   5  117.79   24.20
  -2  12  -5  267.17   35.60
  -2  12  -5  310.97   34.60
   2 -12   5  330.97   38.00
   2 -12   5  195.38   29.60
  -3  12  -5  111.89   22.70
  -3  12  -5  101.19   26.10
   3 -12   5   85.89   22.90
   3 -12   5   88.89   23.20
   3  11  -5   96.49   23.70
   3  11  -5  122.69   25.00
  -3 -11   5  132.09   25.60
   2  11  -5  161.98   26.50
   2  11  -5  175.98   28.70
   1  11  -5  139.29   23.60
   1  11  -5  136.99   20.40
   1  11  -5  150.38   26.40
  -1 -11   5  181.08   27.20
  -1 -11   5  133.39   24.80
   0  11  -5   11.80   17.60
   0  11  -5   21.20   11.60
   0  11  -5   22.60   16.70
   0 -11   5   25.10   15.70
   0 -11   5    7.80   13.90
  -1  11  -5   90.49   22.00
  -1  11  -5   75.09   15.90
  -1  11  -5   64.79   25.20
   1 -11   5   64.89   19.90
   1 -11   5   96.89   21.00
  -2  11  -5  397.86   60.69
  -2  11  -5  309.37   34.90
  -2  11  -5  258.57   29.10
   2 -11   5  301.87   33.60
   2 -11   5  276.97   32.90
  -3  11  -5  258.97   32.40
  -3  11  -5  233.48   29.10
   3 -11   5  281.37   34.40
   3 -11   5  290.87   43.20
  -4  11  -5  231.28   28.30
  -4  11  -5  209.28   30.60
   4 -11   5  235.98   32.60
   4 -11   5  282.67   35.00
  -5  11  -5   19.70   16.80
  -5  11  -5   41.40   15.80
   5 -11   5    7.40   16.10
   5 -11   5    4.60   16.80
   5  10  -5   11.70   15.60
   5  10  -5   -1.60   13.90
   5  10  -5    6.20   14.70
  -5 -10   5  -13.00   13.30
   4  10  -5   60.49   19.50
   4  10  -5   48.40   17.50
  -4 -10   5   18.70   15.90
   3  10  -5    3.40   15.00
   3  10  -5    4.00   13.80
  -3 -10   5   24.70   15.20
   2  10  -5   -8.60   10.50
   2  10  -5   -4.90   10.20
  -2 -10   5    6.20   17.20
  -2 -10   5   -6.60   12.00
   1  10  -5   17.40   11.40
   1  10  -5   26.40   16.50
   1  10  -5   43.90   16.60
  -1 -10   5   35.30   15.40
  -1 -10   5   26.80   14.50
   0  10  -5    8.00   11.50
   0  10  -5    0.50    8.20
   0  10  -5    5.50   11.10
   0 -10   5   -6.60   10.30
   0 -10   5   -9.40    9.90
  -1  10  -5   17.90   11.70
  -1  10  -5   17.90   13.00
  -1  10  -5   25.60   10.90
   1 -10   5   48.00   15.80
   1 -10   5   -0.90   21.10
   1 -10   5   27.70   14.50
  -2  10  -5   40.70   15.90
  -2  10  -5   24.70   12.70
  -2  10  -5   35.30   12.70
   2 -10   5   35.60   16.00
   2 -10   5   28.60   14.40
  -3  10  -5   76.69   16.50
  -3  10  -5   84.19   20.00
   3 -10   5   65.49   17.60
   3 -10   5   46.50   18.00
  -4  10  -5  213.48   25.10
  -4  10  -5  251.47   48.50
   4 -10   5  230.98   30.70
   4 -10   5  189.88   17.00
  -5  10  -5   55.89   20.20
   5 -10   5   48.40   15.40
   5 -10   5   66.59   20.40
  -6  10  -5    8.80   14.80
  -6  10  -5    2.20   11.30
   6 -10   5    2.70   13.70
   6 -10   5   -7.50   14.30
   6   9  -5  196.48   28.60
   6   9  -5  170.58   27.60
   6   9  -5  129.39   24.10
  -6  -9   5  147.99   27.70
   5   9  -5  250.07   32.20
   5   9  -5  200.68   26.90
   5   9  -5  241.78   30.50
  -5  -9   5  219.58   31.20
   4   9  -5  197.98   26.50
   4   9  -5  176.48   25.30
   4   9  -5  187.08   31.90
  -4  -9   5  161.88   53.39
  -4  -9   5  250.77   30.10
   3   9  -5    9.80   11.10
   3   9  -5   35.10   14.00
  -3  -9   5   -4.90   19.70
  -3  -9   5   14.20   12.40
   2   9  -5   49.70   14.40
   2   9  -5   49.00   14.80
   2   9  -5   43.20   11.00
  -2  -9   5   46.60   16.00
  -2  -9   5   54.29   16.20
   1   9  -5  215.48   32.60
   1   9  -5  175.58   18.70
   1   9  -5  236.18   29.60
  -1  -9   5  208.58   24.90
  -1  -9   5  194.18   24.20
   0   9  -5   24.40   16.80
   0   9  -5   52.29   12.20
   0   9  -5   27.70   12.40
   0  -9   5   31.30   12.60
   0  -9   5   99.99   38.30
   0  -9   5   36.50   13.60
  -1   9  -5  397.46   42.80
  -1   9  -5  336.97   23.50
  -1   9  -5  347.97   25.10
   1  -9   5  391.76   30.30
   1  -9   5  354.66   70.19
   1  -9   5  313.77   29.70
  -2   9  -5    8.20    9.70
  -2   9  -5   27.40   13.70
  -2   9  -5    8.30    8.90
   2  -9   5    9.90   11.80
   2  -9   5   29.50   25.70
   2  -9   5    9.70   10.70
  -3   9  -5   71.39   16.10
  -3   9  -5   50.69   15.30
   3  -9   5   68.69   11.30
   3  -9   5   52.49   15.50
   3  -9   5   67.99   24.00
  -4   9  -5   41.60   12.50
  -4   9  -5   64.99   18.40
   4  -9   5   53.89   12.80
   4  -9   5   71.99   19.40
  -5   9  -5   22.10   15.20
  -5   9  -5   32.60   12.20
   5  -9   5   17.60   14.30
   5  -9   5   26.00   13.80
  -6   9  -5    5.20   13.50
   6  -9   5   10.00   17.10
   6  -9   5  -10.50   13.10
  -7   9  -5   70.49   21.30
   7  -9   5   74.09   16.90
   7  -9   5   36.40   18.60
   7  -9   5   51.89   20.30
   7   8  -5   31.90   16.40
   7   8  -5   25.70   15.60
   7   8  -5   -3.10   14.60
  -7  -8   5   36.10   19.20
   6   8  -5   40.90   15.60
   6   8  -5   46.50   17.20
   6   8  -5   51.49   16.60
  -6  -8   5   68.99   21.40
   5   8  -5  417.76   33.20
   5   8  -5  525.35   35.00
   5   8  -5  464.25   32.40
  -5  -8   5  408.16   37.60
  -5  -8   5  437.26   75.39
   4   8  -5  541.45   33.60
   4   8  -5  486.95   31.70
   4   8  -5  534.35   34.30
  -4  -8   5  630.94   40.10
  -4  -8   5  549.65   79.49
   3   8  -5  329.17   26.20
   3   8  -5  367.26   28.80
   3   8  -5  382.46   27.10
  -3  -8   5  337.37   25.40
  -3  -8   5  381.16   29.20
  -3  -8   5  428.76   67.59
   2   8  -5   16.60   11.80
   2   8  -5   24.70    8.20
   2   8  -5   34.60   11.10
  -2  -8   5   15.20   10.80
  -2  -8   5   72.89   28.30
   1   8  -5  475.65   24.10
   1   8  -5  445.36   29.70
   1   8  -5  514.95   28.70
  -1  -8   5  388.36   61.49
  -1  -8   5  526.85   31.50
  -1  -8   5  505.45   29.70
  -1  -8   5  534.25   64.59
   0   8  -5 2163.68   53.79
   0   8  -5 1979.10   54.79
   0   8  -5 1981.30   59.09
   0  -8   5 2039.00   60.19
   0  -8   5 2092.59   59.99
  -1   8  -5  557.14   27.60
  -1   8  -5  507.65   27.00
  -1   8  -5  498.45   29.80
   1  -8   5  474.55   30.60
   1  -8   5  603.44   32.70
   1  -8   5  496.25   76.79
  -2   8  -5   39.80   10.70
  -2   8  -5   39.20   12.20
   2  -8   5   53.99    9.30
   2  -8   5   18.40   23.80
   2  -8   5   38.80   12.80
   2  -8   5   39.30   13.50
  -3   8  -5   87.89   17.60
  -3   8  -5  109.39   15.60
   3  -8   5  129.59   15.70
   3  -8   5  121.89   47.30
   3  -8   5   79.29   16.60
  -4   8  -5  250.17   23.40
   4  -8   5  281.57   36.90
  -5   8  -5  254.97   28.70
   5  -8   5  311.67   28.70
   5  -8   5  249.48   19.60
   5  -8   5  327.87   33.60
  -6   8  -5  140.49   23.50
   6  -8   5  154.48   19.50
   6  -8   5  188.28   26.60
   6  -8   5  177.68   24.30
  -7   8  -5   -8.50   12.10
  -7   8  -5    2.90   14.00
   7  -8   5   16.10   14.90
   7  -8   5   17.00   16.40
   7  -8   5    7.60   10.70
  -8   8  -5   -9.30   14.10
   8  -8   5   11.00   13.00
   8  -8   5    2.10   16.30
   8  -8   5   -5.90   16.40
   8   7  -5   34.20   18.00
   8   7  -5   50.49   20.40
   8   7  -5   14.60   14.70
  -8  -7   5   26.60   21.20
  -8  -7   5   33.60   19.30
   7   7  -5   50.29   20.90
   7   7  -5   64.79   19.20
   7   7  -5   64.59   20.00
  -7  -7   5   77.39   23.10
   6   7  -5   34.90   14.50
   6   7  -5    9.80   13.00
   6   7  -5   25.30   13.00
  -6  -7   5   41.80   16.60
  -6  -7   5  107.59   68.79
  -6  -7   5   71.59   44.20
  -6  -7   5   44.60   17.50
   5   7  -5  173.18   23.40
   5   7  -5  196.58   24.30
   5   7  -5  151.68   21.70
  -5  -7   5  158.58   47.10
  -5  -7   5  154.98   22.60
  -5  -7   5   74.99   39.70
   4   7  -5  400.36   27.20
   4   7  -5  349.17   26.70
   4   7  -5  386.06   26.50
  -4  -7   5  554.54  123.89
  -4  -7   5  420.06   29.30
  -4  -7   5  337.77   25.30
  -4  -7   5  401.06   64.99
   3   7  -5  658.03   32.50
   3   7  -5  718.73   32.00
   3   7  -5  834.82   37.70
  -3  -7   5  726.13   35.90
  -3  -7   5  794.22   85.19
  -3  -7   5  705.33   32.40
   2   7  -5   22.20    8.80
   2   7  -5   40.10   12.20
   2   7  -5   24.90    8.60
   2   7  -5   25.30    7.30
  -2  -7   5   23.90   10.60
  -2  -7   5   37.90   20.80
   1   7  -5   38.60   11.60
   1   7  -5   45.90   14.20
   1   7  -5   50.79    9.70
  -1  -7   5   33.30   19.40
  -1  -7   5   23.60    9.70
  -1  -7   5   29.70   10.40
  -1  -7   5   74.79   23.80
   0   7  -5  352.16   23.60
   0   7  -5  351.46   20.00
   0   7  -5  329.97   20.40
   0  -7   5  298.57   23.00
   0  -7   5  258.97   50.59
   0  -7   5  302.27   42.90
   0  -7   5  351.66   24.10
  -1   7  -5 1178.38   37.30
  -1   7  -5 1139.39   41.00
  -1   7  -5 1115.89   36.80
   1  -7   5 1173.98   42.60
   1  -7   5 1229.18   93.49
   1  -7   5 1108.99   42.80
   1  -7   5 1187.58   28.90
   1  -7   5 1199.08   65.49
  -2   7  -5  561.64   38.10
   2  -7   5  561.14   23.60
   2  -7   5  491.25   74.39
   2  -7   5  623.24   32.40
  -3   7  -5   23.60   11.00
   3  -7   5   29.20   11.60
   3  -7   5   20.90   21.80
   3  -7   5   35.20   10.20
  -4   7  -5  256.97   26.20
   4  -7   5  210.08   21.90
   4  -7   5  230.88   16.80
   4  -7   5  155.38   56.79
   4  -7   5  256.27   26.60
  -5   7  -5  601.34   36.40
   5  -7   5  679.73   28.80
   5  -7   5  592.54   35.30
  -6   7  -5  827.92   43.10
   6  -7   5  789.02   41.50
   6  -7   5  836.82   39.10
   6  -7   5  888.91   44.20
  -7   7  -5  175.88   31.00
   7  -7   5  131.59   18.90
   7  -7   5  149.88   23.80
   7  -7   5  164.58   24.60
  -8   7  -5   14.00   16.60
   8  -7   5   13.10   16.50
   8  -7   5   -3.00   10.50
   9   6  -5   31.60   16.30
   9   6  -5   21.60   18.80
   9   6  -5    2.30   15.40
  -9  -6   5   47.50   23.60
  -9  -6   5   40.70   21.20
   8   6  -5   34.00   17.10
   8   6  -5   17.40   14.80
   8   6  -5  -13.20   10.30
  -8  -6   5    8.60   15.10
   7   6  -5    7.40   11.70
   7   6  -5   25.30   15.40
   7   6  -5   22.40   12.80
  -7  -6   5   19.50   15.40
  -7  -6   5   21.20   14.30
   6   6  -5   39.40   14.80
   6   6  -5   -6.80    9.90
   6   6  -5   -2.20   10.40
  -6  -6   5   14.00   29.10
  -6  -6   5   17.80   13.50
  -6  -6   5   22.20   13.60
  -6  -6   5    1.30   24.20
   5   6  -5   23.00   11.60
   5   6  -5   27.00   12.10
   5   6  -5   22.60   11.00
  -5  -6   5   31.60   17.00
  -5  -6   5   20.20   11.90
  -5  -6   5   24.90   22.50
  -5  -6   5   20.50   25.30
   4   6  -5   78.69   15.20
   4   6  -5   73.89   14.00
   4   6  -5  107.79   16.10
  -4  -6   5  123.99   38.70
  -4  -6   5   86.29   22.90
  -4  -6   5   95.69   16.50
  -4  -6   5   89.89   15.40
  -4  -6   5   83.99   34.20
   3   6  -5   70.79    9.30
   3   6  -5   79.89   13.00
   3   6  -5   84.59   14.80
   3   6  -5   53.19   11.10
  -3  -6   5   72.99   24.90
  -3  -6   5   31.90   25.60
  -3  -6   5   94.59   17.10
  -3  -6   5   70.39   14.10
  -3  -6   5   77.19   12.80
   2   6  -5  279.17   20.50
   2   6  -5  269.57   18.40
   2   6  -5  235.08   14.40
   2   6  -5  245.88   16.70
  -2  -6   5  233.28   19.00
  -2  -6   5  248.88   20.50
  -2  -6   5  264.47   17.00
  -2  -6   5  274.07   42.90
  -2  -6   5  255.67   49.10
   1   6  -5  110.09   13.80
   1   6  -5  107.89   11.70
   1   6  -5  128.39   16.40
   1   6  -5   94.39   11.20
  -1  -6   5   80.79   13.60
  -1  -6   5  118.39   15.90
  -1  -6   5  144.09   35.70
  -1  -6   5  117.49   27.90
   0   6  -5   -2.60    4.90
   0   6  -5    0.70    6.10
   0   6  -5   -1.90    4.00
   0  -6   5    2.00    6.00
   0  -6   5   12.50   14.60
   0  -6   5    0.50    6.70
   0  -6   5    5.20    4.40
   0  -6   5   -0.40    8.30
  -1   6  -5  232.58   15.80
  -1   6  -5  253.17   31.50
  -1   6  -5  222.28   17.80
   1  -6   5  279.57   52.39
   1  -6   5  232.18   14.60
   1  -6   5  234.68   19.60
   1  -6   5  238.28   21.80
  -2   6  -5  326.67   36.10
  -2   6  -5  317.17   20.70
   2  -6   5  317.97   18.90
   2  -6   5  315.07   14.30
   2  -6   5  318.87   22.50
   2  -6   5  387.56   65.99
  -3   6  -5  100.69   15.40
  -3   6  -5  102.89   21.90
   3  -6   5  145.19   41.30
   3  -6   5   77.59   14.70
   3  -6   5   86.59   10.70
   3  -6   5   85.19   13.60
  -4   6  -5   -5.10    7.90
  -4   6  -5    4.40    8.60
   4  -6   5   -0.80   14.40
   4  -6   5   -5.90    8.10
   4  -6   5    6.00    8.50
   4  -6   5    3.40    6.00
  -5   6  -5  221.98   24.60
   5  -6   5  253.27   25.90
   5  -6   5  231.08   17.90
   5  -6   5  234.68   24.90
   5  -6   5  210.48   63.09
  -6   6  -5  107.99   20.30
   6  -6   5  139.59   21.00
   6  -6   5  154.78   17.80
   6  -6   5  128.49   24.30
  -7   6  -5  133.39   23.30
   7  -6   5  135.29   24.20
   7  -6   5  107.59   20.00
   7  -6   5  105.59   16.80
  -8   6  -5   16.70   17.00
   8  -6   5   -1.30   15.20
   8  -6   5   10.50   11.30
  -9   6  -5  -19.60   21.70
   9  -6   5    4.20   12.70
   9  -6   5    6.20   19.20
   9   5  -5   17.60   14.60
   9   5  -5    5.70   15.90
   9   5  -5    4.80   12.30
  -9  -5   5   37.40   20.80
  -9  -5   5   28.70   17.80
   8   5  -5  127.79   22.60
   8   5  -5  136.09   20.70
   8   5  -5  130.59   21.50
  -8  -5   5  119.89   23.40
  -8  -5   5  112.89   24.20
   7   5  -5   64.19   16.70
   7   5  -5   49.00   15.90
   7   5  -5   31.00   15.10
  -7  -5   5   30.60   15.20
  -7  -5   5   38.40   28.70
   6   5  -5   28.90   12.00
   6   5  -5   24.20   10.40
   6   5  -5   28.30   12.10
  -6  -5   5   17.90   11.80
  -6  -5   5    9.70   10.70
  -6  -5   5   78.19   32.40
  -6  -5   5   19.20   26.00
   5   5  -5  171.58   28.40
   5   5  -5  166.68   20.00
   5   5  -5  150.68   18.30
  -5  -5   5  152.88   20.30
  -5  -5   5  134.69   19.00
  -5  -5   5  145.79   47.80
   4   5  -5  587.44   27.40
   4   5  -5  535.85   26.60
   4   5  -5  521.15   27.50
  -4  -5   5  503.05   28.00
  -4  -5   5  691.93   74.69
  -4  -5   5  556.04   25.50
  -4  -5   5  564.34   83.49
   3   5  -5  248.18   17.50
   3   5  -5  222.18   18.30
   3   5  -5  248.88   16.80
   3   5  -5  239.78   12.30
  -3  -5   5  271.37   49.90
  -3  -5   5  243.58   10.20
  -3  -5   5  253.37   17.70
  -3  -5   5  299.17   36.70
  -3  -5   5  248.18   19.70
   2   5  -5  317.67   16.60
   2   5  -5  286.97   17.70
   2   5  -5  682.13  325.77
   2   5  -5  304.97   17.60
  -2  -5   5  353.06   49.10
  -2  -5   5  333.77   43.80
  -2  -5   5  327.67   21.00
  -2  -5   5  356.26   54.19
  -2  -5   5  272.87   18.40
  -2  -5   5   20.20  256.17
   1   5  -5   54.19    8.00
   1   5  -5   86.39   11.90
   1   5  -5  -65.59  293.27
   1   5  -5   48.20   10.20
  -1  -5   5   66.49    7.80
  -1  -5   5   91.19   13.50
  -1  -5   5  109.39   26.20
  -1  -5   5   70.39   12.00
  -1  -5   5   93.59   26.30
  -1  -5   5   81.89   22.00
  -1  -5   5 -277.77  247.98
   0   5  -5   26.20    8.30
   0   5  -5   45.30    8.20
   0   5  -5   61.79   16.80
   0   5  -5 -225.48  301.07
   0  -5   5  -91.99  279.27
   0  -5   5   48.30   21.60
   0  -5   5   51.89   10.50
   0  -5   5   54.59   10.90
  -1   5  -5 -138.79  341.07
   1  -5   5  -66.19  309.57
   1  -5   5  196.78   44.40
  -2   5  -5  137.09   15.60
   2  -5   5  128.49   14.40
   2  -5   5   96.39   14.50
   2  -5   5  152.48   39.10
  -3   5  -5   28.10   14.00
  -3   5  -5   15.10    8.00
  -3   5  -5   19.30    8.20
   3  -5   5   12.20   17.10
   3  -5   5   25.90    6.80
   3  -5   5    9.50    7.30
   3  -5   5   11.40    7.60
  -4   5  -5   -2.40    6.50
  -4   5  -5    0.90   10.80
  -4   5  -5    9.10   12.60
   4  -5   5   -6.00    6.20
   4  -5   5   23.90   24.30
   4  -5   5   -2.10    6.90
   4  -5   5    2.80    5.40
  -5   5  -5   37.60   14.30
  -5   5  -5   45.50   12.80
  -5   5  -5   58.69   23.00
   5  -5   5   30.80   12.50
   5  -5   5   35.40   11.30
   5  -5   5   30.80   25.10
  -6   5  -5    5.40   10.60
  -6   5  -5    2.20   12.00
   6  -5   5   -8.20    6.50
   6  -5   5   -7.80   10.00
   6  -5   5   19.40   21.70
   6  -5   5   -1.10    8.50
  -7   5  -5    8.00   12.70
  -7   5  -5   35.80   19.70
   7  -5   5   11.30   10.00
   7  -5   5   15.00   14.50
  -8   5  -5    8.80   17.10
  -8   5  -5   10.70   14.30
   8  -5   5    4.30   16.10
  -9   5  -5    9.40   16.10
  -9   5  -5    2.60   19.90
   9  -5   5   14.70   12.70
   9  -5   5    6.00   18.70
  10   4  -5  182.78   31.10
  10   4  -5  116.29   21.80
 -10  -4   5   81.69   24.60
 -10  -4   5   99.59   16.90
 -10  -4   5  162.38   33.00
   9   4  -5    7.00   13.00
   9   4  -5   17.90   12.80
  -9  -4   5   22.30   17.30
  -9  -4   5   14.00   11.00
  -9  -4   5   11.90   16.50
   8   4  -5   44.00   13.70
   8   4  -5   38.80   14.40
   8   4  -5   49.10   15.50
  -8  -4   5   28.00   14.40
  -8  -4   5   40.90   17.50
  -8  -4   5   48.30   11.70
   7   4  -5  617.14   33.70
   7   4  -5  658.63   32.20
   7   4  -5  575.34   33.90
  -7  -4   5  646.74   38.60
  -7  -4   5  622.04   36.10
  -7  -4   5  576.04   25.30
  -7  -4   5  772.42  118.89
  -7  -4   5  477.25   78.39
   6   4  -5  870.41   35.90
   6   4  -5  824.32   36.60
   6   4  -5  904.91   38.20
  -6  -4   5  912.21   40.50
  -6  -4   5  830.42  113.49
  -6  -4   5  846.52   94.09
  -6  -4   5  864.51   28.50
  -6  -4   5  835.02   39.00
   5   4  -5  194.98   19.80
   5   4  -5  191.38   19.50
   5   4  -5  200.88   19.20
  -5  -4   5  104.99   40.60
  -5  -4   5  177.38   13.00
  -5  -4   5  184.38   43.10
  -5  -4   5  189.38   15.20
  -5  -4   5  262.37   24.20
   4   4  -5   20.60    8.70
   4   4  -5   33.20    8.30
   4   4  -5   20.60    7.80
  -4  -4   5   15.90    8.40
  -4  -4   5   19.40   17.50
  -4  -4   5   53.89   26.50
  -4  -4   5   25.10    8.20
  -4  -4   5   16.70    5.20
   3   4  -5  367.26   18.90
   3   4  -5  366.46   18.20
   3   4  -5  393.36   20.90
   3   4  -5  571.04  267.17
  -3  -4   5  376.76   15.30
  -3  -4   5  447.06  246.68
  -3  -4   5  302.87   32.50
  -3  -4   5  368.26   19.60
  -3  -4   5  390.96   33.70
  -3  -4   5  482.35   64.09
  -3  -4   5  343.97   45.30
   2   4  -5 1144.09   59.09
   2   4  -5 1207.38   29.80
   2   4  -5  635.44  259.27
   2   4  -5 1191.88   26.20
   2   4  -5 1213.48   33.00
   2   4  -5 1224.38   35.00
  -2  -4   5  925.71  268.57
  -2  -4   5 1236.58   36.70
  -2  -4   5 1216.58   27.40
  -2  -4   5 1228.78   66.89
  -2  -4   5 1212.98   62.79
  -2  -4   5 1227.88   35.10
   1   4  -5 1882.51   43.40
   1   4  -5 1915.11   67.49
   1   4  -5 1097.19  294.57
   1   4  -5 1965.70   41.10
  -1  -4   5 1905.31   45.50
  -1  -4   5 1906.71   86.39
  -1  -4   5 1823.02   44.70
  -1  -4   5 1953.30   37.40
  -1  -4   5 1474.65  289.97
   0   4  -5   88.69   11.50
   0   4  -5   43.60   14.40
   0   4  -5   43.30   12.30
   0   4  -5   66.29    8.80
   0  -4   5   58.69   22.50
   0  -4   5   91.29   10.30
   0  -4   5   65.09   10.80
   0  -4   5  178.98  252.87
   0  -4   5   49.10    9.30
  -1   4  -5   80.19   24.70
  -1   4  -5   60.69    9.80
  -1   4  -5   70.39   17.50
  -1   4  -5  -63.29  254.67
   1  -4   5  139.29   37.50
   1  -4   5    3.60  284.37
   1  -4   5   58.39   10.60
   1  -4   5   69.69    9.90
  -2   4  -5  891.71  386.56
  -2   4  -5  627.94   24.10
  -2   4  -5  568.04   37.30
  -2   4  -5  666.33   43.70
   2  -4   5  605.94   25.30
   2  -4   5  979.80  365.26
   2  -4   5  646.94   61.59
   2  -4   5  608.44   18.80
   2  -4   5  640.04   26.40
  -3   4  -5 1069.59   39.50
  -3   4  -5 1078.29   36.00
  -3   4  -5  960.50  472.55
  -3   4  -5 1089.09   61.59
  -3   4  -5 1076.19   58.09
   3  -4   5 1018.30   81.49
   3  -4   5  742.43  533.75
   3  -4   5 1115.29   28.80
   3  -4   5 1105.89   36.80
   3  -4   5 1143.39   37.00
  -4   4  -5  477.15   54.49
  -4   4  -5  526.65   61.29
  -4   4  -5  548.95   27.30
  -4   4  -5  526.35   30.60
   4  -4   5  471.55   26.80
   4  -4   5  507.95   21.60
   4  -4   5  587.84   80.29
   4  -4   5  473.75   25.20
  -5   4  -5   65.79   17.20
  -5   4  -5  109.59   34.20
  -5   4  -5   85.79   15.30
   5  -4   5  102.19   17.50
   5  -4   5   67.39   13.30
   5  -4   5   57.19   30.60
   5  -4   5   87.49   12.30
  -6   4  -5  181.38   41.50
  -6   4  -5  187.08   38.50
  -6   4  -5  153.58   20.80
   6  -4   5  220.28   22.10
   6  -4   5  161.48   48.60
   6  -4   5  186.78   18.70
   6  -4   5  166.38   23.70
  -7   4  -5  266.47   32.90
  -7   4  -5  220.58   26.40
   7  -4   5  181.88   52.19
   7  -4   5  289.97   31.60
   7  -4   5  219.28   21.60
  -8   4  -5  221.78   31.10
  -8   4  -5  242.58   33.60
   8  -4   5  236.38   31.50
   8  -4   5  317.07   25.20
  -9   4  -5   15.30   17.00
  -9   4  -5   -2.40   17.70
   9  -4   5   13.30   12.60
   9  -4   5    7.30   30.80
  10   3  -5   55.79   17.90
  10   3  -5   88.59   22.50
 -10  -3   5   67.49   21.90
 -10  -3   5   51.09   16.50
 -10  -3   5   29.90   19.90
   9   3  -5   -5.70   10.20
   9   3  -5   27.50   12.60
  -9  -3   5   -5.20   12.10
  -9  -3   5   13.40   11.10
  -9  -3   5    7.30   13.90
   8   3  -5   45.90   13.00
   8   3  -5   48.10   15.20
   8   3  -5   56.99   15.40
  -8  -3   5   50.89   34.10
  -8  -3   5   90.99   20.50
  -8  -3   5   48.70   12.40
  -8  -3   5   36.70   15.60
   7   3  -5  498.05   28.60
   7   3  -5  533.35   27.20
   7   3  -5  451.95   28.50
  -7  -3   5  391.86   67.19
  -7  -3   5  468.15   31.30
  -7  -3   5  467.75   30.90
  -7  -3   5  475.55   25.40
  -7  -3   5  354.16   78.99
   6   3  -5 1111.49   51.59
   6   3  -5 1133.09   36.70
   6   3  -5 1115.09   38.80
  -6  -3   5 1119.09   85.19
  -6  -3   5 1094.59   63.89
  -6  -3   5 1092.09   35.50
  -6  -3   5  913.91  116.29
   5   3  -5 1292.97   37.60
   5   3  -5 1328.17   39.90
   5   3  -5 1294.77   39.60
  -5  -3   5 1244.68   81.19
  -5  -3   5 1289.87   34.40
  -5  -3   5 1319.57  104.69
  -5  -3   5 1285.57   34.60
  -5  -3   5 1356.46   43.00
   4   3  -5  311.77  283.27
   4   3  -5  528.95   23.60
   4   3  -5  472.65   21.30
  -4  -3   5  506.55   20.20
  -4  -3   5  637.34  123.99
  -4  -3   5  518.85   21.80
  -4  -3   5  489.15   60.69
  -4  -3   5  623.14  282.27
   3   3  -5  300.77  219.58
   3   3  -5  142.49    9.90
   3   3  -5  154.48   29.70
   3   3  -5  147.89   11.70
   3   3  -5  172.78   15.60
  -3  -3   5  179.88   26.40
  -3  -3   5  241.38   38.90
  -3  -3   5  314.67  229.18
  -3  -3   5  163.28   15.60
   2   3  -5  500.65   19.80
   2   3  -5  505.45   46.00
   2   3  -5  701.83  228.98
  -2  -3   5  505.55   17.90
  -2  -3   5  486.25   21.50
  -2  -3   5  361.26   47.80
  -2  -3   5  509.25   39.70
  -2  -3   5  220.58  217.08
   1   3  -5 2678.53   81.09
   1   3  -5 2747.63   49.40
   1   3  -5 2682.63   81.69
   1   3  -5 2636.84   46.00
  -1  -3   5 2528.75   94.69
  -1  -3   5 2768.52   47.50
  -1  -3   5 2904.11  300.97
  -1  -3   5 2796.02   54.19
   0   3  -5 1191.08   51.09
   0   3  -5  930.51  258.17
   0   3  -5 1148.29   51.49
   0   3  -5 1119.79   28.50
   0  -3   5 1176.68   36.00
   0  -3   5 1660.03  297.07
   0  -3   5 1123.99   29.50
   0  -3   5 1146.79   32.60
   0  -3   5 1197.28   68.39
  -1   3  -5 -142.59  254.87
  -1   3  -5  115.19   21.10
  -1   3  -5  126.29   10.40
  -1   3  -5  156.18   25.30
   1  -3   5  141.79   14.10
   1  -3   5   20.60  239.68
   1  -3   5  129.99   13.10
   1  -3   5  158.38   32.70
  -2   3  -5  403.76   45.80
  -2   3  -5  451.45   20.90
  -2   3  -5  579.94  304.97
  -2   3  -5  471.75   37.00
   2  -3   5  443.76   20.40
   2  -3   5  114.89  298.07
   2  -3   5  413.46   15.30
   2  -3   5  426.46   56.59
   2  -3   5  446.16   21.30
  -3   3  -5 2008.80   84.59
  -3   3  -5 2116.59   54.89
  -3   3  -5 1966.70   48.70
  -3   3  -5 2083.29   50.19
  -3   3  -5 1832.72  449.16
   3  -3   5 2040.10   50.59
   3  -3   5 2197.78   48.60
   3  -3   5 2291.67  508.35
   3  -3   5 2113.79   41.50
   3  -3   5 2130.89  111.29
  -4   3  -5 1774.12   42.70
  -4   3  -5 1839.42   87.29
  -4   3  -5 1826.02   54.49
  -4   3  -5 1768.82  100.39
  -4   3  -5 1826.32   48.30
  -4   3  -5  747.13  504.85
   4  -3   5 1821.72   45.30
   4  -3   5 1794.82  109.09
   4  -3   5 1821.12   41.40
   4  -3   5 2167.38  511.75
  -5   3  -5  283.37   47.50
  -5   3  -5  157.38   42.90
  -5   3  -5  205.48   19.70
  -5   3  -5  221.58   25.20
   5  -3   5  236.38   17.70
   5  -3   5  219.18   50.49
   5  -3   5  255.57   24.70
   5  -3   5  225.18   16.60
  -6   3  -5   26.70   11.50
  -6   3  -5   17.80   25.20
  -6   3  -5   45.10   15.60
  -6   3  -5   47.60   24.70
  -6   3  -5   21.80   11.30
   6  -3   5   48.80   15.40
   6  -3   5   11.00   20.40
   6  -3   5   51.19   11.20
  -7   3  -5  355.06   36.40
  -7   3  -5  378.56   64.89
  -7   3  -5  359.86   29.60
  -7   3  -5  433.26   49.50
   7  -3   5  274.77   73.29
   7  -3   5  389.16   25.00
   7  -3   5  393.16   36.30
  -8   3  -5  293.87   60.09
  -8   3  -5  486.05   35.40
  -8   3  -5  400.76   42.00
   8  -3   5  457.55   29.50
  -9   3  -5  163.08   28.00
  -9   3  -5  230.08   35.10
   9  -3   5  196.58   24.40
  10   2  -5    9.10   13.40
  10   2  -5   -9.30    9.30
 -10  -2   5   -1.20   14.00
 -10  -2   5   -3.90   13.70
 -10  -2   5   -6.50   11.90
   9   2  -5   32.70   13.90
   9   2  -5   19.40   12.20
  -9  -2   5   19.70   14.40
  -9  -2   5   35.80   13.80
  -9  -2   5   35.20   16.30
   8   2  -5    2.50    8.40
   8   2  -5    0.10    8.30
  -8  -2   5   84.59   76.29
  -8  -2   5   20.90   25.20
  -8  -2   5    1.50    8.90
  -8  -2   5   -6.60   10.60
  -8  -2   5   -3.40    9.20
   7   2  -5  121.99   17.10
   7   2  -5  112.39   14.70
   7   2  -5   61.79   13.90
  -7  -2   5   97.29   17.20
  -7  -2   5  129.49   49.00
  -7  -2   5   60.49   29.80
  -7  -2   5   86.59   14.10
   6   2  -5   70.09    8.70
   6   2  -5   66.09   12.60
   6   2  -5   58.79   10.80
  -6  -2   5   74.09   14.00
  -6  -2   5   69.69   11.50
  -6  -2   5   99.39   40.90
  -6  -2   5   13.30   19.60
  -6  -2   5   54.29    9.30
   5   2  -5   31.90    7.60
   5   2  -5   41.10    9.20
  -5  -2   5   32.40    9.40
  -5  -2   5   33.90    8.20
  -5  -2   5   34.10    8.10
  -5  -2   5   30.90   22.90
   4   2  -5  182.78  220.98
   4   2  -5   36.80   18.80
   4   2  -5   12.10    5.50
   4   2  -5   21.50    6.00
   4   2  -5   13.40    5.40
  -4  -2   5   12.20   11.60
  -4  -2   5   17.70    6.10
  -4  -2   5   14.80    6.70
  -4  -2   5    9.70    5.90
  -4  -2   5  118.29  202.68
   3   2  -5  103.89   11.30
   3   2  -5   98.59   23.80
   3   2  -5 -259.87  183.98
   3   2  -5   91.09   10.50
  -3  -2   5   73.79   16.80
  -3  -2   5   96.19   11.70
  -3  -2   5 -212.38  188.78
  -3  -2   5   92.89   11.60
  -3  -2   5  138.39   28.20
   2   2  -5  966.00   52.99
   2   2  -5 1063.09  245.38
   2   2  -5  938.31   47.00
  -2  -2   5 1022.60   54.09
  -2  -2   5  984.70   28.10
  -2  -2   5 1002.00   26.10
  -2  -2   5  682.73  236.58
  -2  -2   5 1010.30   28.60
   1   2  -5 1355.26   60.29
   1   2  -5 1356.56  284.67
   1   2  -5 1447.66   56.19
  -1  -2   5 1407.26   34.20
  -1  -2   5 1428.16   38.50
  -1  -2   5 1521.35   71.09
  -1  -2   5 1914.01  294.27
  -1  -2   5 1405.46   31.80
   0   2  -5   57.69  241.58
   0   2  -5  239.08   30.50
   0   2  -5  219.78   28.20
   0  -2   5  499.05  219.98
   0  -2   5  232.08   13.80
   0  -2   5  225.08   13.20
   0  -2   5  261.37   39.30
  -1   2  -5  137.99   24.50
  -1   2  -5   98.99   23.50
  -1   2  -5  -79.99  233.08
   1  -2   5   89.99   25.00
   1  -2   5  115.19   12.40
   1  -2   5  381.26  234.28
   1  -2   5  124.29   10.80
  -2   2  -5    4.00    9.50
  -2   2  -5   -4.10    5.10
  -2   2  -5   11.00   11.40
  -2   2  -5   -0.10    4.50
  -2   2  -5   13.50  271.27
   2  -2   5    8.80   12.90
   2  -2   5    2.70    5.00
   2  -2   5   -1.80    3.10
   2  -2   5 -208.28  267.87
   2  -2   5    4.70    4.80
  -3   2  -5  538.05   45.30
  -3   2  -5  543.25   26.90
  -3   2  -5  507.85   21.20
  -3   2  -5  535.15   23.00
  -3   2  -5  555.34  382.86
  -3   2  -5  614.04   56.79
   3  -2   5  543.45   19.60
   3  -2   5  514.05   25.40
   3  -2   5  468.65  355.66
   3  -2   5  516.25   71.99
   3  -2   5  554.34   25.30
  -4   2  -5  861.11   76.49
  -4   2  -5  939.71   64.99
  -4   2  -5  903.11   33.20
  -4   2  -5 1393.56  528.05
  -4   2  -5  978.50   33.00
  -4   2  -5  938.41   38.80
   4  -2   5  928.61   35.50
   4  -2   5  998.70   77.29
   4  -2   5 1184.88  498.35
   4  -2   5  937.11   28.70
   4  -2   5  991.50   30.60
  -5   2  -5  299.37   28.90
  -5   2  -5  163.38   46.60
  -5   2  -5  271.17   48.40
  -5   2  -5  277.07   21.00
  -5   2  -5  215.78   21.80
   5  -2   5  199.38   46.90
   5  -2   5  289.47   31.20
   5  -2   5  281.97   17.70
  -6   2  -5  197.88   22.90
  -6   2  -5  172.68   55.59
  -6   2  -5  154.98   43.80
  -6   2  -5  211.48   23.20
  -6   2  -5  156.88   23.20
   6  -2   5  166.68   17.50
   6  -2   5  172.58   23.10
   6  -2   5  161.28   44.00
  -7   2  -5   17.70   23.60
  -7   2  -5    2.40   25.30
  -7   2  -5   16.80   12.20
  -7   2  -5    0.20   13.90
  -7   2  -5   -5.20   10.10
   7  -2   5   -6.80   17.90
   7  -2   5    5.50    8.90
  -8   2  -5  127.39   44.60
  -8   2  -5  130.79   25.30
  -8   2  -5  160.08   24.80
  -8   2  -5  126.59   21.90
   8  -2   5  173.68   21.50
  -9   2  -5  429.36   41.90
  -9   2  -5  372.96   42.00
  -9   2  -5  423.66   39.70
  11   1  -5   -6.70   13.00
 -11  -1   5   13.00   18.20
 -11  -1   5   -6.90   16.30
 -11  -1   5   -0.30   14.00
  10   1  -5   43.00   18.50
 -10  -1   5   80.89   21.60
 -10  -1   5   49.99   19.70
 -10  -1   5   41.50   16.50
   9   1  -5  300.07   30.70
   9   1  -5  345.97   23.70
  -9  -1   5  355.76   28.60
  -9  -1   5  310.57   66.59
  -9  -1   5  326.67   35.20
  -9  -1   5  374.46   35.30
   8   1  -5  363.46   19.50
   8   1  -5  355.26   22.00
   8   1  -5  367.06   25.90
  -8  -1   5  430.26   90.49
  -8  -1   5  358.66   27.70
  -8  -1   5  322.37   25.20
  -8  -1   5  410.76   70.59
   7   1  -5    0.00    5.80
   7   1  -5   -4.40    5.10
  -7  -1   5    6.00    7.40
  -7  -1   5   12.90    9.30
  -7  -1   5   19.00   21.90
  -7  -1   5    5.40   18.90
   6   1  -5  215.68   14.50
   6   1  -5  221.98   12.40
   6   1  -5  264.77   17.60
  -6  -1   5  176.08   39.90
  -6  -1   5  225.98   17.50
  -6  -1   5  216.38   14.60
  -6  -1   5  252.77   23.00
  -6  -1   5  223.48   54.89
   5   1  -5  669.93   58.19
   5   1  -5  617.54   21.50
   5   1  -5  653.33   23.90
   5   1  -5  548.85  288.87
   5   1  -5  604.84   18.00
   5   1  -5  596.44   25.70
  -5  -1   5  600.94   22.80
  -5  -1   5  430.56  270.77
  -5  -1   5  592.44   25.80
  -5  -1   5  692.93   55.39
  -5  -1   5  613.34   25.50
   4   1  -5  729.43  237.48
   4   1  -5  831.82   50.29
   4   1  -5  854.41   25.30
   4   1  -5  837.92   58.69
   4   1  -5  841.22   24.30
  -4  -1   5 1323.07  291.37
  -4  -1   5  823.22   25.60
  -4  -1   5  840.42   27.80
  -4  -1   5  840.12   28.10
  -4  -1   5  885.91   56.09
   3   1  -5 1378.46   69.69
   3   1  -5 1323.97   68.19
   3   1  -5 1303.57   29.10
   3   1  -5 1155.28  244.78
  -3  -1   5 1319.67   32.90
  -3  -1   5 1352.86   64.59
  -3  -1   5 1339.77   32.40
  -3  -1   5 1324.47   32.60
  -3  -1   5 1021.60  239.38
   2   1  -5  304.57  182.88
  -2  -1   5  188.38  168.98
   1   1  -5  -37.50  163.98
   1   1  -5  181.88   28.80
   1   1  -5  141.69   21.20
  -1  -1   5  106.29  161.18
  -1  -1   5  154.48   29.10
   0   1  -5  294.47  205.98
   0   1  -5  248.58   35.50
   0   1  -5  179.68   24.90
   0  -1   5  216.58   39.10
   0  -1   5  221.88  193.08
  -1   1  -5   49.30   19.40
  -1   1  -5  110.29   23.70
  -1   1  -5  -68.99  215.98
   1  -1   5   71.19   22.30
   1  -1   5  123.39  216.38
  -2   1  -5  412.96   49.70
  -2   1  -5  379.36   20.70
  -2   1  -5  515.45   63.69
  -2   1  -5  391.66   17.50
  -2   1  -5  381.36   17.10
  -2   1  -5   77.29  271.27
   2  -1   5  320.37   46.50
   2  -1   5  332.67  272.77
  -3   1  -5 -169.98  311.37
  -3   1  -5    6.20    5.70
  -3   1  -5    7.40    6.60
  -3   1  -5    4.20   12.40
  -3   1  -5   16.30    6.80
  -3   1  -5    5.80   11.40
   3  -1   5   14.40    7.20
   3  -1   5    8.30    5.90
   3  -1   5  -79.39  322.77
   3  -1   5    3.60   12.40
  -4   1  -5  144.79   16.40
  -4   1  -5  119.39   41.60
  -4   1  -5  154.08   18.40
  -4   1  -5  130.69   15.00
  -4   1  -5  186.08   41.30
   4  -1   5  125.49   16.20
   4  -1   5  116.99   12.50
   4  -1   5  123.19   12.30
   4  -1   5  133.49   12.60
   4  -1   5  122.29   34.50
  -5   1  -5  112.49   17.40
  -5   1  -5  101.59   40.30
  -5   1  -5   98.89   15.10
  -5   1  -5   84.79   16.20
  -5   1  -5  143.79   38.20
   5  -1   5  111.29   35.00
   5  -1   5  123.29   18.00
   5  -1   5   89.49   12.20
   5  -1   5  101.69   13.80
  -6   1  -5   -4.70   19.30
  -6   1  -5    8.10   11.50
  -6   1  -5    4.70   10.10
  -6   1  -5   20.30   10.50
  -6   1  -5    7.20   18.50
   6  -1   5    3.50   23.70
   6  -1   5    5.90    7.20
  -7   1  -5   -3.30   13.20
  -7   1  -5   46.10   46.10
  -7   1  -5   -6.00   10.90
  -7   1  -5   11.20   21.40
  -8   1  -5    9.10   14.60
  -8   1  -5   42.90   17.60
  -8   1  -5   36.50   16.60
  -9   1  -5   13.70   16.80
  -9   1  -5   -1.90   16.20
  -9   1  -5    9.10   16.40
  11   0  -5   -3.60   13.60
 -11   0   5  -11.50   14.70
 -11   0   5   -8.60   15.10
 -11   0   5    8.90   15.20
  10   0  -5   23.30   11.20
  10   0  -5   75.39   18.40
 -10   0   5   73.09   22.90
 -10   0   5   45.00   17.60
 -10   0   5   58.39   23.30
   9   0  -5  676.73   28.70
  -9   0   5  675.43   95.09
  -9   0   5  712.83   39.30
  -9   0   5  822.02   41.80
   8   0  -5  663.23   26.80
   8   0  -5  688.53   26.40
  -8   0   5  682.13   87.49
  -8   0   5  694.83   35.50
  -8   0   5  750.72   36.80
   7   0  -5  437.66   19.40
   7   0  -5  417.56   19.80
  -7   0   5  459.95   26.20
  -7   0   5  569.94   74.49
  -7   0   5  397.56   25.50
  -7   0   5  420.06   78.29
   6   0  -5    2.80    4.60
   6   0  -5    1.10    8.50
   6   0  -5    1.80    4.10
   6   0  -5    9.00    5.60
  -6   0   5   10.10    5.90
  -6   0   5   10.00   15.10
  -6   0   5   33.50   18.00
  -6   0   5   -4.10    5.80
  -6   0   5    2.00    5.90
   5   0  -5  641.04   54.99
   5   0  -5  445.56   40.40
   5   0  -5  585.44   21.90
   5   0  -5  602.64   26.90
   5   0  -5  260.77  273.97
  -5   0   5  582.84   21.90
  -5   0   5  562.94   25.00
  -5   0   5  436.86  298.07
  -5   0   5  647.94   50.79
  -5   0   5  541.85   23.70
   4   0  -5 2165.68   94.99
   4   0  -5 2403.46   93.89
   4   0  -5 2146.49  353.06
   4   0  -5 2196.38   46.40
   4   0  -5 2363.96   43.70
  -4   0   5 2191.68   44.60
  -4   0   5 2270.57   46.60
  -4   0   5 2452.65  357.36
  -4   0   5 2255.87  102.49
   3   0  -5 1735.93   34.70
   3   0  -5  994.40  236.08
   3   0  -5 1896.21   85.39
   3   0  -5 1831.62   79.99
  -3   0   5 1778.62   37.80
  -3   0   5 1768.02  273.57
   2   0  -5  529.05   32.40
   2   0  -5  385.46  194.28
   2   0  -5  608.54   51.29
   2   0  -5  532.85   41.30
  -2   0   5  634.74  177.58
   1   0  -5   33.50   11.90
   1   0  -5   45.20   16.20
   1   0  -5 -206.48  150.28
  -1   0   5   49.70   15.90
  -1   0   5   56.39  178.58
   0   0  -5  617.84  206.18
   0   0  -5  713.73   41.30
   0   0  -5  729.03   51.69
   0   0   5  687.33  187.78
   0   0   5  684.73   51.89
  -1   0  -5  953.40   29.60
  -1   0  -5  917.01   28.50
  -1   0  -5  882.01   62.69
  -1   0  -5  910.11   51.49
  -1   0  -5  751.22  239.28
  -1   0  -5  981.30   27.00
   1   0   5  994.90  261.57
   1   0   5  943.11   61.19
  -2   0  -5   16.90    5.60
  -2   0  -5    5.60    4.90
  -2   0  -5   18.70   12.50
  -2   0  -5    9.10   11.50
  -2   0  -5 -144.49  253.37
  -2   0  -5   11.80    6.00
   2   0   5    9.70   12.00
   2   0   5  249.18  280.27
  -3   0  -5   11.00    6.80
  -3   0  -5   17.90   18.50
  -3   0  -5    8.20    7.00
  -3   0  -5    7.50    5.70
  -3   0  -5   13.80   13.30
   3   0   5   27.20   16.80
   3   0   5   12.90    5.50
  -4   0  -5   15.90    8.50
  -4   0  -5   30.70   23.30
  -4   0  -5   40.40   20.30
  -4   0  -5   22.90    9.50
   4   0   5   32.10    8.50
   4   0   5    1.30   12.00
  -5   0  -5  844.92   39.00
  -5   0  -5  734.33   31.60
  -5   0  -5  698.33   34.50
  -5   0  -5  686.53  116.79
  -5   0  -5  903.11   74.49
   5   0   5  767.02   70.49
   5   0   5  824.22   31.40
  -6   0  -5   51.69   14.30
  -6   0  -5   69.09   16.60
  -6   0  -5   58.49   42.80
  -6   0  -5   62.49   14.50
  -6   0  -5   44.80   28.10
   6   0   5   84.19   14.90
   6   0   5   64.59   29.60
  -7   0  -5    1.90   20.00
  -7   0  -5   21.40   13.50
  -8   0  -5   24.20   15.90
  -8   0  -5    1.90   14.50
  -8   0  -5    6.20   14.10
  -9   0  -5    3.20   15.70
  -9   0  -5    0.70   16.20
  -9   0  -5   14.90   16.40
  11  -1  -5   36.40   17.50
  11  -1  -5   27.50   13.70
 -11   1   5   31.50   18.20
 -11   1   5   30.40   16.90
 -11   1   5   27.30   18.60
  10  -1  -5    6.10   11.40
  10  -1  -5   14.60    9.90
 -10   1   5    6.40   13.60
 -10   1   5  -10.60   19.90
 -10   1   5  -12.50   10.80
 -10   1   5    7.80   13.50
   9  -1  -5   79.79   13.60
  -9   1   5   54.39   16.00
  -9   1   5   49.00   30.40
  -9   1   5   52.39   17.90
   8  -1  -5  582.54   33.10
   8  -1  -5  598.94   35.40
  -8   1   5  472.05   28.80
  -8   1   5  772.52  119.09
  -8   1   5  573.54   75.09
  -8   1   5  611.44   34.30
   7  -1  -5  347.07   25.60
   7  -1  -5  355.66   18.70
   7  -1  -5  309.17   15.90
  -7   1   5  339.47   22.50
  -7   1   5  408.06   76.29
  -7   1   5  344.97   54.79
  -7   1   5  347.17   23.60
   6  -1  -5  440.16   25.80
   6  -1  -5  449.06   16.60
   6  -1  -5  508.35   56.79
   6  -1  -5  489.35   19.50
   6  -1  -5  121.49  372.86
   6  -1  -5  498.55   21.40
   6  -1  -5  356.36   55.29
  -6   1   5  553.74   32.10
  -6   1   5  512.45   61.29
  -6   1   5  458.85  382.36
   5  -1  -5   80.79   26.10
   5  -1  -5   54.79    7.90
   5  -1  -5  -37.40  266.97
   5  -1  -5   51.49   11.20
   5  -1  -5   52.69    8.60
   5  -1  -5   58.19   22.20
  -5   1   5   74.19  280.17
  -5   1   5   77.29   10.90
  -5   1   5   80.99   22.90
  -5   1   5   51.69   10.10
  -5   1   5   83.59   10.90
   4  -1  -5 1307.47   31.20
   4  -1  -5 1307.27   28.80
   4  -1  -5 1663.93  294.67
   4  -1  -5 1359.86   38.00
   4  -1  -5 1289.27   75.99
   4  -1  -5 1401.16   74.89
  -4   1   5 1450.85  302.47
  -4   1   5 1342.47   32.20
  -4   1   5 1356.46   36.40
  -4   1   5 1315.77   61.69
  -4   1   5 1382.46   34.60
   3  -1  -5 2519.95   72.09
   3  -1  -5 2544.35  106.29
   3  -1  -5 2447.85   93.39
   3  -1  -5 2844.12  331.87
   3  -1  -5 2438.26   43.70
  -3   1   5 2551.24   47.10
  -3   1   5 2614.44  313.97
   2  -1  -5 1451.35   80.29
   2  -1  -5 1428.96   52.19
   2  -1  -5 1605.34  262.97
  -2   1   5 1439.86  230.38
   1  -1  -5   11.00    7.50
   1  -1  -5  114.49  156.08
   1  -1  -5   34.80   19.00
   1  -1  -5    0.60    7.70
  -1   1   5   55.19  155.48
   0  -1  -5  139.29   30.50
   0  -1  -5  189.48  208.28
   0  -1  -5  187.48   12.20
   0  -1  -5  235.48   31.10
   0  -1  -5  184.68   12.60
   0   1   5  251.77   39.20
   0   1   5  -11.60  180.68
  -1  -1  -5 1979.00  331.37
  -1  -1  -5 2013.60   43.80
  -1  -1  -5 1894.91   77.29
  -1  -1  -5 1936.41   98.49
  -1  -1  -5 1844.72   41.80
  -1  -1  -5 1932.01   44.40
   1   1   5 1976.00  327.47
   1   1   5 1945.61   87.09
  -2  -1  -5 1741.53   81.49
  -2  -1  -5 1771.12   42.70
  -2  -1  -5 1763.02   43.90
  -2  -1  -5 1827.12   46.40
  -2  -1  -5 1705.83  313.67
  -2  -1  -5 1847.22  106.39
   2   1   5 1759.82   87.59
   2   1   5 1827.52   39.30
   2   1   5 1959.00  354.26
  -3  -1  -5 1152.48   38.10
  -3  -1  -5 1165.68   32.40
  -3  -1  -5 1221.88   74.59
  -3  -1  -5 1343.47  100.79
  -3  -1  -5 1219.48   37.50
   3   1   5 1218.28   34.30
   3   1   5 1170.88   74.19
  -4  -1  -5    6.70    7.20
  -4  -1  -5    3.00    7.80
  -4  -1  -5    3.90    7.00
  -4  -1  -5  -10.90   12.90
  -4  -1  -5    8.00   13.00
   4   1   5    2.40   14.10
   4   1   5   -3.00    5.60
  -5  -1  -5   34.60   30.90
  -5  -1  -5   23.30    9.90
  -5  -1  -5   22.10   19.70
  -5  -1  -5   26.40   10.30
   5   1   5   16.20   15.30
   5   1   5   19.60    9.40
  -6  -1  -5  147.69   23.00
  -6  -1  -5  173.78   47.40
  -6  -1  -5  187.68   21.70
  -6  -1  -5  173.18   21.50
   6   1   5  136.49   21.40
  -7  -1  -5  125.39   28.50
  -7  -1  -5   84.89   38.70
  -7  -1  -5   84.19   20.80
  -7  -1  -5  137.49   21.40
   7   1   5  109.09   18.90
  -8  -1  -5   59.39   19.20
  -8  -1  -5   32.90   20.50
  -8  -1  -5   57.29   18.90
  -9  -1  -5   31.40   18.70
  -9  -1  -5   11.60   16.20
  -9  -1  -5  -13.10   15.30
  11  -2  -5    9.50   13.60
  11  -2  -5    3.30   10.60
 -11   2   5    1.80   14.20
 -11   2   5   17.90   17.00
 -11   2   5   -1.60   14.50
  10  -2  -5   26.30   10.80
 -10   2   5   32.60   16.20
 -10   2   5   27.80   16.20
 -10   2   5   -1.70   11.60
   9  -2  -5   28.50   15.00
   9  -2  -5   29.20   10.50
  -9   2   5   23.60   14.00
  -9   2   5   33.90   29.50
  -9   2   5   27.60   14.10
   8  -2  -5    1.80    5.90
   8  -2  -5    2.40    9.20
   8  -2  -5   10.60   10.00
  -8   2   5    2.40   17.60
  -8   2   5   17.40   17.60
  -8   2   5    3.80    8.40
  -8   2   5    2.60    8.20
   7  -2  -5   59.19   14.00
   7  -2  -5    4.70   16.40
   7  -2  -5   77.79   12.00
   7  -2  -5   90.79   12.30
   7  -2  -5   79.29   14.70
  -7   2   5   88.99   34.70
  -7   2   5   76.89   14.70
  -7   2   5   75.69   13.40
  -7   2   5   88.39   29.30
   6  -2  -5   40.00  427.06
   6  -2  -5   47.70   23.10
   6  -2  -5   94.19   11.90
   6  -2  -5   53.69   24.20
   6  -2  -5   71.39   10.40
   6  -2  -5   56.29   12.20
  -6   2   5   82.99   12.20
  -6   2   5   69.09   12.40
  -6   2   5   50.29   20.40
  -6   2   5  800.62  628.14
   5  -2  -5   24.00   15.60
   5  -2  -5   13.50    5.20
   5  -2  -5   18.50    6.00
   5  -2  -5 -289.57  284.67
   5  -2  -5   18.20    7.70
   5  -2  -5   38.40   22.30
  -5   2   5   17.30    7.30
  -5   2   5    6.30    9.00
  -5   2   5   15.40    5.80
  -5   2   5 -369.76  262.47
   4  -2  -5   30.40   15.30
   4  -2  -5   85.89  225.68
   4  -2  -5   33.60    6.40
   4  -2  -5   40.80    7.00
   4  -2  -5   45.70   21.70
   4  -2  -5   23.60    7.10
  -4   2   5   51.69   16.10
  -4   2   5 -255.57  219.48
  -4   2   5   40.50    8.20
   3  -2  -5  509.25  216.18
   3  -2  -5  539.35   30.60
   3  -2  -5  583.74   69.49
   3  -2  -5  507.65   17.80
   3  -2  -5  534.65   21.50
   3  -2  -5  470.55   42.40
   3  -2  -5  484.25   17.40
  -3   2   5  360.56  190.58
   2  -2  -5   52.19    8.10
   2  -2  -5   45.10    7.50
   2  -2  -5   36.70   16.80
   2  -2  -5   49.40    7.60
   2  -2  -5  203.78  170.18
   2  -2  -5   79.19   16.40
   2  -2  -5   36.00   17.20
  -2   2   5   50.79    8.20
  -2   2   5   60.89  153.88
   1  -2  -5  461.45   31.60
   1  -2  -5  320.87  185.08
   1  -2  -5  460.05   18.40
   1  -2  -5  448.46   17.30
   1  -2  -5  490.95   59.29
   1  -2  -5  414.86   17.10
   1  -2  -5  544.75   66.79
  -1   2   5  630.94  200.38
  -1   2   5  466.15   22.60
  -1   2   5  460.05   16.60
   0  -2  -5   16.50    6.20
   0  -2  -5   13.50   12.90
   0  -2  -5   16.10   15.60
   0  -2  -5   14.00    9.80
   0  -2  -5    1.90    5.50
   0  -2  -5    9.60    4.50
   0   2   5   30.80  163.28
   0   2   5    8.90    4.90
   0   2   5   12.80    5.10
  -1  -2  -5 1189.98  271.77
  -1  -2  -5 1031.90   76.29
  -1  -2  -5 1134.59   82.39
  -1  -2  -5 1036.20   28.30
  -1  -2  -5 1061.29   32.20
  -1  -2  -5 1077.99   33.60
   1   2   5 1079.39   31.70
   1   2   5 1044.50  262.37
   1   2   5 1039.30   40.50
  -2  -2  -5 1170.08   37.90
  -2  -2  -5 1057.29   30.30
  -2  -2  -5 1049.09   34.80
  -2  -2  -5 1121.89   67.59
   2   2   5 1006.70   31.00
   2   2   5 1204.18   71.79
  -3  -2  -5  922.21   35.60
  -3  -2  -5 1022.60   92.49
  -3  -2  -5  892.91   36.20
  -3  -2  -5  924.31   28.50
  -3  -2  -5  977.50   31.00
   3   2   5  868.71   64.19
   3   2   5  887.51   31.50
  -4  -2  -5  483.15   28.40
  -4  -2  -5  455.75   23.80
  -4  -2  -5  434.66   28.30
  -4  -2  -5  408.06   94.69
  -4  -2  -5  430.16   22.80
  -4  -2  -5  513.65   68.29
   4   2   5  475.05   25.40
   4   2   5  473.65   59.39
  -5  -2  -5   40.60   28.60
  -5  -2  -5   25.30   10.20
  -5  -2  -5    9.20   21.00
  -5  -2  -5   23.60   10.30
  -5  -2  -5   20.90   11.40
   5   2   5   11.90    8.90
   5   2   5   38.60   12.10
   5   2   5   24.80   21.90
  -6  -2  -5  133.79   42.80
  -6  -2  -5  148.39   20.20
  -6  -2  -5   93.09   49.60
  -6  -2  -5  113.49   22.00
  -6  -2  -5  108.19   17.50
   6   2   5  113.89   17.80
   6   2   5   98.89   17.90
  -7  -2  -5  315.47   26.40
  -7  -2  -5  350.36   31.70
  -7  -2  -5  310.27   34.70
   7   2   5  246.48   32.40
   7   2   5  345.47   52.59
  -8  -2  -5  133.79   21.90
  -8  -2  -5  118.99   23.10
  -8  -2  -5  110.89   25.10
   8   2   5  127.99   23.20
  11  -3  -5  247.38   27.00
 -11   3   5  187.78   30.70
 -11   3   5  258.87   33.00
 -11   3   5  249.78   33.80
  10  -3  -5   74.29   21.00
  10  -3  -5   58.39   14.20
 -10   3   5   67.19   18.40
 -10   3   5   32.60   16.80
   9  -3  -5    7.50   12.40
   9  -3  -5   10.20   18.40
  -9   3   5   -7.60    9.50
  -9   3   5    3.70   20.60
  -9   3   5   -0.60   11.40
   8  -3  -5  521.45   25.80
   8  -3  -5  481.95   29.70
   8  -3  -5  485.25   32.30
  -8   3   5  612.64   68.89
  -8   3   5  569.34  100.49
  -8   3   5  475.45   28.20
   7  -3  -5  590.04   32.20
   7  -3  -5  543.45   23.90
   7  -3  -5  555.74   30.50
   7  -3  -5  547.85   24.30
   7  -3  -5  646.04   82.79
  -7   3   5  622.24   32.60
  -7   3   5  569.74   27.50
  -7   3   5  601.64   51.59
   6  -3  -5  140.99   18.00
   6  -3  -5  199.08   46.40
   6  -3  -5  141.39   36.10
   6  -3  -5  155.98   14.80
   6  -3  -5  146.49   14.90
   6  -3  -5  145.49   19.40
  -6   3   5  108.89   15.90
  -6   3   5  155.88   16.10
   5  -3  -5    1.60    4.60
   5  -3  -5   15.10    7.50
   5  -3  -5   -2.90    8.50
   5  -3  -5    6.90    4.40
  -5   3   5    2.80    4.30
  -5   3   5    5.70    6.10
  -5   3   5  212.78  299.67
  -5   3   5    7.60    9.80
   4  -3  -5   31.40    6.80
   4  -3  -5   29.60    7.50
   4  -3  -5   28.40   17.80
   4  -3  -5  -13.80  234.68
   4  -3  -5   40.80    7.80
   4  -3  -5    2.80    8.10
  -4   3   5  -41.70  242.58
  -4   3   5   79.19   18.10
  -4   3   5   39.80    6.50
   3  -3  -5  337.27   15.60
   3  -3  -5  356.26   17.30
   3  -3  -5    6.20  217.68
   3  -3  -5  429.26   52.79
   3  -3  -5  518.75   71.29
  -3   3   5  356.16   15.60
  -3   3   5  458.85  204.08
   2  -3  -5  188.28   35.70
   2  -3  -5  202.98   12.30
   2  -3  -5  281.17   29.10
   2  -3  -5   80.59  205.48
   2  -3  -5  207.58   12.60
   2  -3  -5  216.28   13.50
   2  -3  -5  212.18   43.20
  -2   3   5  205.18   13.10
  -2   3   5  200.08   11.90
  -2   3   5  554.54  189.68
   1  -3  -5  179.28   41.70
   1  -3  -5  179.98   37.30
   1  -3  -5  172.18  173.48
   1  -3  -5  142.59   13.30
   1  -3  -5  160.38   19.50
   1  -3  -5  119.69   22.30
   1  -3  -5  114.99   12.30
  -1   3   5  534.65  184.38
  -1   3   5  122.19   10.00
  -1   3   5  158.08   20.90
   0  -3  -5   40.60    6.20
   0  -3  -5   13.90   14.90
   0  -3  -5   36.40   21.70
   0  -3  -5   36.40    9.10
   0  -3  -5   32.10    8.20
   0  -3  -5   25.50   13.90
   0   3   5 -113.19  191.38
   0   3   5   35.00    7.40
   0   3   5   32.30    7.70
  -1  -3  -5   21.50   16.60
  -1  -3  -5   10.20   14.70
  -1  -3  -5   11.80    7.60
  -1  -3  -5   -1.50    9.40
  -1  -3  -5    9.20    4.30
  -1  -3  -5    1.80    5.80
   1   3   5    0.60    4.30
   1   3   5   10.40    5.30
   1   3   5    1.10    3.50
  -2  -3  -5   -5.30    9.80
  -2  -3  -5    1.50    4.00
  -2  -3  -5    5.60    8.00
  -2  -3  -5   24.90   23.40
  -2  -3  -5    0.70   10.20
  -2  -3  -5   12.20    7.70
   2   3   5    4.50    4.10
   2   3   5    1.20    5.40
   2   3   5    5.00    4.40
   2   3   5   14.10    6.40
  -3  -3  -5  202.48   21.50
  -3  -3  -5  320.27   52.09
  -3  -3  -5  199.78   57.09
  -3  -3  -5  187.98   43.90
  -3  -3  -5  224.88   14.30
  -3  -3  -5  231.98   23.60
  -3  -3  -5  218.58   15.10
   3   3   5  238.98   18.20
   3   3   5  212.78   14.80
   3   3   5  248.88   18.90
  -4  -3  -5   10.40    7.30
  -4  -3  -5    8.50   16.20
  -4  -3  -5   11.80   24.60
  -4  -3  -5    0.40   15.70
  -4  -3  -5    1.50    9.70
   4   3   5    4.90    8.10
   4   3   5   -2.40    7.10
   4   3   5    1.30    5.40
  -5  -3  -5  128.09   40.50
  -5  -3  -5  126.19   17.60
  -5  -3  -5  134.39   21.80
  -5  -3  -5  115.29   14.90
  -5  -3  -5  119.49   20.50
   5   3   5  126.69   18.60
   5   3   5  126.49   25.50
  -6  -3  -5   56.59   14.90
  -6  -3  -5   58.69   13.10
  -6  -3  -5   35.40   15.40
  -6  -3  -5   20.50   23.80
   6   3   5   45.30   14.80
   6   3   5   58.99   15.40
  -7  -3  -5   76.79   15.00
  -7  -3  -5   70.79   22.80
  -7  -3  -5   62.79   19.70
  -7  -3  -5   51.19   16.70
   7   3   5   71.69   18.90
  -8  -3  -5   80.69   24.50
  -8  -3  -5   94.89   17.70
  -8  -3  -5   60.09   23.30
   8   3   5   72.19   20.90
  11  -4  -5  180.48   23.60
  11  -4  -5  214.88   33.80
 -11   4   5  157.18   29.50
 -11   4   5  183.28   31.20
 -11   4   5  189.18   29.10
  10  -4  -5  168.28   27.70
  10  -4  -5  247.78   25.60
 -10   4   5  202.28   26.40
 -10   4   5  200.68   30.70
   9  -4  -5   15.30   15.50
   9  -4  -5   12.50    9.20
   9  -4  -5   36.30   13.90
  -9   4   5   13.60   25.60
  -9   4   5    3.20   12.80
  -9   4   5   21.30   11.90
   8  -4  -5    7.30    6.80
   8  -4  -5   14.30   10.60
   8  -4  -5   -4.30   14.30
   8  -4  -5   20.60   12.30
  -8   4   5   25.00   13.00
  -8   4   5   -6.90   14.60
  -8   4   5    5.20    8.90
   7  -4  -5  578.04   81.79
   7  -4  -5  394.56   27.20
   7  -4  -5  456.45   21.60
   7  -4  -5  489.55   24.00
   7  -4  -5  579.74   77.49
  -7   4   5  452.45   28.60
  -7   4   5  403.86   23.20
   6  -4  -5  934.31   82.09
   6  -4  -5  944.11   70.49
   6  -4  -5 1081.09   33.60
   6  -4  -5 1046.10   41.30
   6  -4  -5 1055.89   39.20
   6  -4  -5 1041.90   30.60
  -6   4   5 1057.79   32.60
  -6   4   5 1036.70   27.70
  -6   4   5 1023.40   39.60
   5  -4  -5  792.72   73.99
   5  -4  -5  921.01   27.20
   5  -4  -5  941.81   37.50
   5  -4  -5  963.70   30.00
   5  -4  -5  904.41   33.20
  -5   4   5  868.71   26.00
  -5   4   5  961.30   46.90
  -5   4   5  929.71   26.00
   4  -4  -5  482.25   58.99
   4  -4  -5  458.15   21.70
   4  -4  -5  456.55   18.40
   4  -4  -5  500.55   76.69
   4  -4  -5  483.15   20.60
  -4   4   5  485.35   30.30
  -4   4   5  463.95   18.50
   3  -4  -5  122.79   29.00
   3  -4  -5  138.59   12.90
   3  -4  -5  135.89   13.70
   3  -4  -5  135.09   17.80
   3  -4  -5  133.49   12.80
   3  -4  -5  134.19   43.50
  -3   4   5  111.99   11.80
   2  -4  -5 1543.45   83.79
   2  -4  -5 1502.15   82.89
   2  -4  -5 1600.54   33.30
   2  -4  -5 1592.04   38.50
   2  -4  -5 1590.04  100.89
   2  -4  -5 1613.04   36.80
  -2   4   5 1573.44   36.80
  -2   4   5 1594.24   39.20
   1  -4  -5 2167.88   48.00
   1  -4  -5 2189.78  106.39
   1  -4  -5 2187.28  118.19
   1  -4  -5 2222.18   74.59
   1  -4  -5 2141.99   35.50
   1  -4  -5 2085.49   45.70
  -1   4   5 2169.78   45.80
  -1   4   5 2148.49   48.80
   0  -4  -5  796.92   50.19
   0  -4  -5  761.42   28.90
   0  -4  -5  737.63   68.99
   0  -4  -5  769.12   28.00
   0  -4  -5  758.32   69.39
   0   4   5  769.12   27.20
   0   4   5  791.42   28.90
   0   4   5  786.52   24.60
  -1  -4  -5  123.09   16.40
  -1  -4  -5  128.49   36.10
  -1  -4  -5  108.59   14.80
  -1  -4  -5  116.69   28.60
  -1  -4  -5   99.69   34.50
   1   4   5  118.49   11.40
   1   4   5  119.39   14.60
   1   4   5  124.99   14.90
  -2  -4  -5  211.68   46.30
  -2  -4  -5  110.39   39.50
  -2  -4  -5  166.08   19.10
  -2  -4  -5  190.68   20.60
  -2  -4  -5  211.18   39.50
   2   4   5  208.08   19.70
   2   4   5  214.28   19.80
   2   4   5  175.58   13.20
   2   4   5  185.08   12.30
  -3  -4  -5  877.51   38.50
  -3  -4  -5  882.41   38.50
  -3  -4  -5  832.82   69.59
  -3  -4  -5  681.83   82.19
  -3  -4  -5  824.22   27.80
  -3  -4  -5  890.41  113.19
   3   4   5  908.81   30.90
   3   4   5  730.13   33.00
   3   4   5  892.41   28.10
   3   4   5  777.12   33.50
  -4  -4  -5  727.53  117.99
  -4  -4  -5  654.33   36.60
  -4  -4  -5  660.83   28.10
  -4  -4  -5  586.84   74.49
  -4  -4  -5  710.73   37.30
   4   4   5  664.43   28.60
   4   4   5  618.24   32.50
   4   4   5  608.44   31.20
  -5  -4  -5  108.39   52.99
  -5  -4  -5  131.99   21.90
  -5  -4  -5  199.98   26.80
  -5  -4  -5  178.38   47.90
  -5  -4  -5  206.88   21.20
   5   4   5  181.28   21.40
   5   4   5  231.28   21.50
   5   4   5  202.38   24.80
  -6  -4  -5    9.80   15.90
  -6  -4  -5   -2.00   10.40
  -6  -4  -5   17.10   14.30
   6   4   5   14.90   12.50
   6   4   5   14.30   12.10
  -7  -4  -5   52.49   19.80
  -7  -4  -5   46.40   20.40
  -7  -4  -5   19.20   15.60
   7   4   5   14.90   14.20
  -8  -4  -5   41.60   23.50
  -8  -4  -5   47.10   21.30
   8   4   5   31.00   18.10
  11  -5  -5   12.50   18.90
  11  -5  -5    8.80   12.80
 -11   5   5  -10.70   13.60
 -11   5   5   12.40   18.60
  10  -5  -5  213.38   26.80
  10  -5  -5  170.68   28.60
  10  -5  -5  210.98   47.50
 -10   5   5  186.58   26.30
   9  -5  -5  537.65   30.20
   9  -5  -5  501.55   51.09
   9  -5  -5  568.44   38.00
  -9   5   5  498.15  101.69
  -9   5   5  534.05   31.70
   8  -5  -5   53.39   12.40
   8  -5  -5  155.98   50.29
   8  -5  -5   83.59   19.30
   8  -5  -5   70.29   16.10
  -8   5   5   59.99   13.80
  -8   5   5   74.49   39.80
   7  -5  -5   33.50   12.70
   7  -5  -5   13.20   15.30
   7  -5  -5    9.70   10.00
   7  -5  -5   18.10    7.00
   7  -5  -5   -5.50   12.40
   7  -5  -5    9.30    7.40
  -7   5   5    8.30    7.30
   6  -5  -5  634.94   57.59
   6  -5  -5  722.93  117.99
   6  -5  -5  558.24   32.00
   6  -5  -5  584.34   33.50
   6  -5  -5  596.54   32.10
   6  -5  -5  623.94   23.30
  -6   5   5  599.84   22.80
  -6   5   5  620.94   24.60
   5  -5  -5  720.03   59.29
   5  -5  -5  806.62   25.60
   5  -5  -5  821.82   29.30
   5  -5  -5  780.72   30.70
   5  -5  -5  808.12   36.50
   5  -5  -5  979.80  111.19
  -5   5   5  875.31   27.60
  -5   5   5  803.72   26.50
   4  -5  -5 1323.57   36.30
   4  -5  -5 1360.26   45.70
   4  -5  -5 1122.59   90.39
   4  -5  -5 1346.37   37.20
   4  -5  -5 1332.17   32.80
   4  -5  -5 1348.17   78.19
  -4   5   5 1260.67   34.70
   3  -5  -5    5.20   10.70
   3  -5  -5    4.30    4.60
   3  -5  -5    5.00    8.40
   3  -5  -5    2.90    5.60
   3  -5  -5    9.40    6.30
   3  -5  -5    2.20   12.70
   3  -5  -5    7.20    4.50
  -3   5   5    0.80    4.70
  -3   5   5    3.70    4.80
   2  -5  -5  389.66   22.70
   2  -5  -5  339.07   18.70
   2  -5  -5  500.45   66.39
   2  -5  -5  383.86   32.90
   2  -5  -5  299.87   55.99
   2  -5  -5  380.66   13.40
   2  -5  -5  359.86   17.80
  -2   5   5  343.67   18.20
  -2   5   5  407.66   20.70
   1  -5  -5 1165.08   55.39
   1  -5  -5 1201.68   34.90
   1  -5  -5 1177.28   82.29
   1  -5  -5 1186.58   36.20
   1  -5  -5 1225.38   38.30
   1  -5  -5 1225.38   92.79
  -1   5   5 1162.08   36.60
  -1   5   5 1250.97   47.70
   0  -5  -5 1787.12   46.40
   0  -5  -5 1841.92   82.19
   0  -5  -5 1773.02  110.59
   0  -5  -5 1851.21  114.09
   0  -5  -5 1825.22   45.50
   0   5   5 1775.22   42.50
   0   5   5 1844.12   48.80
   0   5   5 1917.21   47.70
  -1  -5  -5 1792.82   87.39
  -1  -5  -5 1986.60  123.79
  -1  -5  -5 1734.93   49.10
  -1  -5  -5 1699.23   41.10
  -1  -5  -5 1784.62   49.50
  -1  -5  -5 1739.93  111.39
   1   5   5 1706.73   39.60
   1   5   5 1739.43   49.00
   1   5   5 1744.23   47.70
  -2  -5  -5   -6.50   12.20
  -2  -5  -5    0.00   11.30
  -2  -5  -5   -3.10    7.10
  -2  -5  -5    4.60    8.80
  -2  -5  -5    4.60   17.90
   2   5   5   -1.60    4.90
   2   5   5   -6.90    5.10
   2   5   5   -3.40    7.30
   2   5   5    7.30    6.30
  -3  -5  -5  585.74   72.99
  -3  -5  -5  656.63  102.99
  -3  -5  -5  642.54   34.40
  -3  -5  -5  435.16   66.59
  -3  -5  -5  585.44   34.20
   3   5   5  680.73   32.90
   3   5   5  618.64   31.00
   3   5   5  580.24   26.70
   3   5   5  602.94   25.00
  -4  -5  -5  612.44   82.89
  -4  -5  -5  469.15   33.10
  -4  -5  -5  485.15   33.70
  -4  -5  -5  397.86   89.69
   4   5   5  511.95   25.10
   4   5   5  476.05   29.40
   4   5   5  452.05   25.50
   4   5   5  445.86   29.60
  -5  -5  -5  311.37   33.00
  -5  -5  -5  374.06   35.60
  -5  -5  -5  560.04   86.69
   5   5   5  374.96   28.30
   5   5   5  452.75   27.50
   5   5   5  376.96   29.70
  -6  -5  -5   67.19   21.20
  -6  -5  -5   51.59   19.90
   6   5   5   59.69   17.50
   6   5   5   76.49   15.70
  -7  -5  -5   38.30   20.40
  -7  -5  -5   76.79   24.90
   7   5   5   30.80   17.30
  10  -6  -5   71.59   16.90
  10  -6  -5   80.29   21.60
  10  -6  -5   67.69   22.10
 -10   6   5   69.69   24.30
   9  -6  -5   28.60   15.70
   9  -6  -5   -3.10   12.00
   9  -6  -5    1.00    8.80
   8  -6  -5  158.08   27.90
   8  -6  -5  100.29   16.90
   8  -6  -5  166.38   24.20
   8  -6  -5  134.19   51.29
   7  -6  -5   27.60    8.40
   7  -6  -5   32.20   12.50
   7  -6  -5   10.20   24.70
   7  -6  -5   13.00   22.20
   7  -6  -5   24.70   11.20
   7  -6  -5   29.90   10.20
  -7   6   5   19.50    7.50
   6  -6  -5    4.90    6.50
   6  -6  -5   -0.30    4.90
   6  -6  -5   10.40   17.40
   6  -6  -5   -0.30   10.40
   6  -6  -5   15.90   10.60
   6  -6  -5   -4.60    5.60
  -6   6   5   -2.70    4.80
   5  -6  -5   72.49   12.30
   5  -6  -5   41.50   10.10
   5  -6  -5    4.10   18.00
   5  -6  -5   54.29   22.10
   5  -6  -5   49.99    8.70
   5  -6  -5   33.30   12.40
  -5   6   5   42.20    9.30
   4  -6  -5  330.67   17.20
   4  -6  -5  333.47   24.20
   4  -6  -5  405.36   55.89
   4  -6  -5  309.07   16.00
   4  -6  -5  290.17   18.70
  -4   6   5  318.97   17.10
  -4   6   5  334.87   19.10
   3  -6  -5  362.36   17.60
   3  -6  -5  364.56   52.29
   3  -6  -5  324.57   13.60
   3  -6  -5  285.97   18.20
   3  -6  -5  361.46   24.10
   3  -6  -5  346.37   67.09
  -3   6   5  344.17   18.80
  -3   6   5  300.47   18.60
  -3   6   5  323.97   16.40
   2  -6  -5   31.40   10.50
   2  -6  -5   16.70   19.00
   2  -6  -5   53.29   10.30
   2  -6  -5   39.40    8.80
   2  -6  -5   55.49   25.20
  -2   6   5   40.20    9.50
  -2   6   5   49.80    8.50
  -2   6   5   44.10    9.90
   1  -6  -5  244.18   53.59
   1  -6  -5  212.18   17.00
   1  -6  -5  202.08   17.50
   1  -6  -5  289.97   59.59
   1  -6  -5  240.78   17.40
   1  -6  -5  174.28   28.40
  -1   6   5  202.98   16.60
  -1   6   5  202.98   16.70
  -1   6   5  185.68   15.00
  -1   6   5  207.88   12.40
   0  -6  -5  822.02   55.99
   0  -6  -5  774.52   31.90
   0  -6  -5  881.11   82.19
   0  -6  -5  872.11   82.19
   0  -6  -5  817.92   31.40
   0  -6  -5  768.52   31.50
   0   6   5  787.62   31.90
   0   6   5  830.92   26.00
   0   6   5  779.82   25.70
   0   6   5  809.02   32.90
  -1  -6  -5  281.87   24.20
  -1  -6  -5  291.67   22.20
  -1  -6  -5  228.98   53.89
  -1  -6  -5  349.07   64.19
  -1  -6  -5  257.47   43.20
   1   6   5  326.57   22.10
   1   6   5  302.17   17.60
   1   6   5  282.77   16.90
   1   6   5  295.77   22.10
  -2  -6  -5  157.78   20.40
  -2  -6  -5  121.39   42.10
  -2  -6  -5  161.58   46.50
  -2  -6  -5  129.79   19.50
  -2  -6  -5  112.79   34.00
   2   6   5  110.39   14.10
   2   6   5  163.48   16.80
   2   6   5  161.08   20.20
   2   6   5  141.89   18.60
  -3  -6  -5   51.09   31.50
  -3  -6  -5   27.00   12.50
  -3  -6  -5   16.30   20.50
  -3  -6  -5   24.10   13.30
   3   6   5   41.50   10.50
   3   6   5   39.20   12.60
   3   6   5   30.10   11.70
   3   6   5   40.80   10.50
  -4  -6  -5  227.68   54.29
  -4  -6  -5  230.18   28.30
   4   6   5  235.08   22.90
   4   6   5  248.98   20.40
   4   6   5  271.67   28.10
   4   6   5  244.18   25.50
  -5  -6  -5  247.98   31.70
  -5  -6  -5  311.97   34.90
   5   6   5  205.18   27.50
   5   6   5  350.36   26.50
  -6  -6  -5  141.89   27.80
  -6  -6  -5  189.88   30.00
   6   6   5  260.77   32.30
   6   6   5  231.48   25.70
  -7  -6  -5   -9.40   16.60
  -7  -6  -5   12.70   21.50
   7   6   5    9.80   15.70
  10  -7  -5    8.70   15.80
  10  -7  -5    9.10   16.10
  10  -7  -5   -1.80   10.30
   9  -7  -5  311.37   53.79
   9  -7  -5  202.18   32.30
   8  -7  -5  120.69   24.00
   8  -7  -5  157.68   23.50
   8  -7  -5   83.49   15.70
   7  -7  -5   44.00   31.10
   7  -7  -5   73.89   15.70
   7  -7  -5   82.79   16.50
  -7   7   5   47.90   11.00
   6  -7  -5    1.30    8.80
   6  -7  -5    4.30    7.40
   6  -7  -5   16.30    9.00
  -6   7   5    6.70    6.40
   5  -7  -5   80.19   13.20
   5  -7  -5   76.19   12.20
   5  -7  -5   68.09   36.40
   5  -7  -5   63.89   15.40
  -5   7   5   71.29   12.30
  -5   7   5   88.39   14.60
   4  -7  -5   77.79   34.30
   4  -7  -5   43.20    7.80
   4  -7  -5   56.79   14.70
   4  -7  -5  146.89   49.50
   4  -7  -5   50.09   13.60
   4  -7  -5   58.19    9.50
  -4   7   5   48.20   10.30
  -4   7   5   32.00    9.00
   3  -7  -5   66.99   28.20
   3  -7  -5   90.49   11.90
   3  -7  -5  114.79   42.50
   3  -7  -5   78.69   16.10
   3  -7  -5  105.79   14.50
  -3   7   5   85.59   12.90
  -3   7   5   61.59   11.30
  -3   7   5  101.59   12.60
   2  -7  -5   37.80   21.30
   2  -7  -5   11.80    7.80
   2  -7  -5   16.90    7.90
   2  -7  -5   41.00   28.70
   2  -7  -5   31.30   10.60
  -2   7   5   23.00    8.70
  -2   7   5   19.40    8.30
  -2   7   5   26.20    8.30
   1  -7  -5  168.18   20.40
   1  -7  -5  209.98   49.70
   1  -7  -5  159.58   17.80
   1  -7  -5  125.69   16.20
  -1   7   5  138.19   17.20
  -1   7   5  137.39   29.50
  -1   7   5  112.89   13.50
   0  -7  -5   95.89   15.50
   0  -7  -5  105.49   15.70
   0  -7  -5   86.39   17.00
   0  -7  -5  127.69   43.70
   0  -7  -5  138.89   43.40
   0  -7  -5  105.19   28.40
   0   7   5  116.59   13.80
   0   7   5  119.99   18.30
   0   7   5   96.49   15.80
   0   7   5   82.49   14.30
  -1  -7  -5   39.90   30.70
  -1  -7  -5   21.10   11.50
  -1  -7  -5   25.00   18.50
  -1  -7  -5   16.00   21.50
   1   7   5   10.80    8.90
   1   7   5   30.30    8.70
   1   7   5   29.30    9.40
   1   7   5   30.80   10.90
  -2  -7  -5  -11.30   14.10
  -2  -7  -5   16.70   29.80
  -2  -7  -5  -13.10   10.00
  -2  -7  -5   -9.00    9.30
   2   7   5    7.40    7.80
   2   7   5   -1.80    7.10
   2   7   5   -1.00    7.70
   2   7   5  -12.50    8.10
  -3  -7  -5   11.30   13.30
  -3  -7  -5   15.80   23.50
  -3  -7  -5    7.80   12.00
  -3  -7  -5    5.80   25.00
   3   7   5   16.20   12.00
   3   7   5   12.00   11.20
   3   7   5   12.90   11.20
   3   7   5    9.90    9.20
  -4  -7  -5    9.80   25.00
  -4  -7  -5    0.80   17.60
  -4  -7  -5    0.20   13.00
   4   7   5    4.70   11.20
   4   7   5   -4.50   10.00
   4   7   5    1.40    9.00
  -5  -7  -5   37.00   28.30
  -5  -7  -5   78.49   21.70
   5   7   5   70.29   18.20
   5   7   5   29.70   15.40
   5   7   5   49.99   16.40
  -6  -7  -5   89.79   24.90
  -6  -7  -5   88.79   24.80
   6   7   5  138.19   26.00
   6   7   5   97.99   19.80
  10  -8  -5   -5.10   10.40
  10  -8  -5    3.20   15.10
  10  -8  -5  -12.10   14.40
   9  -8  -5  136.79   27.80
   9  -8  -5  119.69   22.90
   9  -8  -5  177.18   23.70
   8  -8  -5  597.74   33.50
   8  -8  -5  623.04   42.90
   8  -8  -5  631.44   35.80
   7  -8  -5  750.12   34.80
   7  -8  -5  747.83   44.70
   7  -8  -5  717.53   34.40
  -7   8   5  696.63   33.60
  -7   8   5  668.73   31.40
   6  -8  -5  284.77   32.60
   6  -8  -5  229.98   19.10
  -6   8   5  235.28   22.10
  -6   8   5  260.97   23.90
   5  -8  -5  102.39   49.80
   5  -8  -5   40.90    9.10
   5  -8  -5   51.29   15.70
   5  -8  -5   39.60   11.20
  -5   8   5   41.20   11.40
  -5   8   5   39.70   11.00
   4  -8  -5 1008.20   37.60
   4  -8  -5 1012.30   46.30
  -4   8   5 1059.69   35.50
  -4   8   5 1083.89   39.30
   3  -8  -5  348.47   22.80
   3  -8  -5  340.67   69.29
   3  -8  -5  366.66   28.30
  -3   8   5  403.96   22.20
  -3   8   5  365.26   21.80
  -3   8   5  360.16   23.40
   2  -8  -5  258.97   23.00
   2  -8  -5  304.87   68.69
  -2   8   5  237.88   19.80
  -2   8   5  247.18   20.30
   1  -8  -5   60.19   33.40
   1  -8  -5   25.90   10.40
   1  -8  -5   21.60   10.50
   1  -8  -5    6.50   21.10
   1  -8  -5   25.00   10.80
  -1   8   5   17.60    9.30
  -1   8   5   20.30    9.40
   0  -8  -5   34.50   12.50
   0  -8  -5   16.80   25.90
   0  -8  -5   15.50   21.60
   0  -8  -5   25.30   11.10
   0   8   5   27.00   11.10
   0   8   5   30.60    9.30
   0   8   5   30.70   10.70
  -1  -8  -5  232.58   62.19
  -1  -8  -5  238.88   24.90
  -1  -8  -5  220.68   23.70
  -1  -8  -5  161.18   49.20
   1   8   5  254.47   19.50
   1   8   5  237.48   25.30
   1   8   5  244.28   24.50
  -2  -8  -5   31.20   30.00
  -2  -8  -5   60.39   16.70
  -2  -8  -5   44.50   15.10
   2   8   5   26.00   10.60
   2   8   5   23.30   12.50
   2   8   5   82.59   22.50
  -3  -8  -5    8.50   13.80
  -3  -8  -5   19.40   26.10
   3   8   5   13.50   11.80
   3   8   5   18.00   12.00
   3   8   5   27.70   11.50
  -4  -8  -5    0.10   13.80
  -4  -8  -5   -1.00   14.90
   4   8   5    8.70   13.90
   4   8   5   -4.10   10.80
   4   8   5   17.30   11.40
  -5  -8  -5   20.10   17.90
   5   8   5   13.60   14.80
   5   8   5   21.50   12.70
   9  -9  -5   25.60   15.20
   9  -9  -5    3.60   15.10
   9  -9  -5    2.10   14.10
  -9   9   5   23.60   15.40
   8  -9  -5  139.49   21.30
   8  -9  -5  144.79   26.80
   8  -9  -5  116.29   20.40
  -8   9   5  160.28   20.70
  -8   9   5  125.89   21.40
   7  -9  -5  277.07   22.40
   7  -9  -5  370.56   39.70
   7  -9  -5  322.67   29.70
  -7   9   5  285.37   23.60
  -7   9   5  285.17   28.40
   6  -9  -5  419.66   21.30
   6  -9  -5  445.26   35.90
   6  -9  -5  428.66   28.00
  -6   9   5  486.25   34.80
  -6   9   5  404.26   26.80
   5  -9  -5   22.90   13.40
   5  -9  -5   -0.70    8.10
  -5   9   5   28.40   11.00
   4  -9  -5   37.30   21.50
   4  -9  -5   47.20   13.20
  -4   9   5   24.20   17.00
   3  -9  -5  283.27   71.19
   3  -9  -5  272.87   21.80
   3  -9  -5  286.97   31.30
  -3   9   5  308.27   38.70
  -3   9   5  242.48   20.10
   2  -9  -5  555.74   97.49
   2  -9  -5  490.15   27.80
   2  -9  -5  503.25   32.90
  -2   9   5  519.15   29.10
   1  -9  -5  240.58   27.50
   1  -9  -5  249.97   24.20
  -1   9   5  217.38   24.00
  -1   9   5  231.48   23.70
   0  -9  -5    1.50    9.00
   0  -9  -5    7.90   20.50
   0   9   5    1.10    8.40
   0   9   5    2.40    8.30
  -1  -9  -5  196.08   23.90
  -1  -9  -5  246.18   25.90
   1   9   5  266.67   27.00
   1   9   5  229.88   22.30
   1   9   5  251.27   28.20
  -2  -9  -5  307.67   32.30
  -2  -9  -5  226.78   26.10
   2   9   5  303.27   24.40
   2   9   5  338.97   31.20
   2   9   5  272.27   28.90
  -3  -9  -5  201.18   29.20
  -3  -9  -5  145.49   31.30
   3   9   5  190.48   24.20
   3   9   5  204.78   25.90
   3   9   5  196.48   27.10
  -4  -9  -5   -1.00   16.00
   4   9   5   32.70   17.70
   4   9   5   14.20   12.70
   4   9   5   11.20   13.60
   8 -10  -5   -2.40   11.40
   8 -10  -5    2.40   14.40
   8 -10  -5   14.60   11.80
  -8  10   5    5.40   10.20
   7 -10  -5    5.20    8.50
   7 -10  -5    6.90   14.50
   7 -10  -5   11.30   12.10
  -7  10   5    1.50   11.40
   6 -10  -5  166.18   23.20
  -6  10   5  174.38   23.10
   5 -10  -5   74.59   15.70
   5 -10  -5  134.89   26.30
  -5  10   5   64.99   15.50
   4 -10  -5   28.10   12.20
   4 -10  -5   34.80   16.30
  -4  10   5   16.00   10.60
   3 -10  -5   56.29   14.60
   3 -10  -5   49.50   17.70
  -3  10   5   36.10   13.10
  -3  10   5   66.59   16.40
   2 -10  -5  340.27   30.00
   2 -10  -5  249.78   47.30
  -2  10   5  365.56   28.20
  -2  10   5  340.37   26.20
   1 -10  -5  276.77   30.30
  -1  10   5  283.57   29.40
  -1  10   5  245.58   25.80
   0 -10  -5   29.10   12.90
   0  10   5   21.40   11.40
   0  10   5   -4.10   10.50
  -1 -10  -5    2.10   11.70
   1  10   5    1.70   12.90
   1  10   5    6.50   10.60
   2  10   5   71.19   19.50
   2  10   5   56.49   15.90
   2  10   5   76.59   18.30
   3  10   5   46.70   15.70
   3  10   5   75.89   18.80
   3  10   5   48.30   18.50
   7 -11  -5   34.00   19.40
   7 -11  -5   20.00   13.90
  -7  11   5   33.10   14.80
   6 -11  -5   39.00   18.80
   6 -11  -5   62.99   17.70
  -6  11   5   55.79   17.00
   5 -11  -5   26.70   17.40
  -5  11   5   10.10   11.40
   4 -11  -5  122.19   20.50
  -4  11   5  123.09   20.80
   3 -11  -5  -11.30    9.70
   3 -11  -5  -10.60   12.00
  -3  11   5   -6.00    8.70
  -3  11   5    5.20   10.40
   2 -11  -5   -0.20   11.80
   2 -11  -5   -7.20   10.20
  -2  11   5   -7.20   10.20
  -2  11   5  -12.00    8.00
   1 -11  -5   39.60   14.90
  -1  11   5   30.80   14.70
  -1  11   5   39.80   14.40
   0  11   5   12.80   13.60
   0  11   5   11.30   11.10
   1  11   5   -6.40   10.30
   1  11   5   20.80   15.00
   5 -12  -5  525.75   44.80
   5 -12  -5  535.95   34.90
  -5  12   5  497.35   35.50
   4 -12  -5   85.89   24.80
   4 -12  -5   64.09   17.20
  -4  12   5   85.49   20.10
   3 -12  -5   29.60   14.50
   3 -12  -5   28.30   18.50
  -3  12   5   16.50   13.00
  -2  12   5    9.50   11.90
  -2  12   5    9.70   13.10
  -1  12   5   73.39   19.40
  -1  12   5   32.10   14.30
   0  12  -6   21.30   18.40
   0  12  -6   10.00   13.90
   0 -12   6   23.40   17.90
   0 -12   6    5.80   16.60
  -1  12  -6    0.10   13.20
  -1  12  -6   10.40   17.70
   1 -12   6   20.30   18.40
   1 -12   6   19.90   17.50
  -2  12  -6   63.99   20.70
   2 -12   6   30.20   19.80
   2 -12   6   56.79   21.00
   3  11  -6   -3.70   13.00
   3  11  -6   10.40   15.80
  -3 -11   6    6.90   16.40
   2  11  -6   16.00   14.20
   2  11  -6    9.90   15.40
  -2 -11   6    7.10   22.80
  -2 -11   6   -5.50   14.50
   1  11  -6   10.60   14.50
   1  11  -6    2.20   12.90
   1  11  -6   17.20   11.60
  -1 -11   6    4.80   16.30
  -1 -11   6    7.70   16.70
   0  11  -6   10.60   15.40
   0  11  -6   -4.20   11.10
   0 -11   6    7.00   21.70
  -1  11  -6    0.30   11.80
  -1  11  -6   -3.00   13.50
   1 -11   6   12.60   13.90
  -2  11  -6    1.90   11.70
  -2  11  -6   12.20   14.20
   2 -11   6   14.70   16.70
   2 -11   6    4.40   13.70
  -3  11  -6   18.50   14.30
  -3  11  -6   -5.50   12.90
   3 -11   6    4.40   15.40
   3 -11   6   19.40   16.20
  -4  11  -6    1.10   14.20
  -4  11  -6   41.80   16.80
   4 -11   6   32.30   18.10
   4 -11   6   48.60   20.20
   5  10  -6  155.98   28.60
   5  10  -6  226.38   30.60
  -5 -10   6  283.67   35.90
   4  10  -6   90.79   22.00
   4  10  -6  128.59   24.70
  -4 -10   6  138.29   26.00
   3  10  -6   32.40   15.10
   3  10  -6    3.00   13.40
  -3 -10   6   24.70   16.00
   2  10  -6  263.77   30.10
   2  10  -6  259.57   29.30
  -2 -10   6  245.48   30.10
  -2 -10   6  183.38   27.20
   1  10  -6  531.15   38.50
   1  10  -6  723.33   38.90
   1  10  -6  624.64   32.60
  -1 -10   6  603.04   39.30
  -1 -10   6  651.83   41.30
   0  10  -6  248.58   25.30
   0  10  -6  176.58   26.20
   0  10  -6  314.07   31.10
   0 -10   6  216.58   28.30
   0 -10   6  225.18   28.10
  -1  10  -6   -5.60   10.90
  -1  10  -6    9.80   11.00
   1 -10   6    3.40   12.20
   1 -10   6    9.40   13.30
  -2  10  -6   38.30   14.70
  -2  10  -6   62.29   19.70
   2 -10   6   21.70   15.70
   2 -10   6   46.70   16.90
  -3  10  -6  145.39   27.30
  -3  10  -6  126.69   20.80
   3 -10   6   90.89   21.70
   3 -10   6  133.49   30.80
  -4  10  -6  224.78   29.90
   4 -10   6  212.38   30.20
   4 -10   6  220.98   44.40
   4 -10   6  249.38   20.50
  -5  10  -6  120.29   21.90
  -5  10  -6  109.29   25.00
   5 -10   6  104.29   18.60
   5 -10   6  101.69   24.80
  -6  10  -6   12.70   17.90
  -6  10  -6    9.60   13.80
   6 -10   6   11.10   17.70
   6 -10   6   16.70   15.70
   6   9  -6  263.07   31.70
   6   9  -6  191.48   28.80
   6   9  -6  198.08   28.70
  -6  -9   6  181.28   30.20
   5   9  -6  210.28   28.50
   5   9  -6  236.38   31.80
   5   9  -6  216.28   28.70
  -5  -9   6  234.78   31.90
   4   9  -6  355.16   34.30
   4   9  -6  423.56   33.80
  -4  -9   6  332.37   35.00
  -4  -9   6  372.76   72.49
   3   9  -6    4.00   11.90
   3   9  -6   13.30   11.80
  -3  -9   6    9.00   13.00
  -3  -9   6   13.50   22.60
  -3  -9   6   11.30   13.40
   2   9  -6  172.18   22.20
   2   9  -6  114.79   19.70
   2   9  -6  114.99   21.40
  -2  -9   6  124.79   22.10
  -2  -9   6  104.09   20.10
   1   9  -6  400.86   31.30
   1   9  -6  360.26   27.70
   1   9  -6  350.66   23.50
  -1  -9   6  392.26   31.20
  -1  -9   6  324.27   42.60
   0   9  -6  782.52   41.10
   0   9  -6  819.12   35.40
   0   9  -6  860.81   39.20
   0  -9   6  810.82   59.29
   0  -9   6  898.61   56.19
   0  -9   6  684.13   92.89
  -1   9  -6  642.34   33.50
  -1   9  -6  618.74   36.30
   1  -9   6  631.14   38.20
   1  -9   6  568.14   90.29
  -2   9  -6    8.50   12.00
  -2   9  -6    1.80    8.70
   2  -9   6    3.20   10.90
   2  -9   6    0.90   11.40
   2  -9   6    2.60    6.50
  -3   9  -6  164.78   23.70
  -3   9  -6  191.18   22.40
   3  -9   6  186.88   27.40
   3  -9   6  217.38   19.40
   3  -9   6  156.58   24.60
  -4   9  -6  425.96   28.70
  -4   9  -6  455.65   34.70
   4  -9   6  396.26   26.00
   4  -9   6  432.56   36.20
  -5   9  -6  389.16   28.80
   5  -9   6  545.45   55.69
  -6   9  -6   85.09   22.60
   6  -9   6   50.79   19.80
   6  -9   6   43.10   17.80
  -7   9  -6   27.90   20.60
   7  -9   6   60.79   28.30
   7  -9   6   66.49   22.00
   7   8  -6   15.30   15.90
   7   8  -6   26.10   15.90
   7   8  -6   13.60   15.60
  -7  -8   6    8.80   17.30
   6   8  -6   44.00   17.60
   6   8  -6   20.00   15.80
   6   8  -6   27.90   15.10
  -6  -8   6   13.50   15.70
   5   8  -6   45.70   16.40
   5   8  -6   35.40   15.00
   5   8  -6   39.80   16.00
  -5  -8   6   20.80   26.30
  -5  -8   6   17.30   15.10
   4   8  -6  114.59   20.70
   4   8  -6   83.49   17.00
   4   8  -6  121.59   22.40
  -4  -8   6   82.59   19.10
  -4  -8   6   55.19   35.00
   3   8  -6  217.38   28.00
  -3  -8   6  195.38   49.50
  -3  -8   6  228.68   26.90
  -3  -8   6  248.78   26.20
   2   8  -6  -10.00    5.40
   2   8  -6   13.20    9.40
   2   8  -6    2.20    9.90
  -2  -8   6    2.00   10.70
  -2  -8   6   -2.10   15.30
  -2  -8   6    5.70   10.30
   1   8  -6  177.08   23.00
   1   8  -6  170.68   28.60
   1   8  -6  197.58   22.70
  -1  -8   6  178.28   23.00
  -1  -8   6  202.58   48.70
  -1  -8   6  161.28   21.60
  -1  -8   6  173.18   39.20
   0   8  -6  507.15   30.70
   0   8  -6  479.05   27.50
   0  -8   6  537.05   32.80
   0  -8   6  462.05   30.30
   0  -8   6  611.44   82.79
  -1   8  -6  257.77   21.20
  -1   8  -6  299.47   24.60
   1  -8   6  164.28   46.40
   1  -8   6  258.57   26.50
   1  -8   6  270.07   14.40
   1  -8   6  292.17   29.30
  -2   8  -6  223.38   24.10
  -2   8  -6  219.08   22.00
   2  -8   6  195.88   24.70
   2  -8   6  217.18   16.70
   2  -8   6  265.97   27.70
   2  -8   6  197.48   79.39
  -3   8  -6    5.40   11.00
  -3   8  -6   -3.10    7.40
   3  -8   6  -10.30   12.10
   3  -8   6   10.10    9.20
   3  -8   6   -5.20   16.40
  -4   8  -6  117.29   21.00
  -4   8  -6  111.29   17.20
   4  -8   6  144.09   20.10
   4  -8   6  136.39   23.60
  -5   8  -6  173.98   25.20
   5  -8   6  189.88   27.50
   5  -8   6  207.28   25.00
   6  -8   6  201.68   29.40
   6  -8   6  197.58   26.90
   6  -8   6  217.08   22.50
  -7   8  -6   25.70   16.80
   7  -8   6   16.70   16.30
   7  -8   6   13.70   17.10
   7  -8   6   -1.70   14.50
   8   7  -6   41.20   17.20
   8   7  -6   20.20   17.50
   8   7  -6   35.60   18.40
  -8  -7   6   18.40   18.60
  -8  -7   6   26.70   21.10
   7   7  -6   61.79   20.70
   7   7  -6   80.69   20.80
   7   7  -6   59.09   24.90
  -7  -7   6   53.39   19.70
  -7  -7   6   94.79   22.80
   6   7  -6   -3.50   10.90
   6   7  -6   15.70   12.60
   6   7  -6    5.10   11.50
  -6  -7   6   -5.00   12.10
  -6  -7   6   -1.20   40.90
  -6  -7   6    4.30   14.50
   5   7  -6   35.30   14.10
   5   7  -6   17.60   11.70
   5   7  -6   45.50   14.70
  -5  -7   6   41.90   15.00
  -5  -7   6   49.70   32.30
  -5  -7   6   75.69   18.50
   4   7  -6   10.90   10.60
   4   7  -6   18.20   10.10
   4   7  -6   22.00   10.80
  -4  -7   6   11.20   19.30
  -4  -7   6   19.00   12.20
  -4  -7   6   24.20   12.70
   3   7  -6  157.58   19.70
   3   7  -6  127.59   17.20
   3   7  -6  141.79   21.40
  -3  -7   6  142.89   21.10
  -3  -7   6  141.09   19.80
  -3  -7   6  101.59   33.70
   2   7  -6  252.67   25.20
   2   7  -6  224.18   22.40
   2   7  -6  236.18   16.60
  -2  -7   6  197.38   22.30
  -2  -7   6  180.98   40.80
  -2  -7   6  231.28   24.40
   1   7  -6    8.40    7.10
   1   7  -6   10.80    9.20
  -1  -7   6    0.30   12.30
  -1  -7   6   34.30   24.80
  -1  -7   6    3.10    8.60
  -1  -7   6    6.40    8.70
   0   7  -6   49.30   11.10
   0  -7   6   50.19    8.00
   0  -7   6   44.30   18.30
   0  -7   6   33.10   11.50
   0  -7   6   87.19   30.80
   0  -7   6   62.09   17.40
  -1   7  -6   -6.00    7.00
  -1   7  -6    5.90    6.40
   1  -7   6   -2.10   13.60
   1  -7   6   -5.30    7.70
   1  -7   6   -2.60    8.10
   1  -7   6    8.30    7.60
  -2   7  -6   58.89   11.70
  -2   7  -6   50.19   13.20
   2  -7   6   35.00   13.00
   2  -7   6   52.29   14.10
   2  -7   6   43.20   10.50
   2  -7   6   75.39   34.40
  -3   7  -6   54.79   14.10
   3  -7   6   58.59   30.90
   3  -7   6   65.59   13.60
   3  -7   6   72.39   16.60
  -4   7  -6   22.90   12.50
   4  -7   6   24.40   12.30
   4  -7   6   20.60   11.80
   4  -7   6   18.50    8.20
   4  -7   6   54.19   32.00
  -5   7  -6   61.79   16.10
   5  -7   6   56.99   16.40
   5  -7   6   76.39   12.80
  -6   7  -6  385.46   36.90
  -6   7  -6  352.86   34.10
   6  -7   6  353.76   34.70
   6  -7   6  273.97   31.30
   6  -7   6  320.87   23.90
  -7   7  -6  222.68   30.00
   7  -7   6  226.28   29.20
   7  -7   6  247.08   30.90
   7  -7   6  311.47   27.90
  -8   7  -6   15.50   17.30
   8  -7   6   26.90   19.70
   8  -7   6   15.10   13.60
   9   6  -6   20.10   17.40
   9   6  -6   63.49   19.00
   9   6  -6   18.30   18.00
  -9  -6   6   30.30   23.80
  -9  -6   6   20.50   21.00
   8   6  -6  379.36   37.10
   8   6  -6  338.17   32.70
   8   6  -6  318.57   35.60
  -8  -6   6  387.16   39.20
   7   6  -6  541.05   36.70
   7   6  -6  506.95   36.50
   7   6  -6  542.45   33.70
  -7  -6   6  589.24   40.30
  -7  -6   6  548.35   40.30
   6   6  -6  126.69   21.00
   6   6  -6   94.69   18.60
   6   6  -6  149.39   21.60
  -6  -6   6   86.69   40.10
  -6  -6   6  189.18   26.30
  -6  -6   6  156.58   55.99
  -6  -6   6  173.68   24.90
   5   6  -6   18.70   11.90
   5   6  -6   15.40   10.30
   5   6  -6   24.80   11.40
  -5  -6   6   29.10   23.30
  -5  -6   6   44.70   14.20
  -5  -6   6   -2.30   18.60
   4   6  -6  673.83   33.40
   4   6  -6  674.33   31.20
   4   6  -6  665.63   31.80
  -4  -6   6  648.44  105.19
  -4  -6   6  706.43   31.90
  -4  -6   6  695.63   35.80
  -4  -6   6  605.54   88.79
  -4  -6   6  619.84   30.30
   3   6  -6  673.93   28.70
   3   6  -6  668.03   32.20
  -3  -6   6  626.64   71.99
  -3  -6   6  583.04   91.19
  -3  -6   6  604.04   38.30
  -3  -6   6  673.53   30.90
   2   6  -6  888.31   30.10
   2   6  -6  941.11   34.80
   2   6  -6  941.01   36.70
  -2  -6   6  966.00   73.59
  -2  -6   6 1053.19   72.09
  -2  -6   6  950.10   67.29
  -2  -6   6  948.11   38.30
  -2  -6   6  925.81   36.60
   1   6  -6    6.40    5.90
   1   6  -6    0.50    7.10
  -1  -6   6   -1.00    7.20
  -1  -6   6   -3.50    7.30
  -1  -6   6    6.70   13.30
  -1  -6   6    5.10   12.40
  -1  -6   6    1.90    4.70
   0   6  -6  144.29   17.20
   0   6  -6  148.29   15.70
   0  -6   6  143.29   40.20
   0  -6   6  179.18   19.70
   0  -6   6  176.38   12.70
   0  -6   6  182.08   20.10
  -1   6  -6  345.77   21.80
  -1   6  -6  422.56   36.60
  -1   6  -6  334.37   19.10
   1  -6   6  377.16   24.60
   1  -6   6  358.06   58.39
   1  -6   6  369.96   24.70
   1  -6   6  329.57   18.70
  -2   6  -6  497.65   39.80
  -2   6  -6  511.25   26.50
   2  -6   6  461.55   23.90
   2  -6   6  492.45   28.20
   2  -6   6  445.36   72.09
  -3   6  -6  173.78   30.00
   3  -6   6  242.08   25.00
   3  -6   6  104.69   38.60
   3  -6   6  194.58   20.40
  -4   6  -6    6.00    9.20
   4  -6   6   11.70    7.40
   4  -6   6   32.20   28.70
   4  -6   6    5.20    8.90
   4  -6   6   16.70   10.60
  -5   6  -6   23.50   12.90
   5  -6   6   58.99   16.30
   5  -6   6   86.59   45.40
   5  -6   6   39.70   10.70
   5  -6   6   46.60   14.40
  -6   6  -6   38.30   15.90
   6  -6   6   15.20   14.50
   6  -6   6   46.10   15.20
   7  -6   6   10.20   15.50
   7  -6   6   -1.10    9.40
  -8   6  -6   56.09   20.80
   8  -6   6   66.29   16.90
   8  -6   6   67.19   22.50
   9   5  -6   26.10   17.30
   9   5  -6   12.70   14.20
   9   5  -6   20.00   13.80
  -9  -5   6   -2.10   15.70
  -9  -5   6   -1.50   17.20
   8   5  -6  136.69   24.40
   8   5  -6  122.19   21.40
   8   5  -6  139.29   21.00
  -8  -5   6  119.19   25.00
  -8  -5   6  116.99   24.60
   7   5  -6  305.37   29.40
   7   5  -6  364.66   38.20
   7   5  -6  349.07   29.20
  -7  -5   6  308.17   39.00
  -7  -5   6  280.77   15.90
  -7  -5   6  315.17   32.90
  -7  -5   6  316.87   64.99
   6   5  -6  337.87   24.50
   6   5  -6  329.97   26.10
   6   5  -6  300.37   24.70
  -6  -5   6  349.77   28.70
  -6  -5   6  309.87   29.90
  -6  -5   6  208.28   60.49
  -6  -5   6  295.47   58.99
  -6  -5   6  304.07   15.80
   5   5  -6  122.89   18.60
   5   5  -6   95.79   16.00
   5   5  -6  163.28   31.20
  -5  -5   6  110.59   18.40
  -5  -5   6   92.59   37.70
  -5  -5   6  122.29   11.50
  -5  -5   6   95.59   18.30
  -5  -5   6   84.39   31.10
   4   5  -6   40.90   10.70
   4   5  -6   20.80    8.60
   4   5  -6   33.10   11.10
  -4  -5   6   60.39   21.00
  -4  -5   6   19.30   18.00
  -4  -5   6   24.60   22.60
  -4  -5   6   44.40    7.60
  -4  -5   6   14.30    9.60
   3   5  -6  486.05   25.60
   3   5  -6  468.05   23.50
   3   5  -6  476.75   22.40
  -3  -5   6  510.35   35.70
  -3  -5   6  504.45   18.20
  -3  -5   6  551.34   74.29
  -3  -5   6  395.26   55.59
  -3  -5   6  470.15   26.60
   2   5  -6 1644.84   38.40
   2   5  -6 1624.44   45.60
   2   5  -6 1670.93   33.80
   2   5  -6 1711.33   43.80
  -2  -5   6 1693.73   48.60
  -2  -5   6 1557.24   87.89
  -2  -5   6 1795.82   87.49
  -2  -5   6 1656.23   47.10
  -2  -5   6 1632.44   34.60
  -2  -5   6 1632.94   85.19
   1   5  -6  783.92   33.70
   1   5  -6  782.02   45.40
   1   5  -6  763.52   27.40
  -1  -5   6  796.62   32.00
  -1  -5   6  808.62   31.80
  -1  -5   6  753.72   23.60
  -1  -5   6  789.32   62.99
   0   5  -6    2.60    8.50
   0   5  -6   22.70   10.80
   0   5  -6    3.60    4.80
   0   5  -6   -0.10    6.10
   0  -5   6    0.40    6.30
   0  -5   6   11.80    7.60
   0  -5   6    0.10    4.60
   0  -5   6    5.10   11.80
  -1   5  -6  710.93   46.00
  -1   5  -6  674.23   36.90
   1  -5   6  700.63   30.90
   1  -5   6  656.43   29.30
   1  -5   6  612.94   74.49
   1  -5   6  716.83   26.50
  -2   5  -6 1616.24   71.99
  -2   5  -6 1725.23   45.70
   2  -5   6 1533.55  104.89
   2  -5   6 1630.54   44.70
   2  -5   6 1723.63   49.40
   2  -5   6 1669.93   34.40
  -3   5  -6 1446.06   43.00
  -3   5  -6 1452.45   72.69
   3  -5   6 1447.26   35.20
   3  -5   6 1457.75   46.60
   3  -5   6 1413.26   45.10
   3  -5   6 1562.44  111.29
  -4   5  -6   34.90   11.80
  -4   5  -6   47.00   20.00
   4  -5   6   36.10   28.20
   4  -5   6   43.00   12.50
   4  -5   6   29.00    8.60
   4  -5   6   43.30   13.00
  -5   5  -6  158.08   35.00
  -5   5  -6  134.59   20.50
  -5   5  -6  122.69   21.30
   5  -5   6  110.89   17.00
   5  -5   6  118.49   15.20
   5  -5   6  115.19   19.80
  -6   5  -6  370.36   36.40
  -6   5  -6  359.96   29.10
   6  -5   6  345.87   32.80
   6  -5   6  285.87   27.30
   6  -5   6  332.57   23.00
  -7   5  -6  312.87   33.40
  -7   5  -6  300.27   43.40
   7  -5   6  302.47   33.30
   7  -5   6  310.37   24.80
  -8   5  -6  283.27   34.30
  -8   5  -6  281.47   38.40
   8  -5   6  367.16   28.70
   8  -5   6  398.36   55.89
  10   4  -6   -6.00   12.20
  10   4  -6   -6.80   13.40
 -10  -4   6   10.60   12.70
 -10  -4   6   -2.60   17.90
 -10  -4   6   -4.80   15.40
   9   4  -6   71.99   16.10
   9   4  -6   57.59   18.40
  -9  -4   6  110.79   24.70
  -9  -4   6  104.19   26.30
  -9  -4   6  111.29   16.70
   8   4  -6   54.29   15.90
   8   4  -6   49.99   15.20
   8   4  -6   39.60   13.60
  -8  -4   6   51.09   19.20
  -8  -4   6   57.59   13.00
  -8  -4   6   47.10   17.70
   7   4  -6    8.90    9.90
   7   4  -6   24.50   12.40
   7   4  -6   35.70   14.00
  -7  -4   6   16.00   24.20
  -7  -4   6   24.70    9.50
  -7  -4   6   11.30   18.40
  -7  -4   6   25.40   14.40
  -7  -4   6   10.90   23.80
   6   4  -6   60.29   13.20
   6   4  -6   72.79   14.30
   6   4  -6   96.99   17.20
  -6  -4   6   93.39   16.80
  -6  -4   6   47.30   35.00
  -6  -4   6   75.79   32.70
  -6  -4   6   87.09   12.60
   5   4  -6   63.89   12.80
   5   4  -6   56.19   12.80
   5   4  -6   27.80    9.20
  -5  -4   6   66.99   29.60
  -5  -4   6   58.09   15.00
  -5  -4   6   21.40   22.60
  -5  -4   6   51.29   11.10
  -5  -4   6   62.49    9.60
   4   4  -6  279.57   18.20
   4   4  -6  267.07   17.80
   4   4  -6  304.77   20.20
  -4  -4   6  323.77   52.29
  -4  -4   6  335.37   20.40
  -4  -4   6  339.37   58.99
  -4  -4   6  306.17   16.20
  -4  -4   6  264.37   20.50
   3   4  -6  130.39   10.50
   3   4  -6  125.59   13.10
   3   4  -6  102.89   14.40
   3   4  -6  147.49   14.70
   3   4  -6  115.89   28.70
  -3  -4   6  129.29   15.30
  -3  -4   6  145.89   17.10
  -3  -4   6  126.19   12.40
  -3  -4   6  109.79   29.80
  -3  -4   6  145.49   29.40
   2   4  -6  878.91   30.20
   2   4  -6  893.41   22.80
   2   4  -6  852.81   27.80
   2   4  -6  691.43  347.87
   2   4  -6  807.42   51.59
   2   4  -6  879.11   24.70
  -2  -4   6  870.01   31.20
  -2  -4   6  926.11   61.39
  -2  -4   6  770.92  295.77
  -2  -4   6  773.22   56.29
  -2  -4   6  874.71   32.50
  -2  -4   6  873.31   25.60
   1   4  -6  957.40   51.09
   1   4  -6 1013.20   53.79
   1   4  -6  951.80   30.50
   1   4  -6  950.50   28.10
  -1  -4   6 1026.70   67.19
  -1  -4   6  911.91   32.50
  -1  -4   6  985.00   28.20
  -1  -4   6  635.04  302.17
  -1  -4   6 1008.80   33.60
   0   4  -6   45.30    7.80
   0   4  -6   62.49   17.80
   0   4  -6  -22.40  297.57
   0   4  -6   66.49   10.70
   0   4  -6   22.90   10.60
   0  -4   6   55.49    9.30
   0  -4   6   35.40    8.80
   0  -4   6   33.00   18.40
   0  -4   6  167.38  291.17
   0  -4   6   39.70    9.10
  -1   4  -6  132.09   14.30
  -1   4  -6   50.89  373.66
  -1   4  -6   95.59   21.40
  -1   4  -6  116.29   22.40
   1  -4   6  122.89   13.90
   1  -4   6  100.09   13.70
   1  -4   6   68.89   25.50
   1  -4   6 -107.59  307.97
  -2   4  -6  949.80   54.49
  -2   4  -6  433.76  466.45
  -2   4  -6  882.21   29.60
  -2   4  -6  809.22   52.59
  -2   4  -6  947.41   36.90
   2  -4   6  905.21   32.80
   2  -4   6  923.91   24.30
   2  -4   6  882.11   75.39
   2  -4   6  923.61   36.40
  -3   4  -6 1031.60   41.50
  -3   4  -6 1011.40   61.99
  -3   4  -6 1005.90   36.40
  -3   4  -6 1252.57  110.39
   3  -4   6 1071.39   37.00
   3  -4   6 1181.38   92.09
   3  -4   6 1040.70   38.00
   3  -4   6 1013.70   28.80
  -4   4  -6  573.64   33.20
  -4   4  -6  719.73  104.69
  -4   4  -6  600.64   65.49
   4  -4   6  598.24   31.30
   4  -4   6  479.95   74.29
   4  -4   6  574.64   28.20
   4  -4   6  611.74   24.40
  -5   4  -6   94.49   16.60
  -5   4  -6   54.49   16.80
  -5   4  -6  121.89   34.80
   5  -4   6   82.99   35.60
   5  -4   6   74.09   16.30
   5  -4   6   64.09   11.50
   5  -4   6   66.59   13.90
  -6   4  -6  134.29   23.30
   6  -4   6  118.79   16.70
   6  -4   6   89.09   36.60
   6  -4   6  150.98   23.80
  -7   4  -6  460.35   33.30
  -7   4  -6  429.86   42.90
   7  -4   6  463.75   28.70
   7  -4   6  488.15   54.49
  -8   4  -6  540.85   44.40
  -8   4  -6  583.74   39.80
   8  -4   6  660.93   45.70
   8  -4   6  553.14   34.00
  -9   4  -6   89.89   28.50
  -9   4  -6   64.59   23.70
   9  -4   6   56.79   18.20
  10   3  -6   33.40   17.50
  10   3  -6   30.50   17.80
 -10  -3   6   46.30   20.90
 -10  -3   6   53.69   16.60
 -10  -3   6   27.00   20.00
   9   3  -6   38.10   15.90
   9   3  -6   14.40   11.20
  -9  -3   6   28.40   16.50
  -9  -3   6   14.90   12.20
  -9  -3   6   24.30   16.60
   8   3  -6   63.99   15.40
   8   3  -6   49.40   13.10
   8   3  -6   71.29   17.10
  -8  -3   6   60.59   31.10
  -8  -3   6   83.39   16.00
  -8  -3   6   73.69   19.60
  -8  -3   6   30.40   15.10
   7   3  -6  182.08   19.50
   7   3  -6  215.18   23.60
   7   3  -6  213.58   23.50
  -7  -3   6  210.38   21.00
  -7  -3   6  191.08   24.30
  -7  -3   6  121.49   39.40
   6   3  -6  239.08   20.00
   6   3  -6  226.18   20.20
   6   3  -6  267.97   25.30
  -6  -3   6  215.48   17.10
  -6  -3   6  205.48   59.39
  -6  -3   6  336.47   76.49
  -6  -3   6  281.17   26.20
  -6  -3   6  234.38   16.90
   5   3  -6   10.20    7.20
   5   3  -6   18.80    7.60
  -5  -3   6    0.40    7.00
  -5  -3   6   10.90    6.50
  -5  -3   6   13.80   17.30
  -5  -3   6   14.90    7.80
  -5  -3   6    8.10   15.80
   4   3  -6   76.99   24.70
   4   3  -6   79.19   11.10
   4   3  -6   96.09   11.30
   4   3  -6   76.59   12.20
  -4  -3   6   61.89   10.90
  -4  -3   6   91.09   11.50
  -4  -3   6  101.59   14.70
   3   3  -6  329.57   16.60
   3   3  -6  348.07   15.20
   3   3  -6  445.86   53.89
   3   3  -6  345.17   18.40
  -3  -3   6  656.43  283.17
  -3  -3   6  338.37   16.70
  -3  -3   6  361.06   41.90
  -3  -3   6  346.27   47.60
  -3  -3   6  392.56   21.50
  -3  -3   6  335.97   19.40
   2   3  -6   73.09   18.20
   2   3  -6  113.59   11.20
   2   3  -6  116.09   25.10
   2   3  -6  112.99    8.60
   2   3  -6  177.08  256.17
  -2  -3   6  107.19   13.30
  -2  -3   6  128.79   14.10
  -2  -3   6  124.59   10.60
  -2  -3   6  159.88   39.20
  -2  -3   6  323.97  226.68
   1   3  -6    8.60    8.80
   1   3  -6  -77.79  248.58
   1   3  -6    3.20    3.90
   1   3  -6    9.10    8.30
   1   3  -6    3.80    4.50
  -1  -3   6    3.90    4.70
  -1  -3   6    7.90   11.90
  -1  -3   6   -4.20    4.50
  -1  -3   6    3.50    5.50
  -1  -3   6  166.68  247.08
   0   3  -6  100.19   21.40
   0   3  -6    6.90  269.47
   0   3  -6   62.99    8.90
   0   3  -6  124.89   25.20
   0  -3   6   60.09    9.90
   0  -3   6   83.59   10.80
   0  -3   6   75.29   11.30
   0  -3   6   83.99   24.20
   0  -3   6 -231.38  274.47
  -1   3  -6  227.98   34.20
  -1   3  -6  164.98   28.10
  -1   3  -6 -103.69  308.17
   1  -3   6  165.18   15.90
   1  -3   6  125.49   32.40
   1  -3   6  173.68   14.60
   1  -3   6  217.08  293.67
  -2   3  -6   47.70   12.00
  -2   3  -6   47.40    9.50
  -2   3  -6   43.00   29.70
  -2   3  -6 -235.48  341.87
  -2   3  -6   55.19   19.50
   2  -3   6   71.19   11.80
   2  -3   6  416.86  376.56
   2  -3   6   80.19    9.30
   2  -3   6   76.19   27.90
   2  -3   6   60.29   11.70
  -3   3  -6  231.88   43.80
  -3   3  -6  548.15  433.16
  -3   3  -6  219.58   17.80
  -3   3  -6  268.97   25.30
  -3   3  -6  278.77   43.50
   3  -3   6  246.38   14.30
   3  -3   6  248.38   22.50
   3  -3   6  217.88  475.95
   3  -3   6  259.27   53.49
   3  -3   6  211.58   16.90
  -4   3  -6  202.88   20.60
  -4   3  -6  144.29   20.40
  -4   3  -6  143.99   15.50
  -4   3  -6  185.68   37.40
  -4   3  -6  192.08   45.10
   4  -3   6  209.68   21.70
   4  -3   6  183.18   14.70
   4  -3   6  197.98   22.30
  -5   3  -6   25.80   13.30
  -5   3  -6   29.40   10.70
  -5   3  -6   19.30    9.60
  -5   3  -6   20.20   22.60
  -5   3  -6    7.60   15.10
   5  -3   6   22.50   10.10
   5  -3   6   20.10   11.80
   5  -3   6   45.80   30.70
   5  -3   6   41.30   10.10
  -6   3  -6   -8.80   16.10
  -6   3  -6   -2.70    9.60
  -6   3  -6   13.00   12.20
  -6   3  -6   -0.20   11.80
   6  -3   6   -7.50   10.70
   6  -3   6  -10.50   14.60
   6  -3   6    1.10    8.30
  -7   3  -6   97.49   23.10
  -7   3  -6   96.19   19.90
  -7   3  -6  128.79   39.90
   7  -3   6  131.39   23.60
   7  -3   6   80.19   39.70
   7  -3   6  114.09   18.10
  -8   3  -6   19.50   19.00
  -8   3  -6   17.50   15.90
   8  -3   6   39.30   14.00
  -9   3  -6   41.60   19.70
  -9   3  -6   41.80   23.80
  10   2  -6  466.45   36.10
 -10  -2   6  481.55   47.90
 -10  -2   6  581.34   42.70
 -10  -2   6  436.66   33.00
   9   2  -6  712.43   33.90
   9   2  -6  725.03   40.70
  -9  -2   6  711.33   37.60
  -9  -2   6  672.03   43.10
  -9  -2   6  771.92   43.50
   8   2  -6  261.57   37.40
   8   2  -6  195.58   20.00
  -8  -2   6  237.48   37.00
  -8  -2   6  275.57   61.29
   7   2  -6   -8.20    6.50
   7   2  -6   10.40    7.60
  -7  -2   6   21.00   29.30
  -7  -2   6    2.20    9.10
  -7  -2   6    6.40    7.70
  -7  -2   6   -1.80   15.90
   6   2  -6  261.17   19.20
   6   2  -6  264.97   17.20
  -6  -2   6  297.37   18.20
  -6  -2   6  242.48   18.30
  -6  -2   6  252.87   20.90
  -6  -2   6  257.47   60.39
  -6  -2   6  302.37   54.19
   5   2  -6 1467.65   37.70
   5   2  -6 1541.15   38.80
   5   2  -6 1479.35   40.60
   5   2  -6 1420.26   87.59
  -5  -2   6 1439.86   85.99
  -5  -2   6 1535.05   39.70
  -5  -2   6 1522.35   44.50
  -5  -2   6 1520.95   41.60
   4   2  -6  136.59   11.10
   4   2  -6  153.38   12.60
   4   2  -6  325.77  306.57
   4   2  -6  198.88   38.60
   4   2  -6  134.99   10.80
   4   2  -6  211.48   35.40
  -4  -2   6  155.28   15.30
  -4  -2   6  139.49  255.67
  -4  -2   6  155.58   16.10
  -4  -2   6  109.09   27.60
   3   2  -6   64.89    9.60
   3   2  -6   76.39    9.00
   3   2  -6  505.95  294.07
   3   2  -6   63.19    8.50
   3   2  -6   50.39   18.40
  -3  -2   6   40.40   17.80
  -3  -2   6   70.69   10.80
  -3  -2   6   51.39    8.60
  -3  -2   6 -168.18  226.18
  -3  -2   6   71.79   19.60
  -3  -2   6   52.99    9.80
   2   2  -6  398.96   41.30
   2   2  -6  145.69  234.68
   2   2  -6  383.26   15.10
   2   2  -6  370.76   14.60
   2   2  -6  329.77   42.10
  -2  -2   6  343.57   16.70
  -2  -2   6  453.95   51.59
  -2  -2   6  349.07  217.38
  -2  -2   6  389.66   21.60
  -2  -2   6  387.96   19.60
   1   2  -6  598.94   45.00
   1   2  -6  638.54   19.10
   1   2  -6  647.14   48.80
   1   2  -6  866.41  317.07
  -1  -2   6  631.04   22.90
  -1  -2   6  701.43  232.38
  -1  -2   6  647.44   24.00
  -1  -2   6  662.53   52.69
   0   2  -6 1505.25   98.89
   0   2  -6 1422.36  328.97
   0   2  -6 1663.13   74.19
   0  -2   6 1607.64   39.10
   0  -2   6 1706.43   86.89
   0  -2   6 1645.04   39.80
   0  -2   6 1689.43   38.90
   0  -2   6 1633.74  321.57
  -1   2  -6  278.37   37.70
  -1   2  -6  252.57   18.00
  -1   2  -6  316.87  320.47
   1  -2   6  315.37   20.70
   1  -2   6  228.98  460.55
   1  -2   6  276.97   16.30
   1  -2   6  223.88   40.80
  -2   2  -6   19.00   14.90
  -2   2  -6   16.80    6.50
  -2   2  -6   10.70    7.50
  -2   2  -6   27.70  322.57
  -2   2  -6    4.20   11.00
  -2   2  -6   14.90    6.30
   2  -2   6   12.20    7.20
   2  -2   6   14.90    6.60
   2  -2   6  346.67  342.27
   2  -2   6   39.30   21.50
  -3   2  -6   46.70    9.80
  -3   2  -6   35.20   20.00
  -3   2  -6  242.98  444.46
  -3   2  -6   43.00   12.20
  -3   2  -6   89.79   27.90
   3  -2   6   61.49   27.40
   3  -2   6   33.50    8.40
   3  -2   6   56.79   11.90
  -4   2  -6  650.73   33.80
  -4   2  -6  653.23   28.40
  -4   2  -6  707.33   60.49
  -4   2  -6  671.73   30.00
  -4   2  -6  737.73   89.79
   4  -2   6  716.13   26.60
   4  -2   6  674.93   32.30
   4  -2   6  723.33   27.30
   4  -2   6  693.73   84.39
  -5   2  -6  227.68   22.90
  -5   2  -6  148.19   50.19
  -5   2  -6  303.87   53.89
  -5   2  -6  257.77   24.00
  -5   2  -6  335.07   35.80
   5  -2   6  301.97   27.70
   5  -2   6  322.67   63.19
   5  -2   6  250.27   18.50
  -6   2  -6   33.70   36.30
  -6   2  -6    6.60   11.40
  -6   2  -6   20.70   21.00
  -6   2  -6   -5.70   12.00
  -6   2  -6   -3.80    8.90
   6  -2   6   13.00   21.10
   6  -2   6   -2.00    7.90
   6  -2   6    3.80   12.20
  -7   2  -6    3.50   14.90
  -7   2  -6    2.40   20.20
  -7   2  -6   18.40   13.40
  -7   2  -6   -1.10   11.80
  -7   2  -6   28.60   38.80
   7  -2   6   -6.90   23.60
  -8   2  -6   12.10   22.20
  -8   2  -6    4.80   15.20
  -9   2  -6  -13.30   14.10
  -9   2  -6   20.50   20.10
  11   1  -6   16.40   15.20
 -11  -1   6    5.80   16.70
 -11  -1   6   10.00   15.00
 -11  -1   6    1.80   16.50
  10   1  -6  131.59   23.60
 -10  -1   6  208.28   32.00
 -10  -1   6  163.18   26.80
 -10  -1   6  144.39   24.90
   9   1  -6 1231.68   49.90
  -9  -1   6 1165.98   49.10
  -9  -1   6 1202.48  104.39
  -9  -1   6 1290.07   53.59
   8   1  -6  510.25   25.20
  -8  -1   6  378.76   85.69
  -8  -1   6  529.25   78.09
  -8  -1   6  562.14   32.50
  -8  -1   6  573.54   33.60
   7   1  -6  178.88   12.90
   7   1  -6  185.18   16.40
  -7  -1   6  174.78   15.20
  -7  -1   6  227.58   22.40
  -7  -1   6  223.88   59.69
  -7  -1   6  225.38   50.19
  -7  -1   6  240.48   24.10
   6   1  -6  217.88   14.50
   6   1  -6  210.58   15.50
   6   1  -6  214.98   12.20
   6   1  -6  216.98   16.60
  -6  -1   6  258.27   19.90
  -6  -1   6  228.28   18.80
  -6  -1   6  271.57   47.70
  -6  -1   6  191.68   14.90
   5   1  -6 1208.68   33.70
   5   1  -6 1185.18   25.90
   5   1  -6 1311.77   68.09
   5   1  -6 1225.48   33.70
   5   1  -6 1117.09   75.79
   5   1  -6 1469.95  380.66
  -5  -1   6  909.81  362.86
  -5  -1   6 1249.18   35.30
  -5  -1   6 1246.58   38.70
  -5  -1   6 1265.27   38.30
  -5  -1   6 1237.48   74.99
   4   1  -6 4505.75  139.19
   4   1  -6 4612.34   70.89
   4   1  -6 4461.95  154.48
   4   1  -6 4342.47  470.65
   4   1  -6 4538.65   70.89
  -4  -1   6 4677.43  481.65
  -4  -1   6 4580.34  137.29
  -4  -1   6 4587.04   76.69
  -4  -1   6 4637.64   75.59
  -4  -1   6 4560.94   77.09
   3   1  -6  686.23  254.97
   3   1  -6 1113.79   71.99
   3   1  -6 1187.78   56.19
   3   1  -6 1128.49   65.59
   3   1  -6 1133.59   28.30
  -3  -1   6 1224.78   33.40
  -3  -1   6 1168.48   31.60
  -3  -1   6 1167.88  257.37
  -3  -1   6 1180.38   32.30
   2   1  -6   10.20    4.40
   2   1  -6   23.60   13.70
   2   1  -6   13.30    9.70
   2   1  -6  -13.40  228.88
  -2  -1   6   14.60   14.00
  -2  -1   6  155.08  206.48
  -2  -1   6    9.00    5.30
  -2  -1   6   16.80    5.90
   1   1  -6 1501.05   72.79
   1   1  -6 1751.52  316.77
   1   1  -6 1446.56   31.20
   1   1  -6 1411.96   60.69
  -1  -1   6 1517.65  284.07
  -1  -1   6 1432.86   73.89
  -1  -1   6 1420.86   35.90
   0   1  -6 3462.25  119.29
   0   1  -6 3429.36  101.89
   0   1  -6 4169.28  487.95
   0   1  -6 3314.87   54.39
   0  -1   6 3410.56  124.19
   0  -1   6 2158.28  348.47
   0  -1   6 3299.87   58.39
  -1   1  -6 2665.73   48.00
  -1   1  -6 2642.94   93.79
  -1   1  -6 2518.95  428.26
  -1   1  -6 2642.24   56.89
  -1   1  -6 2487.35  106.09
  -1   1  -6 2518.75   48.10
   1  -1   6 2645.24  381.56
   1  -1   6 2499.25  110.99
   1  -1   6 2513.05   49.20
  -2   1  -6  308.57  332.57
  -2   1  -6  596.94   27.70
  -2   1  -6  632.74   23.10
  -2   1  -6  562.04   46.90
  -2   1  -6  718.73   62.29
  -2   1  -6  638.14   24.10
   2  -1   6  590.64   22.30
   2  -1   6 1194.68  342.77
   2  -1   6  581.04   25.40
   2  -1   6  636.24   60.29
  -3   1  -6  107.59   16.10
  -3   1  -6  133.59   32.90
  -3   1  -6  105.29   14.00
  -3   1  -6   83.39   41.30
  -3   1  -6  123.39   14.10
   3  -1   6   90.99   12.50
   3  -1   6  120.49   34.30
   3  -1   6  136.19   25.60
  -4   1  -6  653.03   30.10
  -4   1  -6  675.63   33.20
  -4   1  -6  669.13   29.10
  -4   1  -6  735.93   63.49
  -4   1  -6  673.93   90.49
   4  -1   6  671.43   31.20
   4  -1   6  858.31   76.59
   4  -1   6  645.94   31.20
   4  -1   6  708.03   26.60
  -5   1  -6  444.26   64.69
  -5   1  -6  462.35   31.90
  -5   1  -6  418.56   27.60
  -5   1  -6  469.35   30.60
  -5   1  -6  483.25   88.09
  -6   1  -6  383.96   29.20
  -6   1  -6  301.07   77.99
  -6   1  -6  414.96   28.60
  -6   1  -6  381.46   30.40
  -6   1  -6  360.96   63.49
   6  -1   6  303.07   58.39
  -7   1  -6  111.09   22.50
  -7   1  -6   77.89   35.40
  -7   1  -6  138.59   22.00
  -8   1  -6   52.09   20.30
  -8   1  -6   36.10   28.20
  -8   1  -6   37.00   18.40
  -9   1  -6   92.29   23.50
  -9   1  -6   78.69   23.90
  -9   1  -6  132.59   29.70
  11   0  -6   13.80   14.80
 -11   0   6   77.59   24.80
 -11   0   6   24.40   18.40
 -11   0   6   37.70   18.80
  10   0  -6    8.10   11.90
 -10   0   6   17.90   14.70
   9   0  -6  131.79   16.40
  -9   0   6  110.09   21.10
  -9   0   6   99.99   20.20
  -9   0   6   87.09   40.00
   8   0  -6   48.00    9.90
  -8   0   6   36.90   12.90
  -8   0   6   74.49   16.70
  -8   0   6   80.89   46.60
  -8   0   6   74.59   34.40
   7   0  -6  124.19   19.00
   7   0  -6  156.88   14.40
   7   0  -6  153.38   14.50
  -7   0   6  163.88   45.00
  -7   0   6  206.88   56.79
  -7   0   6  159.28   19.50
  -7   0   6  203.38   36.10
   6   0  -6   14.10    6.50
   6   0  -6    9.00    4.90
   6   0  -6   25.60   18.80
   6   0  -6    1.00    6.80
   6   0  -6    0.50    4.20
  -6   0   6    5.10    6.00
  -6   0   6    5.20    6.50
  -6   0   6   -4.90   10.20
  -6   0   6   -5.20    6.60
   5   0  -6  590.14   19.20
   5   0  -6  653.83   76.29
   5   0  -6   82.19  332.97
   5   0  -6  629.24   56.89
   5   0  -6  567.74   29.00
   5   0  -6  552.34   27.10
  -5   0   6  551.04   23.10
  -5   0   6  570.94   24.50
  -5   0   6  604.84   27.00
  -5   0   6  599.74   50.19
  -5   0   6  -21.70  354.76
   4   0  -6 1827.72   93.29
   4   0  -6 1717.03   45.70
   4   0  -6 1757.92   88.79
   4   0  -6 1724.83   37.30
   4   0  -6 1692.13   37.80
   4   0  -6 1894.21  399.06
  -4   0   6 1692.93   45.50
  -4   0   6 1982.30  345.77
  -4   0   6 1673.03   40.60
  -4   0   6 1711.63   78.29
  -4   0   6 1712.03   42.40
   3   0  -6 1072.09   51.39
   3   0  -6 1111.49   66.19
   3   0  -6 1146.69   28.50
   3   0  -6 1302.67  401.76
  -3   0   6  317.07  229.78
  -3   0   6 1070.59   30.60
  -3   0   6 1080.79   31.30
   2   0  -6  500.55   67.39
   2   0  -6  406.86   31.60
   2   0  -6  480.15   43.10
   2   0  -6 -240.58  187.78
   2   0  -6  420.96   16.50
  -2   0   6   87.39  331.47
  -2   0   6  412.96   18.50
   1   0  -6   24.40    6.20
   1   0  -6   10.20    8.80
   1   0  -6   24.40   14.10
   1   0  -6 -200.28  212.98
  -1   0   6   17.80    6.30
  -1   0   6  138.19  228.18
  -1   0   6   24.20   14.50
   0   0  -6 1059.39   30.20
   0   0  -6 1086.79   68.59
   0   0  -6 2276.57  374.26
   0   0  -6 1065.69   33.10
   0   0  -6 1123.49   55.89
   0   0  -6 1069.59   28.80
   0   0   6  989.40  251.77
   0   0   6 1062.29   29.10
   0   0   6 1151.38   69.89
  -1   0  -6 1309.77  321.17
  -1   0  -6 1580.34   90.59
  -1   0  -6 1634.14   41.60
  -1   0  -6 1656.23   39.00
  -1   0  -6 1493.45   72.09
  -1   0  -6 1619.04   42.50
   1   0   6 1544.75  322.17
   1   0   6 1577.14   35.80
   1   0   6 1540.55   84.09
  -2   0  -6  672.43   26.40
  -2   0  -6  775.82   55.99
  -2   0  -6  715.73   66.29
  -2   0  -6  816.92  339.77
  -2   0  -6  710.83   28.90
   2   0   6  700.23   21.80
   2   0   6  749.73   62.39
   2   0   6  944.81  359.56
   2   0   6  716.83   23.60
  -3   0  -6  639.84   28.00
  -3   0  -6  623.84   29.10
  -3   0  -6  548.35   23.30
  -3   0  -6  684.93   87.39
   3   0   6  572.74   24.60
   3   0   6  529.75   65.69
   3   0   6  637.54   23.00
  -4   0  -6  156.08   17.00
  -4   0  -6  112.89   42.40
  -4   0  -6  147.49   18.90
  -4   0  -6  106.49   33.90
  -4   0  -6  159.08   19.70
   4   0   6  136.99   14.80
   4   0   6  116.49   36.10
  -5   0  -6  917.71   80.99
  -5   0  -6  862.81   39.10
  -5   0  -6  981.90   62.89
  -5   0  -6  874.81   36.10
  -5   0  -6  821.22  116.99
   5   0   6  859.91   33.10
   5   0   6  888.91   79.39
  -6   0  -6  465.55  142.49
  -6   0  -6  508.55   33.50
  -6   0  -6  371.36   63.59
  -6   0  -6  509.05   33.90
  -6   0  -6  558.24   32.30
   6   0   6  544.75   80.19
  -7   0  -6  170.48   55.09
  -7   0  -6  209.78   28.90
  -7   0  -6  154.78   23.60
  -7   0  -6  165.28   24.40
  -8   0  -6    4.30   16.90
  -8   0  -6  -10.00   12.80
  -8   0  -6    8.50   18.90
  -9   0  -6  114.19   25.70
  -9   0  -6   53.69   22.40
  11  -1  -6   27.90   16.00
 -11   1   6   43.40   19.50
 -11   1   6   53.29   20.90
 -11   1   6   37.00   19.10
  10  -1  -6    9.10    9.70
 -10   1   6    8.40   12.70
 -10   1   6  -10.80   11.70
 -10   1   6    9.20   24.60
   9  -1  -6   24.70    9.40
  -9   1   6   11.90   12.80
  -9   1   6   38.80   19.90
  -9   1   6   54.99   31.20
   8  -1  -6   73.69   17.40
  -8   1   6   91.49   17.00
  -8   1   6   99.49   64.09
  -8   1   6   88.59   16.10
  -8   1   6   71.09   33.20
   7  -1  -6   46.40   13.40
   7  -1  -6   53.99    9.50
  -7   1   6   51.59   12.90
  -7   1   6   44.50   11.40
  -7   1   6   34.40   21.00
   6  -1  -6   66.39   23.80
   6  -1  -6   68.79    9.70
   6  -1  -6   58.79   12.90
   6  -1  -6   75.89   29.80
   6  -1  -6  -56.09  691.93
   6  -1  -6   62.79   10.60
  -6   1   6   39.70   18.90
  -6   1   6   65.29   17.40
  -6   1   6   73.49   11.80
  -6   1   6   73.59   13.30
   5  -1  -6   -1.60  324.57
   5  -1  -6   71.59   12.20
   5  -1  -6   74.89   24.90
   5  -1  -6   91.89   30.10
   5  -1  -6   62.49    8.80
   5  -1  -6   55.99   10.40
  -5   1   6   68.89   10.50
  -5   1   6   68.39   21.40
  -5   1   6   59.89   10.20
  -5   1   6   81.89  304.57
  -5   1   6   85.79   13.50
   4  -1  -6   70.89    9.20
   4  -1  -6   70.89   13.20
   4  -1  -6   46.50   18.80
   4  -1  -6   47.20   21.20
   4  -1  -6  -67.59  279.27
  -4   1   6   67.59    9.20
  -4   1   6   57.39   10.00
  -4   1   6    0.90  235.98
  -4   1   6   58.69   29.70
  -4   1   6   51.99    9.40
   3  -1  -6   19.10    5.60
   3  -1  -6   31.70   16.40
   3  -1  -6   37.60    8.70
   3  -1  -6   22.60    5.60
   3  -1  -6   27.60   12.60
   3  -1  -6    5.80   10.50
   3  -1  -6   34.50  213.78
  -3   1   6  288.07  215.08
  -3   1   6   24.10    7.00
   2  -1  -6  281.47   43.20
   2  -1  -6  265.67  211.08
   2  -1  -6  298.97   17.00
   2  -1  -6  341.27   35.30
   2  -1  -6  306.97   14.50
   2  -1  -6  292.67   21.10
   2  -1  -6  303.87   54.09
  -2   1   6  236.38  199.88
  -2   1   6  274.47   17.50
   1  -1  -6  614.74   21.90
   1  -1  -6  686.53   42.60
   1  -1  -6  680.53   64.39
   1  -1  -6  298.87  230.88
   1  -1  -6  617.84   23.40
   1  -1  -6  602.24   52.09
   1  -1  -6  619.14   21.50
  -1   1   6  665.33  221.98
  -1   1   6  609.74   21.60
  -1   1   6  635.04   19.20
   0  -1  -6  772.22   31.60
   0  -1  -6  732.63   48.00
   0  -1  -6  810.22   62.99
   0  -1  -6  742.23   25.20
   0  -1  -6  634.84  279.27
   0  -1  -6  717.23   26.10
   0   1   6  762.62   57.69
   0   1   6  740.63   21.60
   0   1   6  308.27  251.07
   0   1   6  758.72   23.40
  -1  -1  -6  182.58   17.20
  -1  -1  -6  168.18   14.30
  -1  -1  -6  190.88   32.60
  -1  -1  -6  217.78   45.80
  -1  -1  -6  229.78  264.77
  -1  -1  -6  171.48   13.60
   1   1   6  -72.59  239.08
   1   1   6  178.08   11.80
   1   1   6  160.58   33.20
  -2  -1  -6   24.80    8.30
  -2  -1  -6   31.90    9.00
  -2  -1  -6   15.80   13.60
  -2  -1  -6   66.79   31.60
  -2  -1  -6   24.30   10.00
  -2  -1  -6   23.70    6.40
   2   1   6   21.20   16.40
   2   1   6   29.00    6.90
  -3  -1  -6  244.58   18.70
  -3  -1  -6  240.88   19.20
  -3  -1  -6  224.58   53.49
  -3  -1  -6  236.38   43.00
  -3  -1  -6  230.58   15.80
  -3  -1  -6  226.38   22.30
   3   1   6  221.48   15.50
   3   1   6  197.48   44.70
  -4  -1  -6    4.50    7.90
  -4  -1  -6    4.30   15.60
  -4  -1  -6    5.80    8.60
  -4  -1  -6    8.30    7.90
  -4  -1  -6  -10.50   11.50
   4   1   6   -8.00    6.00
   4   1   6    9.60   15.20
  -5  -1  -6    9.00   10.10
  -5  -1  -6    5.20    9.50
  -5  -1  -6    0.40    8.90
  -5  -1  -6   -6.50   17.50
  -5  -1  -6   28.90   25.40
   5   1   6   14.40    9.50
   5   1   6   12.10   20.00
  -6  -1  -6   97.39   50.49
  -6  -1  -6  175.38   23.50
  -6  -1  -6  188.18   26.20
  -6  -1  -6  197.28   52.69
  -6  -1  -6  189.58   22.10
   6   1   6  136.69   18.90
  -7  -1  -6  178.48   24.90
  -7  -1  -6  180.58   27.90
  -7  -1  -6  169.98   23.70
  -8  -1  -6   32.60   17.60
  -8  -1  -6   37.10   19.50
  11  -2  -6  307.67   28.40
 -11   2   6  244.08   34.70
 -11   2   6  236.68   34.70
 -11   2   6  300.07   35.60
  10  -2  -6   56.79   13.80
 -10   2   6   42.10   16.90
 -10   2   6   65.89   20.00
   9  -2  -6    7.40    8.20
   9  -2  -6   -1.50   10.60
  -9   2   6  -10.60    8.80
  -9   2   6   17.90   14.60
  -9   2   6   -2.90   17.30
   8  -2  -6  268.07   29.60
   8  -2  -6  257.97   26.30
   8  -2  -6  227.08   17.30
  -8   2   6  270.17   51.09
  -8   2   6  312.37   28.10
  -8   2   6  335.27   31.80
  -8   2   6  228.48   64.79
   7  -2  -6 1063.79   34.10
   7  -2  -6 1004.90   31.90
   7  -2  -6  882.71   76.59
   7  -2  -6  994.20   42.50
   7  -2  -6  940.61   75.59
  -7   2   6  990.20   35.80
  -7   2   6 1059.89   41.90
   6  -2  -6  627.54   79.49
   6  -2  -6  523.45   39.20
   6  -2  -6  509.25   21.30
   6  -2  -6  478.75   65.69
   6  -2  -6  483.65   21.50
   6  -2  -6  815.02  437.26
  -6   2   6  767.02  404.36
  -6   2   6  440.26   21.90
  -6   2   6  589.54   62.09
  -6   2   6  464.85   26.40
   5  -2  -6  423.66  322.97
   5  -2  -6   51.79    8.90
   5  -2  -6   57.39    9.20
   5  -2  -6   70.29   12.30
   5  -2  -6  115.69   32.80
   5  -2  -6   96.99   29.40
  -5   2   6   62.89   20.20
  -5   2   6   48.60    8.70
  -5   2   6   28.10  283.97
   4  -2  -6  181.88   15.20
   4  -2  -6  -89.39  478.65
   4  -2  -6  232.68   42.40
   4  -2  -6  191.78   12.40
   4  -2  -6  171.48   39.20
   4  -2  -6  182.08   12.10
  -4   2   6  223.08   25.20
  -4   2   6  204.28   14.30
  -4   2   6  310.67  258.77
   3  -2  -6  986.60   26.90
   3  -2  -6 1102.59   80.39
   3  -2  -6 1004.90   27.60
   3  -2  -6 1067.79   32.40
   3  -2  -6  820.42  318.57
   3  -2  -6 1019.10   67.29
   3  -2  -6 1027.10   47.20
  -3   2   6 1097.39  276.57
  -3   2   6 1013.10   30.10
   2  -2  -6  708.03   65.79
   2  -2  -6  697.43   40.40
   2  -2  -6  740.33   25.40
   2  -2  -6  687.43   55.69
   2  -2  -6  707.03   23.00
  -2   2   6  754.72   23.90
  -2   2   6  609.44  220.38
  -2   2   6  747.83   24.60
   1  -2  -6  -13.20  224.68
   1  -2  -6   22.80   11.80
   1  -2  -6    4.80    4.40
   1  -2  -6   15.70   15.90
   1  -2  -6    4.60    4.90
   1  -2  -6    8.90    5.80
   1  -2  -6   12.40   14.10
  -1   2   6    3.50    4.50
  -1   2   6   13.80    6.50
  -1   2   6   69.49  209.98
  -1   2   6   15.30    5.60
   0  -2  -6   17.70    6.50
   0  -2  -6   19.50   16.30
   0  -2  -6   17.50    5.90
   0  -2  -6  102.79  252.07
   0  -2  -6    6.40   15.40
   0  -2  -6    6.60    6.40
   0   2   6   63.39  226.98
   0   2   6   13.90    5.20
   0   2   6   15.80    5.50
   0   2   6   13.60    5.90
  -1  -2  -6  243.88   15.60
  -1  -2  -6  318.67   43.30
  -1  -2  -6  331.77   86.49
  -1  -2  -6  206.98   16.00
  -1  -2  -6  218.68   17.50
   1   2   6  225.58   16.20
   1   2   6  210.68   13.70
  -2  -2  -6  137.79   17.80
  -2  -2  -6  127.09   16.30
  -2  -2  -6  119.19   16.80
  -2  -2  -6  138.39   41.40
  -2  -2  -6  126.99   11.60
  -2  -2  -6  117.99   31.40
   2   2   6  123.19   13.70
   2   2   6  151.28   35.60
  -3  -2  -6   23.10   23.20
  -3  -2  -6    7.40    6.70
  -3  -2  -6    7.60    7.80
  -3  -2  -6    2.70    9.00
  -3  -2  -6    3.10    7.30
  -3  -2  -6   12.40   14.40
   3   2   6   45.80   23.10
   3   2   6   16.20    7.70
  -4  -2  -6  106.79   20.10
  -4  -2  -6  103.89   24.30
  -4  -2  -6  130.59   27.50
  -4  -2  -6  202.88   62.59
  -4  -2  -6  104.49   32.20
  -4  -2  -6  125.49   15.10
   4   2   6   75.99   25.90
   4   2   6  116.19   15.90
  -5  -2  -6    8.90    9.00
  -5  -2  -6   25.60   11.20
  -5  -2  -6   23.10   14.30
  -5  -2  -6    9.40   11.60
  -5  -2  -6   22.40   25.50
   5   2   6   33.60   12.50
   5   2   6   22.70   11.50
  -6  -2  -6    8.40   11.50
  -6  -2  -6   17.60   16.30
  -6  -2  -6    6.60   12.50
  -6  -2  -6    8.20   10.80
  -6  -2  -6  -13.30   17.60
   6   2   6   12.30   12.00
   6   2   6    2.10   10.60
  -7  -2  -6    7.10   13.40
  -7  -2  -6   -2.10   17.10
  -7  -2  -6    7.20   13.00
  -7  -2  -6   -4.10   12.30
   7   2   6   -0.50   11.30
   7   2   6  -18.10   10.00
  -8  -2  -6   23.60   20.90
  -8  -2  -6   16.20   17.40
  -8  -2  -6    6.50   16.20
  -8  -2  -6    2.90   14.20
  11  -3  -6  162.18   22.10
 -11   3   6  285.27   34.50
 -11   3   6  261.37   37.50
 -11   3   6  212.48   33.00
  10  -3  -6  302.97   28.10
  10  -3  -6  381.96   41.00
 -10   3   6  326.67   37.20
 -10   3   6  368.86   34.10
   9  -3  -6   17.70   13.90
   9  -3  -6   19.90   12.50
  -9   3   6   30.20   14.00
  -9   3   6   27.40   13.80
   8  -3  -6  174.38   18.30
   8  -3  -6  152.48   22.30
   8  -3  -6  182.68   24.40
   8  -3  -6  223.88   21.10
  -8   3   6   99.19   43.10
  -8   3   6  199.98   22.70
  -8   3   6  180.48   24.20
   7  -3  -6  910.31   76.09
   7  -3  -6  856.71   31.00
   7  -3  -6  848.72   30.70
   7  -3  -6  860.81   39.50
   7  -3  -6  816.02   38.20
   7  -3  -6  784.52   75.09
  -7   3   6  828.12   61.39
  -7   3   6  834.52   38.30
  -7   3   6  833.22   32.50
   6  -3  -6  939.21   38.10
   6  -3  -6  782.42   73.09
   6  -3  -6 1010.80   75.29
   6  -3  -6  960.40   31.00
   6  -3  -6  963.90   30.50
  -6   3   6  977.50   31.10
  -6   3   6  948.61   37.90
  -6   3   6  876.51   56.69
   5  -3  -6 1175.18   89.09
   5  -3  -6 1234.58   78.49
   5  -3  -6 1158.68   33.10
   5  -3  -6 1178.38   32.80
   5  -3  -6 1211.98   39.80
  -5   3   6 1143.09   27.50
  -5   3   6 1072.29   56.89
  -5   3   6 1103.09   29.70
   4  -3  -6   36.60    7.60
   4  -3  -6   60.69   34.30
   4  -3  -6   47.10   22.00
   4  -3  -6   26.70    8.00
   4  -3  -6   38.20    7.90
  -4   3   6   25.80    6.00
   3  -3  -6  971.10   79.79
   3  -3  -6 1044.80   29.30
   3  -3  -6 1078.29   47.00
   3  -3  -6 1046.60   29.60
   3  -3  -6 1050.89   69.79
   3  -3  -6 1022.50   31.40
  -3   3   6 1031.90   29.70
   2  -3  -6 2603.24  130.89
   2  -3  -6 2615.84   80.29
   2  -3  -6 2655.83   50.99
   2  -3  -6 2546.45  112.09
   2  -3  -6 2515.05   50.69
   2  -3  -6 2611.64   50.69
  -2   3   6 2493.75   50.19
  -2   3   6 2610.34   48.80
  -2   3   6 2569.94   51.69
   1  -3  -6 2033.80   45.30
   1  -3  -6 1957.20  103.89
   1  -3  -6 2148.78  120.59
   1  -3  -6 2020.20   41.50
   1  -3  -6 2049.40   46.60
   1  -3  -6 2127.79   77.59
  -1   3   6 2037.50   43.10
  -1   3   6 2034.90   42.70
  -1   3   6 2001.00   46.10
   0  -3  -6 1197.78   87.09
   0  -3  -6 1148.99   34.60
   0  -3  -6 1189.08   89.89
   0  -3  -6 1139.79   29.00
   0  -3  -6 1122.79   61.49
   0  -3  -6 1121.09   35.80
   0   3   6 1153.88   32.40
   0   3   6 1129.39   29.20
   0   3   6 1123.39   35.00
  -1  -3  -6   37.70   23.40
  -1  -3  -6   37.30   23.70
  -1  -3  -6   50.79   20.70
  -1  -3  -6   42.10   10.10
  -1  -3  -6   56.19   12.10
  -1  -3  -6   55.59    8.70
   1   3   6   43.00    8.50
   1   3   6   41.40    9.40
  -2  -3  -6  464.15   25.50
  -2  -3  -6  464.35   71.69
  -2  -3  -6  491.25   20.30
  -2  -3  -6  469.05   72.69
  -2  -3  -6  470.95   80.39
  -2  -3  -6  407.46   23.00
  -2  -3  -6  439.86   26.90
   2   3   6  456.35   24.40
   2   3   6  425.16   22.40
  -3  -3  -6  271.47   65.29
  -3  -3  -6  338.17   24.50
  -3  -3  -6  310.87   18.20
  -3  -3  -6  320.37   18.20
  -3  -3  -6  306.07   27.30
  -3  -3  -6  287.27   59.59
  -3  -3  -6  426.46   62.99
   3   3   6  328.77   22.40
   3   3   6  348.77   22.50
  -4  -3  -6   42.40   15.00
  -4  -3  -6   52.49   11.00
  -4  -3  -6   70.59   31.60
  -4  -3  -6   64.59   12.40
  -4  -3  -6   64.39   17.00
  -4  -3  -6   82.19   42.40
  -4  -3  -6   35.30   26.20
   4   3   6   36.20   15.20
  -5  -3  -6   78.99   19.80
  -5  -3  -6  101.89   15.90
  -5  -3  -6   35.30   37.80
  -5  -3  -6   93.99   15.00
  -5  -3  -6   93.99   33.50
  -5  -3  -6   80.29   18.80
   5   3   6   56.69   14.50
   5   3   6  103.19   17.80
  -6  -3  -6   52.19   20.40
  -6  -3  -6   26.90   15.40
  -6  -3  -6   63.99   15.90
  -6  -3  -6   60.49   14.20
   6   3   6   73.19   16.80
   6   3   6   53.59   16.60
  -7  -3  -6   43.40   14.00
  -7  -3  -6   13.50   16.00
  -7  -3  -6   56.59   17.40
   7   3   6   49.60   16.90
  -8  -3  -6   77.99   25.90
  -8  -3  -6   86.89   17.40
  -8  -3  -6   97.99   27.20
   8   3   6  119.39   24.00
  11  -4  -6   22.50   13.20
  11  -4  -6    9.60   17.40
 -11   4   6   -4.10   13.90
 -11   4   6   26.80   19.70
 -11   4   6   49.60   20.20
  10  -4  -6    4.30    9.80
  10  -4  -6   10.00   15.50
 -10   4   6  -10.60   12.20
 -10   4   6   -4.00   11.60
   9  -4  -6   74.49   15.10
   9  -4  -6   95.69   20.10
   9  -4  -6  108.29   22.90
  -9   4   6   51.49   39.40
  -9   4   6   49.99   14.10
  -9   4   6   85.69   20.10
   8  -4  -6  105.69   20.30
   8  -4  -6  164.68   49.30
   8  -4  -6  133.59   16.70
   8  -4  -6  106.79   15.40
   8  -4  -6  130.49   22.30
  -8   4   6  109.39   19.80
   7  -4  -6   49.80   14.20
   7  -4  -6   25.80   20.80
   7  -4  -6   65.09   15.30
   7  -4  -6   43.90   10.70
   7  -4  -6   46.00   10.10
  -7   4   6   36.20   11.90
  -7   4   6   36.60   10.40
   6  -4  -6  348.27   23.90
   6  -4  -6  369.66   19.10
   6  -4  -6  431.76   64.89
   6  -4  -6  533.95   81.19
   6  -4  -6  363.46   25.80
   6  -4  -6  380.86   20.80
  -6   4   6  358.16   16.50
  -6   4   6  350.76   18.90
  -6   4   6  346.77   24.30
   5  -4  -6  533.65   23.10
   5  -4  -6  729.73   93.19
   5  -4  -6  543.95   26.80
   5  -4  -6  531.55   31.00
   5  -4  -6  663.43   74.89
  -5   4   6  553.24   38.40
  -5   4   6  513.55   19.40
  -5   4   6  606.84   21.70
   4  -4  -6  641.44   26.40
   4  -4  -6  647.74   24.90
   4  -4  -6  846.92   97.89
   4  -4  -6  716.73   89.89
   4  -4  -6  637.44   23.00
  -4   4   6  632.94   23.10
   3  -4  -6   89.19   11.30
   3  -4  -6  102.49   12.70
   3  -4  -6  103.49   28.70
   3  -4  -6   95.49   17.60
   3  -4  -6  112.79   37.80
   3  -4  -6  102.09   11.70
  -3   4   6   98.49   12.10
   2  -4  -6  791.92   65.19
   2  -4  -6  743.43   23.50
   2  -4  -6  792.62   28.10
   2  -4  -6  752.32   88.19
   2  -4  -6  806.62   44.20
   2  -4  -6  782.82   26.70
  -2   4   6  741.63   25.70
  -2   4   6  769.72   28.40
   1  -4  -6 2482.85  134.59
   1  -4  -6 2360.06   53.59
   1  -4  -6 2494.65   86.99
   1  -4  -6 2366.56   42.00
   1  -4  -6 2355.36   51.89
  -1   4   6 2345.77   49.90
  -1   4   6 2395.56   54.19
   0  -4  -6  740.53   29.50
   0  -4  -6  749.33   19.80
   0  -4  -6  774.62   53.09
   0  -4  -6  889.01   81.89
   0  -4  -6  855.21   97.49
   0   4   6  849.91   41.60
   0   4   6  703.93   30.70
   0   4   6  789.92   21.70
  -1  -4  -6   30.10    5.30
  -1  -4  -6   65.19   13.10
  -1  -4  -6   -2.50   12.70
  -1  -4  -6   64.29   12.40
  -1  -4  -6   34.40   23.90
  -1  -4  -6   41.10   21.90
   1   4   6   36.00    7.20
   1   4   6   58.59   11.00
   1   4   6   34.70    9.40
  -2  -4  -6  383.76   26.90
  -2  -4  -6  363.06   54.29
  -2  -4  -6  596.14  134.29
  -2  -4  -6  405.26   65.89
  -2  -4  -6  414.26   26.00
   2   4   6  385.06   16.70
   2   4   6  441.96   25.60
   2   4   6  409.06   19.50
   2   4   6  406.96   23.60
  -3  -4  -6 1101.19   83.49
  -3  -4  -6 1019.20   42.50
  -3  -4  -6  802.72  108.09
  -3  -4  -6 1033.00   59.59
  -3  -4  -6  947.11   89.79
   3   4   6 1021.30   33.30
   3   4   6 1050.49   40.90
   3   4   6 1018.40   58.39
  -4  -4  -6 1025.90   87.39
  -4  -4  -6  801.72   42.20
  -4  -4  -6  843.32  135.09
  -4  -4  -6  877.31   43.20
   4   4   6  889.81   39.10
   4   4   6  847.42   38.90
  -5  -4  -6  266.37   31.30
  -5  -4  -6  264.97   57.49
   5   4   6  465.25   31.60
   5   4   6  389.56   29.20
  -6  -4  -6   -5.60   12.60
  -6  -4  -6   43.40   21.00
   6   4   6   -3.00   10.80
   6   4   6   19.60   14.20
  -7  -4  -6   65.39   24.60
  -7  -4  -6   81.19   23.30
   7   4   6   56.59   18.20
  11  -5  -6  124.59   29.50
  11  -5  -6  117.79   21.10
 -11   5   6  130.39   24.90
  10  -5  -6   97.39   18.70
  10  -5  -6   92.49   23.20
  10  -5  -6   94.39   26.70
 -10   5   6  115.19   21.20
   9  -5  -6    6.20    9.10
   9  -5  -6   -4.40   10.40
   9  -5  -6   12.10   13.80
  -9   5   6   -5.90    8.80
  -9   5   6   10.20   27.20
   8  -5  -6   -0.10   15.50
   8  -5  -6   21.60    9.20
   8  -5  -6   12.60   12.00
   8  -5  -6   -1.80   16.90
   8  -5  -6   10.60   11.30
   7  -5  -6   30.80   12.30
   7  -5  -6   21.60   17.10
   7  -5  -6   32.10   25.20
   7  -5  -6   48.90   14.60
   7  -5  -6   51.49   11.40
   7  -5  -6   49.50   10.50
   6  -5  -6    2.80    6.70
   6  -5  -6   25.90   22.80
   6  -5  -6    8.40    7.20
   6  -5  -6    7.20    6.10
   6  -5  -6   13.10   10.40
   6  -5  -6    0.20   10.20
  -6   5   6    1.50    6.90
   5  -5  -6   -2.10    5.20
   5  -5  -6   -4.30    4.10
   5  -5  -6    0.70    5.60
   5  -5  -6   -1.40   13.70
   5  -5  -6    6.10    8.30
   5  -5  -6    1.70   11.00
  -5   5   6    2.10    4.20
   4  -5  -6   32.40   22.90
   4  -5  -6   23.20    9.60
   4  -5  -6   59.09   23.30
   4  -5  -6   24.00    7.60
   4  -5  -6   30.60    7.80
   4  -5  -6   30.70    8.30
  -4   5   6   30.90    8.10
  -4   5   6   21.50    6.00
   3  -5  -6    9.20    5.30
   3  -5  -6    3.30    5.60
   3  -5  -6   14.90    6.60
   3  -5  -6   10.10    8.00
   3  -5  -6    6.60    7.40
   3  -5  -6    6.20   16.20
   3  -5  -6   45.00   21.70
  -3   5   6   19.60    6.90
  -3   5   6    6.70    7.30
   2  -5  -6    9.50    4.30
   2  -5  -6    8.00    6.60
   2  -5  -6   13.50    7.40
   2  -5  -6    3.50   15.30
   2  -5  -6    1.70    7.70
   2  -5  -6   28.70   19.20
  -2   5   6    8.70    5.70
  -2   5   6    7.20    5.90
   1  -5  -6   -6.60   12.50
   1  -5  -6   31.80   23.00
   1  -5  -6    8.90   10.80
   1  -5  -6   -2.30    5.60
   1  -5  -6   -3.20    5.40
   1  -5  -6    0.60    6.10
  -1   5   6   -5.20    4.60
  -1   5   6    4.00    6.20
   0  -5  -6  432.76   72.89
   0  -5  -6  366.86   22.10
   0  -5  -6  413.16   49.60
   0  -5  -6  362.56   22.60
   0  -5  -6  445.06   75.29
   0  -5  -6  365.26   21.20
   0   5   6  351.66   22.90
   0   5   6  357.16   21.40
   0   5   6  370.96   16.40
  -1  -5  -6   -0.40   15.90
  -1  -5  -6   17.00   10.30
  -1  -5  -6   11.00    9.80
  -1  -5  -6   37.70   25.10
  -1  -5  -6    0.90   13.80
   1   5   6    8.50    7.90
   1   5   6   34.90    9.70
   1   5   6   15.80    6.40
  -2  -5  -6   68.59   31.60
  -2  -5  -6  183.58   42.60
  -2  -5  -6  120.19   18.50
  -2  -5  -6  172.58   27.20
  -2  -5  -6  137.09   46.80
   2   5   6  154.88   15.90
   2   5   6  133.49   18.00
   2   5   6  123.49   18.70
  -3  -5  -6  324.17   30.20
  -3  -5  -6  281.17   55.39
  -3  -5  -6  256.97   65.29
  -3  -5  -6  326.87   64.39
  -3  -5  -6  211.18   25.10
   3   5   6  276.27   22.90
   3   5   6  299.17   24.90
   3   5   6  288.67   19.80
  -4  -5  -6   92.09   33.70
  -4  -5  -6  240.28   29.80
  -4  -5  -6  143.79   29.10
   4   5   6  186.18   23.80
   4   5   6  168.28   19.30
   4   5   6  164.08   22.00
  -5  -5  -6  212.08   28.40
  -5  -5  -6  304.47   92.99
  -5  -5  -6  227.28   29.60
   5   5   6  232.48   27.00
  -6  -5  -6    2.00   14.70
  -6  -5  -6    0.70   16.80
   6   5   6   17.90   16.00
   6   5   6    2.50   13.60
  -7  -5  -6   23.50   22.20
  -7  -5  -6    1.70   17.00
   7   5   6   18.80   16.50
  10  -6  -6  195.78   30.90
  10  -6  -6  217.78   33.10
  10  -6  -6  149.29   22.90
   9  -6  -6  441.96   28.30
   9  -6  -6  409.26   38.80
   9  -6  -6  410.46   40.90
   8  -6  -6  200.78   21.50
   8  -6  -6  245.68   28.60
   8  -6  -6  189.68   27.30
   8  -6  -6  114.39   46.90
   8  -6  -6  181.88   19.40
   7  -6  -6   55.69   12.80
   7  -6  -6   52.19   26.50
   7  -6  -6   24.30   13.00
   7  -6  -6   56.89   42.20
   7  -6  -6   32.90   11.90
   7  -6  -6   29.30    8.80
  -7   6   6   37.40    9.80
   6  -6  -6  177.68   20.20
   6  -6  -6  186.68   57.79
   6  -6  -6  148.99   39.20
   6  -6  -6  137.19   22.10
   6  -6  -6  162.78   16.00
   6  -6  -6  131.89   17.60
  -6   6   6  132.49   15.00
   5  -6  -6  851.61   33.10
   5  -6  -6  858.51   70.09
   5  -6  -6  883.31   41.00
   5  -6  -6  900.21   29.20
   5  -6  -6  922.41  114.89
   5  -6  -6  896.71   32.70
  -5   6   6  944.81   29.40
  -5   6   6  902.41   31.80
   4  -6  -6  359.76   56.09
   4  -6  -6  327.07   20.50
   4  -6  -6  299.97   19.60
   4  -6  -6  307.87   17.30
   4  -6  -6  295.77   63.09
   4  -6  -6  305.07   24.40
  -4   6   6  327.67   19.80
   3  -6  -6  266.37   13.40
   3  -6  -6  395.16   61.79
   3  -6  -6  281.07   22.70
   3  -6  -6  281.47   18.90
   3  -6  -6  383.06   77.79
   3  -6  -6  276.77   17.30
  -3   6   6  295.77   18.40
  -3   6   6  302.07   19.60
   2  -6  -6   -7.10   11.00
   2  -6  -6    8.10    7.50
   2  -6  -6    8.10   17.40
   2  -6  -6   -5.80    6.50
  -2   6   6   -2.70    5.50
  -2   6   6    8.80    6.80
   1  -6  -6   96.09   36.80
   1  -6  -6   83.59   13.60
   1  -6  -6   78.39   13.70
   1  -6  -6   81.19   35.60
   1  -6  -6   72.99   21.80
  -1   6   6  109.79   15.60
  -1   6   6   71.99   12.30
   0  -6  -6  444.86   74.69
   0  -6  -6  383.56   23.00
   0  -6  -6  522.15   58.89
   0  -6  -6  429.96   73.89
   0  -6  -6  377.06   24.00
   0  -6  -6  404.16   25.50
   0   6   6  368.16   17.90
   0   6   6  370.26   24.40
   0   6   6  396.96   23.90
  -1  -6  -6   61.39   14.00
  -1  -6  -6   41.30   18.90
  -1  -6  -6   44.60   22.10
  -1  -6  -6   46.30   28.60
  -1  -6  -6   39.00   27.10
   1   6   6   55.99   13.80
   1   6   6   67.59   13.50
   1   6   6   50.19    9.90
  -2  -6  -6   61.99   31.80
  -2  -6  -6  106.79   34.10
  -2  -6  -6   32.30   34.00
  -2  -6  -6   39.20   13.80
  -2  -6  -6   71.59   16.50
   2   6   6   57.19   13.80
   2   6   6   46.10   13.20
   2   6   6   71.79   12.50
  -3  -6  -6   12.80   12.00
  -3  -6  -6   19.30   22.70
  -3  -6  -6    8.30   12.10
  -3  -6  -6   34.40   33.10
   3   6   6    2.90    9.50
   3   6   6   12.20   11.20
   3   6   6    2.70    7.80
  -4  -6  -6   -9.00   18.60
  -4  -6  -6   -3.20   11.80
  -4  -6  -6   -8.60   12.10
   4   6   6   10.70   11.20
   4   6   6   10.60    9.10
  -5  -6  -6   24.60   17.00
  -5  -6  -6    5.90   17.10
   5   6   6   11.50   13.10
   5   6   6   20.00   14.20
   5   6   6   29.90   12.40
  -6  -6  -6    7.70   18.20
  -6  -6  -6   28.70   18.60
   6   6   6   16.50   16.30
  10  -7  -6   50.49   20.20
  10  -7  -6    2.40   16.30
  10  -7  -6   25.90   14.60
   9  -7  -6  439.36   38.00
   9  -7  -6  385.16   28.80
   9  -7  -6  440.26   40.30
   8  -7  -6  330.57   24.90
   8  -7  -6  398.56   41.20
   8  -7  -6  411.76   36.40
   7  -7  -6  468.95   27.90
   7  -7  -6  452.65   29.20
   7  -7  -6  579.24   38.60
  -7   7   6  450.15   24.40
   6  -7  -6    0.40    9.90
   6  -7  -6    1.70    7.60
   6  -7  -6   -3.90    7.10
   6  -7  -6    7.50   20.70
  -6   7   6    6.00    6.40
   5  -7  -6  191.58   20.70
   5  -7  -6  337.17   74.69
   5  -7  -6  184.48   14.60
   5  -7  -6  211.78   46.90
   5  -7  -6  231.88   28.00
   5  -7  -6  217.38   16.70
  -5   7   6  207.08   20.20
   4  -7  -6  890.21   72.19
   4  -7  -6  725.93   23.30
   4  -7  -6  747.03   31.80
   4  -7  -6  732.33   38.10
   4  -7  -6  744.53   26.90
   4  -7  -6  834.22  109.69
  -4   7   6  749.82   31.50
   3  -7  -6 1168.18   35.70
   3  -7  -6 1142.69   49.50
   3  -7  -6 1238.28   40.10
   3  -7  -6 1199.98   85.69
   3  -7  -6 1125.59  128.99
  -3   7   6 1177.08   57.39
  -3   7   6 1143.19   40.00
   2  -7  -6  611.94   32.80
   2  -7  -6  583.44   26.70
   2  -7  -6  615.54   81.19
   2  -7  -6  586.34   94.09
   2  -7  -6  656.93   41.40
  -2   7   6  601.24   29.00
  -2   7   6  600.34   29.60
   1  -7  -6   60.59   13.30
   1  -7  -6  139.99   49.99
   1  -7  -6   77.49   34.60
   1  -7  -6   89.99   16.50
   1  -7  -6   57.19   14.30
  -1   7   6   61.19   12.70
  -1   7   6   74.19   13.80
   0  -7  -6  181.78   20.20
   0  -7  -6  170.68   20.40
   0  -7  -6  124.09   43.70
   0  -7  -6  213.88   23.00
   0  -7  -6  169.48   42.70
   0  -7  -6  153.88   47.10
   0   7   6  210.18   22.50
   0   7   6  169.58   18.10
   0   7   6  188.08   21.80
  -1  -7  -6  863.71   70.49
  -1  -7  -6  796.52   37.70
  -1  -7  -6  858.01  110.49
  -1  -7  -6  631.24   92.29
  -1  -7  -6  859.31   39.00
   1   7   6  862.71   38.30
   1   7   6  892.51   31.70
   1   7   6  816.22   38.10
  -2  -7  -6  334.67   28.00
  -2  -7  -6  313.57   30.50
  -2  -7  -6  205.98   46.20
  -2  -7  -6  211.08   64.79
   2   7   6  306.77   21.40
   2   7   6  317.27   26.20
  -3  -7  -6   62.19   18.40
  -3  -7  -6   20.60   24.20
   3   7   6   40.10   11.90
   3   7   6   41.60   14.60
   3   7   6   53.59   16.80
  -4  -7  -6   25.00   17.00
  -4  -7  -6   30.50   16.70
   4   7   6   13.60   12.50
   4   7   6   24.40   12.20
   4   7   6   29.30   15.70
  -5  -7  -6   36.70   19.80
  -5  -7  -6   75.69   26.20
   5   7   6   42.60   17.00
   5   7   6   53.69   18.20
   5   7   6   68.09   16.20
  -6  -7  -6   42.30   22.90
   6   7   6   18.80   20.90
  10  -8  -6   14.40   17.80
   9  -8  -6    1.20    9.50
   9  -8  -6    4.70   13.00
   9  -8  -6   18.00   16.30
   8  -8  -6  311.47   34.20
   8  -8  -6  321.87   32.30
   8  -8  -6  310.97   38.10
   7  -8  -6  441.76   28.50
   7  -8  -6  409.06   41.80
   7  -8  -6  414.56   27.20
  -7   8   6  392.26   25.10
   6  -8  -6  264.77   31.90
   6  -8  -6  240.78   30.60
   6  -8  -6  246.08   24.70
  -6   8   6  239.08   23.60
   5  -8  -6   37.90   14.70
   5  -8  -6   50.09   44.40
   5  -8  -6   31.50    8.40
   5  -8  -6   38.60   12.00
  -5   8   6   28.90   10.20
   4  -8  -6  212.98   21.70
   4  -8  -6  228.58   65.29
   4  -8  -6  159.48   24.70
  -4   8   6  198.98   21.60
   3  -8  -6  370.66   24.50
   3  -8  -6  333.37   28.00
  -3   8   6  382.96   24.80
  -3   8   6  381.86   23.30
   2  -8  -6  536.95   92.89
   2  -8  -6  503.15   27.90
   2  -8  -6  504.05   78.89
   2  -8  -6  485.95   25.80
   2  -8  -6  494.45   31.60
  -2   8   6  452.55   26.60
  -2   8   6  472.55   28.40
   1  -8  -6    4.70    9.00
   1  -8  -6   23.10   11.80
   1  -8  -6   14.70   10.20
   1  -8  -6   48.90   33.90
   1  -8  -6   23.20   24.70
  -1   8   6   11.10   10.00
  -1   8   6    8.20    8.80
   0  -8  -6   85.39   40.70
   0  -8  -6   99.69   43.00
   0  -8  -6  111.79   17.90
   0  -8  -6   75.79   16.90
   0   8   6   77.09   15.60
   0   8   6   89.39   17.00
  -1  -8  -6  286.17   28.10
  -1  -8  -6  333.47   73.19
  -1  -8  -6  279.57   27.90
   1   8   6  316.37   30.80
   1   8   6  289.07   27.80
   1   8   6  280.97   20.90
  -2  -8  -6  302.37   39.30
  -2  -8  -6  432.36   44.00
   2   8   6  422.36   26.40
   2   8   6  405.56   30.50
   2   8   6  406.06   30.80
  -3  -8  -6  231.18   29.20
  -3  -8  -6  221.68   30.00
  -3  -8  -6  173.08   49.10
   3   8   6  255.97   29.00
   3   8   6  254.07   29.60
   3   8   6  330.57   25.80
  -4  -8  -6   39.40   19.00
  -4  -8  -6   24.20   18.50
   4   8   6   28.90   15.60
   4   8   6   42.90   16.70
  -5  -8  -6   39.70   21.00
  -5  -8  -6   31.80   21.00
   5   8   6   36.20   18.50
   5   8   6   25.00   14.40
   5   8   6   15.40   17.00
   9  -9  -6   23.70   16.20
   9  -9  -6   10.90   12.60
   9  -9  -6   -4.50   13.90
   8  -9  -6    5.20   14.80
   8  -9  -6   -4.60    9.90
   8  -9  -6   -2.10   10.10
  -8   9   6    3.00   11.10
   7  -9  -6    6.40    9.40
   7  -9  -6    3.00   11.10
  -7   9   6    5.70    9.20
   6  -9  -6    1.20    7.20
   6  -9  -6    7.30   12.90
   6  -9  -6   -6.00    8.50
  -6   9   6   -4.40    7.90
   5  -9  -6    1.60   10.50
   5  -9  -6    7.20   10.20
  -5   9   6    7.70    8.80
   4  -9  -6   37.90   13.30
   4  -9  -6   46.80   16.90
  -4   9   6   37.10   12.00
   3  -9  -6    7.60   11.80
   3  -9  -6   -1.00    9.70
  -3   9   6   -1.20    7.80
  -3   9   6   10.70    9.10
   2  -9  -6  106.19   49.20
   2  -9  -6   53.89   16.00
   2  -9  -6   76.99   15.80
  -2   9   6   95.09   19.10
  -2   9   6   71.89   15.00
   1  -9  -6   51.69   35.20
   1  -9  -6   66.09   15.10
   1  -9  -6   90.69   18.60
  -1   9   6  108.19   18.10
  -1   9   6   85.19   16.70
   0  -9  -6   32.70   29.20
   0  -9  -6   30.20   14.40
   0   9   6   34.70   13.30
   0   9   6   21.00   12.40
  -1  -9  -6   -3.50   13.30
  -1  -9  -6    1.20   12.00
   1   9   6   -0.60   11.60
   1   9   6   -4.90    9.90
  -2  -9  -6   65.69   19.50
  -2  -9  -6  102.99   22.50
   2   9   6  103.29   32.90
   2   9   6   70.29   17.50
   2   9   6   87.69   17.00
  -3  -9  -6  182.28   28.30
   3   9   6  179.28   23.60
   3   9   6  161.68   24.00
   3   9   6  166.68   26.00
  -4  -9  -6  -23.30   16.20
   4   9   6   -0.30   15.50
   4   9   6    6.00   12.40
   4   9   6    1.30   13.60
   8 -10  -6   23.60   13.40
   8 -10  -6   29.60   13.10
   8 -10  -6   11.60   16.40
  -8  10   6    8.90   11.20
   7 -10  -6  198.88   26.00
   7 -10  -6  217.18   18.70
   7 -10  -6  195.08   31.60
  -7  10   6  161.88   28.80
   6 -10  -6  167.18   30.30
  -6  10   6  136.39   20.50
   5 -10  -6    7.60   13.20
   5 -10  -6   13.40   11.30
  -5  10   6   10.80   10.70
   4 -10  -6   32.70   16.20
   4 -10  -6   43.40   14.20
  -4  10   6   30.90   13.30
   3 -10  -6   59.09   16.00
   3 -10  -6   55.89   18.50
  -3  10   6   52.99   14.00
  -3  10   6   56.19   14.40
   2 -10  -6    2.70   10.50
   2 -10  -6   12.50   13.10
  -2  10   6   12.50   11.20
  -2  10   6    4.40    9.60
   1 -10  -6  151.88   21.80
  -1  10   6  117.59   19.50
  -1  10   6  144.99   21.30
   0 -10  -6   -0.20   12.30
   0  10   6    5.00   17.80
   0  10   6   -4.90   10.50
  -1 -10  -6   24.80   15.40
   1  10   6   -4.20   11.90
   1  10   6    5.20   11.00
   2  10   6    0.20   12.50
   2  10   6   21.90   15.10
   7 -11  -6   97.99   20.30
   7 -11  -6   55.99   35.50
  -7  11   6   85.19   19.20
   6 -11  -6  105.99   25.90
   6 -11  -6   53.69   16.20
  -6  11   6  117.89   21.50
   5 -11  -6  340.17   39.90
   5 -11  -6  425.96   31.10
  -5  11   6  380.56   30.90
   4 -11  -6  137.89   27.10
   4 -11  -6  131.79   29.80
  -4  11   6   97.89   20.30
   3 -11  -6   25.20   16.80
   3 -11  -6   14.20   13.30
  -3  11   6   27.30   13.20
  -3  11   6   19.50   12.50
   2 -11  -6   88.79   21.30
   2 -11  -6  185.68   24.30
  -2  11   6  211.48   27.80
   1 -11  -6  145.69   22.50
  -1  11   6  122.19   21.60
  -1  11   6  130.59   20.90
   0  11   6  117.29   21.20
   0  11   6  101.59   21.30
   1  11   6   -8.20   12.90
   1  11   6   -5.70   10.10
   4 -12  -6  168.78   30.70
   4 -12  -6  166.18   24.60
  -4  12   6  211.08   43.00
   3 -12  -6  107.39   22.20
   3 -12  -6   80.99   23.70
  -3  12   6  119.99   30.10
  -3  12   6   38.70   15.80
   2 -12  -6   11.80   18.30
  -2  12   6    3.30   18.90
  -2  12   6    6.30   13.30
   3  11  -7   30.50   17.40
   3  11  -7   -3.20   13.70
  -3 -11   7   21.40   18.50
   2  11  -7   86.69   22.20
   2  11  -7   50.39   19.40
  -2 -11   7   76.69   22.90
  -2 -11   7   77.19   22.50
   1  11  -7   78.29   21.60
   1  11  -7  111.29   22.20
  -1 -11   7  112.99   25.90
  -1 -11   7  125.49   25.90
   0  11  -7  142.89   27.50
   0  11  -7  146.09   26.20
   0 -11   7  142.49   27.20
   0 -11   7  134.79   26.00
  -1  11  -7   -1.90   13.80
  -1  11  -7   -9.90   10.60
   1 -11   7   21.10   17.70
   1 -11   7   -3.30   13.40
  -2  11  -7  104.59   22.40
  -2  11  -7   86.09   23.20
   2 -11   7   96.19   24.30
   2 -11   7   84.49   22.20
  -3  11  -7  117.39   24.70
  -3  11  -7  139.79   23.80
   3 -11   7  208.38   32.20
   3 -11   7  149.29   27.70
  -4  11  -7   95.19   37.80
  -4  11  -7  130.19   23.40
   4 -11   7   96.99   24.80
   5  10  -7   66.79   27.00
   5  10  -7  117.39   33.20
  -5 -10   7  104.39   25.50
   4  10  -7  134.89   25.80
   4  10  -7  259.17   32.70
  -4 -10   7  245.38   32.40
   3  10  -7   14.90   12.90
   3  10  -7    7.90   15.00
  -3 -10   7   27.60   17.20
   2  10  -7   22.10   14.60
   2  10  -7   33.90   19.30
  -2 -10   7   32.50   18.50
  -2 -10   7   17.40   15.10
   1  10  -7  326.97   35.50
   1  10  -7  336.67   37.00
  -1 -10   7  324.87   35.40
  -1 -10   7  280.17   32.50
   0  10  -7   87.69   19.40
   0  10  -7  119.89   22.70
   0 -10   7   66.79   20.30
   0 -10   7   99.09   22.60
  -1  10  -7   52.09   15.20
  -1  10  -7   60.79   19.60
   1 -10   7   72.49   19.50
   1 -10   7  118.39   24.10
  -2  10  -7   22.70   23.30
  -2  10  -7    6.70   12.70
   2 -10   7   -2.60   13.40
  -3  10  -7  281.37   30.00
  -3  10  -7  293.57   35.50
   3 -10   7  214.88   29.90
   3 -10   7  280.27   19.10
   3 -10   7  290.97   35.20
  -4  10  -7  385.36   30.50
  -4  10  -7  381.86   39.50
   4 -10   7  338.47   38.30
   4 -10   7  347.47   38.40
   4 -10   7  383.36   25.90
  -5  10  -7  134.89   23.30
  -5  10  -7  118.49   26.00
   5 -10   7  117.49   27.60
   5 -10   7  150.88   28.60
   5 -10   7  170.08   22.90
   6   9  -7   17.00   17.00
   6   9  -7  -10.10   13.00
   6   9  -7   -4.40   12.50
  -6  -9   7    4.40   16.90
   5   9  -7    4.90   15.00
   5   9  -7   20.30   14.60
  -5  -9   7   -2.00   14.30
   4   9  -7   -2.20   18.80
  -4  -9   7    4.20   14.50
   3   9  -7   23.90   15.80
   3   9  -7   35.80   14.90
  -3  -9   7   40.20   33.50
  -3  -9   7    9.50   14.10
   2   9  -7    4.20   11.60
   2   9  -7   -1.40    9.90
  -2  -9   7   -2.00   12.00
  -2  -9   7    7.50   14.30
   1   9  -7    7.30   11.30
   1   9  -7   32.10   14.60
  -1  -9   7   46.20   15.80
  -1  -9   7   15.30   14.00
   0   9  -7  152.68   21.10
   0   9  -7  182.98   25.10
   0  -9   7  234.08   29.00
   0  -9   7  226.28   28.40
  -1   9  -7   27.10   11.60
  -1   9  -7   15.90   13.60
   1  -9   7   13.80   27.00
   1  -9   7   19.90   13.80
   1  -9   7   53.19   17.10
  -2   9  -7   12.40   13.10
  -2   9  -7    2.00    8.50
   2  -9   7   10.50   13.10
   2  -9   7    2.30    7.90
   2  -9   7   -6.80   12.40
  -3   9  -7   50.89   17.60
  -3   9  -7  110.79   18.90
   3  -9   7   85.39   15.20
   3  -9   7  109.39   22.70
   3  -9   7   80.29   20.30
  -4   9  -7  192.18   29.00
  -4   9  -7  169.08   23.90
   4  -9   7  138.79   19.60
   4  -9   7  135.49   25.80
   4  -9   7  152.58   26.00
  -5   9  -7  198.68   25.30
  -5   9  -7  176.58   28.50
   5  -9   7  145.49   27.30
   5  -9   7  201.58   26.10
  -6   9  -7   33.40   19.90
   6  -9   7   32.90   18.90
   6  -9   7   77.39   21.60
   7   8  -7   31.80   16.00
   7   8  -7   40.00   18.80
   7   8  -7   44.80   18.70
  -7  -8   7   31.40   19.30
   6   8  -7   21.00   14.40
   6   8  -7   21.20   15.50
   6   8  -7   21.10   14.90
  -6  -8   7   14.00   15.90
   5   8  -7  360.76   34.00
   5   8  -7  336.27   35.10
   5   8  -7  291.97   31.00
  -5  -8   7  386.56   37.30
   4   8  -7  168.98   22.90
   4   8  -7  197.08   26.60
  -4  -8   7  182.28   26.70
  -4  -8   7  149.99   63.39
   3   8  -7  202.08   23.90
   3   8  -7  241.48   29.00
  -3  -8   7  228.28   26.10
  -3  -8   7  238.18   53.19
  -3  -8   7  254.97   29.70
   2   8  -7   17.10   12.50
  -2  -8   7   -2.90   12.00
  -2  -8   7   -5.50   15.20
  -2  -8   7   -2.00   10.00
   1   8  -7    4.40   11.20
   1   8  -7   16.60    9.80
  -1  -8   7   -1.00    9.70
  -1  -8   7   -1.90   10.80
  -1  -8   7   18.90   20.10
  -1  -8   7   -5.70   14.60
   0   8  -7  162.08   22.40
   0   8  -7  161.78   20.10
   0  -8   7  129.19   10.70
   0  -8   7  165.08   47.90
   0  -8   7  192.38   25.80
   0  -8   7  167.08   22.80
  -1   8  -7   19.60   10.10
  -1   8  -7   57.19   15.90
   1  -8   7   46.30   15.10
   1  -8   7   52.19   10.30
   1  -8   7  118.09   46.00
   1  -8   7   33.60   14.20
  -2   8  -7   99.89   19.00
   2  -8   7   72.89   13.20
   2  -8   7   61.99   22.40
   2  -8   7  130.49   50.69
  -3   8  -7    1.50    8.90
  -3   8  -7    8.30   12.90
   3  -8   7   -3.30   12.10
   3  -8   7  -18.90    8.10
   3  -8   7    6.70   12.40
  -4   8  -7   26.00   14.90
   4  -8   7   15.20   13.00
   4  -8   7   13.40   13.20
  -5   8  -7   35.70   18.00
   5  -8   7   37.60   16.60
   5  -8   7   40.50   16.70
  -6   8  -7   19.10   16.10
   6  -8   7   41.30   19.50
   6  -8   7   24.70   23.60
  -7   8  -7   -4.80   15.50
   7  -8   7   -3.20   15.40
   7  -8   7    9.50   18.10
   7  -8   7   -6.40   10.90
   8   7  -7  236.48   32.10
   8   7  -7  254.37   31.60
   8   7  -7  166.18   28.70
  -8  -7   7  231.48   35.80
  -8  -7   7  256.37   35.50
   7   7  -7  267.97   32.70
   7   7  -7  294.97   31.10
  -7  -7   7  302.57   36.20
  -7  -7   7  322.57   36.70
   6   7  -7   -8.10   11.00
   6   7  -7    5.90   11.90
   6   7  -7    0.90   11.90
  -6  -7   7    9.40   13.80
   5   7  -7   29.70   13.60
   5   7  -7   43.50   14.40
   5   7  -7   33.30   15.50
  -5  -7   7   23.50   14.00
  -5  -7   7   43.30   34.40
   4   7  -7  488.55   29.30
   4   7  -7  448.86   31.50
   4   7  -7  530.75   31.30
  -4  -7   7  569.64   44.50
  -4  -7   7  394.66   64.59
  -4  -7   7  471.15   30.20
   3   7  -7 1009.10   43.10
   3   7  -7 1170.78   43.10
  -3  -7   7 1090.69   46.70
  -3  -7   7 1005.80   82.79
  -3  -7   7 1070.99   43.10
   2   7  -7  573.74   30.30
   2   7  -7  504.65   30.70
  -2  -7   7  597.34   32.90
  -2  -7   7  563.24   71.39
  -2  -7   7  532.85   32.30
   1   7  -7   26.40    9.90
   1   7  -7   15.20    9.90
  -1  -7   7   37.90   13.00
  -1  -7   7   30.70    7.00
  -1  -7   7   52.29   27.30
  -1  -7   7   12.80   10.50
  -1  -7   7   14.60   16.60
   0   7  -7  160.38   18.80
   0   7  -7  190.08   21.80
   0  -7   7  175.08   36.90
   0  -7   7  178.38   22.70
   0  -7   7  180.38   49.99
   0  -7   7  209.38   24.40
   0  -7   7  172.28   13.80
  -1   7  -7  573.74   28.20
  -1   7  -7  682.93   33.60
  -1   7  -7  624.74   48.70
   1  -7   7  663.73   26.80
   1  -7   7  686.83   93.89
   1  -7   7  677.13   36.70
   1  -7   7  625.24   34.40
  -2   7  -7  391.86   23.70
  -2   7  -7  369.36   25.90
   2  -7   7  283.97   62.19
   2  -7   7  354.16   28.30
   2  -7   7  402.26   24.10
   2  -7   7  373.56   28.00
  -3   7  -7   11.40   11.10
   3  -7   7   16.20   27.10
   3  -7   7   -0.60   10.00
   3  -7   7   -1.60    8.60
  -4   7  -7  164.18   33.40
   4  -7   7  137.89   21.00
  -5   7  -7  245.98   28.90
   5  -7   7  270.57   30.80
   5  -7   7  200.78   19.70
   5  -7   7  236.18   28.10
  -6   7  -7  110.79   22.60
   6  -7   7   99.39   16.60
   6  -7   7  143.39   32.60
   6  -7   7  127.29   23.00
  -7   7  -7  261.07   32.80
   7  -7   7  292.67   34.90
   7  -7   7  237.88   25.00
   7  -7   7  257.47   37.90
   8   6  -7  185.48   29.00
   8   6  -7  108.49   23.00
   8   6  -7  131.49   22.20
  -8  -6   7  205.58   37.10
  -8  -6   7  273.67   34.70
   7   6  -7  258.17   30.80
   7   6  -7  229.58   26.00
   7   6  -7  322.67   34.20
  -7  -6   7  194.28   29.30
  -7  -6   7  229.68   30.20
   6   6  -7  145.29   21.80
   6   6  -7  139.29   32.90
   6   6  -7  113.39   19.20
  -6  -6   7  107.49   49.90
  -6  -6   7  216.58   56.29
  -6  -6   7  145.59   22.70
  -6  -6   7  150.28   24.10
   5   6  -7   -1.00    8.70
   5   6  -7   11.80    9.90
   5   6  -7   10.70   11.00
  -5  -6   7   28.70   14.20
  -5  -6   7    0.40   16.60
  -5  -6   7   20.70   25.40
  -5  -6   7   10.60   18.80
   4   6  -7  440.36   28.60
   4   6  -7  463.55   26.20
   4   6  -7  500.95   28.80
  -4  -6   7  463.85   28.30
  -4  -6   7  479.25   31.50
  -4  -6   7  464.85   76.49
  -4  -6   7  467.35   70.59
   3   6  -7  888.51   49.80
   3   6  -7  768.62   30.40
   3   6  -7  822.32   33.80
  -3  -6   7  826.92   23.40
  -3  -6   7  895.11   73.39
  -3  -6   7  658.13   84.59
  -3  -6   7  855.01   38.90
  -3  -6   7  815.02   36.10
   2   6  -7  834.62   38.00
   2   6  -7  860.51   35.90
  -2  -6   7  924.01   71.19
  -2  -6   7  841.12   24.90
  -2  -6   7  850.01   42.40
  -2  -6   7  826.52   36.20
  -2  -6   7  859.21   68.79
   1   6  -7   33.50    9.50
   1   6  -7   40.50   11.70
  -1  -6   7   10.90   15.00
  -1  -6   7   19.20    6.90
  -1  -6   7   19.50   10.20
  -1  -6   7    9.70   13.00
  -1  -6   7    7.70    8.10
   0   6  -7   32.00    9.00
   0   6  -7   28.10   10.50
   0  -6   7   32.20   23.60
   0  -6   7   18.90   10.70
   0  -6   7   22.40    7.70
   0  -6   7   60.69   13.70
  -1   6  -7  368.26   43.50
  -1   6  -7  425.26   24.80
   1  -6   7  360.96   43.20
   1  -6   7  455.55   71.99
  -2   6  -7  781.52   33.70
  -2   6  -7  716.13   62.29
   2  -6   7  871.11   34.00
   2  -6   7  808.82   97.19
   2  -6   7  809.92   37.80
  -3   6  -7  636.24   51.09
  -3   6  -7  560.34   30.00
   3  -6   7  592.74   31.00
   3  -6   7  615.04   23.50
   3  -6   7  560.84   32.30
   3  -6   7  612.34   86.69
  -4   6  -7  263.87   26.10
   4  -6   7  268.17   26.90
   4  -6   7  227.88   57.39
   4  -6   7  212.88   18.70
   4  -6   7  260.27   27.00
  -5   6  -7   10.10   11.00
   5  -6   7    1.60    8.40
   5  -6   7   -8.40    9.70
   5  -6   7   23.90   14.00
  -6   6  -7  161.58   24.40
   6  -6   7  168.58   26.10
   6  -6   7  236.28   28.60
   6  -6   7  170.58   20.30
  -7   6  -7  194.68   28.10
   7  -6   7  178.68   28.40
   7  -6   7  215.78   29.70
  -8   6  -7   76.79   24.40
   8  -6   7   49.20   16.90
   8  -6   7   53.59   24.40
   9   5  -7   16.40   16.00
   9   5  -7   11.20   13.70
   9   5  -7   -9.80   12.50
  -9  -5   7   -7.20   15.60
  -9  -5   7   25.50   20.60
   8   5  -7    6.60   12.10
   8   5  -7   -2.30   11.00
   8   5  -7    3.40   11.00
  -8  -5   7   12.30   15.70
   7   5  -7   13.30   11.90
   7   5  -7   10.50   11.40
   7   5  -7   22.20   12.50
  -7  -5   7   -6.80   20.60
  -7  -5   7   18.50   11.50
  -7  -5   7    6.00   12.60
  -7  -5   7   -3.50   11.70
   6   5  -7    5.60   10.50
   6   5  -7   -9.70    7.40
   6   5  -7   14.00   10.70
  -6  -5   7   -5.60   18.40
  -6  -5   7    6.30   21.60
  -6  -5   7    0.30    6.50
  -6  -5   7    1.90   10.70
   5   5  -7   38.90   13.00
   5   5  -7   42.90   12.10
   5   5  -7   35.30   11.50
  -5  -5   7   30.70    8.10
  -5  -5   7   60.69   13.90
  -5  -5   7   48.10   13.60
  -5  -5   7   39.30   28.50
  -5  -5   7   19.20   22.70
   4   5  -7    6.90    7.00
   4   5  -7    9.00    7.40
   4   5  -7   10.40    9.30
  -4  -5   7   15.60    9.70
  -4  -5   7    1.10    5.10
  -4  -5   7   -2.60   13.80
  -4  -5   7   10.20   14.60
  -4  -5   7    3.60    8.70
   3   5  -7    8.80    6.40
   3   5  -7   -3.00    5.70
   3   5  -7    2.80    5.20
   3   5  -7    0.80    7.40
  -3  -5   7   -3.40   14.60
  -3  -5   7   -3.00    8.30
  -3  -5   7    0.80    5.40
  -3  -5   7   -2.00    7.60
  -3  -5   7   -2.10   10.40
  -3  -5   7    4.20   13.50
   2   5  -7  100.29   10.10
   2   5  -7  124.49   14.90
   2   5  -7   80.49   10.50
   2   5  -7  113.69   16.20
   2   5  -7  102.69   25.50
  -2  -5   7  143.39   36.00
  -2  -5   7   90.89   11.30
  -2  -5   7   94.59   15.20
  -2  -5   7  115.49   32.60
  -2  -5   7  136.29   17.40
   1   5  -7  325.67   42.30
   1   5  -7  218.18   15.80
   1   5  -7  279.97   37.30
   1   5  -7  230.38   17.80
  -1  -5   7  228.98   45.30
  -1  -5   7  263.27   16.20
  -1  -5   7  261.77   20.20
  -1  -5   7  262.17   20.30
   0   5  -7   50.39    9.70
   0   5  -7   65.29   21.10
   0   5  -7   58.99   11.90
   0  -5   7   45.60    9.60
   0  -5   7   22.80    9.50
   0  -5   7   26.90   19.40
   0  -5   7   50.39   11.60
  -1   5  -7   13.00    8.60
  -1   5  -7   19.10   12.70
   1  -5   7   38.00   11.30
   1  -5   7   74.29   31.00
   1  -5   7    9.50    7.20
   1  -5   7   10.90    9.50
  -2   5  -7  671.63   50.39
  -2   5  -7  670.23   29.10
   2  -5   7  567.54   82.19
   2  -5   7  644.74   29.80
   2  -5   7  568.34   20.30
   2  -5   7  579.24   30.70
  -3   5  -7  703.33   31.20
  -3   5  -7  742.63   56.59
   3  -5   7  698.73   34.40
   3  -5   7  695.93   95.59
   3  -5   7  722.83   34.20
   3  -5   7  679.03   24.70
  -4   5  -7  287.57   45.60
  -4   5  -7  308.77   24.60
   4  -5   7  271.87   26.20
   4  -5   7  234.18   24.80
   4  -5   7  288.27   18.40
   4  -5   7  371.76   79.59
  -5   5  -7  234.98   44.00
  -5   5  -7  179.88   32.20
   5  -5   7  230.68   27.10
   5  -5   7  187.38   59.99
   5  -5   7  273.27   27.00
   5  -5   7  230.58   20.50
  -6   5  -7  -12.20   11.50
  -6   5  -7  -13.40   14.10
   6  -5   7   23.40   11.00
   6  -5   7   -8.40   11.60
   6  -5   7   22.40   15.60
  -7   5  -7   77.59   25.50
  -7   5  -7   93.69   22.70
   7  -5   7  142.79   26.00
   7  -5   7  112.59   19.10
  -8   5  -7  182.68   33.00
  -8   5  -7  149.79   27.40
   8  -5   7  155.68   22.30
   8  -5   7  149.09   28.70
  10   4  -7  242.68   39.70
  10   4  -7  207.78   26.70
 -10  -4   7  270.67   40.10
 -10  -4   7  306.17   52.89
 -10  -4   7  236.28   24.60
   9   4  -7    4.60   11.80
   9   4  -7    0.80   12.90
   9   4  -7   -2.40   11.90
  -9  -4   7  -15.30   14.00
  -9  -4   7   33.20   20.30
  -9  -4   7   10.40   16.10
   8   4  -7   47.40   15.50
   8   4  -7   40.80   13.90
   8   4  -7    2.10   10.90
  -8  -4   7   14.00   14.20
  -8  -4   7   20.20   15.10
  -8  -4   7   25.90   11.50
   7   4  -7  137.89   26.30
   7   4  -7  148.09   21.20
   7   4  -7  172.28   20.60
  -7  -4   7   75.39   44.80
  -7  -4   7  156.68   18.00
  -7  -4   7  189.58   25.70
   6   4  -7  450.45   27.70
   6   4  -7  404.06   24.90
   6   4  -7  414.66   26.80
  -6  -4   7  353.06   64.29
  -6  -4   7  390.36   28.90
  -6  -4   7  402.36   22.30
  -6  -4   7  553.54   98.59
   5   4  -7   44.30   11.00
   5   4  -7   95.29   15.80
   5   4  -7   61.99   12.30
  -5  -4   7   75.79   13.50
  -5  -4   7   49.40   41.40
  -5  -4   7   55.09   12.90
  -5  -4   7   55.49   30.70
  -5  -4   7   49.10   11.00
   4   4  -7    4.10    5.20
   4   4  -7   -1.20    5.30
   4   4  -7    8.60    8.40
  -4  -4   7    1.70    7.80
  -4  -4   7   10.20   15.30
  -4  -4   7    4.10    5.60
  -4  -4   7   -4.70    6.40
   3   4  -7  139.99   19.80
   3   4  -7  125.59   34.90
   3   4  -7  139.49   11.10
   3   4  -7  134.79   14.80
  -3  -4   7  140.09   13.70
  -3  -4   7  156.28   35.60
  -3  -4   7  151.78   32.00
  -3  -4   7  150.48   17.70
  -3  -4   7  133.29   17.30
   2   4  -7  149.69   16.10
   2   4  -7  142.79   15.60
   2   4  -7  138.59   10.20
   2   4  -7  139.09   29.30
  -2  -4   7  145.79   12.50
  -2  -4   7  133.59   16.30
  -2  -4   7  178.68   18.90
  -2  -4   7  116.49   32.00
   1   4  -7  796.02   50.49
   1   4  -7  777.42   21.20
   1   4  -7  817.02   27.10
   1   4  -7  774.72   50.59
   1   4  -7  775.22   28.20
  -1  -4   7  772.72   31.00
  -1  -4   7  807.92   27.60
  -1  -4   7  763.92   31.20
  -1  -4   7  799.42   64.99
   0   4  -7   51.69   17.50
   0   4  -7   38.60    9.20
   0   4  -7   39.70    8.30
   0   4  -7   24.40   13.20
   0  -4   7   44.90   10.40
   0  -4   7  104.89   31.50
   0  -4   7   50.59   11.20
   0  -4   7   47.60    9.60
  -1   4  -7    8.50   11.20
  -1   4  -7    8.80   10.60
  -1   4  -7   18.40   10.00
  -1   4  -7    7.90    6.60
   1  -4   7    0.10   11.00
   1  -4   7   11.80    7.90
   1  -4   7   10.10    7.00
  -2   4  -7   70.39   14.80
  -2   4  -7   62.29   21.30
  -2   4  -7   96.59   25.60
   2  -4   7   76.49   31.00
   2  -4   7   90.59   14.90
   2  -4   7   89.69   14.70
  -3   4  -7  169.78   18.60
  -3   4  -7  179.58   35.50
  -3   4  -7  165.98   21.80
   3  -4   7  164.78   44.10
   3  -4   7  167.38   13.40
   3  -4   7  194.18   21.50
   3  -4   7  170.58   20.70
  -4   4  -7    2.50   11.30
  -4   4  -7    1.20   15.40
  -4   4  -7    6.90    8.70
   4  -4   7   -4.10    8.30
   4  -4   7    1.90    6.50
   4  -4   7   26.20   20.10
   4  -4   7  -11.40   15.20
  -5   4  -7   15.20   14.10
  -5   4  -7   39.90   25.90
  -5   4  -7    8.80   10.70
   5  -4   7   18.70   22.10
   5  -4   7    7.20   10.50
   5  -4   7    2.30    7.00
   5  -4   7    6.50   11.60
  -6   4  -7   -4.90   14.10
  -6   4  -7   33.00   26.60
  -6   4  -7    9.00   11.10
   6  -4   7   18.10   10.70
   6  -4   7   -1.30   12.50
  -7   4  -7   54.29   18.90
  -7   4  -7   91.09   25.60
   7  -4   7   29.80   18.50
   7  -4   7   80.39   17.00
  -8   4  -7   64.39   20.60
  -8   4  -7   89.89   25.90
   8  -4   7   76.19   29.20
  10   3  -7  147.19   27.00
 -10  -3   7  190.18   30.70
 -10  -3   7  168.98   32.60
 -10  -3   7  141.99   22.90
   9   3  -7   57.39   14.80
   9   3  -7   19.10   17.10
  -9  -3   7   39.90   22.60
  -9  -3   7   49.40   15.50
  -9  -3   7   46.70   20.90
   8   3  -7   11.40   10.90
   8   3  -7    4.00   10.60
   8   3  -7   -4.30    8.50
  -8  -3   7   -8.60    8.20
  -8  -3   7   -4.60   11.50
  -8  -3   7    3.40   19.80
   7   3  -7  137.09   17.90
   7   3  -7  194.58   22.80
   7   3  -7  174.28   20.80
  -7  -3   7  153.78   21.90
  -7  -3   7  163.28   47.30
  -7  -3   7   62.69   36.00
  -7  -3   7  127.19   17.60
   6   3  -7  244.38   18.50
   6   3  -7  259.87   20.90
  -6  -3   7  286.57   20.30
  -6  -3   7  241.08   18.70
  -6  -3   7  155.38   40.60
  -6  -3   7  296.07   23.80
  -6  -3   7  221.68   60.09
   5   3  -7 1561.74   42.60
   5   3  -7 1571.44   43.90
   5   3  -7 1621.04   41.40
  -5  -3   7 1608.84   49.40
  -5  -3   7 1522.35   94.59
  -5  -3   7 1548.74   43.30
  -5  -3   7 1549.05   53.19
   4   3  -7  585.24   23.90
   4   3  -7  517.35   24.90
   4   3  -7  527.75   24.60
   4   3  -7  600.34   68.59
  -4  -3   7  655.53   73.09
  -4  -3   7  548.45   23.80
  -4  -3   7  532.75   27.10
  -4  -3   7  494.45   24.70
   3   3  -7  138.69  384.56
   3   3  -7   38.50    7.30
   3   3  -7   67.99   22.80
   3   3  -7   20.10    6.60
   3   3  -7   23.50    7.80
  -3  -3   7   33.80    8.10
  -3  -3   7   26.00   15.40
  -3  -3   7   55.59   20.40
  -3  -3   7   56.69   11.90
   2   3  -7  883.81   26.70
   2   3  -7  712.23  629.44
   2   3  -7  945.91   59.19
   2   3  -7  917.91   54.49
   2   3  -7  912.11   28.30
   2   3  -7  943.01   25.10
  -2  -3   7  928.61   32.10
  -2  -3   7  838.42   62.39
  -2  -3   7  933.61   32.60
  -2  -3   7 1165.48  325.67
  -2  -3   7  936.61   29.50
   1   3  -7 1410.46   66.59
   1   3  -7 1325.27   29.60
   1   3  -7 1669.93  399.06
   1   3  -7 1404.46   70.79
   1   3  -7 1367.76   32.80
   1   3  -7 1351.76   34.10
  -1  -3   7 1414.46   37.30
  -1  -3   7 1350.26   39.70
  -1  -3   7 1393.86   83.79
  -1  -3   7 1376.36   39.00
  -1  -3   7 1271.97  323.77
   0   3  -7 1616.34   33.70
   0   3  -7 1727.93   77.59
   0   3  -7 1763.52   75.59
   0   3  -7 1085.69  437.16
   0   3  -7 1824.72   44.60
   0  -3   7 1683.43   44.70
   0  -3   7 1652.33  117.79
   0  -3   7 1712.13  399.46
   0  -3   7 1764.52   44.00
   0  -3   7 1672.43   43.80
  -1   3  -7   30.40   17.80
  -1   3  -7   54.19    9.20
  -1   3  -7   24.10    6.40
  -1   3  -7   27.20   17.00
  -1   3  -7  -47.00  447.16
  -1   3  -7   39.20   10.70
   1  -3   7 -464.65  389.76
   1  -3   7   34.00    9.20
   1  -3   7   40.20   24.30
   1  -3   7   29.90    8.90
  -2   3  -7   67.09   25.80
  -2   3  -7  260.97  489.35
  -2   3  -7   69.79   14.20
  -2   3  -7   59.69   19.90
   2  -3   7  401.76  449.66
   2  -3   7   91.89   32.80
  -3   3  -7 1000.90   68.29
  -3   3  -7  985.00   35.80
  -3   3  -7  883.91   43.10
  -3   3  -7  901.41   29.80
  -3   3  -7  949.31   74.09
   3  -3   7  882.21   36.50
   3  -3   7  911.61   34.10
  -4   3  -7  512.55   25.40
  -4   3  -7  491.35   71.49
  -4   3  -7  605.04   71.79
  -4   3  -7  569.64   34.40
   4  -3   7  586.84   32.40
   4  -3   7  567.84   27.80
   4  -3   7  577.84   85.29
  -5   3  -7  321.17   25.90
  -5   3  -7  262.17   24.20
  -5   3  -7  277.27   30.30
  -5   3  -7  158.58   51.69
   5  -3   7  215.98   57.79
   5  -3   7  299.77   35.90
   5  -3   7  283.77   38.90
  -6   3  -7  104.09   36.50
  -6   3  -7  103.49   19.40
  -6   3  -7   89.29   21.70
   6  -3   7   84.99   20.50
   6  -3   7   53.69   36.70
  -7   3  -7   28.00   19.80
  -7   3  -7    7.50   23.90
  -7   3  -7    6.60   13.30
  -8   3  -7   94.29   25.60
  -8   3  -7  116.79   23.30
  10   2  -7    6.30   13.80
 -10  -2   7   14.30   13.40
 -10  -2   7   28.50   17.70
 -10  -2   7   30.20   19.10
   9   2  -7   34.80   15.30
  -9  -2   7   46.10   15.20
  -9  -2   7   -8.00   12.00
   8   2  -7   47.90   11.50
  -8  -2   7  114.79   18.70
  -8  -2   7   78.29   20.60
  -8  -2   7   59.29   31.70
   7   2  -7   76.39   14.40
   7   2  -7   56.89   11.80
  -7  -2   7  105.59   48.30
  -7  -2   7   80.39   14.40
  -7  -2   7   59.39   16.90
  -7  -2   7   69.99   31.10
  -7  -2   7   90.89   17.10
   6   2  -7  309.07   20.40
   6   2  -7  304.57   20.70
   6   2  -7  307.67   19.00
  -6  -2   7  454.75   65.99
  -6  -2   7  298.87   23.50
  -6  -2   7  321.97   20.60
  -6  -2   7  393.66   78.79
  -6  -2   7  321.87   32.10
   5   2  -7  601.04   23.90
   5   2  -7  630.04   26.20
   5   2  -7  637.94   25.00
   5   2  -7  732.23   83.19
  -5  -2   7  627.64   27.10
  -5  -2   7  668.73   74.19
  -5  -2   7  674.03   28.60
  -5  -2   7  584.14   28.70
   4   2  -7  721.33   85.49
   4   2  -7  809.42   62.89
   4   2  -7  697.43   24.30
   4   2  -7  704.63   25.40
   4   2  -7  692.13   24.10
   4   2  -7  206.68  549.85
  -4  -2   7  810.82   89.59
  -4  -2   7  736.23   30.20
  -4  -2   7  725.33   27.70
  -4  -2   7  676.13   27.60
   3   2  -7  -14.20  277.17
   3   2  -7  342.87   47.90
   3   2  -7  334.87   17.20
   3   2  -7  312.07   15.30
  -3  -2   7  272.47   17.90
  -3  -2   7  300.67   17.50
  -3  -2   7  320.67   19.00
  -3  -2   7 -237.18  266.67
  -3  -2   7  364.56   46.20
   2   2  -7    2.00    6.40
   2   2  -7  -64.79  273.47
   2   2  -7    0.80    3.80
   2   2  -7    9.20    9.60
   2   2  -7    5.10    3.90
  -2  -2   7   15.00   13.40
  -2  -2   7    6.90    5.40
  -2  -2   7 -195.88  255.87
  -2  -2   7   -1.10    5.30
  -2  -2   7    6.00    6.30
   1   2  -7 1181.38   67.59
   1   2  -7 1468.05  353.26
   1   2  -7 1206.78   60.89
   1   2  -7 1204.78   29.30
  -1  -2   7 1289.87   35.40
  -1  -2   7 1207.48   33.90
  -1  -2   7 1277.37   36.60
  -1  -2   7 1016.00  320.77
  -1  -2   7 1183.88   75.79
   0   2  -7 3282.37  105.89
   0   2  -7 2813.62  738.33
   0   2  -7 3018.20  111.49
   0   2  -7 3033.60   52.39
   0   2  -7 3113.79   66.69
   0  -2   7 3199.58   61.39
   0  -2   7 3016.50   60.59
   0  -2   7 3141.09   59.19
   0  -2   7 3059.19  459.35
   0  -2   7 3117.49  129.49
  -1   2  -7 1627.54  401.36
  -1   2  -7 1328.57   70.09
  -1   2  -7 1327.77   30.80
  -1   2  -7 1198.88   74.89
  -1   2  -7 1303.67   42.10
   1  -2   7 1366.46   38.00
   1  -2   7 1201.88   83.79
   1  -2   7 1367.76   39.60
   1  -2   7  578.84  383.06
  -2   2  -7  242.08   15.80
  -2   2  -7  263.47   47.60
  -2   2  -7  468.65  422.66
  -2   2  -7  245.48   16.80
  -2   2  -7  353.46   47.40
  -2   2  -7  241.48   20.60
   2  -2   7  300.37   18.40
   2  -2   7  225.28   46.40
   2  -2   7  270.17   19.70
   2  -2   7 -128.09  416.66
  -3   2  -7  143.59   18.80
  -3   2  -7  141.39   40.80
  -3   2  -7  197.68   16.00
  -3   2  -7 -518.45  710.43
  -3   2  -7  211.08   19.70
  -3   2  -7  183.38   38.90
   3  -2   7  180.58   15.70
   3  -2   7  184.58   20.00
   3  -2   7  606.04  487.85
   3  -2   7  150.88   40.20
  -4   2  -7 1805.52   51.29
  -4   2  -7 2010.20  105.19
  -4   2  -7 1872.71  120.59
  -4   2  -7 1910.81   60.19
  -4   2  -7 1908.41   51.29
   4  -2   7 1971.10  122.39
   4  -2   7 1884.61   56.29
   4  -2   7 1764.82   46.20
  -5   2  -7  799.22   35.40
  -5   2  -7  814.82   42.40
  -5   2  -7  747.83  102.19
  -5   2  -7  688.23   79.59
  -5   2  -7  841.62   37.20
   5  -2   7  819.42   40.50
   5  -2   7  641.84   86.59
  -6   2  -7   97.79   23.10
  -6   2  -7  114.79   19.50
  -6   2  -7   81.29   36.20
  -6   2  -7  122.29   29.10
  -6   2  -7   82.09   41.60
   6  -2   7   94.29   44.80
  -7   2  -7    7.90   12.00
  -7   2  -7    4.90   15.10
  -7   2  -7   22.70   17.10
  -7   2  -7   10.00   28.90
  -8   2  -7  163.08   26.30
  -8   2  -7  111.99   25.40
  11   1  -7   -4.00   12.40
 -11  -1   7   -0.40   15.90
 -11  -1   7   14.40   17.10
 -11  -1   7   -6.90   17.10
  10   1  -7    4.50   11.20
 -10  -1   7   -7.60   10.90
 -10  -1   7   12.90   15.70
 -10  -1   7   -6.90   12.10
  -9  -1   7    0.40   20.50
  -9  -1   7   -7.20   11.00
  -9  -1   7    2.60   10.20
  -8  -1   7   17.10   35.10
  -8  -1   7    1.10   16.50
  -8  -1   7    5.80   11.10
  -8  -1   7   -2.40    8.30
   7   1  -7  146.69   15.20
   7   1  -7  176.78   18.70
  -7  -1   7  166.48   20.90
  -7  -1   7  258.47   73.59
  -7  -1   7  185.98   55.59
  -7  -1   7  189.58   19.00
  -7  -1   7  183.78   21.30
   6   1  -7   32.60    7.00
   6   1  -7   38.80    9.70
   6   1  -7   31.00    8.50
   6   1  -7   37.30   22.40
   6   1  -7   28.80    7.90
  -6  -1   7   35.40   10.70
  -6  -1   7   23.10    8.80
  -6  -1   7   73.19   28.40
  -6  -1   7   49.00   10.60
   5   1  -7   -5.40    7.50
   5   1  -7   -3.50    5.00
   5   1  -7   -0.80    4.00
   5   1  -7    6.10    5.50
   5   1  -7   -0.20    3.50
   5   1  -7    4.40    7.10
  -5  -1   7    4.70    6.70
  -5  -1   7    3.10    6.00
  -5  -1   7    0.40   10.70
   4   1  -7  355.76  348.57
   4   1  -7  126.99   11.70
   4   1  -7  144.99   16.60
   4   1  -7  154.18   14.00
   4   1  -7  121.29   12.00
   4   1  -7  150.58   34.50
   4   1  -7  143.29   34.30
  -4  -1   7  136.19  278.57
  -4  -1   7  152.18   15.50
  -4  -1   7  138.39   15.20
  -4  -1   7  156.88   16.70
  -4  -1   7  103.39   27.90
   3   1  -7 -152.28  258.47
   3   1  -7  217.88   44.00
   3   1  -7  309.27   48.10
   3   1  -7  266.87   14.20
   3   1  -7  282.87   35.90
  -3  -1   7  231.88   15.70
  -3  -1   7  263.67   17.20
  -3  -1   7  270.47  299.17
  -3  -1   7  258.07   16.00
   2   1  -7  100.99   10.40
   2   1  -7  133.09   24.60
   2   1  -7  108.39   26.10
   2   1  -7  433.56  296.37
  -2  -1   7   91.29   11.90
  -2  -1   7  156.88  249.78
  -2  -1   7   92.89   26.80
  -2  -1   7  101.19   12.30
  -2  -1   7   92.49   11.40
   1   1  -7   32.60    6.80
   1   1  -7  -58.79  307.37
   1   1  -7   29.50    8.80
   1   1  -7   67.59   21.90
   1   1  -7   92.79   22.20
  -1  -1   7   11.30    6.20
  -1  -1   7   51.19    9.30
  -1  -1   7   30.40    7.30
  -1  -1   7  164.18  266.47
  -1  -1   7   34.40   19.00
   0   1  -7 1519.15   37.40
   0   1  -7 1600.54  396.56
   0   1  -7 1598.84   74.09
   0   1  -7 1512.15   48.80
   0   1  -7 1581.84   85.49
   0   1  -7 1504.75   35.40
   0  -1   7 1666.43  354.36
   0  -1   7 1483.35   86.89
   0  -1   7 1465.55   38.80
   0  -1   7 1571.24   40.70
  -1   1  -7  635.44   57.29
  -1   1  -7  955.80  408.66
  -1   1  -7  526.05   26.70
  -1   1  -7  544.55   45.70
  -1   1  -7  520.75   24.10
  -1   1  -7  500.65   21.40
   1  -1   7  534.85   22.70
   1  -1   7  503.25   24.10
   1  -1   7  183.88  348.97
   1  -1   7  628.34   77.69
  -2   1  -7 -324.47  383.36
  -2   1  -7  175.88   14.50
  -2   1  -7  204.18   38.00
  -2   1  -7  214.08   45.90
  -2   1  -7  178.28   19.50
  -2   1  -7  221.88   16.00
   2  -1   7  175.88   14.30
   2  -1   7  189.08   18.60
   2  -1   7  255.27   51.19
   2  -1   7  358.56  422.56
  -3   1  -7  188.98   22.20
  -3   1  -7  186.78   21.00
  -3   1  -7  136.39   40.80
  -3   1  -7  177.78   17.50
  -3   1  -7  216.28   42.10
   3  -1   7  120.69   37.10
   3  -1   7  191.48   12.50
   3  -1   7  190.78   15.00
   3  -1   7  218.18   20.90
  -4   1  -7   61.49   31.80
  -4   1  -7  104.99   16.00
  -4   1  -7   86.19   32.00
  -4   1  -7   84.69   14.80
  -4   1  -7   86.79   17.20
   4  -1   7   61.99   14.70
   4  -1   7  141.19   51.39
  -5   1  -7  693.83   38.20
  -5   1  -7  640.94   98.99
  -5   1  -7  521.05   73.09
  -5   1  -7  675.23   34.80
  -5   1  -7  603.04   31.90
   5  -1   7  578.74   88.09
  -6   1  -7  393.46   30.70
  -6   1  -7  538.55   81.69
  -6   1  -7  369.76   28.70
  -6   1  -7  379.76   31.70
  -6   1  -7  179.08   62.39
   6  -1   7  239.58   55.69
  -7   1  -7  103.49   20.80
  -7   1  -7  104.09   22.70
  -7   1  -7   79.69   21.30
  -8   1  -7   -0.80   15.70
  -8   1  -7   35.90   17.70
  11   0  -7   65.59   20.80
 -11   0   7   76.99   24.50
 -11   0   7  129.89   25.90
 -11   0   7  114.89   25.10
 -10   0   7  -12.30   11.90
 -10   0   7   15.30   15.90
  -9   0   7   92.19   41.70
  -9   0   7  129.19   22.80
  -9   0   7  183.28   25.60
   8   0  -7  394.26   20.20
  -8   0   7  428.26   29.00
  -8   0   7  356.66   79.29
  -8   0   7  418.86   28.30
  -8   0   7  390.76   69.19
   7   0  -7  171.18   22.80
   7   0  -7  167.88   15.20
   7   0  -7  203.58   20.00
   7   0  -7  191.78   48.10
  -7   0   7  194.48   23.10
  -7   0   7  192.68   19.10
  -7   0   7  239.38   23.80
  -7   0   7  195.68   44.20
   6   0  -7   90.89   30.00
   6   0  -7   43.80    8.00
   6   0  -7   57.79   13.90
   6   0  -7   11.80   14.40
   6   0  -7   43.20    9.30
  -6   0   7   42.40   10.30
  -6   0   7   27.80    9.50
  -6   0   7   28.30   21.60
  -6   0   7   55.69   11.90
   5   0  -7   68.99  344.17
   5   0  -7  104.39   30.80
   5   0  -7  149.19   15.30
   5   0  -7  116.99   11.10
   5   0  -7   87.59   14.90
   5   0  -7  145.29   37.90
  -5   0   7  137.79   20.30
  -5   0   7   95.39   27.10
  -5   0   7  120.19   14.20
  -5   0   7   79.39   12.30
  -5   0   7  546.75  333.37
   4   0  -7 1072.99  352.96
   4   0  -7  453.05   63.09
   4   0  -7  544.65   63.19
   4   0  -7  489.75   20.10
   4   0  -7  427.36   16.10
  -4   0   7  459.65   22.60
  -4   0   7  125.19  280.67
  -4   0   7  469.05   22.00
  -4   0   7  463.65   20.60
  -4   0   7  511.65   44.80
   3   0  -7  718.93   45.50
   3   0  -7  761.72   24.40
   3   0  -7  733.73   58.59
   3   0  -7  257.37  277.77
   3   0  -7  755.92   24.80
   3   0  -7  760.02   67.99
   3   0  -7  825.82   31.10
  -3   0   7  887.41  286.07
  -3   0   7  742.03   28.80
  -3   0   7  770.22   27.40
  -3   0   7  745.93   23.70
   2   0  -7   99.99  260.57
   2   0  -7    2.60    5.60
   2   0  -7    7.40   11.20
   2   0  -7   -0.30    4.30
   2   0  -7   -2.00    4.80
  -2   0   7   41.40  239.18
  -2   0   7    9.90    5.90
  -2   0   7   13.00    6.00
   1   0  -7 -145.39  294.37
   1   0  -7  166.48   14.10
   1   0  -7  162.58   36.00
   1   0  -7  144.49   26.60
   1   0  -7  145.69   13.40
  -1   0   7  279.67  248.38
  -1   0   7  150.58   13.10
  -1   0   7  151.88   34.50
   0   0  -7   83.79   12.50
   0   0  -7   70.99   19.90
   0   0  -7   94.19   12.80
   0   0  -7   94.89   11.70
   0   0  -7  404.66  317.17
   0   0  -7   60.19   24.20
   0   0   7   91.99    8.90
   0   0   7   78.99   11.10
   0   0   7  237.48  276.97
   0   0   7   61.19   22.70
  -1   0  -7  226.78   13.60
  -1   0  -7  247.98   18.60
  -1   0  -7  193.18   42.60
  -1   0  -7  852.11  385.16
  -1   0  -7  231.48   15.90
  -1   0  -7  220.78   37.00
  -1   0  -7  227.18   17.60
   1   0   7  188.78   38.40
   1   0   7  219.88   14.70
   1   0   7  223.48   12.10
   1   0   7   21.80  339.97
  -2   0  -7  145.09   40.40
  -2   0  -7   87.69   15.60
  -2   0  -7   80.69   12.70
  -2   0  -7   54.29   24.60
  -2   0  -7   89.99   11.30
   2   0   7  118.19   34.70
   2   0   7   98.19   13.90
   2   0   7   94.59   12.00
   2   0   7  104.59   10.90
  -3   0  -7  213.38   42.50
  -3   0  -7  243.18   23.00
  -3   0  -7  191.98   20.70
  -3   0  -7  210.58   52.69
  -3   0  -7  193.98   17.50
   3   0   7  188.38   14.00
   3   0   7  219.48   21.00
   3   0   7  210.38   19.80
   3   0   7  189.38   43.90
  -4   0  -7  138.29   38.00
  -4   0  -7  143.49   19.20
  -4   0  -7  149.09   19.20
  -4   0  -7  198.18   19.80
  -4   0  -7  150.88   46.40
   4   0   7  180.38   16.90
   4   0   7   77.99   30.50
  -5   0  -7   23.70   33.20
  -5   0  -7    0.90    9.70
  -5   0  -7   -0.30   15.10
  -5   0  -7    8.40    9.80
  -5   0  -7    0.30    9.80
   5   0   7    4.10   19.80
  -6   0  -7   71.19   18.60
  -6   0  -7   50.29   15.20
  -6   0  -7   47.90   17.00
  -6   0  -7   64.39   33.60
  -6   0  -7   52.79   46.30
   6   0   7   22.60   27.10
  -7   0  -7   -6.50   12.00
  -7   0  -7   -7.40   12.50
  -7   0  -7    0.20   13.60
  -8   0  -7   -6.50   14.90
  -8   0  -7  -12.30   14.90
  -8   0  -7    2.50   15.30
 -11   1   7  177.68   29.50
 -11   1   7  203.48   30.20
 -11   1   7  240.98   34.30
  10  -1  -7   19.30   10.00
 -10   1   7   18.00   30.10
 -10   1   7   17.70   14.10
 -10   1   7   49.00   17.80
   9  -1  -7  180.98   19.20
  -9   1   7  204.28   27.30
  -9   1   7  212.18   52.49
  -9   1   7  110.99   26.70
   8  -1  -7 1124.09   39.10
   8  -1  -7 1091.59   48.70
  -8   1   7 1083.09   45.90
  -8   1   7 1149.98   43.70
  -8   1   7 1063.99  137.09
   7  -1  -7 1211.78   92.39
   7  -1  -7 1274.37   49.40
   7  -1  -7 1358.96   40.30
   7  -1  -7 1375.56   36.20
  -7   1   7 1353.06   43.30
  -7   1   7 1575.24   92.19
  -7   1   7 1313.47   47.90
   6  -1  -7  967.40   33.00
   6  -1  -7  953.80   31.80
   6  -1  -7 1097.09   79.29
   6  -1  -7  987.40   40.00
  -6   1   7  999.80   34.50
  -6   1   7  975.10   38.20
  -6   1   7  996.20   35.10
   5  -1  -7   11.50    6.00
   5  -1  -7    5.20    4.90
   5  -1  -7    3.90   10.10
   5  -1  -7   14.40    8.20
   5  -1  -7 -102.39  354.66
   5  -1  -7   -2.00   12.10
  -5   1   7    0.90    5.40
  -5   1   7 -242.18  302.07
  -5   1   7   -4.90    5.80
  -5   1   7   18.30   15.40
   4  -1  -7 1466.05   94.19
   4  -1  -7 1312.77   82.39
   4  -1  -7 1375.86  410.86
   4  -1  -7 1420.36   32.60
   4  -1  -7 1458.45   36.10
   4  -1  -7 1499.15   43.50
  -4   1   7 1411.46   38.70
  -4   1   7 1297.97  335.07
  -4   1   7 1364.76   33.50
  -4   1   7 1367.86   39.70
   3  -1  -7 1795.72   93.19
   3  -1  -7  981.10  324.67
   3  -1  -7 1803.72   39.70
   3  -1  -7 1782.12  105.39
   3  -1  -7 1760.12   70.09
   3  -1  -7 1754.42   46.10
  -3   1   7 1891.91   44.40
  -3   1   7 1965.80  355.76
  -3   1   7 1764.02   43.30
   2  -1  -7 1848.62   73.79
   2  -1  -7 1745.23  108.39
   2  -1  -7 1812.12   40.30
   2  -1  -7 1798.52   49.10
   2  -1  -7 1899.41   46.40
   2  -1  -7 2185.98  369.36
   2  -1  -7 1714.33   90.39
  -2   1   7 1787.82   42.20
  -2   1   7 1812.92   39.40
  -2   1   7 1864.81  327.97
   1  -1  -7  129.09   33.20
   1  -1  -7  -16.70  297.37
   1  -1  -7  122.29   25.00
   1  -1  -7  138.79   15.00
   1  -1  -7   54.59   24.70
   1  -1  -7  118.19   12.50
   1  -1  -7  124.49   13.70
  -1   1   7   97.79   10.10
  -1   1   7  114.49   12.60
   0  -1  -7   20.70    8.10
   0  -1  -7   99.69  328.67
   0  -1  -7   19.30   13.20
   0  -1  -7   -1.20    5.00
   0  -1  -7   36.10   18.70
   0  -1  -7    1.50    5.10
   0   1   7    5.70    5.60
   0   1   7    9.80    4.90
   0   1   7 -191.08  249.28
   0   1   7   -1.30    6.20
  -1  -1  -7  685.03   83.89
  -1  -1  -7  670.93   28.30
  -1  -1  -7  766.52   31.00
  -1  -1  -7  780.72   56.69
  -1  -1  -7  722.03   28.30
   1   1   7  686.03   24.10
   1   1   7  687.53   23.20
   1   1   7  651.43   59.39
  -2  -1  -7  852.11   35.10
  -2  -1  -7  833.62   26.20
  -2  -1  -7  815.12   32.50
  -2  -1  -7  749.92   91.99
  -2  -1  -7  859.21   33.30
  -2  -1  -7  811.12   62.99
   2   1   7 1131.29   80.69
   2   1   7  878.31   28.00
   2   1   7  857.31   26.10
  -3  -1  -7  250.27   17.50
  -3  -1  -7  289.27   51.39
  -3  -1  -7  323.87   66.99
  -3  -1  -7  261.37   20.90
  -3  -1  -7  264.47   21.40
  -3  -1  -7  284.87   26.80
   3   1   7  306.27   56.19
   3   1   7  251.77   17.30
  -4  -1  -7   25.80   23.60
  -4  -1  -7   29.40   12.20
  -4  -1  -7   15.00   10.50
  -4  -1  -7   33.20   13.80
  -4  -1  -7   34.40   11.10
  -4  -1  -7   -7.00   12.50
   4   1   7   35.50   21.00
   4   1   7   30.90   10.00
  -5  -1  -7   44.30   43.10
  -5  -1  -7   39.90   13.90
  -5  -1  -7   31.90   12.60
  -5  -1  -7   55.79   31.10
  -5  -1  -7   71.19   17.00
   5   1   7   28.30   24.10
   5   1   7   51.39   12.80
  -6  -1  -7  139.79   24.50
  -6  -1  -7  193.78   24.60
  -6  -1  -7  169.78   23.60
  -6  -1  -7  180.98   51.69
   6   1   7  193.28   30.50
  -7  -1  -7  120.79   22.70
  -7  -1  -7   99.99   23.60
  -8  -1  -7   10.30   20.30
  -8  -1  -7   15.00   18.80
  -8  -1  -7   -0.30   15.10
  -8  -1  -7    5.30   16.20
  11  -2  -7   83.49   17.70
 -11   2   7  100.59   23.70
 -11   2   7   90.29   23.50
  10  -2  -7   91.89   16.30
 -10   2   7  150.68   25.00
 -10   2   7   83.19   20.90
   9  -2  -7   56.59   12.60
   9  -2  -7   70.79   18.20
   9  -2  -7   56.69   18.00
  -9   2   7  120.79   43.90
  -9   2   7   50.29   15.50
  -9   2   7   59.29   29.60
   8  -2  -7  238.48   19.40
   8  -2  -7  260.27   32.50
   8  -2  -7  288.17   19.20
  -8   2   7  303.47   55.89
  -8   2   7  237.98   23.40
  -8   2   7  288.77   30.00
   7  -2  -7 1113.69   36.50
   7  -2  -7 1055.69   44.70
   7  -2  -7  957.90   81.49
   7  -2  -7 1052.79   33.10
   7  -2  -7 1090.29   83.69
  -7   2   7 1077.49   43.80
  -7   2   7 1036.20   72.99
  -7   2   7 1119.79   37.90
   6  -2  -7  814.62   92.69
   6  -2  -7  782.92   28.70
   6  -2  -7  810.62   36.00
   6  -2  -7  833.02   98.69
   6  -2  -7  811.22   27.50
  -6   2   7  822.92   60.39
  -6   2   7  807.02   29.30
   5  -2  -7  582.94   29.80
   5  -2  -7  598.14   23.70
   5  -2  -7  644.14   73.69
   5  -2  -7  292.67  407.46
   5  -2  -7  645.34   23.40
  -5   2   7 1194.88  388.86
  -5   2   7  615.64   22.90
  -5   2   7  674.53   50.09
  -5   2   7  589.64   28.30
  -5   2   7  636.44   27.00
   4  -2  -7    5.30    5.00
   4  -2  -7   21.20   17.80
   4  -2  -7 -200.98  309.67
   4  -2  -7   29.50   17.30
   4  -2  -7    6.50    4.90
   4  -2  -7   -2.00    6.80
   4  -2  -7    2.70    5.60
  -4   2   7 -287.87  263.67
  -4   2   7    2.60    5.40
  -4   2   7    2.70    5.70
   3  -2  -7  432.46   19.40
   3  -2  -7  412.86   21.90
   3  -2  -7  391.76   32.80
   3  -2  -7  671.73  316.77
   3  -2  -7  484.85   69.39
   3  -2  -7  451.55   19.10
  -3   2   7  479.05   21.80
  -3   2   7  297.97  253.57
  -3   2   7  465.65   19.10
   2  -2  -7 1099.89   31.90
   2  -2  -7 1079.59   33.50
   2  -2  -7  999.30   72.59
   2  -2  -7 1051.69   68.89
   2  -2  -7 1205.78   91.39
   2  -2  -7 1092.89   31.10
   2  -2  -7 1296.47  290.67
  -2   2   7 1068.49   31.80
  -2   2   7  933.41  273.47
  -2   2   7 1052.49   31.00
   1  -2  -7 1049.49   88.99
   1  -2  -7 1171.28   82.59
   1  -2  -7 1130.29   34.00
   1  -2  -7 1186.38   34.80
   1  -2  -7 1135.49   59.79
   1  -2  -7 1166.88   33.60
  -1   2   7 1150.88   32.20
  -1   2   7 1173.48   30.60
  -1   2   7 1147.59   33.90
   0  -2  -7   77.59   12.70
   0  -2  -7   73.19   27.20
   0  -2  -7   59.09   29.10
   0  -2  -7  100.09   25.60
   0  -2  -7   91.39   12.00
   0  -2  -7   87.79   12.90
   0   2   7   68.69   11.20
   0   2   7   59.79    8.70
   0   2   7   76.29   10.20
  -1  -2  -7  513.25   23.50
  -1  -2  -7  560.44   59.69
  -1  -2  -7  432.66   26.80
  -1  -2  -7  291.87   56.99
  -1  -2  -7  436.06   23.50
   1   2   7  426.16   20.20
   1   2   7  435.26   18.50
   1   2   7  437.96   23.20
  -2  -2  -7 1190.48   78.19
  -2  -2  -7 1226.38   41.70
  -2  -2  -7 1237.08   43.50
  -2  -2  -7 1162.18   30.60
  -2  -2  -7 1255.97   38.40
  -2  -2  -7 1220.68  100.89
   2   2   7 1178.78   29.70
   2   2   7 1200.88   37.00
   2   2   7 1081.79   80.49
  -3  -2  -7  776.12   32.40
  -3  -2  -7  776.22   37.40
  -3  -2  -7  778.02  105.59
  -3  -2  -7  809.02   36.30
  -3  -2  -7  717.63   27.00
  -3  -2  -7  858.81   73.29
   3   2   7  799.82   71.39
   3   2   7  775.82   31.20
  -4  -2  -7  393.66   28.80
  -4  -2  -7  363.96   24.80
  -4  -2  -7  356.46   22.60
  -4  -2  -7  308.17   29.70
  -4  -2  -7  396.26   67.09
  -4  -2  -7  415.46   84.69
   4   2   7  331.67   23.00
   4   2   7  315.37   54.99
  -5  -2  -7   -9.40   17.20
  -5  -2  -7    1.50   23.60
  -5  -2  -7   14.10   15.20
  -5  -2  -7    4.10   10.30
  -5  -2  -7   13.90   10.60
  -5  -2  -7    1.60   11.30
   5   2   7    5.80    9.50
   5   2   7    8.00   11.20
  -6  -2  -7  177.28   28.70
  -6  -2  -7  240.48   25.70
  -6  -2  -7  267.87   33.40
  -6  -2  -7  178.88   23.20
   6   2   7  209.38   25.00
   6   2   7  162.08   22.20
  -7  -2  -7  170.28   28.90
  -7  -2  -7  169.88   24.20
  -7  -2  -7  125.59   22.80
  -7  -2  -7  180.88   31.90
   7   2   7  184.08   25.60
   7   2   7  163.58   27.20
  -8  -2  -7   72.49   28.10
  -8  -2  -7   45.60   19.80
  -8  -2  -7   60.99   19.40
  -8  -2  -7   42.50   22.00
  11  -3  -7   -3.40   17.60
  11  -3  -7   12.20   12.20
 -11   3   7    5.90   16.70
 -11   3   7    3.80   15.00
  10  -3  -7   46.50   13.30
  10  -3  -7   34.40   18.40
 -10   3   7   40.50   16.10
 -10   3   7   41.50   18.20
   9  -3  -7   12.00   10.00
   9  -3  -7    9.90   11.90
   9  -3  -7    4.50   13.00
  -9   3   7    5.10   10.10
  -9   3   7    6.70   10.90
   8  -3  -7   16.10    8.80
   8  -3  -7   19.00   24.20
   8  -3  -7   21.30    9.20
   8  -3  -7   18.40   12.10
   8  -3  -7    4.70    9.50
  -8   3   7   21.10   11.90
  -8   3   7   19.30   11.80
   7  -3  -7   42.60   26.00
   7  -3  -7   19.30   10.90
   7  -3  -7   16.10    7.30
   7  -3  -7   43.30   24.40
   7  -3  -7   27.10   11.90
  -7   3   7   15.00    8.50
  -7   3   7   19.60   10.20
  -7   3   7   19.60   18.20
   6  -3  -7   51.89   10.40
   6  -3  -7   61.79   13.80
   6  -3  -7   37.90    9.00
   6  -3  -7   25.60   22.80
   6  -3  -7   90.09   31.60
  -6   3   7   46.40    9.50
  -6   3   7   61.09   13.10
  -6   3   7   68.49   22.80
   5  -3  -7  569.14   73.69
   5  -3  -7  531.05   22.50
   5  -3  -7  572.44   82.49
   5  -3  -7  514.15   26.90
   5  -3  -7  537.65   22.80
  -5   3   7  386.16   45.90
  -5   3   7  493.75   19.20
  -5   3   7  487.35   26.30
  -5   3   7  456.45   18.10
   4  -3  -7  186.88   47.60
   4  -3  -7  141.49   15.50
   4  -3  -7  113.29   14.90
   4  -3  -7  158.88   35.90
   4  -3  -7  146.79   16.50
   4  -3  -7  205.88   28.70
  -4   3   7  132.39   11.20
   3  -3  -7   75.89   27.00
   3  -3  -7   57.99    9.90
   3  -3  -7   72.29   10.70
   3  -3  -7  101.49   35.70
   3  -3  -7   48.10   14.90
   3  -3  -7   60.79   10.50
  -3   3   7   53.79    9.70
  -3   3   7   54.19   10.30
   2  -3  -7   55.09   21.90
   2  -3  -7   69.29   11.10
   2  -3  -7   85.39   11.40
   2  -3  -7   93.29   22.50
   2  -3  -7   61.69   10.40
   2  -3  -7   89.49   35.20
  -2   3   7   63.19    9.10
  -2   3   7   77.89   11.60
  -2   3   7   74.09   11.30
   1  -3  -7  588.04   44.30
   1  -3  -7  742.53   84.89
   1  -3  -7  797.42   96.59
   1  -3  -7  615.94   25.70
   1  -3  -7  639.94   24.00
   1  -3  -7  630.14   26.50
  -1   3   7  662.53   27.10
  -1   3   7  596.14   23.30
  -1   3   7  610.14   23.40
   0  -3  -7  742.03   89.19
   0  -3  -7  614.74   33.80
   0  -3  -7  646.64   50.79
   0  -3  -7  686.03   92.49
   0  -3  -7  616.54   28.20
   0  -3  -7  652.63   31.40
   0   3   7  706.13   32.70
   0   3   7  641.64   25.10
   0   3   7  611.54   22.60
  -1  -3  -7   97.79   39.90
  -1  -3  -7  120.99   15.90
  -1  -3  -7  108.79   16.20
  -1  -3  -7  137.79   33.00
  -1  -3  -7  143.49   41.30
  -1  -3  -7  127.09   13.10
   1   3   7  105.39   13.90
   1   3   7  101.29   14.10
   1   3   7  113.89   13.60
  -2  -3  -7   64.39   33.00
  -2  -3  -7   59.69   13.70
  -2  -3  -7   21.00    8.00
  -2  -3  -7   25.00   20.20
  -2  -3  -7   17.30   21.60
  -2  -3  -7   15.90   11.50
   2   3   7   38.20   10.60
   2   3   7   37.40   10.10
  -3  -3  -7  206.78   61.49
  -3  -3  -7  107.69   32.20
  -3  -3  -7  165.88   22.50
  -3  -3  -7  128.49   17.50
  -3  -3  -7  115.99   41.60
  -3  -3  -7  148.29   20.40
   3   3   7  109.99   18.10
   3   3   7  137.79   17.60
  -4  -3  -7  612.54   82.09
  -4  -3  -7  650.83   28.80
  -4  -3  -7  611.04  103.89
  -4  -3  -7  588.94   37.10
  -4  -3  -7  428.46   77.79
  -4  -3  -7  640.44   36.70
   4   3   7  587.34   31.70
   4   3   7  649.34   34.70
  -5  -3  -7  135.59   21.00
  -5  -3  -7   81.59   20.40
  -5  -3  -7  195.78   27.30
  -5  -3  -7  160.78   48.10
   5   3   7  130.59   20.90
   5   3   7  167.48   23.10
  -6  -3  -7   34.00   19.10
  -6  -3  -7   32.60   13.50
  -6  -3  -7    7.10   15.40
   6   3   7   17.40   13.00
   6   3   7   23.20   14.00
  -7  -3  -7   49.00   22.60
  -7  -3  -7   75.59   22.70
  -7  -3  -7   82.89   17.30
   7   3   7   68.29   19.30
   7   3   7   68.19   20.10
  11  -4  -7  111.99   20.20
  11  -4  -7  163.98   30.50
 -11   4   7  140.09   25.90
 -11   4   7  145.99   30.20
  10  -4  -7  483.45   40.10
  10  -4  -7  491.45   30.60
  10  -4  -7  507.25   37.90
 -10   4   7  407.06   42.40
 -10   4   7  434.16   32.60
   9  -4  -7   11.30    9.10
   9  -4  -7    5.40    8.90
   9  -4  -7    3.00   13.40
  -9   4   7   11.00   11.00
  -9   4   7   14.00   12.10
   8  -4  -7   30.70   24.00
   8  -4  -7   23.10    9.40
   8  -4  -7   23.60   13.20
   8  -4  -7   23.50   25.20
   8  -4  -7   22.90    9.60
   8  -4  -7   29.10   13.40
  -8   4   7    7.30   11.00
  -8   4   7   17.40    9.90
   7  -4  -7  148.39   40.10
   7  -4  -7  158.98   17.40
   7  -4  -7  204.88   26.60
   7  -4  -7  167.98   17.80
   7  -4  -7  268.17   61.39
   7  -4  -7  131.89   19.40
  -7   4   7  143.59   20.70
   6  -4  -7  538.65   24.90
   6  -4  -7  686.53  119.19
   6  -4  -7  588.74   98.09
   6  -4  -7  565.24   31.60
   6  -4  -7  551.94   24.40
   5  -4  -7  211.88   45.10
   5  -4  -7  220.48   18.60
   5  -4  -7  322.87   68.19
   5  -4  -7  214.88   15.40
   5  -4  -7  234.08   16.80
  -5   4   7  204.08   14.00
  -5   4   7  261.87   34.90
   4  -4  -7   21.40    7.50
   4  -4  -7    9.10    6.60
   4  -4  -7   24.40   11.60
   4  -4  -7   32.10   25.70
   4  -4  -7   16.10    6.40
   4  -4  -7   33.10   21.10
  -4   4   7   17.80    6.70
   3  -4  -7   30.30    8.30
   3  -4  -7   99.59   39.80
   3  -4  -7   21.60    8.00
   3  -4  -7   50.09   16.10
   3  -4  -7   42.70   22.00
   3  -4  -7   26.10    7.10
  -3   4   7   29.00    7.70
   2  -4  -7    7.10   10.70
   2  -4  -7   43.40   10.10
   2  -4  -7   34.00    9.60
   2  -4  -7   49.60   23.60
   2  -4  -7   25.80   23.10
   2  -4  -7   33.80    8.00
  -2   4   7   38.40    9.50
  -2   4   7   38.10    8.10
   1  -4  -7    6.90   14.90
   1  -4  -7    6.30    7.10
   1  -4  -7   20.60   21.40
   1  -4  -7   11.80    5.90
   1  -4  -7    7.00    6.30
   1  -4  -7   16.00   12.00
  -1   4   7   -0.90    5.80
  -1   4   7    3.00    5.10
   0  -4  -7  105.99   39.50
   0  -4  -7  161.68   18.20
   0  -4  -7   66.69   30.50
   0  -4  -7  141.89   31.30
   0  -4  -7  174.88   18.60
   0  -4  -7  129.49   10.60
   0   4   7  168.48   18.40
   0   4   7  147.09   15.70
  -1  -4  -7  211.28   52.49
  -1  -4  -7  276.47   22.10
  -1  -4  -7  263.77   62.09
  -1  -4  -7  264.67   43.90
  -1  -4  -7  259.97   24.30
  -1  -4  -7  261.17   13.80
   1   4   7  248.08   20.20
   1   4   7  248.28   18.50
  -2  -4  -7  206.18   44.50
  -2  -4  -7  216.28   13.10
  -2  -4  -7  134.59   46.90
  -2  -4  -7  195.88   52.99
   2   4   7  238.38   19.20
   2   4   7  243.28   26.80
  -3  -4  -7   21.40   23.80
  -3  -4  -7   15.00    6.70
  -3  -4  -7   17.30   13.20
  -3  -4  -7    0.70   17.60
  -3  -4  -7   22.00   11.90
  -3  -4  -7   29.90   27.90
   3   4   7   24.90   10.70
   3   4   7   13.50   10.00
  -4  -4  -7   -2.10   18.10
  -4  -4  -7    2.40   13.20
  -4  -4  -7    4.80   13.90
  -4  -4  -7   18.20    7.50
   4   4   7   15.10   10.70
   4   4   7    7.30   11.20
  -5  -4  -7   70.19   20.50
  -5  -4  -7   24.90   15.20
   5   4   7   81.69   17.80
   5   4   7   73.69   17.80
  -6  -4  -7   21.40   27.90
  -6  -4  -7    6.20   15.50
   6   4   7   -3.80   10.70
   6   4   7  -10.80   12.60
  -7  -4  -7    6.70   16.50
  -7  -4  -7    3.40   20.30
   7   4   7   -2.50   14.80
  11  -5  -7  107.29   19.70
  11  -5  -7  145.09   30.20
  10  -5  -7  299.87   37.00
  10  -5  -7  298.27   38.20
  10  -5  -7  344.47   27.40
   9  -5  -7  411.46   27.40
   9  -5  -7  470.65   36.20
   9  -5  -7  396.36   26.40
   9  -5  -7  467.85   36.60
   8  -5  -7  276.77   32.60
   8  -5  -7  202.08   50.99
   8  -5  -7  292.37   32.40
   8  -5  -7  287.97   25.60
   8  -5  -7  190.78   65.99
   8  -5  -7  243.28   19.20
   7  -5  -7   21.00   28.80
   7  -5  -7    2.60    7.80
   7  -5  -7   20.50   19.40
   7  -5  -7    8.70    9.30
   7  -5  -7    4.00    6.40
   7  -5  -7    0.40    9.60
   6  -5  -7  555.64   26.80
   6  -5  -7  660.73   32.20
   6  -5  -7  605.34   25.70
   6  -5  -7  709.73  101.19
   6  -5  -7  782.72  107.09
   6  -5  -7  573.54   34.70
  -6   5   7  579.74   23.80
   5  -5  -7 1275.27   49.20
   5  -5  -7 1209.58   85.09
   5  -5  -7 1192.38   35.50
   5  -5  -7 1231.38  106.79
   5  -5  -7 1163.68   54.99
   5  -5  -7 1231.68   39.80
  -5   5   7 1204.18   35.30
   4  -5  -7 1047.10   32.70
   4  -5  -7 1097.19   35.80
   4  -5  -7 1084.49   35.20
   4  -5  -7 1100.99   81.39
  -4   5   7 1006.00   33.70
   3  -5  -7  812.82   71.09
   3  -5  -7  828.12  104.29
   3  -5  -7  786.82   30.40
   3  -5  -7  811.02   27.50
   3  -5  -7  767.92   28.60
   3  -5  -7  817.02   44.30
  -3   5   7  774.72   30.60
  -3   5   7  778.92   28.60
   2  -5  -7  367.66   16.60
   2  -5  -7  404.96   64.59
   2  -5  -7  392.46   21.70
   2  -5  -7  414.06   73.49
   2  -5  -7  353.76   22.00
  -2   5   7  379.76   21.00
  -2   5   7  432.66   24.00
   1  -5  -7  423.76   49.30
   1  -5  -7  424.56   24.70
   1  -5  -7  405.26   23.50
   1  -5  -7  484.05   82.19
   1  -5  -7  407.86   14.70
   1  -5  -7  460.15   73.39
  -1   5   7  446.76   23.20
  -1   5   7  427.76   25.40
   0  -5  -7  881.21   62.49
   0  -5  -7  827.42  100.69
   0  -5  -7  886.41   36.40
   0  -5  -7 1060.29  116.49
   0  -5  -7  873.01   35.50
   0   5   7  888.21   36.60
   0   5   7  904.11   25.60
   0   5   7  867.51   33.50
  -1  -5  -7  225.28   54.69
  -1  -5  -7  326.27   24.20
  -1  -5  -7  329.17   68.09
  -1  -5  -7  329.17   52.09
   1   5   7  332.87   17.70
   1   5   7  279.17   23.00
   1   5   7  325.17   32.50
  -2  -5  -7   57.29   15.60
  -2  -5  -7   52.59   25.80
  -2  -5  -7   97.79   41.30
  -2  -5  -7   70.39   16.00
  -2  -5  -7   21.20   27.60
   2   5   7   54.69   12.60
   2   5   7   64.69   15.30
   2   5   7   63.09   11.20
  -3  -5  -7   94.79   41.30
  -3  -5  -7   47.30   16.90
  -3  -5  -7   64.39   17.40
  -3  -5  -7   68.19   34.80
  -3  -5  -7    2.50   23.50
   3   5   7   58.49   15.10
   3   5   7   62.39   15.30
  -4  -5  -7   34.20   15.90
  -4  -5  -7   -2.50   21.60
  -4  -5  -7   54.19   19.10
   4   5   7   40.40   14.30
  -5  -5  -7   32.80   19.90
  -5  -5  -7   40.10   18.10
   5   5   7   32.90   15.80
   5   5   7   31.90   15.20
  -6  -5  -7   -1.70   14.40
  -6  -5  -7   23.50   20.20
   6   5   7    3.10   14.10
   6   5   7   20.90   14.90
  10  -6  -7   23.90   13.30
  10  -6  -7   -1.20   13.60
  10  -6  -7   36.10   19.30
   9  -6  -7  244.38   25.70
   9  -6  -7  227.28   32.00
   9  -6  -7  264.37   33.10
   8  -6  -7  588.24   35.70
   8  -6  -7  488.75   26.20
   8  -6  -7  517.25   29.70
   8  -6  -7  502.35   37.70
   7  -6  -7  160.38   42.60
   7  -6  -7  367.66   78.09
   7  -6  -7  304.17   28.90
   7  -6  -7  293.07   32.70
   7  -6  -7  268.17   19.10
   7  -6  -7  347.67   43.60
   6  -6  -7   70.19   14.00
   6  -6  -7   80.99   12.60
   6  -6  -7   59.89   26.50
   6  -6  -7   52.49   15.50
   6  -6  -7    7.40   19.80
   6  -6  -7   52.89   11.90
  -6   6   7   65.09   11.10
   5  -6  -7  809.62   29.70
   5  -6  -7  746.13   31.90
   5  -6  -7  779.82   40.70
   5  -6  -7  809.22   32.00
   5  -6  -7  814.22   70.49
   5  -6  -7  909.81  119.79
  -5   6   7  779.12   30.60
   4  -6  -7  988.50   32.60
   4  -6  -7 1081.09  132.99
   4  -6  -7 1008.20   32.80
   4  -6  -7  949.51   35.10
   4  -6  -7  997.20   80.49
   4  -6  -7  905.51   56.19
  -4   6   7  949.11   34.70
   3  -6  -7  778.52   35.70
   3  -6  -7  892.71   40.30
   3  -6  -7  799.12   72.79
   3  -6  -7  798.82   30.40
   3  -6  -7  794.92  106.89
   3  -6  -7  855.21   25.30
  -3   6   7  914.41   35.00
  -3   6   7  809.22   31.40
   2  -6  -7   39.80   10.90
   2  -6  -7   80.89   34.50
   2  -6  -7   63.29   12.50
   2  -6  -7   85.39   16.40
   2  -6  -7   55.49   31.80
  -2   6   7   42.40   10.60
  -2   6   7   35.90   10.30
   1  -6  -7  831.62  104.59
   1  -6  -7  757.42   47.50
   1  -6  -7  919.41  117.09
   1  -6  -7  862.01   34.90
   1  -6  -7  851.01   36.90
   1  -6  -7  869.51   58.39
  -1   6   7  834.62   34.60
  -1   6   7  853.11   40.70
   0  -6  -7 1922.31  131.59
   0  -6  -7 1879.31   55.59
   0  -6  -7 1847.52   54.59
   0  -6  -7 1716.73  130.19
   0  -6  -7 1856.71   60.59
   0   6   7 1796.22   51.99
   0   6   7 1865.51   56.69
  -1  -6  -7 1246.78  112.79
  -1  -6  -7 1380.86  120.99
  -1  -6  -7 1299.57   48.10
  -1  -6  -7 1263.07   47.70
  -1  -6  -7 1360.16   87.49
   1   6   7 1284.37   36.70
   1   6   7 1294.67   46.00
   1   6   7 1317.87   48.90
  -2  -6  -7  359.06   76.59
  -2  -6  -7  413.36   64.39
  -2  -6  -7  326.27   69.29
  -2  -6  -7  459.65   31.80
  -2  -6  -7  440.96   32.60
   2   6   7  466.65   24.50
   2   6   7  488.35   32.20
   2   6   7  460.95   29.20
  -3  -6  -7   11.20   13.50
  -3  -6  -7   -9.30   17.50
  -3  -6  -7    7.40   21.40
   3   6   7    9.30    8.80
   3   6   7    7.00   10.50
   3   6   7   13.60   15.00
  -4  -6  -7  216.28   29.70
  -4  -6  -7  170.88   27.40
   4   6   7  224.08   27.60
   4   6   7  187.38   24.80
  -5  -6  -7  209.88   30.60
   5   6   7  196.48   28.10
   5   6   7  250.47   30.50
  -6  -6  -7   90.99   26.80
  -6  -6  -7   93.99   25.10
   6   6   7   90.29   22.30
  10  -7  -7    7.10   16.20
  10  -7  -7    3.10   16.30
  10  -7  -7    0.50   10.70
   9  -7  -7    0.30   13.40
   9  -7  -7   -5.80    9.20
   8  -7  -7   38.00   14.40
   8  -7  -7   28.30   12.80
   8  -7  -7   19.20   15.60
   7  -7  -7   90.09   16.80
   7  -7  -7   60.09   17.70
   7  -7  -7   78.79   16.80
  -7   7   7   63.39   12.30
   6  -7  -7   10.60    7.40
   6  -7  -7   17.50    9.40
   6  -7  -7   -3.90   14.90
   6  -7  -7    8.60   10.60
   6  -7  -7    0.60   20.50
  -6   7   7   23.50    9.10
   5  -7  -7   -9.70    6.50
   5  -7  -7    2.90   10.00
   5  -7  -7   -2.70    5.80
   5  -7  -7   19.30   27.60
   5  -7  -7   12.80    7.40
  -5   7   7    1.80    6.40
   4  -7  -7  292.67   19.30
   4  -7  -7  294.57   16.10
   4  -7  -7  306.77   58.49
   4  -7  -7  283.17   30.00
   4  -7  -7  286.77   69.69
   4  -7  -7  269.47   21.20
  -4   7   7  283.47   21.30
   3  -7  -7  979.00   83.29
   3  -7  -7  855.31  120.59
   3  -7  -7  888.91   36.30
   3  -7  -7  963.90   43.60
   3  -7  -7  924.81   33.80
  -3   7   7  870.41   34.10
  -3   7   7  955.50   37.80
   2  -7  -7  159.68   53.29
   2  -7  -7  134.49   17.20
   2  -7  -7  155.48   19.50
   2  -7  -7  101.79   43.40
   2  -7  -7   99.49   17.80
  -2   7   7  152.98   18.70
  -2   7   7  145.79   19.10
   1  -7  -7   17.60   26.90
   1  -7  -7   -4.00   17.30
   1  -7  -7    3.80    9.40
   1  -7  -7   -2.30    7.90
   1  -7  -7    0.80    8.20
  -1   7   7    5.10    7.90
  -1   7   7    5.90    8.00
   0  -7  -7  286.27   27.30
   0  -7  -7  274.67   67.69
   0  -7  -7  225.48   25.20
   0  -7  -7  240.98   61.49
   0   7   7  253.97   25.70
   0   7   7  239.68   24.80
  -1  -7  -7  480.15   86.49
  -1  -7  -7  511.65   33.30
  -1  -7  -7  527.05   33.20
  -1  -7  -7  590.94   73.39
   1   7   7  455.25   31.50
   1   7   7  574.24   36.30
   1   7   7  521.35   27.30
  -2  -7  -7  329.47   45.30
  -2  -7  -7  459.15   71.89
   2   7   7  349.57   23.30
   2   7   7  370.46   28.10
   2   7   7  393.46   31.00
  -3  -7  -7    5.10   14.10
  -3  -7  -7    4.20   13.70
  -3  -7  -7    6.00   24.70
   3   7   7    2.50    8.70
   3   7   7    1.20   10.70
   3   7   7   -4.30   11.70
  -4  -7  -7   55.29   32.80
  -4  -7  -7   75.09   22.40
   4   7   7   78.09   15.80
   4   7   7   28.80   14.50
   4   7   7   74.49   19.80
  -5  -7  -7   93.79   25.60
  -5  -7  -7  129.99   26.80
   5   7   7  125.49   24.00
   5   7   7  127.09   25.10
   9  -8  -7   16.90   15.20
   9  -8  -7    7.70   11.00
   9  -8  -7   48.50   20.10
   8  -8  -7  200.68   42.60
   8  -8  -7  179.38   24.40
   8  -8  -7  176.58   25.20
   7  -8  -7   34.20   12.50
   7  -8  -7   58.49   20.20
   7  -8  -7   34.40   12.70
  -7   8   7   37.40   12.00
   6  -8  -7    9.70    8.90
   6  -8  -7   -2.90    8.90
   6  -8  -7   13.10   13.00
  -6   8   7   20.60    9.70
   5  -8  -7   15.80   13.50
   5  -8  -7    9.60    6.70
   5  -8  -7    1.40    8.70
  -5   8   7   -5.30    7.10
   4  -8  -7   -4.50   20.70
   4  -8  -7   16.40   10.90
   4  -8  -7   12.30   11.80
  -4   8   7   16.00    9.00
   3  -8  -7    9.80   17.60
   3  -8  -7   10.30   12.70
   3  -8  -7    9.40    8.80
   3  -8  -7  103.59   46.70
   3  -8  -7   12.30    9.50
  -3   8   7   35.20   11.60
  -3   8   7   24.70   10.30
   2  -8  -7   13.90   25.80
   2  -8  -7    4.40    9.30
   2  -8  -7    6.60   10.00
   2  -8  -7    0.40   16.90
  -2   8   7   -5.70    7.90
  -2   8   7   12.20    9.20
   1  -8  -7    3.00   22.30
   1  -8  -7    2.90   10.00
   1  -8  -7    0.40   19.00
   1  -8  -7   19.30   11.50
   1  -8  -7   22.80   12.80
  -1   8   7    8.30   16.40
  -1   8   7    8.70    9.90
   0  -8  -7   36.80   49.00
   0  -8  -7    7.80   11.10
   0  -8  -7   -4.00   10.60
   0   8   7   -6.00    8.30
   0   8   7   16.70   11.10
  -1  -8  -7   14.50   14.50
  -1  -8  -7   28.10   14.30
  -1  -8  -7   10.50   36.60
   1   8   7   35.50   14.10
   1   8   7   30.60   13.70
  -2  -8  -7    5.80   14.10
  -2  -8  -7    4.60   14.00
   2   8   7    4.50   11.70
   2   8   7   -8.40    9.10
   2   8   7   -2.90   11.40
  -3  -8  -7   35.80   18.00
  -3  -8  -7   21.00   16.70
   3   8   7   47.90   14.50
   3   8   7   31.60   14.70
   3   8   7   19.70   14.20
  -4  -8  -7    8.20   17.50
  -4  -8  -7    6.40   18.20
   4   8   7   -6.60   12.80
   4   8   7   18.90   13.40
   4   8   7    3.80   12.50
   9  -9  -7    3.50   14.00
   9  -9  -7  -14.10   12.70
   9  -9  -7   -3.60   12.30
   8  -9  -7  148.39   22.60
   8  -9  -7  127.99   27.50
   8  -9  -7  141.19   22.00
   7  -9  -7  373.96   24.80
   7  -9  -7  336.47   39.60
   7  -9  -7  370.16   28.80
  -7   9   7  350.46   26.70
   6  -9  -7  370.96   19.70
   6  -9  -7  422.76   44.20
   6  -9  -7  373.96   27.50
  -6   9   7  345.97   26.70
   5  -9  -7   59.19   18.20
   5  -9  -7   64.99   16.90
  -5   9   7   44.00   12.90
   4  -9  -7   60.19   15.60
   4  -9  -7   37.90   16.00
  -4   9   7   92.79   17.70
   3  -9  -7  440.66   29.40
  -3   9   7  470.65   29.90
  -3   9   7  430.76   27.40
   2  -9  -7  247.58   30.20
   2  -9  -7  272.77   27.00
  -2   9   7  296.07   29.60
  -2   9   7  316.87   25.60
   1  -9  -7  190.38   32.10
   1  -9  -7  200.88   24.20
  -1   9   7  216.68   25.20
  -1   9   7  198.38   23.80
   0  -9  -7   -6.80   10.80
   0  -9  -7   -2.00   12.80
   0   9   7   -5.40    9.70
   0   9   7   -4.00    9.30
  -1  -9  -7   -2.50   11.80
  -1  -9  -7   18.30   15.20
   1   9   7   19.50   15.80
   1   9   7    3.50   11.80
  -2  -9  -7   21.30   17.00
  -2  -9  -7   10.70   15.10
   2   9   7   10.70   13.90
   2   9   7    7.60   12.30
  -3  -9  -7   58.39   21.00
  -3  -9  -7   47.80   21.30
   3   9   7   79.19   20.70
   3   9   7   57.69   18.60
   8 -10  -7   14.60   13.30
   8 -10  -7   14.30   11.10
   8 -10  -7   -2.50   15.90
  -8  10   7    0.50   16.80
   7 -10  -7  314.37   31.50
   7 -10  -7  278.47   36.30
  -7  10   7  292.47   29.50
   6 -10  -7  359.46   41.40
   6 -10  -7  343.17   32.40
   5 -10  -7  113.39   25.90
  -5  10   7  134.29   21.70
   4 -10  -7   13.10   13.50
   4 -10  -7    5.60   11.80
  -4  10   7   18.60   11.70
   3 -10  -7   32.40   14.20
   3 -10  -7    7.20   13.10
  -3  10   7   29.10   12.30
  -3  10   7   40.00   13.90
   2 -10  -7  279.17   28.60
   2 -10  -7  198.38   28.30
  -2  10   7  255.67   27.60
  -2  10   7  302.67   42.70
   1 -10  -7  412.86   35.30
  -1  10   7  346.07   38.30
  -1  10   7  497.55   34.00
   0 -10  -7   61.19   18.00
   0  10   7   57.49   17.20
   0  10   7   58.69   17.50
  -1 -10  -7   15.50   17.80
   1  10   7   -2.90   11.30
   1  10   7   13.40   13.70
  -2 -10  -7  111.39   24.10
   2  10   7   72.29   20.20
   2  10   7   56.69   18.90
   6 -11  -7   -1.70   15.10
   6 -11  -7   -8.00   11.60
  -6  11   7   -8.40    9.70
   5 -11  -7  282.27   29.90
   5 -11  -7  239.08   35.20
  -5  11   7  235.88   28.50
   4 -11  -7   25.60   14.70
   4 -11  -7   42.40   19.00
  -4  11   7   63.29   17.20
   3 -11  -7    1.70   12.10
  -3  11   7   25.10   13.40
  -3  11   7    9.30   13.00
   2 -11  -7   25.50   14.40
  -2  11   7    6.60   10.60
  -2  11   7   12.10   13.90
   1 -11  -7   65.09   18.70
  -1  11   7   59.29   18.20
  -1  11   7   72.89   18.20
   0 -11  -7   80.39   20.10
   0  11   7   72.09   18.60
   0  11   7   90.39   22.10
   2  11  -8   -1.80   14.50
   2  11  -8   16.30   15.50
  -2 -11   8   12.70   18.40
  -2 -11   8    1.30   17.10
   1  11  -8  174.78   29.20
   1  11  -8  133.19   23.90
  -1 -11   8  141.99   28.50
  -1 -11   8  150.58   28.90
   0  11  -8   85.39   25.20
   0  11  -8   54.39   17.90
   0 -11   8   86.19   23.10
   0 -11   8   40.90   21.10
  -1  11  -8  -11.20   11.30
  -1  11  -8    9.20   16.80
   1 -11   8    6.10   17.00
   1 -11   8   10.50   16.90
  -2  11  -8   30.40   17.60
  -2  11  -8   71.89   20.20
   2 -11   8   34.00   20.20
   2 -11   8   57.49   20.90
  -3  11  -8   73.89   25.50
  -3  11  -8   50.89   20.50
   3 -11   8   29.80   20.20
   4  10  -8    6.20   15.20
   4  10  -8   16.60   17.30
  -4 -10   8   -3.60   16.20
   3  10  -8   12.00   13.70
   3  10  -8    5.30   15.00
  -3 -10   8   25.50   17.90
  -3 -10   8   27.60   18.90
   2  10  -8    7.70   14.90
   2  10  -8    2.50   11.30
  -2 -10   8    1.40   14.10
  -2 -10   8   -8.90   14.00
   1  10  -8   15.30   15.30
   1  10  -8    5.90   12.20
  -1 -10   8   14.10   16.90
  -1 -10   8   12.30   15.50
   0  10  -8   22.10   28.20
   0  10  -8    6.70   12.70
   0 -10   8   16.10   26.80
  -1  10  -8    0.90   14.10
  -1  10  -8   -0.40   10.70
   1 -10   8   -6.10   12.60
   1 -10   8    6.20   15.30
  -2  10  -8   17.00   13.20
  -2  10  -8   27.30   17.10
   2 -10   8    8.20    9.90
   2 -10   8   23.00   16.90
   2 -10   8   26.50   18.10
  -3  10  -8    4.90   15.40
  -3  10  -8    9.20   12.10
   3 -10   8    1.60   16.20
   3 -10   8    1.00   10.20
   3 -10   8  -13.90   13.50
  -4  10  -8   16.80   13.80
  -4  10  -8   -4.30   14.30
   4 -10   8   12.10   18.50
   4 -10   8   -9.90   11.80
   4 -10   8  -15.80   14.90
   6   9  -8   25.60   16.60
   6   9  -8    3.80   15.40
  -6  -9   8   -8.40   15.70
   5   9  -8   39.70   17.60
   5   9  -8   62.89   20.40
  -5  -9   8   79.69   23.40
   4   9  -8   92.49   20.10
   4   9  -8  103.09   22.90
  -4  -9   8  116.49   25.50
   3   9  -8   92.99   20.50
   3   9  -8  129.89   24.30
  -3  -9   8   59.89   19.50
  -3  -9   8   35.40   29.40
  -3  -9   8   69.89   19.90
   2   9  -8  215.38   28.40
   2   9  -8  216.28   26.60
  -2  -9   8  193.68   28.10
  -2  -9   8  160.48   25.00
   1   9  -8  109.49   22.90
   1   9  -8   95.79   19.40
  -1  -9   8   73.89   20.50
  -1  -9   8   37.40   16.10
   0   9  -8  242.18   29.40
   0   9  -8  191.08   23.10
   0  -9   8  152.08   50.99
   0  -9   8  202.18   27.50
   0  -9   8  213.18   27.80
  -1   9  -8  183.38   23.50
  -1   9  -8  169.98   24.70
   1  -9   8  188.58   27.80
   1  -9   8  166.38   14.90
   1  -9   8  130.59   23.70
  -2   9  -8   11.40   11.30
  -2   9  -8    1.10   12.70
   2  -9   8    9.10    9.90
   2  -9   8   -2.10   12.70
   2  -9   8   43.00   18.00
  -3   9  -8  110.09   22.40
  -3   9  -8   84.19   19.30
   3  -9   8  104.59   31.20
   3  -9   8  116.79   29.10
   3  -9   8   90.49   16.70
  -4   9  -8  164.88   27.60
  -4   9  -8   99.19   19.00
   4  -9   8   98.49   18.90
   4  -9   8   90.29   22.10
   4  -9   8  138.79   26.00
  -5   9  -8   35.20   19.30
  -5   9  -8   27.40   14.30
   5  -9   8   73.89   19.70
   5  -9   8   39.90   20.00
   7   8  -8   59.19   19.00
   7   8  -8   76.89   22.50
   7   8  -8   96.29   23.10
  -7  -8   8  139.09   28.10
   6   8  -8   15.60   13.60
   6   8  -8   13.80   13.80
   6   8  -8   32.30   17.70
  -6  -8   8   -1.90   14.80
   5   8  -8  217.68   29.40
   5   8  -8  299.97   32.50
   4   8  -8  341.57   32.20
   4   8  -8  321.37   32.90
  -4  -8   8  239.08   57.89
  -4  -8   8  257.97   30.90
  -4  -8   8  322.17   31.20
   3   8  -8  306.77   31.10
   3   8  -8  312.87   29.90
  -3  -8   8  385.96   36.70
  -3  -8   8  305.27   31.10
  -3  -8   8  240.88   54.59
   2   8  -8   43.90   14.60
   2   8  -8    9.50   14.80
  -2  -8   8   34.50   25.00
  -2  -8   8   44.20   16.30
  -2  -8   8   27.40   14.70
   1   8  -8  101.19   17.50
   1   8  -8   87.99   20.00
  -1  -8   8   88.69   19.30
  -1  -8   8  118.69   47.70
  -1  -8   8   60.39   18.50
  -1  -8   8   71.59   30.40
   0   8  -8  650.23   36.30
   0   8  -8  566.24   31.30
   0  -8   8  470.35   81.59
   0  -8   8  572.44   22.80
   0  -8   8  573.64   48.10
   0  -8   8  610.14   37.30
  -1   8  -8 1083.69   52.09
  -1   8  -8 1083.39   42.00
   1  -8   8  770.62  103.09
   1  -8   8  994.60   46.70
   1  -8   8 1026.10   38.50
   1  -8   8 1055.89   49.50
  -2   8  -8  364.56   29.30
  -2   8  -8  308.67   24.30
   2  -8   8  445.96   35.20
   2  -8   8  369.46   24.50
   2  -8   8  467.65   34.00
  -3   8  -8   18.80   10.80
  -3   8  -8   20.70   14.10
   3  -8   8   18.20   11.90
   3  -8   8   22.30   16.00
   3  -8   8   13.30   15.20
  -4   8  -8  165.58   26.00
   4  -8   8  180.28   23.70
   4  -8   8  111.09   22.10
   5  -8   8  467.45   35.20
  -6   8  -8  258.37   33.60
   6  -8   8  239.78   33.00
   6  -8   8  254.47   31.80
   8   7  -8    5.80   16.70
   8   7  -8   -2.90   13.80
   8   7  -8   10.10   14.80
  -8  -7   8   -6.40   19.00
  -8  -7   8   -7.10   17.80
   7   7  -8   10.40   19.10
   7   7  -8    3.70   13.00
   7   7  -8   -5.60   13.40
  -7  -7   8   -5.10   16.30
  -7  -7   8   14.10   17.20
   6   7  -8   -4.30   12.20
   6   7  -8   18.40   13.10
   6   7  -8   -8.90   10.80
  -6  -7   8    4.30   14.00
   5   7  -8   21.10   11.70
   5   7  -8    9.40   12.00
   5   7  -8   11.50   13.40
  -5  -7   8   61.19   35.50
  -5  -7   8    9.80   13.50
   4   7  -8  127.79   22.60
   4   7  -8  113.19   29.30
  -4  -7   8   80.99   19.20
  -4  -7   8  124.79   21.00
  -4  -7   8  187.38   51.89
   3   7  -8  396.56   29.50
   3   7  -8  368.26   26.10
  -3  -7   8  371.26   30.60
  -3  -7   8  337.07   27.60
  -3  -7   8  204.08   46.90
   2   7  -8  276.17   27.70
   2   7  -8  227.98   24.00
  -2  -7   8  296.67   79.99
  -2  -7   8  223.78   14.30
  -2  -7   8  222.48   25.80
  -2  -7   8  210.98   25.70
   1   7  -8   -9.10    9.60
   1   7  -8    0.30    8.40
  -1  -7   8   14.40   19.20
  -1  -7   8   16.70   19.80
  -1  -7   8   -2.90    6.10
  -1  -7   8   -1.00    9.20
  -1  -7   8    7.40   10.40
   0   7  -8  195.48   20.90
   0   7  -8  210.58   23.30
   0  -7   8  198.28   23.90
   0  -7   8  210.88   18.50
   0  -7   8  219.78   54.19
   0  -7   8  184.98   24.10
  -1   7  -8  796.22   37.70
  -1   7  -8  801.52   57.99
  -1   7  -8  817.52   34.20
   1  -7   8  634.84   89.99
   1  -7   8  832.62   41.80
   1  -7   8  750.12   31.20
   1  -7   8  710.03   38.20
  -2   7  -8  655.43   34.50
  -2   7  -8  628.74   31.20
   2  -7   8  616.14   31.10
   2  -7   8  789.72  114.19
   2  -7   8  581.54   36.20
   2  -7   8  601.84   37.10
  -3   7  -8   35.00   14.40
   3  -7   8    3.00   10.30
   3  -7   8   -4.90   11.20
  -4   7  -8   17.80   13.60
   4  -7   8   26.10   15.70
   4  -7   8   24.90   14.30
  -5   7  -8  268.87   30.40
   5  -7   8  249.08   30.90
   5  -7   8  267.07   30.70
  -6   7  -8  382.56   37.30
   6  -7   8  353.66   37.10
   6  -7   8  377.76   37.40
   6  -7   8  346.37   26.70
  -7   7  -8  253.17   33.10
   7  -7   8  215.38   25.10
   7  -7   8  279.97   36.40
   8   6  -8   23.70   16.40
   8   6  -8   39.50   18.00
   8   6  -8   14.40   13.20
  -8  -6   8   31.50   20.10
  -8  -6   8   24.10   18.50
   7   6  -8   32.00   16.40
   7   6  -8   23.50   14.40
   7   6  -8   13.50   13.50
  -7  -6   8   14.90   19.10
  -7  -6   8   22.60   16.40
   6   6  -8   16.80   15.10
   6   6  -8   24.50   13.00
   6   6  -8   30.50   15.30
  -6  -6   8   35.80   38.50
  -6  -6   8   43.80   36.20
  -6  -6   8   33.50   16.10
   5   6  -8    0.50    9.20
   5   6  -8   11.90    9.50
   5   6  -8    7.90   11.80
  -5  -6   8    4.60    6.30
  -5  -6   8   20.20   24.80
  -5  -6   8   16.90   13.20
  -5  -6   8    1.50   11.10
  -5  -6   8   -6.30   16.40
   4   6  -8   22.40   10.40
   4   6  -8   -0.30    9.20
   4   6  -8   18.90    9.90
  -4  -6   8    9.10    6.50
  -4  -6   8    3.30   10.40
  -4  -6   8    6.40   17.90
  -4  -6   8    8.70   10.60
  -4  -6   8   -8.20   17.20
   3   6  -8   14.60   10.70
   3   6  -8    7.70    8.50
  -3  -6   8   14.50   11.10
  -3  -6   8    5.70   10.60
  -3  -6   8   26.50   32.00
   2   6  -8   -1.70    7.90
   2   6  -8    3.90    7.20
  -2  -6   8   15.60   19.40
  -2  -6   8    4.40    6.60
  -2  -6   8    5.10   14.40
  -2  -6   8   -7.10    8.20
  -2  -6   8    5.10    9.40
   1   6  -8    0.30    6.80
   1   6  -8    4.40    8.20
  -1  -6   8    6.50    9.20
  -1  -6   8    3.20   14.80
  -1  -6   8   18.90   10.40
  -1  -6   8   11.90    7.30
   0   6  -8  110.79   15.10
   0   6  -8   60.49   22.50
   0   6  -8   85.49   15.20
   0  -6   8  125.19   42.30
   0  -6   8  113.89   14.90
   0  -6   8  110.89   18.20
   0  -6   8   60.79   13.90
  -1   6  -8    2.90    6.40
  -1   6  -8   12.20   10.30
  -1   6  -8    6.60   13.00
   1  -6   8   -5.10    8.80
   1  -6   8    3.40    9.40
   1  -6   8   32.90   25.40
   1  -6   8  -11.20    6.80
  -2   6  -8   45.30   22.70
  -2   6  -8   17.20   10.90
   2  -6   8   35.40   13.40
   2  -6   8    3.90   16.80
   2  -6   8   18.10    9.90
  -3   6  -8   26.80   12.50
  -3   6  -8   37.30   21.90
   3  -6   8   74.69   39.10
   3  -6   8   52.99   14.20
   3  -6   8   28.60   13.60
  -4   6  -8   -0.70    9.70
   4  -6   8    9.20    8.30
   4  -6   8   10.90   13.10
   4  -6   8    0.80   10.70
  -5   6  -8   15.70   13.10
   5  -6   8   32.60   11.80
   5  -6   8   15.10   14.80
   5  -6   8   39.00   17.00
  -6   6  -8  109.79   24.30
   6  -6   8  168.68   25.90
   6  -6   8  145.39   19.90
   6  -6   8  171.78   28.20
  -7   6  -8   69.79   21.80
   7  -6   8   37.20   14.70
   7  -6   8   43.80   21.10
   9   5  -8   -3.10   13.30
   9   5  -8   13.90   14.00
   9   5  -8    4.40   13.10
  -9  -5   8    1.70   17.30
  -9  -5   8   13.90   10.90
  -9  -5   8   -2.30   17.10
   8   5  -8   57.99   22.20
   8   5  -8   15.20   13.80
   8   5  -8   22.60   13.80
  -8  -5   8   43.40   19.70
  -8  -5   8   33.10   11.30
  -8  -5   8   31.40   17.30
   7   5  -8  343.37   32.40
   7   5  -8  415.66   30.90
   7   5  -8  436.86   29.70
  -7  -5   8  396.06   37.10
  -7  -5   8  395.16   23.00
   6   5  -8  802.62   37.20
   6   5  -8  818.02   38.70
   6   5  -8  761.42   37.30
  -6  -5   8  839.22   43.80
  -6  -5   8  811.12   30.50
   5   5  -8  392.26   26.90
   5   5  -8  316.67   23.50
   5   5  -8  348.87   24.00
  -5  -5   8  358.26   72.59
  -5  -5   8  405.26   26.90
  -5  -5   8  387.66   65.09
  -5  -5   8  334.67   19.90
  -5  -5   8  339.97   31.60
   4   5  -8   61.29   11.90
   4   5  -8   59.39   13.80
  -4  -5   8  106.49   37.00
  -4  -5   8   70.59   32.70
  -4  -5   8   62.49   14.80
  -4  -5   8   66.79   11.20
  -4  -5   8   91.79   16.90
   3   5  -8  544.35   23.00
   3   5  -8  489.85   60.09
   3   5  -8  535.75   28.40
   3   5  -8  542.95   24.00
   3   5  -8  525.25   26.50
  -3  -5   8  584.64   30.40
  -3  -5   8  545.85   31.20
  -3  -5   8  522.75   29.70
  -3  -5   8  498.35   62.49
  -3  -5   8  683.53   77.39
   2   5  -8  247.68   13.60
   2   5  -8  233.88   19.50
   2   5  -8  229.88   17.70
   2   5  -8  216.88   38.30
  -2  -5   8  191.18   37.80
  -2  -5   8  248.08   21.10
  -2  -5   8  170.08   37.90
  -2  -5   8  235.58   16.90
  -2  -5   8  278.77   22.60
   1   5  -8  317.47   20.90
   1   5  -8  282.07   18.50
   1   5  -8  381.86   45.60
   1   5  -8  388.46   49.50
  -1  -5   8  248.48   17.80
  -1  -5   8  265.97   21.70
  -1  -5   8  269.07   52.09
  -1  -5   8  287.97   22.70
   0   5  -8   12.50    6.80
   0   5  -8   18.10    9.10
   0   5  -8    5.00   11.00
   0  -5   8    7.60    9.30
   0  -5   8    0.40    8.00
   0  -5   8    8.10   13.90
   0  -5   8   11.90    7.70
  -1   5  -8   66.89   22.20
  -1   5  -8   54.79   11.90
   1  -5   8   62.59   29.00
   1  -5   8   63.69   13.40
   1  -5   8   67.89   14.50
   1  -5   8   65.19   14.30
  -2   5  -8   70.19   23.70
  -2   5  -8   78.99   13.60
   2  -5   8   52.79   32.90
   2  -5   8   48.50   12.60
   2  -5   8   57.29   13.70
  -3   5  -8   31.70   21.10
   3  -5   8  118.79   46.60
   3  -5   8   50.69   14.00
   3  -5   8   50.69   14.40
  -4   5  -8    5.70    9.80
  -4   5  -8   12.30   19.00
   4  -5   8   -9.90   10.10
   4  -5   8   -1.50    9.80
   4  -5   8    5.60    8.00
   4  -5   8   17.70   27.10
  -5   5  -8   -4.50   14.60
  -5   5  -8    8.50   20.60
  -5   5  -8    5.00   10.90
   5  -5   8   -8.90   10.80
   5  -5   8   -6.10   12.20
   5  -5   8    0.60    8.20
  -6   5  -8   55.59   16.80
  -6   5  -8   16.20   17.90
   6  -5   8  -11.10    9.00
   6  -5   8   11.00   16.10
  -7   5  -8    8.90   16.50
  -7   5  -8    1.90   20.10
   7  -5   8   -2.40   20.50
   9   4  -8   42.00   17.50
   9   4  -8   61.69   16.70
   9   4  -8   51.09   18.60
  -9  -4   8   26.50   18.80
  -9  -4   8   25.50   19.30
  -9  -4   8   25.30   13.10
   8   4  -8   -0.20   11.10
   8   4  -8   16.40   11.90
   8   4  -8    4.90   10.60
  -8  -4   8    1.40   12.70
  -8  -4   8    4.10   10.50
   7   4  -8  591.54   33.60
   7   4  -8  601.14   34.30
   7   4  -8  587.84   31.30
  -7  -4   8  617.94   91.99
  -7  -4   8  610.84   38.80
  -7  -4   8  585.04   29.60
   6   4  -8 1139.19   42.80
   6   4  -8 1100.99   40.60
   6   4  -8 1093.99   42.10
  -6  -4   8 1101.99   38.00
  -6  -4   8 1134.99  133.89
  -6  -4   8 1097.39   40.20
  -6  -4   8 1074.29   90.49
  -6  -4   8 1118.69   47.20
   5   4  -8  352.46   24.00
   5   4  -8  387.06   23.30
   5   4  -8  317.17   19.20
  -5  -4   8  354.66   24.40
  -5  -4   8  310.57   55.19
  -5  -4   8  201.18   52.29
  -5  -4   8  400.26   27.40
  -5  -4   8  356.86   21.60
   4   4  -8   87.89   13.10
   4   4  -8  120.39   13.60
   4   4  -8  101.49   15.50
   4   4  -8  122.29   36.60
  -4  -4   8  126.39   38.60
  -4  -4   8  104.79   17.20
  -4  -4   8  145.79   19.50
  -4  -4   8  126.49   15.30
   3   4  -8   44.10    8.50
   3   4  -8   23.60    9.60
   3   4  -8   43.80    9.70
   3   4  -8   13.70   14.30
  -3  -4   8    3.30   12.40
  -3  -4   8   53.59   12.10
  -3  -4   8   48.10   22.00
  -3  -4   8   38.90    9.10
  -3  -4   8   41.70   12.60
   2   4  -8  824.22   59.09
   2   4  -8  827.72   24.70
   2   4  -8  830.52   29.00
   2   4  -8  874.61   58.89
  -2  -4   8  841.22   34.40
  -2  -4   8  829.22   34.20
  -2  -4   8  860.01   29.80
   1   4  -8 2031.60   87.69
   1   4  -8 1887.71   44.00
   1   4  -8 1872.61   37.40
   1   4  -8 1848.52   85.39
   1   4  -8 1801.02   45.50
  -1  -4   8 1913.81  107.69
  -1  -4   8 1858.01   51.99
  -1  -4   8 1917.81   47.60
  -1  -4   8 1877.21   51.59
   0   4  -8  932.91   58.79
   0   4  -8  791.62   29.10
   0   4  -8  799.72   24.50
   0   4  -8  858.31   60.49
   0  -4   8  830.82   33.70
   0  -4   8  868.11   35.00
   0  -4   8  661.93   78.09
   0  -4   8  807.72   31.60
  -1   4  -8  189.48   34.90
  -1   4  -8  213.88   37.60
  -1   4  -8  129.59   19.10
  -1   4  -8  175.58   17.20
   1  -4   8   99.39   35.80
   1  -4   8  122.89   15.90
   1  -4   8  148.69   18.00
  -2   4  -8    5.30    8.20
  -2   4  -8    1.30    9.60
  -2   4  -8   14.90   16.00
   2  -4   8   11.80   19.90
   2  -4   8   13.20    9.40
   2  -4   8    8.10    9.40
  -3   4  -8  289.67   20.80
  -3   4  -8  315.97   30.80
  -3   4  -8  338.77   52.19
   3  -4   8  277.07   22.80
   3  -4   8  295.57   66.19
  -4   4  -8  128.79   34.20
  -4   4  -8  181.98   25.70
  -4   4  -8  185.98   22.60
   4  -4   8  172.48   28.70
   4  -4   8  127.29   58.09
   4  -4   8  188.78   24.60
  -5   4  -8    8.20   16.00
  -5   4  -8   -4.60   17.70
  -5   4  -8   24.20   14.30
   5  -4   8   30.70   15.60
   5  -4   8   15.50   11.90
  -6   4  -8    0.30   16.00
  -6   4  -8   16.50   14.70
  -6   4  -8   14.50   25.90
   6  -4   8   25.90   17.50
  -7   4  -8   49.10   23.20
  -7   4  -8   44.10   18.80
   7  -4   8   69.59   22.70
  -8   4  -8   69.09   26.40
  -8   4  -8   85.99   24.40
  10   3  -8   30.40   17.60
 -10  -3   8   50.19   20.70
 -10  -3   8   35.90   16.30
 -10  -3   8   38.20   21.20
   9   3  -8    5.20   13.00
  -9  -3   8  -13.60   12.70
  -9  -3   8   -5.90   18.40
   8   3  -8   40.50   14.30
   8   3  -8   37.60   14.40
   8   3  -8   32.80   11.40
  -8  -3   8   33.50   13.10
  -8  -3   8   30.40   16.10
   7   3  -8   -4.50    6.70
   7   3  -8    3.20    9.40
  -7  -3   8   -7.40    9.90
  -7  -3   8    7.70   20.10
  -7  -3   8    2.90   21.00
  -7  -3   8   -0.30    7.60
   6   3  -8   48.10   12.50
   6   3  -8   63.79   12.30
   6   3  -8   51.99   11.50
  -6  -3   8   50.99   14.10
  -6  -3   8   46.50   12.20
  -6  -3   8   57.99   12.50
  -6  -3   8  103.19   36.30
  -6  -3   8   90.89   42.30
   5   3  -8  690.53   29.30
   5   3  -8  675.33   26.60
   5   3  -8  668.13   27.90
   5   3  -8  887.51   74.79
  -5  -3   8  681.33   31.10
  -5  -3   8  779.22   69.69
  -5  -3   8  669.23   32.00
  -5  -3   8  693.13   33.10
   4   3  -8   84.79   12.20
   4   3  -8  149.59   17.00
   4   3  -8  157.08   39.30
   4   3  -8  137.39   14.00
  -4  -3   8   92.69   15.10
  -4  -3   8  102.19   15.60
  -4  -3   8  180.98   39.50
  -4  -3   8  141.89   15.50
   3   3  -8    8.30   11.90
   3   3  -8   14.60    5.90
   3   3  -8   14.70    6.50
   3   3  -8   12.50    7.30
  -3  -3   8   17.20    9.10
  -3  -3   8   14.30    6.90
  -3  -3   8   13.00    8.50
  -3  -3   8   -0.50    9.70
   2   3  -8  256.47   42.70
   2   3  -8  211.78   12.90
   2   3  -8  223.58   15.30
   2   3  -8  221.08   14.20
  -2  -3   8  210.88   16.10
  -2  -3   8  217.98   23.60
  -2  -3   8  211.38   41.70
  -2  -3   8  207.78   20.20
   1   3  -8 1251.37   67.09
   1   3  -8 1253.17   33.50
   1   3  -8  684.43  418.76
   1   3  -8 1125.49   68.99
   1   3  -8 1149.78   42.10
   1   3  -8 1207.08   32.10
   1   3  -8 1192.28   29.70
  -1  -3   8 1146.99   82.39
  -1  -3   8 1278.17   43.20
  -1  -3   8 1242.38   39.50
  -1  -3   8 1340.47  544.85
  -1  -3   8 1227.18   37.30
   0   3  -8  612.04   31.90
   0   3  -8  682.63   22.30
   0   3  -8 1380.56  474.65
   0   3  -8  699.83   24.70
   0   3  -8  694.23   24.60
   0   3  -8  822.52   55.69
   0   3  -8  685.53   53.89
   0  -3   8  717.33   30.60
   0  -3   8  693.13   28.90
   0  -3   8  -25.30  423.06
   0  -3   8  586.04   71.19
  -1   3  -8  191.28   14.40
  -1   3  -8  188.58   13.30
  -1   3  -8  199.58   18.20
  -1   3  -8  186.48   37.90
  -1   3  -8  184.58   39.70
  -1   3  -8  209.78   22.90
   1  -3   8  236.58   21.20
   1  -3   8  197.08   19.30
   1  -3   8  186.08   44.50
  -2   3  -8    5.10    6.90
  -2   3  -8   15.30    7.70
  -2   3  -8   -1.60    8.10
  -2   3  -8    7.70   13.40
  -2   3  -8   24.60   17.50
   2  -3   8    1.90    7.50
   2  -3   8   14.20   17.20
   2  -3   8   -0.10    8.50
  -3   3  -8  108.39   33.20
  -3   3  -8  152.58   22.60
  -3   3  -8  111.89   15.00
  -3   3  -8  129.09   16.90
  -3   3  -8  139.39   34.70
   3  -3   8  108.79   17.40
   3  -3   8  175.78   49.10
   3  -3   8  129.79   17.10
  -4   3  -8  718.33  121.19
  -4   3  -8  598.74   28.60
  -4   3  -8  601.24   32.20
  -4   3  -8  532.85   79.99
  -4   3  -8  593.14   68.49
   4  -3   8  503.45   82.99
   4  -3   8  638.84   31.00
   4  -3   8  633.54   35.60
  -5   3  -8  544.25   33.40
  -5   3  -8  525.15   73.49
  -5   3  -8  635.44   40.80
   5  -3   8  398.26   80.29
   5  -3   8  564.74   36.70
  -6   3  -8  227.58   81.79
  -6   3  -8  184.28   28.40
  -6   3  -8  218.98   26.80
   6  -3   8  210.68   27.80
  -7   3  -8   13.60   20.50
  -8   3  -8   45.20   20.80
  -8   3  -8   38.60   22.60
  10   2  -8  121.19   23.90
 -10  -2   8  128.49   25.50
 -10  -2   8  166.48   26.60
   9   2  -8   74.79   18.60
  -9  -2   8   41.90   14.20
  -9  -2   8   46.10   17.60
  -8  -2   8  -11.90   10.30
  -8  -2   8    2.50   21.10
  -8  -2   8   14.70   10.80
   7   2  -8    9.40    7.70
   7   2  -8   10.60    8.90
  -7  -2   8   21.80   25.70
  -7  -2   8    5.10   17.10
  -7  -2   8   12.50    8.90
  -7  -2   8   19.20   11.70
  -7  -2   8   12.70    8.70
   6   2  -8   20.70   22.90
   6   2  -8    2.10    7.20
   6   2  -8    0.20    6.30
   6   2  -8    3.40    5.90
  -6  -2   8   -1.40    6.40
  -6  -2   8    0.10    7.50
  -6  -2   8    6.60   13.00
   5   2  -8  214.28   20.00
   5   2  -8  186.58   45.70
   5   2  -8  172.18   15.80
   5   2  -8  169.28   14.00
  -5  -2   8  161.28   18.90
  -5  -2   8  212.78   21.30
  -5  -2   8  122.69   32.50
   4   2  -8   21.50    6.70
   4   2  -8   40.70   22.20
   4   2  -8    3.90   14.20
   4   2  -8   33.20    8.40
   4   2  -8   24.30    7.30
   4   2  -8   36.80   11.40
  -4  -2   8   11.90    7.70
  -4  -2   8   21.70    8.60
  -4  -2   8   31.10    8.20
  -4  -2   8    7.00   13.20
   3   2  -8    8.90    5.40
   3   2  -8  149.39  392.06
   3   2  -8    9.10   11.60
   3   2  -8   -4.10    6.60
   3   2  -8    8.90    5.70
   3   2  -8    9.30    5.80
  -3  -2   8   17.40    8.40
  -3  -2   8   13.30    7.40
  -3  -2   8    9.70    6.50
  -3  -2   8   -7.30  314.07
  -3  -2   8   34.90   19.60
   2   2  -8   26.60   15.40
   2   2  -8   24.80    6.60
   2   2  -8   29.40   16.30
   2   2  -8    6.40    4.70
   2   2  -8  386.16  426.76
   2   2  -8   25.40    9.50
  -2  -2   8 -279.17  313.97
  -2  -2   8   20.60    7.90
  -2  -2   8   25.10   16.60
  -2  -2   8   15.80    7.40
   1   2  -8   13.20   13.30
   1   2  -8    2.20    8.70
   1   2  -8 -193.08  430.46
   1   2  -8    5.50    4.80
   1   2  -8   -3.70    6.70
  -1  -2   8    4.30    6.00
  -1  -2   8 -222.68  413.66
  -1  -2   8   10.90    7.90
  -1  -2   8   -0.40    5.10
  -1  -2   8    3.40   12.30
   0   2  -8    1.10    7.40
   0   2  -8   -7.20    7.00
   0   2  -8   -5.90    4.20
   0   2  -8    0.50    9.20
   0   2  -8   -4.50    5.60
   0   2  -8    3.90  461.15
   0  -2   8   -2.70    6.20
   0  -2   8   -0.20    6.30
   0  -2   8    7.00   15.00
   0  -2   8  395.06  360.56
   0  -2   8    5.30    6.90
  -1   2  -8  758.72  477.85
  -1   2  -8   78.69   28.70
  -1   2  -8   49.30   12.60
  -1   2  -8   46.90    9.20
  -1   2  -8   53.39    8.60
  -1   2  -8   49.40   11.50
   1  -2   8   45.30  371.66
   1  -2   8   77.79   28.90
   1  -2   8   59.39   12.20
   1  -2   8   57.79   13.20
  -2   2  -8  415.66   21.60
  -2   2  -8 1467.35  574.14
  -2   2  -8  391.86   59.99
  -2   2  -8  405.06   54.49
  -2   2  -8  452.65   28.80
   2  -2   8  391.76   26.70
   2  -2   8  400.06   25.50
   2  -2   8  637.14  530.85
   2  -2   8  325.57   58.89
  -3   2  -8  293.47   21.00
  -3   2  -8  283.07   20.20
  -3   2  -8  255.47   54.79
  -3   2  -8  299.67   29.00
  -3   2  -8  405.16   58.79
   3  -2   8  265.67   19.80
   3  -2   8  276.47   26.10
   3  -2   8  241.78   53.39
  -4   2  -8  309.67   58.29
  -4   2  -8  179.58   20.20
  -4   2  -8  192.58   20.80
  -4   2  -8  209.08   24.70
  -4   2  -8  198.48   55.39
   4  -2   8  215.28   20.70
   4  -2   8  190.58   55.69
   4  -2   8  182.68   23.10
  -5   2  -8  186.58   22.30
  -5   2  -8  231.68   29.20
  -5   2  -8  187.18   46.90
  -5   2  -8  220.58   60.19
  -5   2  -8  234.68   24.90
   5  -2   8  126.39   51.49
   5  -2   8  192.48   24.60
  -6   2  -8   40.60   16.10
  -6   2  -8   12.80   24.90
  -6   2  -8   66.99   45.60
  -6   2  -8   29.00   14.40
  -6   2  -8   39.70   18.50
  -7   2  -8    2.60   22.00
  -7   2  -8   18.00   20.00
  -7   2  -8   32.90   16.60
  -8   2  -8   18.60   20.10
  -8   2  -8   41.90   19.40
  10   1  -8   65.39   18.30
 -10  -1   8   97.99   21.80
 -10  -1   8   82.39   21.70
  -9  -1   8  472.45   33.40
  -9  -1   8  472.35   35.40
  -9  -1   8  344.67   80.39
  -8  -1   8  509.35   35.40
  -8  -1   8  525.35   82.99
  -8  -1   8  480.45   33.20
   7   1  -8   44.00   24.60
   7   1  -8   76.79   13.80
  -7  -1   8   75.09   15.90
  -7  -1   8   44.30   27.10
  -7  -1   8   72.69   14.00
  -7  -1   8   48.00   13.40
   6   1  -8   -0.10   10.00
   6   1  -8   76.69   32.40
   6   1  -8   24.60    8.90
  -6  -1   8   23.70   10.30
  -6  -1   8   21.70   18.90
  -6  -1   8   20.00    9.30
  -6  -1   8   33.50   11.10
   5   1  -8  661.53   32.80
   5   1  -8  663.83   26.20
   5   1  -8  621.24   22.40
   5   1  -8  651.03   24.50
   5   1  -8  655.13   21.20
   5   1  -8  701.73   64.19
   5   1  -8  711.53   82.49
  -5  -1   8  693.43   60.89
  -5  -1   8  652.53   29.00
  -5  -1   8  684.73   29.20
  -5  -1   8  654.33   30.20
   4   1  -8  701.93   61.29
   4   1  -8  725.83   25.70
   4   1  -8  885.11  390.36
   4   1  -8  689.63   22.00
   4   1  -8  736.53   23.90
   4   1  -8  774.62   70.09
   4   1  -8  783.32   35.40
   4   1  -8  727.83   23.60
  -4  -1   8  756.52   29.00
  -4  -1   8  734.33   29.80
  -4  -1   8  735.93   30.10
  -4  -1   8  802.82  116.89
   3   1  -8  672.33   20.60
   3   1  -8  665.03   47.90
   3   1  -8  640.04   56.39
   3   1  -8  623.94   23.40
   3   1  -8  887.51  372.46
   3   1  -8  710.43   39.60
  -3  -1   8  481.75  319.67
  -3  -1   8  647.54   26.90
  -3  -1   8  635.54   25.20
  -3  -1   8  627.14   27.80
   2   1  -8   47.20    6.80
   2   1  -8  499.15  359.96
   2   1  -8   87.79   28.20
   2   1  -8  109.59   20.90
   2   1  -8   42.30   16.50
   2   1  -8   77.89   10.30
  -2  -1   8   49.70   10.40
  -2  -1   8   60.39    9.80
  -2  -1   8   75.29   24.90
  -2  -1   8   40.90    9.30
  -2  -1   8 -433.56  294.07
   1   1  -8   -3.40    8.90
   1   1  -8    6.10    6.00
   1   1  -8   11.90   11.50
   1   1  -8    0.70    4.50
   1   1  -8   58.49  367.46
   1   1  -8   14.80    8.40
  -1  -1   8   -1.10    5.10
  -1  -1   8    2.50    5.80
  -1  -1   8    0.10   12.30
  -1  -1   8 -237.28  340.77
  -1  -1   8   -1.90    5.70
   0   1  -8  267.87   21.00
   0   1  -8  263.67   17.60
   0   1  -8  448.86  455.55
   0   1  -8  323.17   54.69
   0   1  -8  290.17   16.50
   0   1  -8  225.78   36.40
   0  -1   8  306.37   18.80
   0  -1   8  316.07   17.30
   0  -1   8  255.47   48.10
   0  -1   8  380.16  344.47
   0  -1   8  320.77   20.10
  -1   1  -8  469.75   27.20
  -1   1  -8  427.56   23.40
  -1   1  -8  406.06   20.90
  -1   1  -8  831.72  444.16
  -1   1  -8  445.06   63.89
   1  -1   8  417.06   22.60
   1  -1   8  375.96   59.59
   1  -1   8  424.76   24.00
   1  -1   8  793.22  402.46
   1  -1   8  429.56   22.30
  -2   1  -8  451.05   57.99
  -2   1  -8  309.27   58.29
  -2   1  -8  447.46   26.40
  -2   1  -8  437.26   27.00
  -2   1  -8  433.76   28.20
  -2   1  -8  416.36   21.80
   2  -1   8  409.76   22.10
   2  -1   8  406.16   16.60
   2  -1   8  422.16   25.70
   2  -1   8  390.16   67.39
  -3   1  -8    1.80    8.30
  -3   1  -8   15.20   16.50
  -3   1  -8    0.60   15.50
  -3   1  -8   -2.90    6.70
  -3   1  -8    2.70    9.10
   3  -1   8   -3.60    8.20
   3  -1   8    1.60   16.80
   3  -1   8   -0.60    7.90
  -4   1  -8   31.90   13.40
  -4   1  -8   33.20   12.60
  -4   1  -8    6.00   20.60
  -4   1  -8   48.90   26.10
  -4   1  -8   47.40   12.80
   4  -1   8   44.80   28.90
  -5   1  -8  139.59   22.00
  -5   1  -8  174.78   20.90
  -5   1  -8   64.89   39.00
  -5   1  -8  145.39   41.90
  -5   1  -8  147.69   21.30
   5  -1   8  124.29   42.60
  -6   1  -8   36.50   31.40
  -6   1  -8   38.80   17.80
  -6   1  -8   18.70   13.60
   6  -1   8   32.60   30.70
  -7   1  -8   -5.40   13.90
  -7   1  -8   12.20   15.30
  -7   1  -8   17.80   16.30
  -8   1  -8   11.90   17.50
  -8   1  -8   -9.50   16.20
  -8   1  -8  -18.00   16.00
  11   0  -8   33.30   17.40
 -11   0   8   51.09   20.50
 -11   0   8   67.69   22.30
 -10   0   8    7.20   13.10
 -10   0   8   -5.00   15.80
  -9   0   8   95.79   20.50
  -9   0   8   69.49   36.10
  -9   0   8  127.19   22.30
   8   0  -8  530.25   32.80
  -8   0   8  558.44   34.00
  -8   0   8  566.54   33.80
  -8   0   8  658.23   88.19
   7   0  -8  305.57   20.50
   7   0  -8  452.75   74.09
   7   0  -8  363.66   28.40
   7   0  -8  369.26   18.20
  -7   0   8  379.96   26.60
  -7   0   8  293.97   56.49
  -7   0   8  337.17   22.50
   6   0  -8  115.69   35.30
   6   0  -8  161.68   12.10
   6   0  -8  178.18   18.10
   6   0  -8  187.78   23.00
   6   0  -8  172.48   42.00
  -6   0   8  165.28   18.30
  -6   0   8  158.18   17.90
  -6   0   8  129.49   17.70
  -6   0   8  244.08   46.90
   5   0  -8   76.69   14.50
   5   0  -8   75.39   29.50
   5   0  -8   53.19   25.10
   5   0  -8   61.09    8.70
   5   0  -8   83.39   12.00
  -5   0   8   43.20   19.90
  -5   0   8   65.09   11.30
  -5   0   8  103.09   15.50
  -5   0   8   79.29   13.10
   4   0  -8 1188.78   81.59
   4   0  -8 1212.88   64.49
   4   0  -8 1921.91  479.85
   4   0  -8 1188.58   33.70
   4   0  -8 1131.19   86.69
   4   0  -8 1183.48   41.30
   4   0  -8 1207.88   29.50
  -4   0   8 1219.48   37.90
  -4   0   8 1058.39  370.16
  -4   0   8 1240.68   34.40
  -4   0   8 1290.77   39.80
   3   0  -8 2184.38   46.20
   3   0  -8 2301.37  110.59
   3   0  -8 1844.92  407.26
   3   0  -8 2170.48   41.30
   3   0  -8 2083.49  121.89
   3   0  -8 2169.78   55.59
   3   0  -8 2255.37   86.99
  -3   0   8 2192.78   51.49
  -3   0   8 2192.88   51.09
  -3   0   8 2208.18  429.96
  -3   0   8 2130.59   44.50
  -3   0   8 1969.30   48.80
   2   0  -8 1956.00   43.50
   2   0  -8 2006.10   51.99
   2   0  -8 1921.61   46.80
   2   0  -8 1987.70   81.59
   2   0  -8 1822.72  114.39
   2   0  -8 2154.58  403.06
  -2   0   8 1854.61   47.90
  -2   0   8 1923.01   40.30
  -2   0   8 1899.41   46.90
  -2   0   8 1405.76  367.46
   1   0  -8  245.38   35.50
   1   0  -8  426.66  409.46
   1   0  -8  251.17   75.39
   1   0  -8  234.28   15.50
   1   0  -8  221.28   15.60
   1   0  -8  220.68   18.30
  -1   0   8  222.28   13.50
  -1   0   8  245.28   16.70
  -1   0   8  330.07   55.79
  -1   0   8  147.89  328.07
  -1   0   8  182.88   15.70
   0   0  -8 1399.06  439.86
   0   0  -8 1121.09   35.80
   0   0  -8 1093.29   65.99
   0   0  -8  983.80   77.69
   0   0  -8 1099.09   33.30
   0   0  -8 1097.09   38.40
   0   0   8  514.25  352.96
   0   0   8 1017.60   34.70
   0   0   8 1060.59   78.79
   0   0   8 1079.79   33.50
   0   0   8 1016.70   35.20
  -1   0  -8 2768.02  134.29
  -1   0  -8 2676.83   61.39
  -1   0  -8 2623.94  130.99
  -1   0  -8 2726.43   64.59
  -1   0  -8 2701.93   64.69
   1   0   8 2723.43   55.79
   1   0   8 2737.13  130.79
   1   0   8 2644.04   48.10
   1   0   8 2685.43   60.69
  -2   0  -8  797.32   65.09
  -2   0  -8  686.33   33.40
  -2   0  -8  746.73   27.50
  -2   0  -8  638.94   84.69
  -2   0  -8  722.13   34.10
  -2   0  -8  739.63   31.30
   2   0   8  759.62   24.70
   2   0   8  747.63   41.70
   2   0   8  771.52   72.59
   2   0   8  721.93   27.30
  -3   0  -8  464.15   23.70
  -3   0  -8  448.16   29.40
  -3   0  -8  456.55   63.69
  -3   0  -8  420.06   28.30
  -3   0  -8  378.06   25.20
  -3   0  -8  343.57  105.49
   3   0   8  394.76   68.19
   3   0   8  380.76   19.40
  -4   0  -8    1.10   10.10
  -4   0  -8   15.00   23.50
  -4   0  -8   -4.60   19.90
  -4   0  -8  -11.50    7.40
  -4   0  -8    3.40   10.10
  -4   0  -8   -4.20   10.40
   4   0   8   11.10   19.40
  -5   0  -8  309.87   48.00
  -5   0  -8  196.58   59.99
  -5   0  -8  354.26   26.30
  -5   0  -8  279.97   60.89
  -5   0  -8  368.76   29.80
   5   0   8  233.58   52.69
  -6   0  -8  269.07   30.00
  -6   0  -8  258.97   30.80
  -6   0  -8  256.57   27.80
  -7   0  -8   64.89   19.50
  -7   0  -8   37.50   18.20
  -7   0  -8   38.60   17.20
  -8   0  -8   68.69   21.40
  -8   0  -8   71.09   31.50
  -8   0  -8   34.40   19.10
 -11   1   8   40.70   20.00
 -11   1   8   45.20   19.60
 -10   1   8   20.80   19.30
 -10   1   8   18.40   14.60
   9  -1  -8    4.20    8.00
  -9   1   8   -4.50   18.60
  -9   1   8   17.70   14.00
  -9   1   8   -0.30   10.00
   8  -1  -8  185.18   51.09
   8  -1  -8  147.39   16.10
   8  -1  -8  178.38   20.80
   8  -1  -8  153.08   25.20
  -8   1   8  167.38   22.80
  -8   1   8  150.78   20.60
  -8   1   8  135.79   40.70
   7  -1  -8  193.78   48.10
   7  -1  -8  186.38   16.90
   7  -1  -8  151.38   22.00
   7  -1  -8  189.78   19.40
  -7   1   8  212.38   21.30
  -7   1   8  183.38   42.50
  -7   1   8  165.78   20.30
  -7   1   8  237.68   37.20
   6  -1  -8  505.75   74.49
   6  -1  -8  624.64   81.59
   6  -1  -8  594.04   25.60
   6  -1  -8  547.05   31.40
   6  -1  -8  501.35   21.20
  -6   1   8  507.95   29.60
  -6   1   8  535.15   26.50
  -6   1   8  552.74   66.39
  -6   1   8  501.75   25.10
   5  -1  -8 -153.28  413.16
   5  -1  -8    4.30   11.80
   5  -1  -8   -0.40    6.90
   5  -1  -8    2.70    5.20
   5  -1  -8    7.10    6.00
  -5   1   8  390.66  363.86
  -5   1   8    5.90    7.00
  -5   1   8   -4.40    5.80
  -5   1   8    5.10    6.20
  -5   1   8    8.90   12.50
   4  -1  -8  231.68   36.00
   4  -1  -8  211.58   13.40
   4  -1  -8  224.98   44.60
   4  -1  -8  241.38   22.60
   4  -1  -8  216.48   15.30
   4  -1  -8  330.37  395.66
  -4   1   8  202.98   16.90
  -4   1   8  195.98   13.40
  -4   1   8   87.49  331.67
  -4   1   8  212.48   16.70
   3  -1  -8 1614.74  362.16
   3  -1  -8 1581.64   70.19
   3  -1  -8 1409.86   37.40
   3  -1  -8 1475.35   44.10
   3  -1  -8 1330.07   85.99
   3  -1  -8 1467.15   35.30
  -3   1   8  300.07  314.07
  -3   1   8 1475.25   35.60
  -3   1   8 1460.55   41.90
  -3   1   8 1471.95   48.70
   2  -1  -8 1133.29   78.39
   2  -1  -8 1109.09   37.50
   2  -1  -8 1213.58   97.99
   2  -1  -8 1129.49   60.89
   2  -1  -8 1006.50  370.56
   2  -1  -8 1048.70   31.80
   2  -1  -8 1129.49   32.60
  -2   1   8 1045.80  360.66
  -2   1   8 1132.19   35.50
  -2   1   8 1051.39   31.40
  -2   1   8 1128.39   34.70
   1  -1  -8  181.08   42.10
   1  -1  -8  177.98   14.20
   1  -1  -8  237.58   54.49
   1  -1  -8  196.48   35.10
   1  -1  -8  663.13  614.24
   1  -1  -8  184.28   17.10
   1  -1  -8  188.28   18.60
  -1   1   8  191.38   12.30
  -1   1   8  173.08   16.50
  -1   1   8  323.47  302.57
   0  -1  -8   44.20   11.20
   0  -1  -8   42.70   18.30
   0  -1  -8   17.90   16.60
   0  -1  -8   28.20    9.60
   0  -1  -8   41.10   10.30
   0   1   8   48.10    9.90
   0   1   8   36.80    7.40
   0   1   8   75.09   29.20
  -1  -1  -8  859.51   32.60
  -1  -1  -8  801.62   24.40
  -1  -1  -8  811.72   33.20
  -1  -1  -8  868.11   64.59
  -1  -1  -8  802.62   93.69
  -1  -1  -8  844.62   34.90
   1   1   8  792.12   27.30
   1   1   8  792.02   26.10
   1   1   8  826.02   71.39
  -2  -1  -8 1215.08  102.19
  -2  -1  -8 1288.47   43.70
  -2  -1  -8 1304.47   43.00
  -2  -1  -8 1238.38   34.10
  -2  -1  -8 1217.98   81.39
  -2  -1  -8 1256.87   45.20
   2   1   8 1423.26   95.79
   2   1   8 1254.17   35.50
   2   1   8 1310.07   34.80
  -3  -1  -8  961.60   82.99
  -3  -1  -8  913.81   41.90
  -3  -1  -8  879.51  110.99
  -3  -1  -8  893.31   37.80
  -3  -1  -8  949.51   46.10
   3   1   8  855.41   31.10
   3   1   8  948.11   83.09
  -4  -1  -8  329.37   59.59
  -4  -1  -8  331.77   32.10
  -4  -1  -8  304.17   22.00
  -4  -1  -8  286.27   74.29
  -4  -1  -8  365.76   28.40
  -4  -1  -8  241.38   24.80
   4   1   8  137.89   38.50
   4   1   8  268.37   20.50
  -5  -1  -8  104.09   19.20
  -5  -1  -8  132.39   28.50
  -5  -1  -8  155.28   48.90
  -5  -1  -8  168.68   20.90
  -5  -1  -8   90.89   20.50
   5   1   8   83.69   19.50
   5   1   8  217.18   54.89
  -6  -1  -8  189.48   33.70
  -6  -1  -8  131.09   25.40
  -6  -1  -8  175.18   27.90
  -6  -1  -8  137.49   22.80
  -7  -1  -8  302.57   38.00
  -7  -1  -8  274.57   30.80
  -7  -1  -8  284.97   35.80
  11  -2  -8  258.67   30.10
 -11   2   8  199.58   29.20
 -11   2   8  152.38   28.20
  10  -2  -8    3.60   10.10
 -10   2   8    6.20   13.30
 -10   2   8   -4.50   12.50
   9  -2  -8   30.50   16.00
   9  -2  -8   11.00    9.80
   9  -2  -8   15.20    9.30
  -9   2   8   31.50   14.70
  -9   2   8   13.20   12.10
   8  -2  -8   -1.80    7.20
   8  -2  -8   -4.70    6.50
   8  -2  -8   18.30   22.70
   8  -2  -8    8.00   11.80
  -8   2   8    2.60    9.30
  -8   2   8    0.20    8.20
  -8   2   8    8.20   19.50
   7  -2  -8   60.69   12.40
   7  -2  -8   28.60   20.90
   7  -2  -8   67.89   11.40
   7  -2  -8   75.49   32.30
   7  -2  -8   53.09   14.20
  -7   2   8   88.89   14.60
  -7   2   8   79.79   16.40
  -7   2   8   98.39   32.50
   6  -2  -8  130.89   14.20
   6  -2  -8  111.89   14.30
   6  -2  -8   87.19   33.70
   6  -2  -8  143.69   20.20
   6  -2  -8  112.39   36.60
  -6   2   8  116.49   15.90
  -6   2   8  106.89   13.70
   5  -2  -8   56.79   13.00
   5  -2  -8   81.59   30.60
   5  -2  -8   41.10    9.20
   5  -2  -8   39.70    9.50
   5  -2  -8   32.80   24.60
  -5   2   8   49.90   11.60
  -5   2   8   38.50    8.30
  -5   2   8   48.70   11.20
  -5   2   8   35.60   18.70
   4  -2  -8   16.10   15.00
   4  -2  -8   16.30   10.90
   4  -2  -8   -3.40   12.20
   4  -2  -8    9.30    6.00
   4  -2  -8    9.40    6.00
   4  -2  -8    4.20    6.90
  -4   2   8   10.90    5.50
  -4   2   8   17.90    7.70
  -4   2   8   10.20    7.60
   3  -2  -8   16.00    7.30
   3  -2  -8   -4.90    4.80
   3  -2  -8   -6.90   10.90
   3  -2  -8   -1.80    5.00
   3  -2  -8   -0.90    8.10
   3  -2  -8    1.80    8.50
  -3   2   8   -3.20    4.00
  -3   2   8    2.20    6.20
  -3   2   8    0.10    5.40
   2  -2  -8   42.50    9.60
   2  -2  -8   33.20   22.00
   2  -2  -8   75.29   30.00
   2  -2  -8   59.19   11.50
   2  -2  -8   25.10   14.60
   2  -2  -8   56.59   10.70
  -2   2   8   54.99    9.70
  -2   2   8   55.19   10.20
   1  -2  -8  198.78   34.50
   1  -2  -8  162.68   26.00
   1  -2  -8  120.49   15.10
   1  -2  -8  154.28   21.50
   1  -2  -8  218.28   50.49
   1  -2  -8  225.28   55.09
  -1   2   8  146.09   15.40
  -1   2   8  135.79   13.10
  -1   2   8  110.59   13.80
   0  -2  -8    3.60   15.30
   0  -2  -8   30.40   10.20
   0  -2  -8   32.60   17.60
   0  -2  -8   17.60    8.50
   0  -2  -8   29.50    8.70
   0  -2  -8   14.20   16.20
   0   2   8   17.80    7.60
   0   2   8   24.00    7.80
   0   2   8    5.20    5.50
  -1  -2  -8    1.70    6.90
  -1  -2  -8   -8.80    6.70
  -1  -2  -8   23.00   20.30
  -1  -2  -8    4.60   14.80
  -1  -2  -8   11.60   20.20
  -1  -2  -8   16.80    8.40
   1   2   8    1.70    5.60
   1   2   8    3.50    6.50
  -2  -2  -8  244.68   48.20
  -2  -2  -8  254.37   21.30
  -2  -2  -8  229.68   24.50
  -2  -2  -8  300.87   21.70
  -2  -2  -8  264.57   61.49
   2   2   8  261.47   50.99
   2   2   8  291.67   19.20
  -3  -2  -8   95.79   33.00
  -3  -2  -8  141.59   20.40
  -3  -2  -8   74.49   38.70
  -3  -2  -8  152.48   21.90
  -3  -2  -8  137.09   18.20
   3   2   8  148.89   17.50
   3   2   8  143.19   40.60
  -4  -2  -8   81.29   19.40
  -4  -2  -8   66.59   41.50
  -4  -2  -8  104.49   17.30
  -4  -2  -8   81.19   17.80
  -4  -2  -8   34.10   25.60
   4   2   8   99.49   33.90
   4   2   8   54.79   13.30
   4   2   8   77.09   16.00
  -5  -2  -8  -11.10   17.70
  -5  -2  -8   17.00   15.90
  -5  -2  -8   13.20   12.50
  -5  -2  -8    8.70   12.10
   5   2   8   -2.90   10.00
   5   2   8   15.30   12.60
  -6  -2  -8   52.39   18.90
  -6  -2  -8   25.90   19.00
  -6  -2  -8   45.30   16.10
   6   2   8   38.80   16.60
   6   2   8   51.79   15.80
  -7  -2  -8    9.50   20.50
  -7  -2  -8   -3.90   15.20
  -7  -2  -8   16.90   15.30
   7   2   8   24.30   16.90
  11  -3  -8  170.08   33.10
  11  -3  -8  157.18   22.70
 -11   3   8  151.58   26.70
 -11   3   8  144.99   29.20
  10  -3  -8  517.85   41.30
  10  -3  -8  495.55   30.00
 -10   3   8  508.35   35.30
 -10   3   8  502.65   40.00
   9  -3  -8  207.58   32.50
   9  -3  -8  152.48   30.50
   9  -3  -8  208.78   21.70
   9  -3  -8  151.48   20.30
  -9   3   8  226.68   32.20
  -9   3   8  229.78   26.20
   8  -3  -8   12.30   12.20
   8  -3  -8   -9.10   12.60
   8  -3  -8    6.60    8.50
   8  -3  -8   -7.80    6.40
  -8   3   8    5.90    9.70
   7  -3  -8  454.95   24.20
   7  -3  -8  370.26   65.69
   7  -3  -8  377.76   21.70
   7  -3  -8  482.75   31.80
  -7   3   8  384.06   28.50
  -7   3   8  444.96   24.10
  -7   3   8  506.25   64.59
   6  -3  -8  653.83   91.59
   6  -3  -8  490.25   71.39
   6  -3  -8  537.25   31.40
   6  -3  -8  511.35   23.90
   6  -3  -8  503.55   24.50
  -6   3   8  569.94   61.89
   5  -3  -8  209.68   47.00
   5  -3  -8  186.18   49.90
   5  -3  -8  171.28   17.00
   5  -3  -8  181.68   17.10
   5  -3  -8  158.18   19.60
  -5   3   8  186.18   20.50
  -5   3   8  235.88   38.20
  -5   3   8  153.38   12.10
   4  -3  -8   56.79   17.50
   4  -3  -8   50.69   11.80
   4  -3  -8   49.99   23.20
   4  -3  -8   62.99   11.00
   4  -3  -8   51.79    9.90
   4  -3  -8   80.89   35.70
  -4   3   8   53.09    9.60
  -4   3   8   32.70   10.20
  -4   3   8   59.59   11.70
   3  -3  -8  363.16   19.90
   3  -3  -8  410.96   35.60
   3  -3  -8  416.56   73.19
   3  -3  -8  286.97   19.60
   3  -3  -8  382.26   62.49
   3  -3  -8  323.27   18.70
  -3   3   8  353.16   19.90
  -3   3   8  319.57   19.60
   2  -3  -8  645.14   92.49
   2  -3  -8  502.75   24.10
   2  -3  -8  526.25   43.10
   2  -3  -8  596.24   26.40
   2  -3  -8  509.15   24.30
   2  -3  -8  449.76   66.29
  -2   3   8  482.05   23.60
  -2   3   8  537.75   22.40
   1  -3  -8  433.86   23.10
   1  -3  -8  329.57   66.99
   1  -3  -8  442.56   24.00
   1  -3  -8  464.05   51.59
   1  -3  -8  421.66   67.99
   1  -3  -8  436.26   21.80
  -1   3   8  424.16   20.50
  -1   3   8  388.76   20.40
  -1   3   8  429.26   23.40
   0  -3  -8   53.29   28.70
   0  -3  -8  116.89   45.40
   0  -3  -8  104.29   15.00
   0  -3  -8  101.99   27.70
   0  -3  -8  105.59   16.30
   0  -3  -8   75.99   11.70
   0   3   8   78.69   13.00
   0   3   8   86.89   11.80
   0   3   8  101.79   13.10
  -1  -3  -8   13.20    7.60
  -1  -3  -8   -0.80   20.20
  -1  -3  -8   13.80   18.50
  -1  -3  -8    8.60    8.70
  -1  -3  -8   16.00    9.70
  -1  -3  -8    6.90   17.60
   1   3   8   20.40    7.90
   1   3   8    3.20    6.10
   1   3   8   -3.40    6.90
  -2  -3  -8  140.59   19.20
  -2  -3  -8  130.29   20.00
  -2  -3  -8   88.29   53.99
  -2  -3  -8   90.09   31.40
  -2  -3  -8  103.19   16.70
  -2  -3  -8   62.49   34.30
   2   3   8   70.79   14.00
   2   3   8  105.89   14.90
  -3  -3  -8   38.00   14.00
  -3  -3  -8   69.59   13.00
  -3  -3  -8   86.79   18.10
  -3  -3  -8   54.09   36.00
  -3  -3  -8  117.59   38.70
  -3  -3  -8   68.99   41.30
   3   3   8   39.50   12.20
   3   3   8   75.79   15.40
  -4  -3  -8   11.40   10.50
  -4  -3  -8   19.70   25.70
  -4  -3  -8   29.80   34.50
   4   3   8    2.80    9.20
   4   3   8   27.10   12.50
  -5  -3  -8    7.70   16.30
  -5  -3  -8   -6.40   12.00
  -5  -3  -8    6.30   11.60
   5   3   8   12.10   15.40
   5   3   8   -1.20   10.60
  -6  -3  -8   16.70   15.10
  -6  -3  -8   -4.00   17.00
  -6  -3  -8    7.50   12.50
   6   3   8   24.50   15.80
   6   3   8   20.00   15.10
  -7  -3  -8    6.80   13.80
  -7  -3  -8   10.10   17.50
  -7  -3  -8  -12.00   18.40
   7   3   8   -9.70   18.30
   7   3   8    1.70   15.20
  11  -4  -8  161.18   33.00
  11  -4  -8  153.38   23.20
 -11   4   8  134.89   29.00
  10  -4  -8  420.56   44.70
  10  -4  -8  331.47   37.70
  10  -4  -8  334.87   33.60
 -10   4   8  313.77   38.10
   9  -4  -8  422.76   35.60
   9  -4  -8  439.16   36.00
   9  -4  -8  487.35   28.80
   9  -4  -8  534.85   29.70
  -9   4   8  392.96   39.10
   8  -4  -8  134.29   43.00
   8  -4  -8  210.58   21.30
   8  -4  -8  206.98   21.60
   8  -4  -8  244.38   29.20
   8  -4  -8  134.59   46.70
   8  -4  -8  211.48   27.80
  -8   4   8  162.28   32.90
   7  -4  -8   37.30   28.60
   7  -4  -8   62.49   12.20
   7  -4  -8   57.89   13.10
   7  -4  -8   44.40   26.50
   7  -4  -8   76.89   17.10
   6  -4  -8  602.44   27.00
   6  -4  -8  741.53  106.19
   6  -4  -8  649.43   82.09
   6  -4  -8  630.34   33.20
   6  -4  -8  615.14   27.90
   5  -4  -8  434.16   22.50
   5  -4  -8  446.96   23.50
   5  -4  -8  428.86   79.39
   5  -4  -8  481.75   27.40
  -5   4   8  438.66   20.80
  -5   4   8  468.45   41.60
   4  -4  -8  441.26   21.90
   4  -4  -8  450.95   22.90
   4  -4  -8  477.85   69.89
   4  -4  -8  436.06   75.89
   4  -4  -8  420.06   35.00
   4  -4  -8  431.26   24.00
  -4   4   8  415.96   21.80
   3  -4  -8   28.80   19.60
   3  -4  -8   -7.30   12.40
   3  -4  -8   17.40    7.70
   3  -4  -8    9.30    7.60
   3  -4  -8    8.60    6.80
   3  -4  -8   11.80   10.40
  -3   4   8    2.00    5.60
   2  -4  -8  243.08   53.79
   2  -4  -8  355.66   43.70
   2  -4  -8  250.47   59.89
   2  -4  -8  279.77   17.80
   2  -4  -8  216.68   17.30
   2  -4  -8  256.47   19.30
  -2   4   8  273.27   17.50
  -2   4   8  250.47   19.40
   1  -4  -8 1089.89   38.00
   1  -4  -8 1138.19   40.10
   1  -4  -8 1219.18   69.39
   1  -4  -8 1127.39  104.49
   1  -4  -8 1197.28   33.70
   1  -4  -8 1070.39   92.49
  -1   4   8 1220.68   41.30
  -1   4   8 1175.38   36.70
   0  -4  -8  245.98   59.29
   0  -4  -8  307.07   23.20
   0  -4  -8  265.47   63.99
   0  -4  -8  297.47   17.00
   0  -4  -8  342.67   49.70
   0  -4  -8  331.17   23.00
   0   4   8  362.46   23.90
   0   4   8  312.97   20.10
  -1  -4  -8   69.79   26.70
  -1  -4  -8   93.39   26.30
  -1  -4  -8   87.19   18.40
  -1  -4  -8  120.19   44.60
  -1  -4  -8   68.49    9.80
   1   4   8  142.49   17.70
   1   4   8  139.19   18.90
  -2  -4  -8   -0.30   19.60
  -2  -4  -8    1.00   10.20
  -2  -4  -8   32.40   28.60
  -2  -4  -8    8.20   10.70
   2   4   8    6.60    8.50
   2   4   8   -5.30    7.00
  -3  -4  -8  129.19   49.60
  -3  -4  -8  188.28   15.10
  -3  -4  -8  148.39   43.30
  -3  -4  -8  144.79   21.80
  -3  -4  -8   89.59   20.00
  -3  -4  -8  163.08   53.29
   3   4   8  150.78   20.30
   3   4   8  161.78   21.50
  -4  -4  -8  231.18   28.40
  -4  -4  -8  268.07   17.60
  -4  -4  -8  259.27   31.50
  -4  -4  -8  183.58   48.60
   4   4   8  223.28   26.30
  -5  -4  -8   98.09   22.60
  -5  -4  -8  123.29   25.40
   5   4   8   95.09   19.70
   5   4   8  142.79   23.80
  -6  -4  -8   62.99   21.50
  -6  -4  -8   58.99   22.60
   6   4   8   55.29   19.90
  10  -5  -8   59.09   16.30
  10  -5  -8   33.30   17.90
  10  -5  -8   73.49   24.10
   9  -5  -8   98.69   17.80
   9  -5  -8   72.89   20.40
   9  -5  -8   54.49   19.60
   9  -5  -8   75.29   14.90
   8  -5  -8   70.99   40.40
   8  -5  -8  188.78   20.50
   8  -5  -8  194.58   28.20
   8  -5  -8  149.29   22.30
   8  -5  -8  213.48   22.60
   8  -5  -8  105.49   36.70
   7  -5  -8    6.60   10.20
   7  -5  -8    1.60   10.30
   7  -5  -8    5.20    8.10
   7  -5  -8   33.10   26.30
   7  -5  -8   11.70   21.20
   7  -5  -8   -1.20    6.90
   6  -5  -8   19.20   11.30
   6  -5  -8   16.00    9.40
   6  -5  -8   31.20   20.40
   6  -5  -8   20.50    9.10
   6  -5  -8   36.40   27.60
  -6   5   8   20.50    7.70
   5  -5  -8  375.06   24.20
   5  -5  -8  349.87   61.79
   5  -5  -8  390.76   21.80
   5  -5  -8  373.96   22.90
   5  -5  -8  484.25   86.69
  -5   5   8  410.26   21.80
   4  -5  -8 1254.17   38.50
   4  -5  -8 1152.68   90.49
   4  -5  -8 1279.97   46.60
   4  -5  -8 1226.68  110.79
   4  -5  -8 1337.27   58.29
  -4   5   8 1259.77   39.60
   3  -5  -8  621.84   28.60
   3  -5  -8  600.84   90.69
   3  -5  -8  670.63   83.49
   3  -5  -8  563.34   26.60
   3  -5  -8  652.23   26.10
   3  -5  -8  578.74   42.30
  -3   5   8  593.24   28.20
  -3   5   8  606.24   26.70
   2  -5  -8   27.50   28.00
   2  -5  -8    3.90    5.40
   2  -5  -8    3.50    7.70
   2  -5  -8    6.00    7.70
   2  -5  -8   -7.50   11.30
   2  -5  -8   -0.40   11.30
  -2   5   8   11.90    8.30
  -2   5   8    1.30    5.90
   1  -5  -8   10.60    8.70
   1  -5  -8    7.90    5.20
   1  -5  -8   14.10   22.60
   1  -5  -8    9.60    9.00
   1  -5  -8    5.70   13.50
   1  -5  -8    8.70   19.60
  -1   5   8   13.80    8.30
  -1   5   8   11.30    9.00
   0  -5  -8  377.76   52.79
   0  -5  -8  496.25   82.79
   0  -5  -8  378.86   75.09
   0  -5  -8  408.26   27.40
   0   5   8  412.06   24.30
   0   5   8  446.06   27.80
  -1  -5  -8  547.65   31.80
  -1  -5  -8  612.54   34.60
  -1  -5  -8  538.05   89.09
  -1  -5  -8  552.34   68.39
  -1  -5  -8  337.37   71.49
   1   5   8  555.34   29.30
   1   5   8  561.34   32.40
  -2  -5  -8  132.39   51.79
  -2  -5  -8  133.59   21.00
  -2  -5  -8   96.89   37.80
  -2  -5  -8   64.89   33.50
  -2  -5  -8  120.49   20.10
   2   5   8  104.09   17.40
   2   5   8   93.09   16.90
  -3  -5  -8   29.00   27.30
  -3  -5  -8   34.70   16.20
  -3  -5  -8   36.60   15.90
   3   5   8   35.60   15.60
   3   5   8   40.40   20.50
  -4  -5  -8  271.57   33.60
  -4  -5  -8  242.28   30.70
   4   5   8  236.18   26.80
   4   5   8  332.77   32.20
  -5  -5  -8  139.99   28.30
  -5  -5  -8  183.68   29.00
   5   5   8  212.28   28.80
   5   5   8  239.48   34.50
  -6  -5  -8  247.68   36.20
   6   5   8  141.89   25.30
   6   5   8  154.98   26.00
  10  -6  -8   24.00   13.50
  10  -6  -8   25.50   18.40
  10  -6  -8   10.30   16.60
   9  -6  -8   84.59   22.30
   9  -6  -8   86.89   16.40
   9  -6  -8   80.49   31.60
   9  -6  -8   67.49   22.20
   8  -6  -8   34.90   26.60
   8  -6  -8   12.60   12.30
   8  -6  -8    0.10    9.00
   8  -6  -8    1.30   12.30
   8  -6  -8    6.70    8.40
   7  -6  -8    7.80   12.30
   7  -6  -8   -2.30   20.10
   7  -6  -8   -8.50    7.80
   7  -6  -8   10.20    7.90
   7  -6  -8   -7.30    7.50
   7  -6  -8   18.30   20.00
   6  -6  -8    2.40    6.80
   6  -6  -8   11.00    9.50
   6  -6  -8    2.00   18.30
   6  -6  -8   11.70   12.60
   6  -6  -8    1.80    8.40
   6  -6  -8   -6.80   12.70
  -6   6   8    9.70    7.30
   5  -6  -8    1.90    6.60
   5  -6  -8   -1.40    8.30
   5  -6  -8    7.70   21.50
   5  -6  -8    1.40    6.50
   5  -6  -8   -5.40    7.00
   5  -6  -8    8.90   15.30
  -5   6   8    5.70    7.40
   4  -6  -8   65.89   37.70
   4  -6  -8   36.30   10.60
   4  -6  -8   60.59   29.40
   4  -6  -8   25.20   10.10
   4  -6  -8   19.00    8.00
   4  -6  -8   41.80   13.50
  -4   6   8   31.10    9.90
   3  -6  -8  127.59   50.59
   3  -6  -8  124.89   16.80
   3  -6  -8  131.59   12.80
   3  -6  -8   93.19   32.90
   3  -6  -8  102.49   15.20
  -3   6   8  185.78   21.10
  -3   6   8  167.08   18.00
   2  -6  -8   76.59   37.60
   2  -6  -8   21.90   10.40
   2  -6  -8   32.70   11.20
   2  -6  -8   97.89   42.70
   2  -6  -8   48.00   14.20
  -2   6   8   23.80    9.90
  -2   6   8   85.49   15.80
   1  -6  -8   25.10   24.00
   1  -6  -8   -1.60    8.70
   1  -6  -8    5.70   15.00
   1  -6  -8   -2.00   10.50
   1  -6  -8    6.70    9.40
   1  -6  -8   10.60   21.20
  -1   6   8    3.00    6.70
  -1   6   8    3.70    8.10
   0  -6  -8   47.10   23.60
   0  -6  -8   20.00   11.80
   0  -6  -8   35.90   18.30
   0  -6  -8   35.50   30.20
   0  -6  -8   13.50   25.60
   0  -6  -8   45.00   13.60
   0   6   8   43.80   13.90
   0   6   8   20.80    9.80
  -1  -6  -8  234.28   59.99
  -1  -6  -8  155.08   54.69
  -1  -6  -8  211.98   25.50
  -1  -6  -8  170.08   22.90
  -1  -6  -8  144.29   53.59
   1   6   8  187.48   21.80
   1   6   8  116.39   19.10
  -2  -6  -8  193.48   28.20
  -2  -6  -8  130.09   52.59
  -2  -6  -8  139.19   25.90
  -2  -6  -8  128.49   41.40
   2   6   8  180.68   24.40
   2   6   8  196.88   24.50
  -3  -6  -8   21.80   28.50
  -3  -6  -8    8.10   14.20
  -3  -6  -8  -11.20   11.80
   3   6   8    9.00   12.90
   3   6   8   -2.30    9.90
  -4  -6  -8   18.10   17.80
   4   6   8   -7.50   11.60
   4   6   8   11.60   13.80
  -5  -6  -8  115.99   28.90
  -5  -6  -8   85.69   23.90
   5   6   8  118.79   24.00
   5   6   8  115.69   24.20
  10  -7  -8   15.60   13.10
  10  -7  -8   -7.80   15.40
  10  -7  -8    3.50   16.30
   9  -7  -8  151.38   29.90
   9  -7  -8  146.49   25.40
   9  -7  -8  162.28   22.70
   8  -7  -8  404.76   28.90
   8  -7  -8  356.36   30.30
   8  -7  -8  428.66   43.80
   7  -7  -8  362.86   27.30
   7  -7  -8  322.77   22.90
   7  -7  -8  362.46   39.30
   7  -7  -8  388.66   26.90
   6  -7  -8   24.90    9.70
   6  -7  -8    7.20    8.60
   6  -7  -8    5.20   11.10
   6  -7  -8   13.80   20.90
   6  -7  -8   32.80   12.50
  -6   7   8   10.10    7.80
   5  -7  -8   98.29   21.50
   5  -7  -8   60.29   12.10
   5  -7  -8  108.79   38.50
   5  -7  -8   71.39   15.60
   5  -7  -8   59.29   39.70
   5  -7  -8   58.79   11.90
  -5   7   8   66.79   13.60
   4  -7  -8  482.65   20.90
   4  -7  -8  462.95   27.80
   4  -7  -8  467.15   73.09
   4  -7  -8  316.27   75.29
   4  -7  -8  462.15   33.40
  -4   7   8  435.96   26.90
   3  -7  -8  534.55  103.99
   3  -7  -8  489.85   33.20
   3  -7  -8  534.55   30.10
   3  -7  -8  480.75   76.19
  -3   7   8  501.65   29.20
  -3   7   8  475.25   27.00
   2  -7  -8  594.74   31.90
   2  -7  -8  531.65   29.20
   2  -7  -8  616.94  155.18
   2  -7  -8  498.65   32.60
   2  -7  -8  489.05   81.29
  -2   7   8  614.54   33.10
  -2   7   8  578.74   29.90
   1  -7  -8   -2.50    9.40
   1  -7  -8   12.40   24.80
   1  -7  -8    0.60    9.90
   1  -7  -8    7.20   24.60
   1  -7  -8   -8.20    8.80
  -1   7   8    8.10    8.90
  -1   7   8   17.90   10.10
   0  -7  -8   -7.10   24.70
   0  -7  -8    2.20   25.90
   0  -7  -8   10.30   11.50
   0  -7  -8    5.00   11.10
   0   7   8    2.90   15.50
   0   7   8   17.40   18.90
  -1  -7  -8    0.90   11.70
  -1  -7  -8   27.60   22.40
  -1  -7  -8    5.50   22.20
   1   7   8   -4.50    9.20
   1   7   8   14.00   10.50
  -2  -7  -8   15.10   15.00
  -2  -7  -8    4.20   13.60
  -2  -7  -8   27.30   32.00
   2   7   8   30.80   14.90
   2   7   8   43.00   16.60
   2   7   8   14.50   12.40
  -3  -7  -8   -8.30   13.40
  -3  -7  -8   18.60   17.40
   3   7   8    5.70   17.80
   3   7   8   29.80   15.20
  -4  -7  -8    6.20   16.40
  -4  -7  -8    8.20   18.10
   4   7   8    8.80   14.10
   4   7   8  -17.40   11.30
   9  -8  -8   18.20   15.70
   9  -8  -8   45.50   21.30
   9  -8  -8   39.10   15.10
   8  -8  -8  460.35   32.00
   8  -8  -8  349.87   41.00
   8  -8  -8  389.26   30.90
   7  -8  -8  443.56   29.90
   7  -8  -8  497.95   30.00
   7  -8  -8  468.55   45.70
  -7   8   8  423.16   27.10
   6  -8  -8  584.24   41.70
   6  -8  -8  609.44   33.90
   6  -8  -8  561.64   28.20
   5  -8  -8   21.10   14.80
   5  -8  -8   23.00   12.20
   5  -8  -8   22.40    7.80
  -5   8   8   13.50   15.40
   4  -8  -8  186.88   20.20
   4  -8  -8  242.38   26.20
  -4   8   8  216.08   36.00
   3  -8  -8  825.02   35.50
   3  -8  -8  794.92   38.10
   3  -8  -8  867.71   45.20
   3  -8  -8  838.22  102.59
  -3   8   8  817.92   37.20
  -3   8   8  856.21   40.10
   2  -8  -8 1334.77  111.89
   2  -8  -8 1139.79   46.80
   2  -8  -8 1172.78   43.90
   2  -8  -8 1213.78   51.59
  -2   8   8 1123.89   43.90
  -2   8   8 1180.48   47.30
   1  -8  -8  274.67   71.79
   1  -8  -8  270.77   27.00
   1  -8  -8  192.18   96.89
   1  -8  -8  170.38   25.60
   1  -8  -8  155.78   21.70
  -1   8   8  169.88   23.20
  -1   8   8  160.08   21.20
   0  -8  -8   -7.40   16.50
   0  -8  -8    0.00   11.30
   0  -8  -8   -9.20   35.70
   0   8   8   -0.80    9.20
   0   8   8   -8.30    9.10
  -1  -8  -8  230.28   28.40
  -1  -8  -8  227.88   28.70
   1   8   8  282.97   29.80
   1   8   8  203.28   25.30
  -2  -8  -8  389.46   38.30
  -2  -8  -8  350.56   36.70
   2   8   8  445.26   55.09
   2   8   8  303.67   31.10
  -3  -8  -8  123.89   25.80
  -3  -8  -8   91.29   23.50
   3   8   8  121.49   23.30
   3   8   8  115.49   22.60
  -4  -8  -8    7.60   18.70
  -4  -8  -8   31.50   21.50
   4   8   8   -5.20   21.40
   4   8   8   33.60   18.20
   8  -9  -8   19.20   17.40
   8  -9  -8   35.20   14.10
   8  -9  -8   28.10   13.80
   7  -9  -8  157.38   23.30
   7  -9  -8  164.28   24.30
   7  -9  -8  152.28   29.30
  -7   9   8  203.98   24.40
   6  -9  -8  827.82   64.09
   6  -9  -8  798.82   51.59
   6  -9  -8  776.92   26.70
  -6   9   8  766.32   38.10
   5  -9  -8  398.46   34.40
   5  -9  -8  333.47   38.30
  -5   9   8  368.96   28.10
   4  -9  -8   -7.70    9.70
   4  -9  -8   10.00   13.90
  -4   9   8    2.80    9.60
   3  -9  -8  245.28   27.00
   3  -9  -8  221.28   29.70
  -3   9   8  287.97   29.10
  -3   9   8  322.37   25.20
   2  -9  -8  344.07   44.90
   2  -9  -8  351.56   31.70
  -2   9   8  447.76   29.60
  -2   9   8  356.96   29.10
   1  -9  -8  409.56   31.80
  -1   9   8  470.25   31.60
  -1   9   8  427.66   32.30
   0  -9  -8   -0.30   13.20
   0  -9  -8   12.00   13.40
   0   9   8   14.60   20.10
   0   9   8   -2.00   16.70
  -1  -9  -8   -5.20   14.00
  -1  -9  -8  -13.70   17.90
   1   9   8   19.20   13.80
   1   9   8  -12.10    9.90
  -2  -9  -8  262.07   32.90
  -2  -9  -8  255.37   32.80
   2   9   8  272.47   31.80
   2   9   8  248.48   30.30
   7 -10  -8   15.60   17.20
   7 -10  -8   11.60   13.40
  -7  10   8    3.00   10.90
   6 -10  -8    3.20   12.20
   6 -10  -8   10.10   16.20
  -6  10   8  -10.60    9.30
   5 -10  -8   32.10   18.00
   5 -10  -8   29.10   15.50
  -5  10   8   46.30   15.70
   4 -10  -8    4.80   12.90
   4 -10  -8    0.70   13.90
  -4  10   8   -0.40    9.80
   3 -10  -8   11.30   14.40
  -3  10   8    2.10   17.20
  -3  10   8    9.90   11.70
  -2  10   8   59.29   17.10
  -2  10   8   56.89   17.00
   1 -10  -8  173.48   27.70
  -1  10   8  110.79   20.90
  -1  10   8  133.49   23.60
   0 -10  -8   75.59   20.50
   0  10   8   73.09   18.70
   0  10   8   96.99   20.70
  -1 -10  -8   17.00   17.10
   1  10   8    6.50   13.10
   1  10   8   -4.80   12.40
   5 -11  -8  104.49   26.60
   5 -11  -8   83.79   21.20
  -5  11   8   46.40   16.50
   4 -11  -8   66.79   22.50
   4 -11  -8   26.80   16.50
  -4  11   8   44.20   17.00
   3 -11  -8    1.00   15.30
   3 -11  -8    8.90   15.10
  -3  11   8   -7.40   10.10
  -3  11   8   -2.50   12.30
   2 -11  -8   23.90   15.70
  -2  11   8   30.60   15.00
  -2  11   8   34.40   15.60
   1 -11  -8   -5.90   13.30
  -1  11   8   -5.20   11.60
  -1  11   8   27.20   21.50
   1  11  -9   79.09   23.80
  -1 -11   9   56.49   22.20
  -1 -11   9   56.79   23.50
   0  11  -9   55.39   21.50
   0  11  -9   45.70   25.10
   0 -11   9   67.69   23.80
   0 -11   9   37.30   21.00
  -1  11  -9   17.10   18.70
  -1  11  -9   16.70   28.70
   1 -11   9    6.70   23.30
   1 -11   9   19.20   18.90
   4  10  -9  108.19   24.80
   4  10  -9  175.18   30.50
  -4 -10   9   67.19   24.40
   3  10  -9    6.60   15.00
   3  10  -9   26.00   17.40
  -3 -10   9   17.40   18.40
  -3 -10   9   22.40   19.10
   2  10  -9   44.70   17.00
   2  10  -9   39.10   17.80
  -2 -10   9   83.69   23.30
  -2 -10   9   35.20   18.80
   1  10  -9  328.37   36.50
   1  10  -9  288.67   32.30
  -1 -10   9  352.06   38.20
  -1 -10   9  293.37   35.90
   0  10  -9  320.37   32.60
   0  10  -9  263.07   33.30
   0 -10   9  294.47   36.10
   0 -10   9  280.07   34.30
  -1  10  -9   69.19   21.00
  -1  10  -9   83.39   19.60
   1 -10   9   29.60   18.80
   1 -10   9   73.49   22.70
  -2  10  -9   -5.70   11.30
  -2  10  -9    0.00   15.00
   2 -10   9   12.80   10.30
   2 -10   9    4.50   15.70
   2 -10   9  -11.20   15.40
  -3  10  -9   78.99   22.60
  -3  10  -9   35.80   16.00
   3 -10   9   46.20   21.90
   3 -10   9   60.99   15.50
   3 -10   9   88.29   26.40
   5   9  -9   96.49   22.60
   5   9  -9   83.09   22.50
  -5  -9   9   56.19   22.00
   4   9  -9  202.98   28.20
   4   9  -9  223.88   30.90
  -4  -9   9  256.87   33.40
  -4  -9   9  177.48   29.00
   3   9  -9  147.89   30.00
   3   9  -9  162.88   25.10
  -3  -9   9  147.39   26.70
  -3  -9   9  115.59   25.70
   2   9  -9    1.10   11.30
   2   9  -9   -7.00   12.50
  -2  -9   9  -12.00   14.20
  -2  -9   9   -7.30   13.80
   1   9  -9   14.10   15.00
   1   9  -9   21.70   12.50
  -1  -9   9   32.30   17.70
  -1  -9   9   42.10   17.70
   0   9  -9  452.25   35.90
   0   9  -9  459.85   32.40
   0  -9   9  491.65   20.00
   0  -9   9  471.75   38.20
   0  -9   9  394.96   38.40
  -1   9  -9  343.97   34.40
  -1   9  -9  371.96   33.70
   1  -9   9  282.47   32.90
   1  -9   9  381.56   22.10
   1  -9   9  379.16   38.20
  -2   9  -9   31.30   16.70
  -2   9  -9   48.50   15.50
   2  -9   9   28.80   18.90
   2  -9   9   59.79   14.40
   2  -9   9   37.80   18.70
  -3   9  -9    0.30   11.40
  -3   9  -9   25.00   18.60
   3  -9   9   19.80   17.80
   3  -9   9   24.30   13.60
   3  -9   9  -12.30   13.90
  -4   9  -9  163.88   23.00
  -4   9  -9  197.58   30.50
   4  -9   9  167.88   29.80
   4  -9   9  124.29   21.50
   4  -9   9  136.49   28.00
  -5   9  -9  174.78   30.90
  -5   9  -9  159.88   26.10
   5  -9   9  156.38   29.20
   5  -9   9  239.98   37.10
   6   8  -9    3.30   14.00
   6   8  -9    0.30   14.40
  -6  -8   9    5.80   15.80
   5   8  -9   32.30   19.90
  -5  -8   9   25.50   18.00
   4   8  -9    2.50   11.50
   4   8  -9   -3.70   12.80
  -4  -8   9    9.90   14.70
  -4  -8   9    6.10   14.20
   3   8  -9   52.99   17.00
   3   8  -9   51.59   15.90
  -3  -8   9   22.80   16.10
  -3  -8   9   19.80   30.80
  -3  -8   9   50.49   17.80
   2   8  -9    8.90   11.70
   2   8  -9   16.50   13.80
  -2  -8   9   27.80   15.30
  -2  -8   9    9.20   13.00
  -2  -8   9    6.30   21.40
   1   8  -9   12.00   11.70
   1   8  -9   -6.20   11.70
  -1  -8   9   12.70   14.00
  -1  -8   9   -8.30   16.90
  -1  -8   9   11.40   13.00
  -1  -8   9    8.40    8.10
   0   8  -9   50.19   14.30
   0   8  -9   43.90   16.00
   0  -8   9   73.79   19.50
   0  -8   9    3.60   24.80
   0  -8   9   22.70    9.30
   0  -8   9   39.60   16.10
  -1   8  -9   50.59   14.40
  -1   8  -9   47.80   16.70
   1  -8   9   58.59   18.10
   1  -8   9   64.09   13.60
   1  -8   9   64.69   19.10
  -2   8  -9  103.39   21.30
  -2   8  -9   82.59   16.20
   2  -8   9   89.69   21.60
   2  -8   9  103.09   17.10
   2  -8   9   69.09   18.10
  -3   8  -9   10.20   10.40
  -3   8  -9    4.60   14.00
   3  -8   9  -12.30   13.50
   3  -8   9    4.00   14.80
   3  -8   9   10.40   12.80
  -4   8  -9   37.60   18.00
   4  -8   9   24.20   15.40
   4  -8   9   20.60   30.00
  -5   8  -9  279.17   34.10
   5  -8   9  192.18   27.30
   5  -8   9  191.68   31.20
   7   7  -9  104.59   22.70
   7   7  -9  182.28   27.80
   7   7  -9  106.69   22.10
  -7  -7   9  135.29   28.50
   6   7  -9   19.70   13.90
   6   7  -9   23.80   15.30
   6   7  -9   23.80   14.60
  -6  -7   9   26.00   16.50
   5   7  -9   63.59   16.50
   5   7  -9   56.49   18.50
  -5  -7   9   74.09   20.60
  -5  -7   9   75.69   18.40
   4   7  -9  236.18   25.80
   4   7  -9  219.08   26.40
  -4  -7   9  253.37   29.90
  -4  -7   9  286.77   31.00
  -4  -7   9  161.78   50.49
   3   7  -9   97.39   19.30
   3   7  -9   95.29   28.20
  -3  -7   9  111.29   12.50
  -3  -7   9  109.49   20.30
  -3  -7   9   75.09   32.10
  -3  -7   9  126.99   21.70
   2   7  -9  113.39   19.50
   2   7  -9  159.58   20.30
  -2  -7   9  113.99   37.50
  -2  -7   9  163.48   24.50
  -2  -7   9  158.18   15.50
   1   7  -9    9.60   11.70
   1   7  -9   10.10    9.90
  -1  -7   9    6.00   11.70
  -1  -7   9   17.50    9.10
  -1  -7   9   44.80   28.00
  -1  -7   9   -6.10    9.80
  -1  -7   9   18.50   21.10
   0   7  -9   11.10   11.60
   0   7  -9   35.00   11.10
   0  -7   9   30.00   10.60
   0  -7   9   11.00   12.90
   0  -7   9   12.90   21.30
   0  -7   9   17.00   12.80
  -1   7  -9   25.20   24.80
  -1   7  -9   14.40   11.90
  -1   7  -9   13.50   13.60
   1  -7   9    8.00   13.80
   1  -7   9    9.70   23.90
   1  -7   9  -11.70   13.40
   1  -7   9    4.30   15.70
  -2   7  -9   81.49   15.80
  -2   7  -9   96.99   19.20
   2  -7   9   75.59   18.50
   2  -7   9   66.69   14.90
   2  -7   9   84.49   18.90
  -3   7  -9   13.00   13.70
   3  -7   9   18.90   15.40
   3  -7   9    5.50   11.40
  -4   7  -9    4.00   14.10
   4  -7   9   -6.20   12.40
   4  -7   9   11.40   15.40
  -5   7  -9    6.20   15.10
   5  -7   9    2.20   16.00
   5  -7   9    4.40   14.80
  -6   7  -9   22.50   17.30
   6  -7   9   -5.40   16.10
   6  -7   9   35.40   20.60
   8   6  -9  210.28   29.50
   8   6  -9  262.07   29.70
   8   6  -9  234.88   32.40
  -8  -6   9  229.48   34.40
  -8  -6   9  210.68   33.00
   7   6  -9  493.85   33.80
   7   6  -9  499.85   36.00
   7   6  -9  437.56   34.30
  -7  -6   9  421.86   40.30
  -7  -6   9  437.46   40.70
   6   6  -9  269.17   29.40
   6   6  -9  319.47   32.10
   6   6  -9  275.07   28.70
  -6  -6   9  252.17   17.50
  -6  -6   9  296.67   33.90
   5   6  -9   12.80   10.80
   5   6  -9    6.30   10.40
   5   6  -9   30.30   15.50
  -5  -6   9   17.90    8.30
  -5  -6   9   16.30   13.20
  -5  -6   9   -5.90   17.70
  -5  -6   9   43.60   17.30
   4   6  -9   47.70   13.30
   4   6  -9   91.29   22.60
   4   6  -9   69.19   16.40
  -4  -6   9   79.49   12.00
  -4  -6   9   89.59   18.60
  -4  -6   9   96.09   37.20
  -4  -6   9   66.69   23.90
   3   6  -9  571.04   32.30
   3   6  -9  678.13   33.00
  -3  -6   9  614.74   26.40
  -3  -6   9  505.75   73.59
  -3  -6   9  663.13   37.00
  -3  -6   9  691.63   36.80
   2   6  -9 1606.84   51.29
   2   6  -9 1651.63   49.50
  -2  -6   9 1454.35  103.19
  -2  -6   9 1644.44   55.29
  -2  -6   9 1623.94   43.30
  -2  -6   9 1499.95  100.29
  -2  -6   9 1626.14   56.09
   1   6  -9  435.56   25.60
   1   6  -9  547.65   51.39
   1   6  -9  502.65   58.59
  -1  -6   9  315.87   59.19
  -1  -6   9  510.45   31.40
  -1  -6   9  489.15   25.00
  -1  -6   9  478.35   30.40
   0   6  -9   -4.00   10.80
   0   6  -9   -3.40    6.20
   0  -6   9   -5.40   14.00
   0  -6   9   16.40   10.90
   0  -6   9    3.20    7.70
   0  -6   9    9.30   10.50
  -1   6  -9  398.76   26.70
  -1   6  -9  501.65   60.69
  -1   6  -9  431.36   25.10
   1  -6   9  400.66   28.90
   1  -6   9  350.26   28.30
   1  -6   9  451.65   78.19
   1  -6   9  397.06   25.90
  -2   6  -9  744.03   35.60
  -2   6  -9  738.73   60.99
   2  -6   9  766.42   36.00
   2  -6   9  740.73   38.90
   2  -6   9  649.83   96.09
   2  -6   9  791.52   40.60
  -3   6  -9  451.85   30.20
  -3   6  -9  423.26   57.09
   3  -6   9  423.36   36.60
   3  -6   9  458.85   31.30
   4  -6   9   49.00   17.20
   4  -6   9   49.30   17.30
  -5   6  -9   45.40   17.20
   5  -6   9    5.90   15.40
   5  -6   9   23.80   16.00
  -6   6  -9  199.98   45.70
   6  -6   9  238.48   32.60
   7  -6   9  161.58   31.00
   9   5  -9   19.80   15.80
   9   5  -9   13.40   15.40
   9   5  -9    6.10   19.60
  -9  -5   9   23.60   12.40
  -9  -5   9   23.80   20.00
  -9  -5   9    3.60   17.70
   8   5  -9   33.40   14.90
   8   5  -9   17.70   13.70
   8   5  -9   20.20   22.90
  -8  -5   9   42.10   13.30
  -8  -5   9   30.50   17.70
   7   5  -9  177.88   25.50
   7   5  -9  185.78   24.50
   7   5  -9  179.08   25.20
  -7  -5   9  198.58   20.60
  -7  -5   9  151.98   26.60
   6   5  -9  869.51   39.00
   6   5  -9  875.61   40.20
   6   5  -9  811.82   38.60
  -6  -5   9  847.42   33.00
  -6  -5   9  841.52  102.29
  -6  -5   9  883.01   40.30
  -6  -5   9  576.44  102.29
  -6  -5   9  905.01   46.10
   5   5  -9  246.48   25.80
   5   5  -9  220.48   21.90
   5   5  -9  194.48   21.10
  -5  -5   9  236.68   53.19
  -5  -5   9  174.28   56.39
  -5  -5   9  253.57   26.50
  -5  -5   9  186.58   24.50
  -5  -5   9  232.78   18.90
   4   5  -9    1.10    7.30
   4   5  -9   10.00   12.00
   4   5  -9   21.20    9.30
   4   5  -9    7.50    7.00
  -4  -5   9   14.20   11.40
  -4  -5   9   20.90   19.90
  -4  -5   9   16.00   11.30
   3   5  -9  253.07   23.90
   3   5  -9  210.18   15.10
   3   5  -9  188.78   37.90
  -3  -5   9  254.97   18.70
  -3  -5   9  252.97   25.90
  -3  -5   9  286.97   27.70
  -3  -5   9  204.98   56.19
  -3  -5   9  225.28   52.29
   2   5  -9  792.42   31.80
   2   5  -9  651.03   55.19
   2   5  -9  680.33   31.20
  -2  -5   9  669.83   82.29
  -2  -5   9  729.53   35.80
  -2  -5   9  718.63   29.40
  -2  -5   9  734.73   35.30
   1   5  -9  893.11   34.70
   1   5  -9  836.12   34.00
   1   5  -9  897.61   63.09
  -1  -5   9  831.12   37.40
  -1  -5   9  849.22   33.20
  -1  -5   9  893.81   82.19
  -1  -5   9  859.61   38.50
   0   5  -9   12.30    7.40
   0   5  -9    4.80   11.90
   0   5  -9    6.00    9.00
   0  -5   9    2.70    7.40
   0  -5   9    6.60    9.60
   0  -5   9    6.80    9.50
   0  -5   9   25.20   20.60
  -1   5  -9   24.00   16.80
  -1   5  -9   38.70   12.20
   1  -5   9   41.00   12.80
   1  -5   9   39.70   12.60
   1  -5   9   75.19   36.60
   1  -5   9   26.60   10.90
  -2   5  -9  837.52   65.19
  -2   5  -9  892.11   35.60
   2  -5   9  890.01   40.50
   2  -5   9  900.31  114.39
   2  -5   9  931.81   39.90
  -3   5  -9 1434.16   92.99
  -3   5  -9 1276.17   44.60
   3  -5   9 1287.67   49.99
   3  -5   9  948.41  115.99
   3  -5   9 1301.67   50.19
  -4   5  -9  354.26   56.49
  -4   5  -9  469.35   30.10
   4  -5   9  501.25   46.40
   4  -5   9  479.55   33.00
  -5   5  -9   38.40   30.00
  -5   5  -9   28.30   19.20
   5  -5   9   22.90   17.20
   5  -5   9   49.70   27.80
  -6   5  -9  104.59   26.80
  -6   5  -9  105.09   23.00
   6  -5   9  100.69   24.00
  -7   5  -9  158.48   32.50
  -7   5  -9  223.58   32.80
   7  -5   9  212.68   32.90
   9   4  -9   -6.20   12.30
   9   4  -9    2.40   13.10
  -9  -4   9   14.30   12.70
  -9  -4   9    7.30   17.50
   8   4  -9    2.60   10.50
   8   4  -9   11.90   11.80
   8   4  -9    2.30   11.30
  -8  -4   9    6.80   10.70
  -8  -4   9    9.00   15.50
   7   4  -9  114.39   19.80
   7   4  -9  132.49   22.40
   7   4  -9  126.09   18.70
  -7  -4   9  153.88   24.60
  -7  -4   9  199.88   54.79
  -7  -4   9  117.29   17.60
   6   4  -9   10.90    9.90
   6   4  -9    6.00   10.40
  -6  -4   9   24.20   10.50
  -6  -4   9    7.80   10.20
  -6  -4   9   12.90   12.40
  -6  -4   9   10.60   23.20
   5   4  -9   70.39   15.00
   5   4  -9   86.79   35.60
   5   4  -9   87.49   13.40
   5   4  -9   67.79   13.10
  -5  -4   9   45.40   25.60
  -5  -4   9   40.60   14.00
  -5  -4   9   45.10   11.30
   4   4  -9   80.99   30.30
   4   4  -9  115.99   16.70
   4   4  -9  115.69   15.00
   4   4  -9  143.39   15.00
  -4  -4   9  127.69   19.60
  -4  -4   9   95.29   33.90
  -4  -4   9  154.88   17.50
  -4  -4   9  149.29   19.80
   3   4  -9  126.19   34.80
   3   4  -9  162.18   15.20
   3   4  -9  130.59   15.40
   3   4  -9  159.68   18.40
  -3  -4   9  167.98   40.60
  -3  -4   9  158.78   20.80
  -3  -4   9  152.38   39.40
  -3  -4   9  110.59   20.90
  -3  -4   9  131.69   18.30
   2   4  -9   32.80    9.90
   2   4  -9   34.20   18.30
   2   4  -9   27.40   17.50
   2   4  -9   43.30    8.60
   2   4  -9   37.40    9.30
  -2  -4   9   33.80    9.30
  -2  -4   9   45.30   12.90
  -2  -4   9   42.10   23.90
  -2  -4   9   38.80   11.20
   1   4  -9  173.38   17.80
   1   4  -9  179.48   12.80
   1   4  -9  268.67   43.90
   1   4  -9  235.18   41.00
   1   4  -9  195.18   15.40
  -1  -4   9  200.48   47.60
  -1  -4   9  173.18   19.70
  -1  -4   9  184.68   18.70
  -1  -4   9  187.28   21.10
   0   4  -9  180.28   36.10
   0   4  -9  208.88   19.00
   0   4  -9  178.58   12.90
   0   4  -9  145.99   32.30
   0  -4   9  225.68   71.59
   0  -4   9  150.88   19.70
   0  -4   9  203.68   20.80
   0  -4   9  192.48   20.70
  -1   4  -9  373.86   21.60
  -1   4  -9  336.77   31.50
  -1   4  -9  238.68   46.60
  -1   4  -9  401.46   55.09
   1  -4   9  311.57   58.99
   1  -4   9  329.27   24.30
   1  -4   9  293.27   22.50
   1  -4   9  328.97   24.00
  -2   4  -9   25.60   19.40
  -2   4  -9   50.59   11.90
  -2   4  -9   55.59   15.90
   2  -4   9   38.00   13.20
   2  -4   9   57.69   28.60
   2  -4   9   57.49   14.90
  -3   4  -9  434.06   73.59
  -3   4  -9  414.86   25.00
  -3   4  -9  426.36   34.60
   3  -4   9  372.76   28.70
   3  -4   9  420.86   78.79
   3  -4   9  419.16   28.30
  -4   4  -9  426.36   36.30
  -4   4  -9  329.27   54.29
   4  -4   9  414.06   29.00
   4  -4   9  459.75   33.80
  -5   4  -9   56.99   21.90
  -5   4  -9   10.40   21.00
  -5   4  -9   43.80   15.60
   5  -4   9   25.00   19.30
  -6   4  -9   16.70   15.50
  -6   4  -9   38.00   20.00
   6  -4   9   18.80   18.40
  -7   4  -9   90.99   23.80
  -7   4  -9  104.59   27.60
   7  -4   9   88.49   30.20
  10   3  -9  189.68   29.60
 -10  -3   9  194.68   33.70
 -10  -3   9  177.48   31.40
 -10  -3   9  231.48   29.10
   9   3  -9  386.56   32.70
  -9  -3   9  419.26   31.40
  -9  -3   9  445.56   41.40
   8   3  -9   81.99   17.90
   8   3  -9   67.39   16.60
  -8  -3   9   72.29   19.30
  -8  -3   9   78.49   17.10
   7   3  -9  102.09   17.90
   7   3  -9   91.59   15.50
  -7  -3   9  113.59   18.30
  -7  -3   9   65.49   15.20
  -7  -3   9  111.39   56.19
   6   3  -9  211.98   49.90
   6   3  -9  190.88   19.70
   6   3  -9  172.08   18.90
   6   3  -9  147.59   24.80
  -6  -3   9  143.19   18.30
  -6  -3   9  202.48   34.90
  -6  -3   9  169.68   22.70
  -6  -3   9   96.49   34.50
   5   3  -9  233.48   19.00
   5   3  -9  224.78   22.50
   5   3  -9  266.97   55.49
   5   3  -9  210.98   17.30
  -5  -3   9  249.18   21.70
  -5  -3   9  286.87   54.89
  -5  -3   9  226.88   23.30
   4   3  -9   42.80   12.50
   4   3  -9   49.20   10.10
   4   3  -9   69.29   11.50
   4   3  -9   52.59   26.50
  -4  -3   9   27.10   10.60
  -4  -3   9   60.79   13.40
  -4  -3   9   41.80   21.50
  -4  -3   9   46.00   11.50
   3   3  -9    1.30    5.10
   3   3  -9    0.40    6.30
   3   3  -9    9.80   13.00
   3   3  -9   14.00   13.70
  -3  -3   9    3.10    8.40
  -3  -3   9   19.00   14.60
  -3  -3   9    0.90    7.40
  -3  -3   9    1.20    6.20
   2   3  -9   21.00    8.00
   2   3  -9   17.70   13.40
   2   3  -9   24.10    7.40
   2   3  -9   16.20   15.30
   2   3  -9   18.70   10.80
  -2  -3   9   14.20    9.60
  -2  -3   9   16.60    7.90
  -2  -3   9   15.20    8.50
  -2  -3   9   18.50   17.80
   1   3  -9  -10.60    7.30
   1   3  -9    2.90    6.60
   1   3  -9   14.10   15.00
   1   3  -9    2.80    5.20
   1   3  -9    9.30    6.10
  -1  -3   9    4.80    7.20
  -1  -3   9    8.60    7.60
  -1  -3   9   26.80   23.40
  -1  -3   9   -6.60    6.80
   0   3  -9   34.30    8.20
   0   3  -9   32.40   17.20
   0   3  -9   55.39   13.80
   0   3  -9   30.10    9.80
   0   3  -9   52.29   10.10
   0   3  -9   61.39   26.50
   0  -3   9   26.20    9.30
   0  -3   9   35.80   11.30
   0  -3   9   63.49   28.90
   0  -3   9   56.19   11.90
  -1   3  -9  174.18   18.60
  -1   3  -9  141.79   34.00
  -1   3  -9  159.38   21.60
  -1   3  -9  154.08   43.30
  -1   3  -9  154.78   15.20
  -1   3  -9  191.98   15.10
   1  -3   9  175.18   20.00
   1  -3   9  175.48   46.20
   1  -3   9  163.48   18.90
  -2   3  -9  245.58   20.30
  -2   3  -9  278.77   47.60
  -2   3  -9  258.67   49.70
  -2   3  -9  276.77   28.50
  -2   3  -9  274.87   18.50
   2  -3   9  290.67   63.69
   2  -3   9  288.87   23.90
   2  -3   9  281.47   22.50
  -3   3  -9   17.20   14.80
  -3   3  -9   49.30   29.10
  -3   3  -9   41.90   27.70
  -3   3  -9   66.89   13.20
   3  -3   9   42.10   26.20
   3  -3   9   39.30   12.50
   3  -3   9   60.99   17.20
  -4   3  -9    6.10   13.70
  -4   3  -9   22.50   13.00
  -4   3  -9   56.69   28.10
   4  -3   9   -6.50   18.50
   4  -3   9    4.30   12.50
  -5   3  -9   69.99   17.80
  -5   3  -9   41.50   28.60
  -5   3  -9   59.49   35.60
   5  -3   9   67.79   19.60
  -6   3  -9    7.50   14.80
  -6   3  -9   23.50   18.80
   6  -3   9   16.40   20.60
  -7   3  -9   -3.70   15.50
  -7   3  -9   11.50   19.00
  10   2  -9  217.08   31.40
 -10  -2   9  220.18   29.50
 -10  -2   9  176.78   29.00
  -9  -2   9  519.25   39.30
  -8  -2   9  258.27   30.20
  -8  -2   9  236.78   26.40
  -8  -2   9  196.98   54.99
   7   2  -9  120.19   17.60
   7   2  -9   86.99   15.40
  -7  -2   9   66.49   14.70
  -7  -2   9   74.39   16.60
  -7  -2   9  102.99   16.90
  -7  -2   9   61.59   29.10
   6   2  -9  245.28   19.40
   6   2  -9  368.56   63.89
   6   2  -9  269.57   19.70
   6   2  -9  228.88   18.70
  -6  -2   9  272.47   21.90
  -6  -2   9  293.27   27.00
  -6  -2   9  353.56   61.29
  -6  -2   9  253.87   24.80
   5   2  -9 1048.00   82.79
   5   2  -9  992.40   33.30
   5   2  -9  917.41   38.10
   5   2  -9 1057.49   32.20
  -5  -2   9  951.60   76.59
  -5  -2   9  876.71   36.50
  -5  -2   9  958.60   37.90
  -5  -2   9 1004.60   57.29
   4   2  -9 1577.74  107.89
   4   2  -9 1488.95   36.90
   4   2  -9 1514.45   50.49
   4   2  -9 1511.35   38.20
   4   2  -9 1310.67   88.79
   4   2  -9 1515.15   39.80
  -4  -2   9 1548.84   91.69
  -4  -2   9 1456.45   45.90
  -4  -2   9 1499.25   45.00
  -4  -2   9 1454.75   44.90
   3   2  -9  455.85   54.89
   3   2  -9  487.05   65.09
   3   2  -9  409.66   26.80
   3   2  -9  460.25   19.70
   3   2  -9  492.35   21.40
   3   2  -9  453.15   26.00
  -3  -2   9  467.45   61.39
  -3  -2   9  461.95   25.50
  -3  -2   9  467.05   24.60
  -3  -2   9  456.35   24.40
   2   2  -9    3.30    5.50
   2   2  -9    7.70   11.90
   2   2  -9    6.90   11.60
   2   2  -9   10.30    6.40
   2   2  -9    5.60    8.50
   2   2  -9    5.00    5.00
  -2  -2   9   13.90   17.00
  -2  -2   9    6.20    7.60
  -2  -2   9   13.10    7.80
  -2  -2   9    9.70    7.70
   1   2  -9  926.41  513.95
   1   2  -9  533.55   66.19
   1   2  -9  531.45   29.90
   1   2  -9  476.15   20.90
   1   2  -9  466.45   20.60
   1   2  -9  471.15   52.69
  -1  -2   9  397.86  439.96
  -1  -2   9  496.35   26.60
  -1  -2   9  517.95   68.79
  -1  -2   9  498.45   25.60
  -1  -2   9  489.35   24.20
   0   2  -9 1110.39   78.69
   0   2  -9 1076.29   42.40
   0   2  -9 1072.49   34.40
   0   2  -9  997.60   27.70
   0   2  -9 1015.80   67.69
   0   2  -9  555.64  527.25
   0   2  -9 1048.40   31.70
   0  -2   9 1036.40   37.80
   0  -2   9 1051.69   41.10
   0  -2   9 1064.29   40.40
   0  -2   9 1085.49   86.29
   0  -2   9  620.04  451.75
  -1   2  -9   52.39   13.60
  -1   2  -9   73.09   29.70
  -1   2  -9   91.39   11.60
  -1   2  -9 1391.66  931.01
  -1   2  -9   43.80   21.10
  -1   2  -9   52.69   10.50
  -1   2  -9   61.29   13.00
   1  -2   9   92.49   44.10
   1  -2   9   81.99   15.00
   1  -2   9  123.49   16.80
  -2   2  -9    8.30   11.30
  -2   2  -9    1.40    7.90
  -2   2  -9    3.90   15.40
  -2   2  -9   -4.80   11.10
  -2   2  -9   -1.10    9.50
   2  -2   9   -2.00    7.80
   2  -2   9   -9.40   14.10
   2  -2   9   -3.70    8.90
  -3   2  -9   37.70   11.50
  -3   2  -9   19.30   10.80
  -3   2  -9   25.40   23.40
  -3   2  -9   13.20   17.00
  -3   2  -9   22.90   23.50
   3  -2   9   27.20   12.90
   3  -2   9   13.90   26.00
   3  -2   9   18.70   10.70
  -4   2  -9  136.59   23.70
  -4   2  -9  102.89   37.90
  -4   2  -9  116.79   24.70
  -4   2  -9  147.09   19.80
  -4   2  -9  140.59   51.09
   4  -2   9   97.49   20.30
   4  -2   9  132.59   44.50
  -5   2  -9   81.59   17.80
  -5   2  -9   94.49   57.29
  -5   2  -9   66.19   27.00
  -5   2  -9   55.49   41.50
  -5   2  -9   72.49   20.20
  -6   2  -9    1.80   15.60
  -6   2  -9   20.60   15.60
  -6   2  -9    4.80   14.20
  -7   2  -9   27.80   17.60
  -7   2  -9   -0.80   17.00
 -10  -1   9   -9.50   13.40
 -10  -1   9   -3.60   12.90
  -9  -1   9  221.38   26.90
  -9  -1   9  223.38   29.30
   8   1  -9  360.26   25.20
  -8  -1   9  274.77   28.50
  -8  -1   9  265.27   72.19
  -8  -1   9  360.56   35.30
  -8  -1   9  295.47   23.60
   7   1  -9  422.06   71.69
   7   1  -9  259.67   19.90
  -7  -1   9  193.28   48.90
  -7  -1   9  333.87   26.20
  -7  -1   9  251.67   21.50
  -7  -1   9  249.08   27.10
   6   1  -9    0.00    6.20
   6   1  -9    2.70   13.80
   6   1  -9    6.30    7.30
  -6  -1   9   -2.50    7.90
  -6  -1   9    7.10    8.80
  -6  -1   9    2.70    8.00
   5   1  -9  421.96   28.30
   5   1  -9  360.86   61.39
   5   1  -9  410.46   21.50
   5   1  -9  582.04   78.69
   5   1  -9  447.16   20.50
  -5  -1   9  459.55   25.90
  -5  -1   9  450.95   63.99
  -5  -1   9  457.75   25.40
  -5  -1   9  429.26   25.70
   4   1  -9 1078.39   33.20
   4   1  -9 1105.69   80.29
   4   1  -9 1115.99   28.40
   4   1  -9 1124.69   37.40
   4   1  -9 1083.59   66.29
   4   1  -9 1058.69   28.90
   4   1  -9 1029.60   41.10
  -4  -1   9 1011.30   35.90
  -4  -1   9 1048.50   38.20
  -4  -1   9 1031.50   37.50
   3   1  -9 1189.78  455.65
   3   1  -9 1010.10   31.40
   3   1  -9  964.00   39.50
   3   1  -9  956.20   26.40
   3   1  -9 1033.40   26.30
   3   1  -9 1005.70   75.69
   3   1  -9 1064.89   64.69
  -3  -1   9 1044.70   43.30
  -3  -1   9  985.80   32.90
  -3  -1   9 1189.28  455.15
  -3  -1   9 1044.20   37.20
   2   1  -9   18.60   12.80
   2   1  -9   34.30   19.90
   2   1  -9   29.60    6.20
   2   1  -9   24.50    9.70
   2   1  -9  293.07  463.15
   2   1  -9   13.40    7.30
  -2  -1   9   27.90    9.50
  -2  -1   9   30.40    9.60
  -2  -1   9   23.40   19.00
  -2  -1   9 -305.17  347.47
  -2  -1   9   15.10    7.00
   1   1  -9  117.39   13.80
   1   1  -9   95.09   12.30
   1   1  -9  118.59   31.90
   1   1  -9   86.59   15.60
   1   1  -9  127.39   28.80
   1   1  -9  369.76  544.75
  -1  -1   9  146.99   41.60
  -1  -1   9  122.79   14.00
  -1  -1   9  120.89   15.60
  -1  -1   9 -456.85  385.96
  -1  -1   9  136.59   16.80
   0   1  -9  803.12   61.29
   0   1  -9  810.72   42.50
   0   1  -9  799.22   70.59
   0   1  -9  915.21   39.40
   0   1  -9  821.62   31.50
   0   1  -9  787.02  520.75
   0  -1   9  374.06  416.96
   0  -1   9  769.52   31.10
   0  -1   9  812.72   29.40
   0  -1   9  840.02   74.69
   0  -1   9  809.12   33.00
  -1   1  -9 1839.92   94.69
  -1   1  -9 1972.50  115.89
  -1   1  -9 1882.21   47.80
  -1   1  -9 1898.31   56.99
  -1   1  -9 1902.71   51.79
   1  -1   9 1826.62   52.19
   1  -1   9 1880.01   49.40
   1  -1   9 1893.81  129.99
   1  -1   9 1826.42   36.60
  -2   1  -9 1090.89   91.19
  -2   1  -9 1139.89   79.69
  -2   1  -9 1060.59   44.30
  -2   1  -9 1022.70   37.00
  -2   1  -9  940.01   39.70
   2  -1   9 1083.99   41.90
   2  -1   9 1032.50   36.20
  -3   1  -9  140.69   20.90
  -3   1  -9  160.18   18.60
  -3   1  -9  167.68   52.59
  -3   1  -9  161.98   19.50
  -3   1  -9  138.19   20.60
  -3   1  -9  154.08   41.10
   3  -1   9  142.89   17.30
   3  -1   9  195.08   52.69
   3  -1   9  171.58   22.50
  -4   1  -9   75.99   14.90
  -4   1  -9   85.79   18.80
  -4   1  -9  107.39   20.90
  -4   1  -9  132.99   53.89
  -4   1  -9   54.79   30.50
  -4   1  -9   97.79   18.30
   4  -1   9   21.30   41.50
  -5   1  -9  289.07   29.80
  -5   1  -9  322.57   65.19
  -5   1  -9  272.57   28.10
  -5   1  -9  229.28   28.30
  -5   1  -9  214.38   63.49
   5  -1   9  275.87   74.89
  -6   1  -9  321.77   31.50
  -6   1  -9  250.67   31.30
  -6   1  -9  293.17   31.90
  -7   1  -9   33.50   19.20
  -7   1  -9   38.80   18.60
 -11   0   9   57.59   35.20
 -11   0   9   20.90   18.30
 -10   0   9   13.40   14.40
  -9   0   9   16.30   12.70
  -9   0   9    5.90   23.60
  -9   0   9   24.90   14.10
   8   0  -9    8.90    9.30
  -8   0   9    3.70    9.70
  -8   0   9    4.60   17.10
  -8   0   9   -8.10   10.30
  -8   0   9    0.10   18.50
   7   0  -9   -3.80   15.40
   7   0  -9   -7.90    8.70
   7   0  -9    1.30    6.80
  -7   0   9   -1.40   14.90
  -7   0   9    8.90    9.30
  -7   0   9    1.50    7.80
  -7   0   9    4.00    8.90
   6   0  -9  270.07   56.49
   6   0  -9  216.48   20.10
   6   0  -9  204.98   48.10
   6   0  -9  263.57   15.40
   6   0  -9  254.57   27.20
  -6   0   9  257.27   22.90
  -6   0   9  235.58   23.20
  -6   0   9  344.07   58.69
   5   0  -9    9.80    9.30
   5   0  -9   -1.20    4.90
   5   0  -9    3.20   17.30
   5   0  -9    2.80    6.30
   5   0  -9   -2.40   10.40
  -5   0   9   -1.80    6.80
  -5   0   9   -2.70    6.20
  -5   0   9    2.50   13.50
   4   0  -9  121.79   12.10
   4   0  -9   83.79   29.70
   4   0  -9  127.69   29.50
   4   0  -9  152.88   44.70
   4   0  -9  117.49   14.00
   4   0  -9   92.49   15.20
   4   0  -9 -398.16  418.06
  -4   0   9  128.89   16.80
  -4   0   9   91.89   20.10
  -4   0   9  813.32  394.66
  -4   0   9  106.69   13.10
   3   0  -9  392.96   60.89
   3   0  -9  345.07   17.20
   3   0  -9  453.55   79.49
   3   0  -9  344.77   23.80
   3   0  -9  384.36   19.60
  -3   0   9  176.58  353.66
  -3   0   9  349.87   18.40
  -3   0   9  379.86   22.60
  -3   0   9  390.36   22.50
  -3   0   9  370.16   18.20
   2   0  -9  783.22   87.89
   2   0  -9  750.12   33.50
   2   0  -9  714.53   25.90
   2   0  -9  677.43   74.69
   2   0  -9  712.73   26.70
   2   0  -9  501.25  489.35
  -2   0   9  700.93   29.90
  -2   0   9  727.93   29.60
  -2   0   9  682.93   28.10
  -2   0   9  200.68  374.16
   1   0  -9   14.70    7.00
   1   0  -9 -334.17  433.16
   1   0  -9   37.50    9.70
   1   0  -9   18.90   16.50
   1   0  -9    2.90   10.70
   1   0  -9   21.90    9.80
  -1   0   9   18.10    8.40
  -1   0   9   83.69  368.76
  -1   0   9   15.60    7.80
  -1   0   9   41.30   22.20
  -1   0   9    9.60    7.00
   0   0  -9  213.08   16.60
   0   0  -9  213.18   38.30
   0   0  -9  228.98   22.50
   0   0  -9  244.98   19.30
   0   0  -9  298.37   59.19
   0   0   9  223.68   15.60
   0   0   9  161.38   39.80
   0   0   9  178.88   18.40
   0   0   9  185.78   12.20
  -1   0  -9  752.42   91.49
  -1   0  -9  645.44   57.99
  -1   0  -9  763.82   33.70
  -1   0  -9  781.52   31.70
  -1   0  -9  740.23   35.30
   1   0   9  749.23   24.20
   1   0   9  729.03   34.90
   1   0   9  715.73   32.50
   1   0   9  646.14   83.79
  -2   0  -9  358.86   26.30
  -2   0  -9  370.96   21.60
  -2   0  -9  362.86   26.80
  -2   0  -9  393.56   24.80
  -2   0  -9  308.17   51.49
  -2   0  -9  272.67   77.79
   2   0   9  358.66   21.30
   2   0   9  280.97   58.29
   2   0   9  377.56   18.40
  -3   0  -9  201.78   22.70
  -3   0  -9  346.97   76.29
  -3   0  -9  166.88   22.20
  -3   0  -9  166.28   43.20
  -3   0  -9  127.39   19.60
  -3   0  -9  202.18   20.00
   3   0   9  104.49   38.50
  -4   0  -9   12.20   10.50
  -4   0  -9   32.90   14.60
  -4   0  -9   32.10   26.60
  -4   0  -9   29.40   13.70
  -4   0  -9   23.20   34.90
  -4   0  -9   23.80   14.20
   4   0   9   53.39   30.40
  -5   0  -9  165.18   48.50
  -5   0  -9  143.29   23.90
  -5   0  -9  178.98   23.00
  -5   0  -9  117.19   22.20
  -5   0  -9  123.39   23.10
   5   0   9  107.99   43.70
  -6   0  -9  138.39   22.50
  -6   0  -9  143.49   25.60
  -6   0  -9   51.49   34.50
  -7   0  -9  120.99   26.50
  -7   0  -9  135.09   28.70
  -7   0  -9  170.48   28.30
  -7   0  -9  181.48   27.50
 -11   1   9   48.20   20.40
 -11   1   9   86.99   23.50
 -10   1   9    0.90   13.30
 -10   1   9   -6.40   11.90
   9  -1  -9   59.69   15.00
  -9   1   9   60.89   16.80
  -9   1   9   78.79   19.00
  -9   1   9   34.20   35.80
   8  -1  -9  264.67   18.60
   8  -1  -9  289.77   22.60
   8  -1  -9  283.97   33.00
  -8   1   9  298.97   55.79
  -8   1   9  268.07   25.60
  -8   1   9  329.97   32.70
   7  -1  -9  192.78   24.80
   7  -1  -9  202.18   20.60
   7  -1  -9  157.88   16.10
  -7   1   9  195.68   21.70
  -7   1   9  260.57   24.40
  -7   1   9  196.18   45.00
  -7   1   9  172.88   22.10
   6  -1  -9   47.00   26.40
   6  -1  -9   36.00   12.60
   6  -1  -9   40.90    9.10
   6  -1  -9   22.20   22.50
   6  -1  -9   35.10   10.40
  -6   1   9   28.70   11.60
  -6   1   9    1.60   14.30
  -6   1   9   20.80    9.30
  -6   1   9   24.90    9.90
   5  -1  -9   43.00   12.40
   5  -1  -9  118.59   40.60
   5  -1  -9   60.69   11.20
   5  -1  -9   62.69   10.70
   5  -1  -9   43.80   23.30
  -5   1   9   67.39   26.40
  -5   1   9   68.99   13.40
  -5   1   9   55.59   12.40
  -5   1   9   43.20   10.00
   4  -1  -9 -123.29  705.83
   4  -1  -9   -0.10    5.70
   4  -1  -9    9.70   16.30
   4  -1  -9    6.00    7.90
   4  -1  -9    4.80    5.70
   4  -1  -9    3.80   14.60
   4  -1  -9    2.00   10.90
  -4   1   9   -7.40    5.70
  -4   1   9   -1.10    6.10
  -4   1   9  352.96  388.56
  -4   1   9    1.60    4.80
  -4   1   9   -2.60    5.10
   3  -1  -9   -0.50   12.20
   3  -1  -9   83.89   37.00
   3  -1  -9   31.90   11.00
   3  -1  -9   29.80    8.70
   3  -1  -9   19.90    7.60
   3  -1  -9   33.60   18.20
  -3   1   9   14.70    6.50
  -3   1   9   22.30    6.70
  -3   1   9   11.10    7.60
  -3   1   9   16.20    8.30
   2  -1  -9  325.27   44.00
   2  -1  -9  330.77   57.19
   2  -1  -9  310.47   19.10
   2  -1  -9  329.37   67.49
   2  -1  -9  298.67   18.60
   2  -1  -9  312.57   22.20
  -2   1   9  315.07   18.80
  -2   1   9  340.97   20.80
  -2   1   9  387.66   30.20
   1  -1  -9   16.80   16.50
   1  -1  -9   14.30    8.30
   1  -1  -9   13.90   21.80
   1  -1  -9   13.30    8.00
   1  -1  -9    8.20    6.70
  -1   1   9   13.20    8.10
  -1   1   9   17.60    8.60
   0  -1  -9   25.40   10.00
   0  -1  -9   -0.70   11.80
   0  -1  -9   22.40    9.00
   0  -1  -9   21.10    9.90
   0  -1  -9   49.20   28.60
   0   1   9   16.60    6.40
   0   1   9   18.40    7.10
   0   1   9   39.80   25.90
   0   1   9   23.60    8.40
   0   1   9   26.80   10.10
  -1  -1  -9    5.20   18.50
  -1  -1  -9   -6.90    7.80
  -1  -1  -9    0.40    7.60
  -1  -1  -9    5.90    7.60
  -1  -1  -9  -10.00   10.20
   1   1   9    6.90    6.30
   1   1   9    1.60    7.00
  -2  -1  -9   12.50   22.70
  -2  -1  -9    2.00    9.30
  -2  -1  -9    2.70    7.30
  -2  -1  -9   -2.10    8.70
  -2  -1  -9    0.60   15.90
   2   1   9    0.00   13.90
   2   1   9   -3.30    6.50
   2   1   9   12.50    7.50
  -3  -1  -9   -1.00    8.40
  -3  -1  -9  -12.80   16.30
  -3  -1  -9    9.20   10.30
  -3  -1  -9   -0.20   10.70
  -3  -1  -9   -0.20   15.40
  -3  -1  -9    6.80   11.00
   3   1   9   13.60   20.20
   3   1   9  -10.70    6.40
  -4  -1  -9   -2.30   20.50
  -4  -1  -9  -11.20   16.00
  -4  -1  -9   -2.10    9.30
  -4  -1  -9   13.50   12.50
   4   1   9    2.40   12.80
   4   1   9    3.70   19.90
  -5  -1  -9   10.00   12.50
  -5  -1  -9    7.40   13.60
  -5  -1  -9    3.20   13.90
  -5  -1  -9    0.40   13.40
   5   1   9   17.80   28.60
  -6  -1  -9   16.50   14.80
  -6  -1  -9   27.00   19.50
  -6  -1  -9   42.60   18.60
  -7  -1  -9   52.19   21.60
  -7  -1  -9   75.39   21.40
  -7  -1  -9   60.19   24.80
   7   1   9   73.99   21.60
 -11   2   9  261.17   36.90
 -11   2   9  212.28   31.10
  10  -2  -9  149.39   20.00
  10  -2  -9  147.89   33.20
 -10   2   9  172.48   30.80
 -10   2   9  123.69   22.00
   9  -2  -9   68.99   15.50
   9  -2  -9   99.99   17.30
   9  -2  -9   58.39   20.60
  -9   2   9   59.59   18.30
  -9   2   9   50.19   15.40
   8  -2  -9   88.69   20.70
   8  -2  -9  103.99   14.60
  -8   2   9  126.09   17.90
  -8   2   9   84.99   18.90
  -8   2   9  151.68   40.80
   7  -2  -9 1131.29   48.10
   7  -2  -9  993.80   92.59
   7  -2  -9 1004.80  127.09
   7  -2  -9 1007.20   37.40
  -7   2   9 1019.00   77.69
  -7   2   9 1087.69   37.90
  -7   2   9 1147.19   65.09
   6  -2  -9  852.61  104.19
   6  -2  -9  903.61   33.60
   6  -2  -9  880.81   40.70
   6  -2  -9  884.11   30.40
   6  -2  -9  838.92   95.09
  -6   2   9  819.22   30.40
  -6   2   9  887.11   36.50
  -6   2   9  875.01   39.20
  -6   2   9  881.21   67.89
   5  -2  -9  781.92   94.19
   5  -2  -9  745.03   27.70
   5  -2  -9  716.83   28.90
   5  -2  -9  785.32   99.99
   5  -2  -9  785.92   36.60
  -5   2   9  832.62   35.70
  -5   2   9  781.92   32.90
   4  -2  -9    2.50   11.80
   4  -2  -9    6.60    8.00
   4  -2  -9   -2.70    5.80
   4  -2  -9    5.90    6.00
   4  -2  -9    3.90   10.30
   4  -2  -9   -1.60   15.40
  -4   2   9    8.40    7.20
  -4   2   9   -2.60    5.30
  -4   2   9    2.80    7.60
   3  -2  -9  844.42   73.99
   3  -2  -9  822.22   30.60
   3  -2  -9  988.00  118.19
   3  -2  -9  838.22   30.00
   3  -2  -9  799.82   33.90
   3  -2  -9  837.32   54.89
  -3   2   9  815.72   32.30
  -3   2   9  805.72   29.30
  -3   2   9  742.33   31.90
   2  -2  -9 1733.03   46.20
   2  -2  -9 1716.13  108.49
   2  -2  -9 1728.73   45.30
   2  -2  -9 1737.93  126.99
   2  -2  -9 1779.42   49.99
   2  -2  -9 1669.73   81.09
  -2   2   9 1746.83   48.70
  -2   2   9 1778.52   46.90
  -2   2   9 1758.92   46.40
   1  -2  -9  924.51   33.80
   1  -2  -9 1019.60   90.79
   1  -2  -9  950.10   35.30
   1  -2  -9 1184.48  108.89
   1  -2  -9 1011.40   86.99
   1  -2  -9  889.11   35.20
  -1   2   9  923.51   32.70
  -1   2   9  982.20   35.50
  -1   2   9  996.10   30.70
   0  -2  -9  227.68   41.40
   0  -2  -9  209.08   52.19
   0  -2  -9  195.08   19.80
   0  -2  -9  185.88   20.40
   0  -2  -9  160.68   18.60
   0  -2  -9  175.68   55.59
   0   2   9  173.88   16.80
   0   2   9  179.38   14.60
   0   2   9  207.88   20.70
  -1  -2  -9    0.20   16.90
  -1  -2  -9   11.00   22.70
  -1  -2  -9    0.50    9.90
  -1  -2  -9   10.30    8.90
  -1  -2  -9    6.30    8.60
  -1  -2  -9   11.40   15.70
   1   2   9   12.50    8.60
   1   2   9    4.80    6.90
   1   2   9    2.30    7.00
  -2  -2  -9  100.79   17.20
  -2  -2  -9   62.99   30.60
  -2  -2  -9   81.99   16.90
  -2  -2  -9   46.00   31.40
  -2  -2  -9   97.59   16.10
   2   2   9  111.89   17.40
   2   2   9  120.59   15.70
  -3  -2  -9  327.47   25.40
  -3  -2  -9  359.06   63.89
  -3  -2  -9  352.26   92.69
  -3  -2  -9  440.86   33.20
  -3  -2  -9  283.37   28.50
   3   2   9  335.87   65.19
   3   2   9  314.07   26.50
   3   2   9  372.96   24.10
  -4  -2  -9   35.60   14.80
  -4  -2  -9   24.20   14.90
  -4  -2  -9   32.20   31.00
  -4  -2  -9   33.50   13.60
   4   2   9   49.80   13.50
   4   2   9   46.20   14.70
   4   2   9   53.69   29.90
  -5  -2  -9  124.79   24.30
  -5  -2  -9   89.99   23.70
  -5  -2  -9  123.49   21.20
   5   2   9   68.69   18.70
   5   2   9  101.69   18.60
  -6  -2  -9  -14.20   13.20
  -6  -2  -9    9.40   16.20
  -6  -2  -9  -13.20   16.20
  -7  -2  -9    2.20   16.90
  -7  -2  -9   13.70   16.20
   7   2   9   26.00   17.80
  11  -3  -9  128.59   29.70
  11  -3  -9  198.38   24.40
 -11   3   9  187.78   32.50
  10  -3  -9  334.17   28.70
  10  -3  -9  276.37   35.80
  10  -3  -9  349.57   38.70
 -10   3   9  330.77   38.80
   9  -3  -9  192.78   23.30
   9  -3  -9  201.98   22.10
   9  -3  -9  144.99   27.10
  -9   3   9  182.78   29.50
   8  -3  -9   -4.80   10.20
   8  -3  -9    7.70    8.40
  -8   3   9    0.60    9.80
   7  -3  -9  243.88   27.50
   7  -3  -9  179.58   71.59
   7  -3  -9  207.48   55.39
   7  -3  -9  250.67   19.90
   7  -3  -9  230.88   18.50
  -7   3   9  259.27   28.00
  -7   3   9  336.97   58.09
   6  -3  -9  895.81   34.80
   6  -3  -9  948.81   41.90
   6  -3  -9  866.61  100.29
   6  -3  -9  921.11   34.10
   6  -3  -9  914.01  110.79
  -6   3   9  818.52   38.70
  -6   3   9  982.60   68.79
   5  -3  -9 1080.39   42.30
   5  -3  -9 1065.99   36.30
   5  -3  -9 1094.09   35.30
   5  -3  -9  972.50   82.19
  -5   3   9 1060.59   32.20
  -5   3   9 1059.29   40.90
   4  -3  -9  654.33  112.39
   4  -3  -9  634.84   26.80
   4  -3  -9  531.85   43.70
   4  -3  -9  644.14   31.40
   4  -3  -9  595.14   94.89
   4  -3  -9  635.84   26.90
  -4   3   9  598.84   28.80
  -4   3   9  560.54   25.50
   3  -3  -9  336.67   20.50
   3  -3  -9  350.46   22.60
   3  -3  -9  281.77   40.00
   3  -3  -9  392.66   65.19
   3  -3  -9  342.27   70.59
   3  -3  -9  379.16   21.80
  -3   3   9  363.76   22.00
  -3   3   9  331.37   26.10
   2  -3  -9  487.25   26.00
   2  -3  -9  516.75   26.10
   2  -3  -9  488.45   54.19
   2  -3  -9  434.16   24.20
   2  -3  -9  534.75   77.39
   2  -3  -9  408.36   79.59
  -2   3   9  473.85   24.30
  -2   3   9  471.55   25.20
  -2   3   9  517.75   23.20
   1  -3  -9 1819.52   88.89
   1  -3  -9 1640.44   46.00
   1  -3  -9 1724.53   48.60
   1  -3  -9 1701.73   49.40
  -1   3   9 1632.54   44.40
  -1   3   9 1645.84   43.20
  -1   3   9 1705.03   49.90
   0  -3  -9 1106.19   75.69
   0  -3  -9 1019.70  123.19
   0  -3  -9 1157.98  100.29
   0  -3  -9 1163.78   42.00
   0  -3  -9 1129.59   42.90
   0  -3  -9 1198.48   39.10
   0   3   9 1205.68   43.40
   0   3   9 1195.48   37.40
  -1  -3  -9  134.69   19.00
  -1  -3  -9  155.08   49.30
  -1  -3  -9  157.38   54.99
  -1  -3  -9  162.38   18.00
  -1  -3  -9   96.69   30.40
  -1  -3  -9  144.39   19.50
   1   3   9  110.99   17.00
   1   3   9  187.08   18.70
   1   3   9  152.28   15.80
  -2  -3  -9  246.48   68.99
  -2  -3  -9  350.76   22.80
  -2  -3  -9  282.37   52.39
  -2  -3  -9  319.77   29.70
  -2  -3  -9  288.77   27.90
  -2  -3  -9  207.68   61.09
   2   3   9  268.07   25.80
   2   3   9  307.57   22.10
  -3  -3  -9  637.64   83.39
  -3  -3  -9  358.46   77.19
  -3  -3  -9  541.45   28.90
  -3  -3  -9  380.36   82.19
  -3  -3  -9  554.74   35.40
   3   3   9  586.14   35.30
   3   3   9  575.84   30.90
  -4  -3  -9  371.36   73.49
  -4  -3  -9  331.37   33.30
  -4  -3  -9  360.26   25.70
  -4  -3  -9  316.77   32.80
   4   3   9  417.26   32.00
   4   3   9  346.37   26.60
  -5  -3  -9   37.60   20.40
  -5  -3  -9   96.39   23.20
  -5  -3  -9   90.59   17.50
   5   3   9  100.59   19.90
   5   3   9  115.49   21.80
  -6  -3  -9   -7.00   14.60
  -6  -3  -9  -17.70   16.40
  -6  -3  -9   -6.90   11.90
   6   3   9   -5.20   13.60
   6   3   9    2.90   14.10
  11  -4  -9    8.60   12.20
 -11   4   9    0.10   16.90
  10  -4  -9   14.00   17.80
  10  -4  -9   17.30   13.30
  10  -4  -9   16.40   15.20
  10  -4  -9   -7.50   13.40
 -10   4   9    3.30   14.80
   9  -4  -9    7.50   12.50
   9  -4  -9   31.90   12.20
   9  -4  -9   58.89   20.40
   9  -4  -9   40.70   13.40
   8  -4  -9   75.59   22.50
   8  -4  -9   70.19   19.50
   8  -4  -9   42.80   33.60
   7  -4  -9   -2.90    7.10
   7  -4  -9    6.70   21.10
   7  -4  -9   15.70   11.90
   7  -4  -9   -5.80    7.20
   6  -4  -9    3.00    7.20
   6  -4  -9   27.30   22.40
   6  -4  -9   27.50   30.90
   6  -4  -9    8.80    9.20
   6  -4  -9    8.00    8.30
   5  -4  -9  136.49   17.40
   5  -4  -9  128.79   18.00
   5  -4  -9   85.79   33.50
   5  -4  -9  133.89   46.20
  -5   4   9  114.29   14.00
   4  -4  -9  354.06   74.69
   4  -4  -9  251.37   18.70
   4  -4  -9  275.27   38.30
   4  -4  -9  235.48   18.50
   4  -4  -9  261.67   54.39
  -4   4   9  269.67   19.40
   3  -4  -9  167.88   46.50
   3  -4  -9  110.69   26.30
   3  -4  -9  123.89   16.00
   3  -4  -9  151.18   17.70
   3  -4  -9  121.09   46.50
   3  -4  -9  133.49   16.60
  -3   4   9  129.99   16.90
   2  -4  -9  192.78   20.60
   2  -4  -9  141.49   18.10
   2  -4  -9  135.99   40.80
   2  -4  -9  111.39   45.80
   2  -4  -9  203.18   36.20
   2  -4  -9  148.99   16.00
  -2   4   9  176.08   18.70
  -2   4   9  170.68   16.90
  -2   4   9  197.28   20.30
   1  -4  -9  239.48   20.00
   1  -4  -9  290.37   65.19
   1  -4  -9  303.17   45.90
   1  -4  -9  307.97   69.19
   1  -4  -9  240.48   17.70
   1  -4  -9  281.17   26.70
  -1   4   9  254.87   23.60
  -1   4   9  236.08   17.80
  -1   4   9  229.68   17.70
   0  -4  -9  468.35   61.29
   0  -4  -9  395.36   75.69
   0  -4  -9  493.35   27.70
   0  -4  -9  461.25   28.00
   0  -4  -9  291.27   70.89
   0  -4  -9  449.36   28.70
   0   4   9  440.96   27.80
  -1  -4  -9  165.18   21.50
  -1  -4  -9  201.88   59.79
  -1  -4  -9  184.28   58.79
  -1  -4  -9  160.78   15.50
  -1  -4  -9  125.49   19.80
  -1  -4  -9  222.48   49.30
   1   4   9  150.08   18.20
   1   4   9  130.29   18.80
  -2  -4  -9    2.80    7.60
  -2  -4  -9    8.30   11.50
  -2  -4  -9    0.90   22.50
  -2  -4  -9  -16.50    9.90
  -2  -4  -9    6.40   16.60
  -2  -4  -9  -11.40   18.40
   2   4   9    1.80   10.40
   2   4   9    1.00    8.20
  -3  -4  -9  123.89   21.60
  -3  -4  -9   90.49   13.10
  -3  -4  -9  110.89   50.19
  -3  -4  -9  129.59   23.80
   3   4   9  127.09   19.30
   3   4   9  134.99   21.00
  -4  -4  -9  147.39   25.00
  -4  -4  -9  136.59   15.30
  -4  -4  -9  114.99   24.60
   4   4   9  142.79   24.40
   4   4   9  193.08   24.70
  -5  -4  -9  132.69   25.80
  -5  -4  -9  192.68   33.30
   5   4   9  155.48   33.10
   5   4   9  188.18   25.10
  -6  -4  -9   37.90   24.20
  -6  -4  -9   45.70   21.30
   6   4   9   58.99   18.50
   6   4   9   60.29   20.70
  10  -5  -9   61.39   22.40
  10  -5  -9   70.19   23.00
  10  -5  -9   72.09   16.60
  10  -5  -9   33.80   14.90
   9  -5  -9  109.99   24.50
   9  -5  -9  116.09   23.80
   9  -5  -9  106.79   17.40
   9  -5  -9  137.39   20.10
   8  -5  -9   11.00    9.50
   8  -5  -9   28.00   15.90
   8  -5  -9   23.70   15.00
   8  -5  -9   17.90   10.40
   8  -5  -9   -0.30   28.00
   7  -5  -9   96.79   38.20
   7  -5  -9   69.69   14.30
   7  -5  -9   52.99   18.10
   7  -5  -9   51.29   15.20
   7  -5  -9   42.70   14.20
   7  -5  -9   19.00   24.60
   6  -5  -9  221.58   24.70
   6  -5  -9  226.18   66.59
   6  -5  -9  318.47   65.19
   6  -5  -9  247.38   22.90
   6  -5  -9  251.97   24.10
   5  -5  -9  247.28   22.70
   5  -5  -9  273.67   60.39
   5  -5  -9  238.98   23.50
   5  -5  -9  224.98   18.60
   5  -5  -9  176.08   56.59
  -5   5   9  217.88   20.00
   4  -5  -9    1.60    6.80
   4  -5  -9    5.00   15.80
   4  -5  -9   26.30   29.40
   4  -5  -9    6.70    8.20
  -4   5   9    7.00    7.80
   3  -5  -9   83.99   12.80
   3  -5  -9   70.29   37.10
   3  -5  -9   78.69   22.50
   3  -5  -9  122.29   17.40
   3  -5  -9   88.29   16.20
   3  -5  -9   72.89   32.50
  -3   5   9  110.19   16.60
   2  -5  -9  309.47   61.79
   2  -5  -9  233.88   39.90
   2  -5  -9  359.56   24.90
   2  -5  -9  308.67   24.30
   2  -5  -9  246.78   66.69
  -2   5   9  314.37   20.50
  -2   5   9  290.17   27.00
   1  -5  -9   -7.90   14.60
   1  -5  -9    8.90   13.70
   1  -5  -9   55.69   34.90
   1  -5  -9   24.00   10.90
   1  -5  -9    5.70    8.80
   1  -5  -9   21.00    8.30
  -1   5   9   21.80    9.30
  -1   5   9    1.30    8.40
   0  -5  -9    9.30   10.20
   0  -5  -9    4.90   20.20
   0  -5  -9   14.40   10.30
   0  -5  -9   28.00   23.30
   0  -5  -9    3.20    9.70
   0  -5  -9   -0.10   18.90
   0   5   9   -2.70    8.50
   0   5   9    0.90    7.50
  -1  -5  -9   72.69   30.70
  -1  -5  -9   45.20   14.40
  -1  -5  -9   61.99   16.20
  -1  -5  -9  144.79   56.89
  -1  -5  -9   52.49   38.10
   1   5   9   33.10   12.50
   1   5   9   37.20   12.40
  -2  -5  -9    0.20   19.60
  -2  -5  -9   -5.00   23.70
  -2  -5  -9    5.50   12.60
  -2  -5  -9   10.40   13.80
   2   5   9   -6.40    9.70
   2   5   9    3.90   10.60
  -3  -5  -9   -4.80   21.30
  -3  -5  -9   -8.90   12.30
  -3  -5  -9    4.00   13.80
   3   5   9    4.70   11.50
   3   5   9   10.40   11.80
  -4  -5  -9    9.10   20.70
  -4  -5  -9   -5.50   17.50
   4   5   9   -1.80   13.10
   4   5   9    1.90   12.40
  -5  -5  -9   66.69   21.90
  -5  -5  -9   85.89   26.00
   5   5   9   85.09   20.30
   5   5   9  110.49   23.80
  10  -6  -9   24.40   13.50
  10  -6  -9   28.40   19.80
  10  -6  -9   32.90   19.00
  10  -6  -9   51.79   15.80
   9  -6  -9  482.55   31.40
   9  -6  -9  516.25   57.99
   9  -6  -9  453.45   42.90
   9  -6  -9  452.15   28.70
   8  -6  -9  193.58   29.70
   8  -6  -9  224.88   23.70
   8  -6  -9  171.88   26.30
   8  -6  -9  275.57   27.40
   7  -6  -9  356.46   28.40
   7  -6  -9  297.67   26.50
   7  -6  -9  245.68   59.59
   7  -6  -9  310.27   35.20
   7  -6  -9  261.97   25.70
   6  -6  -9    1.00    7.50
   6  -6  -9   -6.30   19.00
   6  -6  -9   -2.50   14.80
   6  -6  -9   -2.80   11.00
   6  -6  -9    0.50   11.10
  -6   6   9   -0.70    6.40
   5  -6  -9  235.98   30.50
   5  -6  -9  190.58   52.89
   5  -6  -9  234.38   22.30
   5  -6  -9  175.28   59.59
   5  -6  -9  223.78   23.40
   5  -6  -9  215.08   20.90
  -5   6   9  237.48   22.90
   4  -6  -9  309.87   20.90
   4  -6  -9  211.08   50.89
   4  -6  -9  341.67   23.40
   4  -6  -9  292.97   78.79
   4  -6  -9  319.17   23.10
  -4   6   9  280.17   22.30
   3  -6  -9   32.60   11.60
   3  -6  -9   26.80    8.60
   3  -6  -9   33.60   25.10
   3  -6  -9   42.50   40.40
   3  -6  -9   36.30   12.20
  -3   6   9   19.90   10.70
  -3   6   9   11.10    8.90
   2  -6  -9   31.40    8.00
   2  -6  -9   50.09   31.10
   2  -6  -9   33.10   33.70
   2  -6  -9   31.90   11.80
   2  -6  -9   31.60   12.10
  -2   6   9   27.50   10.40
  -2   6   9   42.70   13.00
   1  -6  -9   79.19   42.70
   1  -6  -9   81.69   16.00
   1  -6  -9  109.69   18.50
   1  -6  -9  213.48   66.19
   1  -6  -9  117.69   32.70
  -1   6   9  100.19   17.90
  -1   6   9  109.99   15.90
   0  -6  -9   55.89   15.20
   0  -6  -9   58.69   36.10
   0  -6  -9   81.29   32.00
   0  -6  -9   59.99   59.69
   0  -6  -9   57.99   16.10
   0   6   9   49.10   14.50
   0   6   9   95.99   16.90
  -1  -6  -9  188.18   33.70
  -1  -6  -9  197.08   25.60
  -1  -6  -9  211.48   49.40
  -1  -6  -9  188.98   62.99
   1   6   9  209.88   25.60
   1   6   9  210.88   23.30
  -2  -6  -9   39.10   34.30
  -2  -6  -9   49.99   18.10
  -2  -6  -9   39.10   35.40
  -2  -6  -9   92.29   21.00
   2   6   9   69.99   17.20
   2   6   9   97.39   20.10
  -3  -6  -9   16.20   15.40
  -3  -6  -9    9.40   16.70
   3   6   9    1.60   10.90
   3   6   9   15.50   13.60
  -4  -6  -9   -7.50   14.60
  -4  -6  -9   34.60   19.90
   4   6   9  -13.30   11.20
   4   6   9   17.30   15.40
  -5  -6  -9  100.09   28.60
  -5  -6  -9   49.99   36.20
   5   6   9   39.00   18.00
   5   6   9   41.90   19.60
  10  -7  -9   -1.20   14.50
   9  -7  -9   85.59   24.70
   9  -7  -9  106.49   21.20
   9  -7  -9   99.89   23.40
   8  -7  -9  515.65   79.39
   8  -7  -9  426.76   34.20
   7  -7  -9  605.34   30.70
   7  -7  -9  630.64   34.20
   7  -7  -9  660.43   44.40
   7  -7  -9  606.44   34.80
   6  -7  -9  333.67   30.00
   6  -7  -9  282.27   35.20
   6  -7  -9  250.27   21.00
   6  -7  -9  281.27   23.40
   6  -7  -9  275.67   63.69
  -6   7   9  293.57   22.90
   5  -7  -9   -4.10   10.90
   5  -7  -9   -0.20   11.20
   5  -7  -9   16.20   25.00
   5  -7  -9   -4.10    8.40
   5  -7  -9    7.40    8.40
  -5   7   9   -1.70    7.10
   4  -7  -9  249.08   35.40
   4  -7  -9  265.47   24.70
   4  -7  -9  237.98   16.80
   4  -7  -9  156.38   47.10
   4  -7  -9  225.48   29.90
  -4   7   9  266.57   25.30
   3  -7  -9  441.96   27.10
   3  -7  -9  379.06   32.00
   3  -7  -9  499.35  104.69
   3  -7  -9  409.96   74.99
   3  -7  -9  397.16   39.20
  -3   7   9  397.96   26.60
  -3   7   9  387.46   28.20
   2  -7  -9  219.28   82.69
   2  -7  -9  415.36   31.90
   2  -7  -9  430.46   28.50
   2  -7  -9  308.77   78.39
  -2   7   9  391.26   29.40
   1  -7  -9   74.39   17.20
   1  -7  -9   28.60   12.60
   1  -7  -9   31.90   35.80
   1  -7  -9   37.10   14.10
   1  -7  -9   24.90   28.60
  -1   7   9   27.70   11.30
  -1   7   9   23.20   12.40
   0  -7  -9   11.70   30.60
   0  -7  -9    5.60   16.40
   0  -7  -9   31.70   14.40
   0   7   9   46.20   13.80
   0   7   9   11.20   11.70
  -1  -7  -9  275.47   57.19
  -1  -7  -9  230.38   28.10
  -1  -7  -9  255.97   30.20
   1   7   9  250.17   26.90
   1   7   9  271.87   30.00
  -2  -7  -9  297.87   34.40
  -2  -7  -9  344.17   36.00
  -2  -7  -9  202.78   53.59
   2   7   9  311.37   30.90
   2   7   9  322.27   33.80
  -3  -7  -9   64.69   22.40
  -3  -7  -9   77.69   21.30
   3   7   9   60.09   18.50
   3   7   9   78.89   21.60
  -4  -7  -9  -10.00   15.30
  -4  -7  -9    1.00   17.40
   4   7   9   11.50   14.30
   4   7   9   13.50   15.70
   9  -8  -9    4.70   12.10
   9  -8  -9   -2.90   13.80
   9  -8  -9    3.00   16.60
   8  -8  -9   33.10   19.10
   8  -8  -9   41.10   15.20
   8  -8  -9   23.20   14.80
   7  -8  -9   68.79   18.30
   7  -8  -9   63.99   17.00
   7  -8  -9   36.10   18.80
   6  -8  -9   62.59   16.30
   6  -8  -9   79.99   22.00
   6  -8  -9   74.29   14.40
  -6   8   9   78.89   16.50
   5  -8  -9   25.50   15.50
   5  -8  -9   18.00    8.00
   5  -8  -9   10.40    9.90
   5  -8  -9   11.70   11.70
  -5   8   9   -0.60    8.60
   4  -8  -9   36.00   16.60
   4  -8  -9   33.60   12.90
   4  -8  -9   74.99   40.50
   4  -8  -9   34.60   13.60
  -4   8   9   33.20   13.20
   3  -8  -9  415.56   29.90
   3  -8  -9  263.47   61.89
   3  -8  -9  342.87   26.50
  -3   8   9  347.77   26.30
  -3   8   9  429.16   30.40
   2  -8  -9  454.35   32.40
   2  -8  -9  392.36   29.50
   2  -8  -9  395.06   32.60
   2  -8  -9  277.07   63.59
  -2   8   9  423.16   28.60
  -2   8   9  416.96   30.80
   1  -8  -9  159.08   24.00
   1  -8  -9  173.68   23.60
  -1   8   9  182.28   22.90
  -1   8   9  155.98   22.40
   0  -8  -9   12.80   14.20
   0  -8  -9   16.50   14.40
   0   8   9    3.40   11.40
   0   8   9    2.00   10.20
  -1  -8  -9  111.69   22.60
  -1  -8  -9   63.69   20.00
   1   8   9   89.39   18.20
   1   8   9   91.29   23.40
  -2  -8  -9   86.29   23.10
  -2  -8  -9   76.99   22.40
   2   8   9   79.79   19.90
   2   8   9   87.19   20.60
  -3  -8  -9  160.18   29.40
  -3  -8  -9  119.99   27.40
   3   8   9  138.09   24.90
   3   8   9  108.89   23.70
   8  -9  -9   47.10   21.90
   8  -9  -9   36.30   16.50
   8  -9  -9   21.20   12.90
   7  -9  -9   26.70   20.00
   7  -9  -9   18.70   11.00
   7  -9  -9   23.00   13.50
  -7   9   9   37.50   14.70
   6  -9  -9   18.90    8.50
   6  -9  -9   35.70   18.40
   6  -9  -9   20.60   14.50
  -6   9   9   23.90   12.70
   5  -9  -9   87.69   22.60
  -5   9   9   79.49   16.90
   4  -9  -9   63.59   18.20
   4  -9  -9   55.39   20.10
  -4   9   9   51.99   15.30
   3  -9  -9    4.50   12.60
   3  -9  -9   18.80   15.40
  -3   9   9    7.80   10.30
  -3   9   9   10.70   11.80
   2  -9  -9   32.40   15.00
   2  -9  -9   28.10   15.80
   2  -9  -9   15.30   15.00
  -2   9   9   52.09   15.90
  -2   9   9   18.10   14.00
   1  -9  -9    1.40   13.30
   1  -9  -9    0.00   12.80
  -1   9   9   12.70   12.20
  -1   9   9    4.10   11.90
   0  -9  -9   -8.50   12.50
   0  -9  -9    8.00   15.20
   0   9   9    5.70   13.20
   0   9   9   19.40   13.30
  -1  -9  -9  -10.10   13.80
  -1  -9  -9   -3.10   15.60
   1   9   9   -5.50   11.30
   1   9   9    9.90   14.10
  -2  -9  -9   14.00   18.00
  -2  -9  -9   38.00   20.80
   2   9   9    6.30   21.00
   2   9   9   22.90   16.60
   7 -10  -9   38.30   26.30
   7 -10  -9   25.20   17.70
  -7  10   9   25.10   13.50
   6 -10  -9  276.97   38.60
   6 -10  -9  326.87   34.00
  -6  10   9  279.97   30.50
   5 -10  -9  316.97   32.80
   5 -10  -9  304.87   40.30
  -5  10   9  267.47   29.40
   4 -10  -9   21.10   18.30
   4 -10  -9   34.70   16.30
  -4  10   9   31.50   14.30
   3 -10  -9   14.20   14.00
   3 -10  -9   -7.00   13.60
  -3  10   9   13.80   12.00
  -3  10   9   -0.30   10.40
   2 -10  -9  119.49   23.00
  -2  10   9  104.19   20.60
  -2  10   9  116.39   21.70
   1 -10  -9  149.99   25.70
  -1  10   9  127.79   22.20
  -1  10   9  171.18   25.20
   0 -10  -9  112.89   23.90
   0  10   9   74.29   19.20
   0  10   9  131.79   23.50
   3  10 -10   -1.20   13.90
   3  10 -10    2.50   17.30
  -3 -10  10    5.30   18.50
  -3 -10  10    6.10   18.90
   2  10 -10   60.39   21.90
   2  10 -10   44.30   17.30
  -2 -10  10   73.99   23.60
  -2 -10  10   55.89   23.00
   1  10 -10   33.20   18.50
   1  10 -10   54.59   19.10
  -1 -10  10   83.89   24.40
  -1 -10  10   69.39   23.60
   0  10 -10  102.99   24.40
   0  10 -10  174.98   26.50
   0 -10  10  129.19   28.00
   0 -10  10  119.79   25.90
  -1  10 -10  110.79   22.70
  -1  10 -10   63.89   22.20
   1 -10  10   49.90   21.20
   1 -10  10  102.79   25.50
  -2  10 -10   48.60   18.60
  -2  10 -10   32.60   18.60
   2 -10  10   26.30   20.10
   2 -10  10   52.89   14.40
   2 -10  10   72.29   24.30
   5   9 -10   42.70   18.30
   5   9 -10   40.50   21.00
  -5  -9  10   33.10   21.90
   4   9 -10    0.80   15.50
   4   9 -10    2.10   13.40
  -4  -9  10   12.50   18.10
  -4  -9  10   27.30   33.30
   3   9 -10   60.49   21.30
   3   9 -10   31.70   15.30
  -3  -9  10   32.30   19.00
   2   9 -10   13.60   13.40
   2   9 -10    5.30   17.80
  -2  -9  10   17.90   16.70
   1   9 -10   47.60   18.70
   1   9 -10    3.40   13.30
  -1  -9  10   21.50   17.70
  -1  -9  10    0.10   21.80
   0   9 -10  -12.90   10.60
   0   9 -10   11.10   14.80
   0  -9  10   10.10   15.70
   0  -9  10    3.60   15.80
   0  -9  10    2.10    9.00
  -1   9 -10   -7.40   14.30
  -1   9 -10   22.10   13.70
   1  -9  10   -4.70   13.90
   1  -9  10    1.70   14.10
   1  -9  10    7.90   15.00
  -2   9 -10    2.60   12.20
  -2   9 -10    6.80   15.80
   2  -9  10   18.80   13.10
   2  -9  10   -3.60   15.30
   2  -9  10   18.00   17.40
  -3   9 -10   18.60   13.90
  -3   9 -10    9.30   17.20
   3  -9  10    9.00   17.70
   3  -9  10   -2.50   12.80
   3  -9  10   11.80   16.30
  -4   9 -10    4.80   14.30
  -4   9 -10   -7.00   15.00
   4  -9  10   -1.40   16.70
   4  -9  10   17.30   26.20
   4  -9  10  -11.60   13.50
   6   8 -10    6.90   14.50
   6   8 -10  -11.50   14.50
  -6  -8  10  -13.90   16.50
   5   8 -10   39.80   17.40
   5   8 -10   36.60   16.90
  -5  -8  10   52.19   21.60
   4   8 -10  164.48   30.00
   4   8 -10  187.48   27.50
  -4  -8  10  141.79   26.40
  -4  -8  10  142.99   26.00
   3   8 -10  308.77   33.20
   3   8 -10  209.28   26.00
  -3  -8  10  239.28   30.60
  -3  -8  10  211.88   58.69
  -3  -8  10  225.88   31.00
   2   8 -10  107.39   21.30
   2   8 -10  146.39   22.40
  -2  -8  10  102.39   23.20
  -2  -8  10   77.59   20.00
  -2  -8  10  121.09   14.10
  -2  -8  10   82.09   35.80
   1   8 -10   52.29   17.90
   1   8 -10   27.70   13.00
  -1  -8  10   17.10   25.80
  -1  -8  10   40.40   17.60
  -1  -8  10   -1.90   13.10
  -1  -8  10   15.30   10.00
   0   8 -10   96.39   21.10
   0   8 -10  115.29   20.00
   0  -8  10   97.69   21.70
   0  -8  10  126.59   23.70
   0  -8  10   70.79   14.10
  -1   8 -10  150.78   23.90
  -1   8 -10  136.69   20.40
   1  -8  10  144.19   26.00
   1  -8  10  138.89   19.20
   1  -8  10  145.99   24.90
  -2   8 -10   60.79   19.80
  -2   8 -10   36.00   16.50
   2  -8  10   35.90   18.80
   2  -8  10   21.40   21.30
   2  -8  10   43.60   14.70
  -3   8 -10    2.00   10.40
  -3   8 -10   -1.30   13.80
   3  -8  10   -5.30   14.70
   3  -8  10   -3.70   12.90
   3  -8  10   -3.60   14.90
  -4   8 -10    2.20   16.30
   4  -8  10   -9.20   15.10
   4  -8  10  -16.40   13.90
   4  -8  10    5.60   14.80
  -5   8 -10   90.29   23.80
   5  -8  10   69.19   24.10
   5  -8  10   50.79   23.70
   7   7 -10  136.89   25.60
   7   7 -10  171.38   28.00
   7   7 -10  153.98   25.40
  -7  -7  10  149.99   28.50
   6   7 -10  123.79   36.80
  -6  -7  10   85.09   23.00
   5   7 -10    7.00   11.10
   5   7 -10    5.00   14.80
  -5  -7  10   -2.20   13.50
  -5  -7  10    6.50   16.20
   4   7 -10  151.78   22.60
   4   7 -10  160.78   24.20
  -4  -7  10  200.08   29.00
  -4  -7  10  167.18   15.30
  -4  -7  10  139.59   46.50
  -4  -7  10  173.68   25.80
   3   7 -10  352.46   27.80
   3   7 -10  442.76   53.39
  -3  -7  10  423.76   33.60
  -3  -7  10  376.66   36.90
   2   7 -10  607.64   33.70
   2   7 -10  602.84   35.40
  -2  -7  10  687.23   40.10
  -2  -7  10  669.23   28.80
  -2  -7  10  630.34   39.90
  -2  -7  10  534.15   75.79
   1   7 -10    4.20   12.10
   1   7 -10   17.80   10.70
  -1  -7  10   14.80   12.80
  -1  -7  10   -0.30   11.80
  -1  -7  10    8.10    8.90
  -1  -7  10   19.40   24.40
  -1  -7  10   17.70   23.30
   0   7 -10   25.20   11.60
   0   7 -10   35.00   14.90
   0   7 -10   42.60   24.20
   0  -7  10    7.90   22.50
   0  -7  10   11.70   10.50
   0  -7  10  -11.90   11.10
   0  -7  10   39.80   15.00
  -1   7 -10  331.17   28.10
  -1   7 -10  342.27   26.20
  -1   7 -10  350.56   55.29
   1  -7  10  331.57   25.60
   1  -7  10  302.77   31.80
   1  -7  10  369.06   35.20
  -2   7 -10  754.82   52.29
  -2   7 -10  700.83   35.40
   2  -7  10  716.33   43.00
   2  -7  10  726.73   37.40
   2  -7  10  747.73   44.30
  -3   7 -10  243.98   28.80
   3  -7  10  215.68   25.30
   3  -7  10  205.28   28.70
   3  -7  10  157.98   25.40
  -4   7 -10  -13.90   12.90
   4  -7  10   -0.70   14.40
   4  -7  10   18.80   16.10
  -5   7 -10   63.89   21.30
   5  -7  10   21.90   19.10
   5  -7  10   17.80   17.40
   8   6 -10   19.50   16.00
   8   6 -10    5.50   15.90
   8   6 -10   10.10   16.60
  -8  -6  10   22.00   19.20
  -8  -6  10    2.80   17.30
   7   6 -10   -4.90   11.30
   7   6 -10   14.40   15.80
   7   6 -10   10.70   13.90
  -7  -6  10    0.80    9.00
  -7  -6  10   -4.20   14.30
   6   6 -10   43.30   16.70
   6   6 -10   34.20   14.60
   6   6 -10   31.80   14.50
  -6  -6  10   24.00    9.90
  -6  -6  10   57.69   19.50
   5   6 -10   45.60   14.10
   5   6 -10   28.70   12.70
   5   6 -10   26.80   19.10
  -5  -6  10   35.40   11.00
  -5  -6  10   26.70   15.70
  -5  -6  10   45.80   16.70
  -5  -6  10    1.10   21.80
   4   6 -10   -1.20   10.60
   4   6 -10    5.50   10.30
  -4  -6  10   14.30   13.70
  -4  -6  10    0.00   12.60
   3   6 -10  334.27   26.70
   3   6 -10  294.27   27.00
  -3  -6  10  392.36   31.20
  -3  -6  10  275.17   54.99
  -3  -6  10  341.17   21.90
   2   6 -10  402.96   26.30
   2   6 -10  441.76   28.60
  -2  -6  10  298.07   60.49
  -2  -6  10  408.06   30.20
  -2  -6  10  239.78   50.39
  -2  -6  10  376.06   29.90
  -2  -6  10  390.16   24.30
   1   6 -10  140.99   18.80
   1   6 -10  179.88   39.40
   1   6 -10  162.08   21.40
  -1  -6  10  150.48   21.80
  -1  -6  10  160.28   23.10
  -1  -6  10  167.38   18.90
  -1  -6  10  116.99   42.30
   0   6 -10   15.20   11.30
   0   6 -10   11.40   16.50
   0   6 -10   17.50    9.90
   0  -6  10   11.80   11.50
   0  -6  10   13.10   12.50
   0  -6  10   21.40   10.30
   0  -6  10   29.60   26.60
  -1   6 -10  156.68   20.30
  -1   6 -10  169.78   22.00
  -1   6 -10  167.38   40.50
   1  -6  10  238.18   39.20
   1  -6  10  164.28   51.59
  -2   6 -10  590.14   33.30
  -2   6 -10  636.54   71.69
   2  -6  10  575.14   37.10
   2  -6  10  593.04   34.80
   2  -6  10  608.34   38.50
  -3   6 -10  610.74   34.70
  -3   6 -10  572.04   69.59
   3  -6  10  472.55   33.70
   3  -6  10  582.44   37.90
  -4   6 -10   93.59   20.00
   4  -6  10  108.29   22.70
   4  -6  10   76.39   19.90
  -5   6 -10    5.30   14.80
   5  -6  10   -3.60   15.50
   5  -6  10  -19.70   14.50
  -6   6 -10  136.09   25.70
   6  -6  10  125.19   28.20
   8   5 -10   67.79   20.60
   8   5 -10   47.60   18.10
   8   5 -10   30.20   22.80
  -8  -5  10   36.70   20.60
  -8  -5  10   36.20   13.40
   7   5 -10   34.60   15.80
   7   5 -10    4.60   11.70
   7   5 -10   35.40   15.20
  -7  -5  10   35.40   17.40
  -7  -5  10   20.50   11.00
   6   5 -10   35.90   13.70
   6   5 -10   -3.00   13.00
   6   5 -10   36.40   14.80
  -6  -5  10   33.50   14.60
  -6  -5  10   27.30   40.30
  -6  -5  10   14.10   10.70
  -6  -5  10   23.30   14.80
   5   5 -10   33.20   14.30
   5   5 -10   31.20   12.60
   5   5 -10   37.50   10.90
   5   5 -10   22.40   10.90
  -5  -5  10   19.10   10.20
  -5  -5  10   82.99   52.39
  -5  -5  10   34.90   14.70
  -5  -5  10   58.09   16.70
  -5  -5  10   34.00   30.70
   4   5 -10   42.10   11.20
   4   5 -10   30.20   10.50
   4   5 -10   63.69   29.80
   4   5 -10   27.90   10.70
   4   5 -10   72.59   15.70
  -4  -5  10   28.10   11.00
  -4  -5  10   70.29   16.70
  -4  -5  10   27.00   24.00
  -4  -5  10   61.19   15.90
   3   5 -10   -0.90    9.00
   3   5 -10    2.80    7.80
   3   5 -10   30.40   19.10
   3   5 -10    3.50    7.00
  -3  -5  10   -3.70    7.50
  -3  -5  10   27.60   20.70
  -3  -5  10    4.20   11.70
  -3  -5  10    6.40   11.20
   2   5 -10   26.80   10.10
   2   5 -10   20.90   10.50
   2   5 -10   18.20   15.80
  -2  -5  10   35.50   23.30
  -2  -5  10   32.00   10.40
  -2  -5  10    2.10   10.30
  -2  -5  10   27.10   12.40
   1   5 -10    2.10    9.00
   1   5 -10   14.10    8.20
   1   5 -10    4.20   14.10
  -1  -5  10    2.30    9.80
  -1  -5  10   10.90   11.10
  -1  -5  10   -5.90    7.70
  -1  -5  10   45.70   31.00
   0   5 -10    5.20    7.60
   0   5 -10   32.00   21.50
   0   5 -10    0.90    8.60
   0  -5  10   -2.40    8.30
   0  -5  10   -9.40    9.60
   0  -5  10    3.80   19.70
   0  -5  10    6.00   10.50
  -1   5 -10   -3.90    9.30
  -1   5 -10   10.30   15.80
   1  -5  10   18.10   12.00
   1  -5  10   11.80   10.60
   1  -5  10   -1.40   10.80
  -2   5 -10   91.39   16.50
  -2   5 -10  100.49   32.40
   2  -5  10   48.80   14.80
   2  -5  10   99.39   41.10
   2  -5  10   86.79   18.30
  -3   5 -10    2.10   11.40
  -3   5 -10   51.69   28.50
   3  -5  10    6.10   12.30
   3  -5  10   -6.80   11.30
  -4   5 -10   25.10   14.10
  -4   5 -10    6.00   20.20
   4  -5  10   19.30   15.90
   4  -5  10    9.20   14.20
  -5   5 -10    7.30   29.80
  -5   5 -10   13.20   14.70
  -5   5 -10   -6.80   18.00
   5  -5  10   15.70   16.50
   5  -5  10   15.70   17.00
  -6   5 -10  -12.20   28.90
   6  -5  10  -12.20   18.10
   9   4 -10   90.89   22.20
   9   4 -10  111.19   22.50
  -9  -4  10   83.59   24.50
  -9  -4  10   64.39   17.90
   8   4 -10   54.09   17.20
   8   4 -10   49.99   17.30
  -8  -4  10   86.19   20.60
  -8  -4  10   50.99   26.90
   7   4 -10   56.29   15.70
   7   4 -10   72.39   15.50
  -7  -4  10   84.49   20.60
  -7  -4  10   52.99   13.70
  -7  -4  10   68.39   20.10
   6   4 -10  534.45   31.50
   6   4 -10  453.15   27.80
   6   4 -10  514.85   27.70
  -6  -4  10  532.25   83.69
  -6  -4  10  494.15   31.30
  -6  -4  10  468.55   34.00
  -6  -4  10  490.45   92.69
  -6  -4  10  542.35   30.30
   5   4 -10  584.84   82.19
   5   4 -10  607.74   27.30
   5   4 -10  530.55   28.80
  -5  -4  10  514.55   77.29
  -5  -4  10  567.04   34.90
  -5  -4  10  604.84   33.90
   4   4 -10  136.59   17.70
   4   4 -10  146.39   15.60
   4   4 -10  147.99   42.50
   4   4 -10  147.49   17.30
  -4  -4  10  110.19   19.00
  -4  -4  10  108.29   35.60
  -4  -4  10  122.59   16.80
  -4  -4  10  104.39   18.40
   3   4 -10   12.80    8.40
   3   4 -10   12.50    7.20
   3   4 -10    4.80    8.30
   3   4 -10   27.20   20.60
  -3  -4  10    2.00   10.00
  -3  -4  10    4.90   10.30
  -3  -4  10   16.80    9.00
  -3  -4  10    7.50   17.00
   2   4 -10  637.94   72.89
   2   4 -10  535.25   25.50
   2   4 -10  451.35   68.89
   2   4 -10  559.64   26.70
   2   4 -10  555.54   22.80
  -2  -4  10  541.45   28.20
  -2  -4  10  546.35   32.40
  -2  -4  10  421.96   67.99
  -2  -4  10  518.35   41.10
   1   4 -10  814.22   30.50
   1   4 -10  838.92   32.90
   1   4 -10  906.91   66.59
   1   4 -10  941.91   68.69
  -1  -4  10  776.22   34.40
  -1  -4  10  656.13   86.39
  -1  -4  10  792.72   37.40
   0   4 -10  513.25   25.60
   0   4 -10  529.35   62.49
   0   4 -10  593.44   68.49
   0  -4  10  532.55   30.40
   0  -4  10  532.65   80.49
   0  -4  10  551.84   30.00
   0  -4  10  552.44   31.90
  -1   4 -10    8.50   27.70
  -1   4 -10    5.20   12.00
   1  -4  10   -2.30   16.50
   1  -4  10   18.60   11.50
   1  -4  10   10.30   10.70
   1  -4  10   -7.50    9.00
  -2   4 -10   15.80   10.80
  -2   4 -10   34.80   16.70
  -2   4 -10   18.90   12.80
  -2   4 -10   18.50   20.40
   2  -4  10   15.10   12.60
   2  -4  10   30.20   27.90
   2  -4  10   19.50   12.80
  -3   4 -10  121.39   23.00
  -3   4 -10  165.88   24.00
  -3   4 -10  146.79   41.40
   3  -4  10  172.48   23.90
   3  -4  10  176.58   23.80
  -4   4 -10  131.99   42.00
  -4   4 -10  153.48   27.40
  -4   4 -10  236.08   25.10
   4  -4  10  164.58   33.60
   4  -4  10  170.38   23.80
  -5   4 -10   40.20   39.00
  -5   4 -10   14.20   18.00
   5  -4  10   14.30   17.60
  -6   4 -10    3.10   19.30
  -6   4 -10   11.10   14.90
   6  -4  10   -3.40   17.30
   9   3 -10  497.35   36.80
  -9  -3  10  480.85   34.00
  -9  -3  10  502.85   41.60
   8   3 -10   63.69   17.10
  -8  -3  10   71.69   16.90
  -8  -3  10   95.49   21.60
   7   3 -10    1.60    9.20
   7   3 -10   -1.60    9.90
  -7  -3  10    5.40   11.40
  -7  -3  10    3.40   12.70
  -7  -3  10    3.70    9.00
  -7  -3  10   58.09   38.80
   6   3 -10  247.38   19.70
   6   3 -10  176.28   51.19
   6   3 -10  190.28   20.10
  -6  -3  10  140.59   43.00
  -6  -3  10  188.58   22.10
  -6  -3  10  202.38   23.50
  -6  -3  10  220.18   26.80
   5   3 -10  538.55   26.40
   5   3 -10  465.65   70.69
   5   3 -10  492.65   24.70
   5   3 -10  519.25   26.10
  -5  -3  10  527.45   29.70
  -5  -3  10  511.95   31.80
  -5  -3  10  499.55   73.49
  -5  -3  10  508.25   30.70
   4   3 -10  638.24   78.49
   4   3 -10  578.04   25.90
   4   3 -10  538.85   30.80
   4   3 -10  565.64   25.00
  -4  -3  10  647.04   52.59
  -4  -3  10  567.84   31.70
  -4  -3  10  645.14   79.09
  -4  -3  10  508.65   28.00
   3   3 -10   26.90   19.40
   3   3 -10   13.80    7.40
   3   3 -10   25.00    8.40
   3   3 -10   25.60    9.40
   3   3 -10   21.20   16.70
  -3  -3  10   28.30   15.50
  -3  -3  10   27.80   21.70
  -3  -3  10    5.50   11.90
  -3  -3  10    7.30    9.30
   2   3 -10   70.09   16.40
   2   3 -10   86.09   12.10
   2   3 -10   96.29   13.70
   2   3 -10   93.89   29.40
   2   3 -10   76.49   26.70
   2   3 -10   76.59   11.30
  -2  -3  10   81.69   14.50
  -2  -3  10   61.09   13.40
  -2  -3  10   75.89   32.60
  -2  -3  10   74.99   20.20
   1   3 -10  874.91   64.19
   1   3 -10  726.23   27.10
   1   3 -10  698.93   37.30
   1   3 -10  739.93   65.49
   1   3 -10  738.33   26.50
  -1  -3  10  792.02   34.10
  -1  -3  10  764.72   33.60
  -1  -3  10  708.33   37.20
  -1  -3  10  713.83  107.49
   0   3 -10 1264.17   77.39
   0   3 -10  977.50   75.69
   0   3 -10 1180.28   76.29
   0   3 -10 1278.07   36.10
   0  -3  10 1365.26  104.99
   0  -3  10 1318.37   45.10
   0  -3  10 1257.77   65.59
   0  -3  10 1286.67   43.30
  -1   3 -10  976.10   32.90
  -1   3 -10 1000.50   37.90
  -1   3 -10 1006.30   78.59
  -1   3 -10 1026.00   46.50
  -1   3 -10 1145.09   84.19
   1  -3  10  993.20   38.60
   1  -3  10 1063.79   41.90
   1  -3  10 1033.30   53.89
   1  -3  10  896.31  108.39
  -2   3 -10   -2.30   11.90
  -2   3 -10   21.60   21.20
  -2   3 -10    1.30   11.20
  -2   3 -10    5.80    8.70
  -2   3 -10   10.70   16.50
   2  -3  10    8.70   11.20
   2  -3  10   15.40   25.90
   2  -3  10   22.80   11.90
  -3   3 -10  110.69   33.70
  -3   3 -10  142.69   24.30
  -3   3 -10  161.18   22.40
   3  -3  10  168.38   21.90
   3  -3  10  138.39   22.50
   3  -3  10  131.19   46.00
  -4   3 -10  403.06   66.89
  -4   3 -10  507.55   39.40
   4  -3  10  423.46   29.70
   4  -3  10  416.56   34.40
  -5   3 -10  203.68   26.50
  -5   3 -10  137.19   26.70
   5  -3  10  196.08   30.40
  -6   3 -10   89.89   22.50
  -6   3 -10   70.29   24.10
  -7   3 -10    5.90   17.60
  -7   3 -10   12.40   19.60
  10   2 -10   34.10   16.10
 -10  -2  10   35.00   16.80
 -10  -2  10   11.30   16.30
  -9  -2  10   42.10   23.50
  -9  -2  10   29.70   14.90
  -8  -2  10   15.20   13.00
  -8  -2  10    9.60   11.20
  -8  -2  10   33.30   15.60
   7   2 -10  245.78   28.70
   7   2 -10  152.98   19.20
  -7  -2  10  180.78   23.50
  -7  -2  10  203.08   23.20
  -7  -2  10  190.88   24.80
   6   2 -10    4.80    7.20
   6   2 -10   11.60    8.50
   6   2 -10   -6.30   14.60
  -6  -2  10    7.00    9.20
  -6  -2  10   -5.40    9.10
  -6  -2  10   17.40   20.60
   5   2 -10  199.08   19.60
   5   2 -10  183.68   44.30
  -5  -2  10  219.48   24.40
  -5  -2  10  238.78   23.70
  -5  -2  10  249.58   51.79
  -5  -2  10  200.88   21.90
   4   2 -10  552.84   33.30
   4   2 -10  517.85   22.90
   4   2 -10  571.14   25.30
   4   2 -10  660.53   82.49
   4   2 -10  561.24   84.39
  -4  -2  10  551.14   39.00
  -4  -2  10  524.15   28.10
  -4  -2  10  632.64   32.80
   3   2 -10 1014.60   43.10
   3   2 -10 1018.50   79.59
   3   2 -10 1017.10   30.30
   3   2 -10  963.50   66.09
   3   2 -10 1063.79   33.20
  -3  -2  10  984.30   36.50
  -3  -2  10  999.00   37.60
  -3  -2  10 1018.80   39.70
  -3  -2  10 1022.20   80.69
   2   2 -10  352.56   17.80
   2   2 -10  378.66   27.80
   2   2 -10  327.67   54.29
   2   2 -10  385.96   20.20
   2   2 -10  433.96   54.79
  -2  -2  10  442.36   64.59
  -2  -2  10  387.06   23.20
  -2  -2  10  432.86   25.30
  -2  -2  10  401.66   25.50
   1   2 -10   -4.80    9.90
   1   2 -10   -0.80   10.60
   1   2 -10    4.70    8.00
   1   2 -10    2.00    9.10
   1   2 -10    0.40    6.80
  -1  -2  10    8.80   17.70
  -1  -2  10   11.30    9.30
  -1  -2  10    3.00    7.70
  -1  -2  10   -4.70    6.90
   0   2 -10  512.25   71.69
   0   2 -10  465.45   31.40
   0   2 -10  405.46   23.70
   0   2 -10  545.65   63.39
   0   2 -10  487.75   23.00
   0  -2  10  466.95   25.20
   0  -2  10  424.76   71.89
   0  -2  10  411.46   26.40
   0  -2  10  403.56   25.70
  -1   2 -10  210.98   49.80
  -1   2 -10  187.38   18.40
  -1   2 -10   95.09   30.40
  -1   2 -10  180.38   24.10
  -1   2 -10  156.38   19.00
   1  -2  10  195.18   22.80
   1  -2  10  228.68   23.80
   1  -2  10  142.59   41.50
  -2   2 -10  531.15   70.59
  -2   2 -10  504.75   26.50
  -2   2 -10  519.15   31.70
  -2   2 -10  676.43  119.49
   2  -2  10  547.95   30.40
   2  -2  10  475.15   80.59
   2  -2  10  577.24   33.70
  -3   2 -10   28.60   22.60
  -3   2 -10    5.00   20.00
  -3   2 -10    3.60   12.40
  -3   2 -10   -8.00   12.30
   3  -2  10   12.10   11.80
   3  -2  10    4.00   21.20
   3  -2  10   18.50   14.80
  -4   2 -10  159.68   30.30
  -4   2 -10  203.38   23.70
  -4   2 -10  221.48   63.29
  -4   2 -10  241.88   25.80
   4  -2  10  224.98   29.40
  -5   2 -10  286.97   34.40
  -5   2 -10  273.97   32.10
  -5   2 -10  249.38   27.00
  -6   2 -10  294.97   32.90
  -6   2 -10  211.08   31.20
  -7   2 -10   67.99   22.20
  -7   2 -10   33.00   21.40
 -10  -1  10   -2.20   15.00
 -10  -1  10   13.00   14.00
  -9  -1  10   56.39   22.30
  -9  -1  10   38.40   18.00
   8   1 -10  122.19   19.70
  -8  -1  10  107.99   21.20
  -8  -1  10  101.99   19.80
  -8  -1  10   97.39   18.60
  -8  -1  10  103.99   40.40
   7   1 -10    6.40   19.90
   7   1 -10    0.90    8.40
  -7  -1  10    2.30    8.90
  -7  -1  10   17.90   11.90
  -7  -1  10   42.40   30.20
  -7  -1  10    7.30    9.30
   6   1 -10    5.40   16.70
   6   1 -10   -3.00    7.10
  -6  -1  10    7.60    9.10
  -6  -1  10    3.20    8.90
  -6  -1  10    1.00   17.00
   5   1 -10    2.20   11.40
   5   1 -10   27.50   24.70
   5   1 -10    3.20   14.80
   5   1 -10   13.90    7.50
  -5  -1  10    8.30    8.60
  -5  -1  10   -1.30    8.20
  -5  -1  10   -1.20   12.80
  -5  -1  10   -4.00   13.30
   4   1 -10   16.00    7.50
   4   1 -10   16.00   14.90
   4   1 -10   16.30   10.60
   4   1 -10   -7.70   14.00
   4   1 -10   23.60   21.80
  -4  -1  10   18.40    9.90
  -4  -1  10   12.30    9.10
  -4  -1  10    1.10    7.70
   3   1 -10    3.90    6.20
   3   1 -10   -8.00   14.30
   3   1 -10    2.90    5.30
   3   1 -10   15.90   14.00
   3   1 -10   11.60    9.90
   3   1 -10   -0.50    5.40
   3   1 -10   -7.30    9.90
  -3  -1  10    8.90    8.00
  -3  -1  10   -5.30    7.10
  -3  -1  10    2.70    7.00
   2   1 -10  291.87   43.10
   2   1 -10  344.17   19.00
   2   1 -10  335.87   58.59
   2   1 -10  302.77   15.40
   2   1 -10  327.37   19.70
   2   1 -10  363.26   48.00
  -2  -1  10  340.97   59.99
  -2  -1  10  340.47   23.00
  -2  -1  10  340.97   20.50
  -2  -1  10  350.06   23.60
   1   1 -10  358.76   20.80
   1   1 -10  541.35   62.19
   1   1 -10  328.77   20.70
   1   1 -10  451.75   68.29
   1   1 -10  811.12  575.44
   1   1 -10  345.87   26.60
  -1  -1  10  406.96   69.49
  -1  -1  10  362.56   21.00
  -1  -1  10  350.26   23.30
  -1  -1  10  334.97   24.00
  -1  -1  10   60.89  484.75
   0   1 -10   76.29   14.60
   0   1 -10   66.09   26.60
   0   1 -10   71.29   12.50
   0   1 -10   69.69   15.50
   0   1 -10   80.99   27.80
   0  -1  10  102.99   37.80
   0  -1  10   71.29   16.00
   0  -1  10   61.29   13.50
   0  -1  10   54.99   11.80
  -1   1 -10  197.08   50.59
  -1   1 -10  246.68   19.40
  -1   1 -10  205.38   22.10
  -1   1 -10  251.97   45.80
  -1   1 -10  235.88   25.50
   1  -1  10  238.58   23.30
   1  -1  10  229.08   20.00
   1  -1  10  119.19   36.90
  -2   1 -10   78.39   14.60
  -2   1 -10   80.29   36.20
  -2   1 -10   74.89   17.80
  -2   1 -10  111.69   33.10
   2  -1  10   68.29   30.60
   2  -1  10  104.69   16.30
   2  -1  10   88.79   17.20
  -3   1 -10  244.68   24.70
  -3   1 -10  294.97   56.49
  -3   1 -10  296.67   31.00
  -3   1 -10  245.48   28.30
  -3   1 -10  319.57   37.00
  -3   1 -10   97.29   40.10
   3  -1  10  212.98   50.69
   3  -1  10  286.17   38.80
  -4   1 -10    9.10   11.80
  -4   1 -10   21.70   23.20
  -4   1 -10    2.90   11.30
  -4   1 -10    1.10   13.30
  -4   1 -10   -2.50   12.20
  -4   1 -10   85.39   45.40
  -5   1 -10  103.89   21.10
  -5   1 -10   51.89   18.80
  -5   1 -10   92.89   19.90
  -5   1 -10   44.80   18.30
  -6   1 -10  148.49   27.80
  -6   1 -10  154.98   27.10
  -6   1 -10  233.08   28.60
  -6   1 -10  187.58   27.40
  -7   1 -10   66.19   21.10
  -7   1 -10    4.00   26.70
  -7   1 -10   65.09   22.10
  -7   1 -10   72.19   32.40
 -10   0  10   12.70   15.50
 -10   0  10   26.60   17.00
   9   0 -10   79.59   17.00
  -9   0  10   83.39   19.40
  -9   0  10   85.99   20.40
   8   0 -10  715.13   33.90
  -8   0  10  771.62   41.70
  -8   0  10  659.03   35.40
  -8   0  10  701.23   38.20
  -8   0  10  674.63   93.19
   7   0 -10  586.04   29.10
   7   0 -10  482.25   79.99
   7   0 -10  550.84   37.00
  -7   0  10  595.24   32.50
  -7   0  10  560.74   34.70
  -7   0  10  627.14   82.09
  -7   0  10  600.84   32.50
   6   0 -10   84.09   14.40
   6   0 -10   79.49   35.80
   6   0 -10   42.70   15.30
   6   0 -10   85.19   34.40
  -6   0  10   76.99   14.40
  -6   0  10   51.69   30.00
  -6   0  10   58.99   14.00
  -6   0  10   56.99   15.20
   5   0 -10   19.70    8.20
   5   0 -10   37.20   27.00
   5   0 -10   28.40    8.00
   5   0 -10   12.10    9.60
   5   0 -10    6.70   14.70
  -5   0  10    5.00   11.30
  -5   0  10   20.10    9.50
  -5   0  10   -5.30   11.40
  -5   0  10   13.40    9.50
   4   0 -10 1226.98   32.50
   4   0 -10 1355.56   95.09
   4   0 -10 1306.87   74.89
   4   0 -10 1332.37  108.59
   4   0 -10 1183.08   37.90
   4   0 -10 1226.78   46.80
  -4   0  10 1191.18   36.60
  -4   0  10 1196.68   41.90
  -4   0  10 1219.58   43.60
   3   0 -10  631.14   52.69
   3   0 -10  659.53   82.19
   3   0 -10  654.33   27.10
   3   0 -10  643.14  503.15
   3   0 -10  661.53   25.00
   3   0 -10  695.33   95.99
   3   0 -10  675.33   34.50
  -3   0  10  639.84   25.90
  -3   0  10  327.37  432.46
  -3   0  10  701.43   46.10
  -3   0  10  679.43   30.90
  -3   0  10  670.33   26.20
   2   0 -10  308.47   57.79
   2   0 -10  242.88   24.60
   2   0 -10  283.57   18.60
   2   0 -10  199.88   37.20
   2   0 -10  268.67   18.60
  -2   0  10  296.87   22.10
  -2   0  10  287.27   17.80
  -2   0  10  268.77   20.20
   1   0 -10   14.90    8.50
   1   0 -10   23.50   15.40
   1   0 -10   17.70   10.70
   1   0 -10   12.00   14.10
   1   0 -10    0.80   14.50
  -1   0  10   21.20    9.60
  -1   0  10    7.10    7.20
  -1   0  10   21.80    9.20
   0   0 -10    0.10    7.10
   0   0 -10   11.80   21.00
   0   0 -10   -6.80    8.40
   0   0 -10   13.60    9.50
   0   0 -10   -3.20   11.80
   0   0  10    0.80    8.30
   0   0  10    6.20    8.30
   0   0  10    3.70    7.30
   0   0  10   11.10   18.00
  -1   0 -10   60.79   26.10
  -1   0 -10   44.10   14.70
  -1   0 -10   52.39   12.20
  -1   0 -10   57.19   14.90
  -1   0 -10   80.59   35.00
   1   0  10   46.80   13.50
   1   0  10   42.10    8.20
   1   0  10   71.99   13.60
   1   0  10   47.20   28.80
  -2   0 -10   40.00   14.40
  -2   0 -10   55.39   32.40
  -2   0 -10   30.00   12.00
  -2   0 -10   53.39   27.90
  -2   0 -10   51.19   15.80
   2   0  10   47.20   30.70
   2   0  10   40.70   11.50
  -3   0 -10   -1.20    8.80
  -3   0 -10  -12.00   14.60
  -3   0 -10    7.10   10.60
  -3   0 -10   14.60   28.00
  -3   0 -10  -12.30   11.50
  -3   0 -10    5.60   11.30
   3   0  10    6.30   22.10
  -4   0 -10   -7.70   11.50
  -4   0 -10   27.40   28.00
  -4   0 -10   13.00   13.40
  -4   0 -10   -0.10   13.20
  -4   0 -10  -11.70   26.40
  -4   0 -10   -5.30   10.50
  -5   0 -10    8.10   14.90
  -5   0 -10    6.30   14.60
  -5   0 -10   -9.70   11.90
  -6   0 -10   20.90   21.40
  -6   0 -10    6.20   18.00
  -6   0 -10    8.10   16.90
  -6   0 -10    0.90   19.70
 -10   1  10   81.49   21.70
 -10   1  10   82.39   20.40
   9  -1 -10   16.40   11.80
  -9   1  10    3.00   25.80
  -9   1  10    2.20   12.90
  -9   1  10   -3.80   11.40
   8  -1 -10  289.77   23.20
   8  -1 -10  238.78   30.40
  -8   1  10  321.37   26.00
  -8   1  10  277.87   43.60
  -8   1  10  224.28   56.39
   7  -1 -10  654.33   26.80
   7  -1 -10  679.23   94.39
   7  -1 -10  715.43   40.60
   7  -1 -10  691.83   31.90
  -7   1  10  550.04   74.99
  -7   1  10  670.03   34.50
  -7   1  10  648.54   31.90
  -7   1  10  715.83   39.40
   6  -1 -10  692.53   38.60
   6  -1 -10  720.93   97.89
   6  -1 -10  577.94   85.29
   6  -1 -10  727.03   31.00
   6  -1 -10  737.53   27.10
  -6   1  10  659.43   33.20
  -6   1  10  635.04   75.59
  -6   1  10  746.93   31.20
  -6   1  10  727.63   37.20
   5  -1 -10  345.37   21.10
   5  -1 -10  377.56   66.29
   5  -1 -10  332.57   26.30
   5  -1 -10  193.38   52.39
   5  -1 -10  291.37   18.00
  -5   1  10  309.17   19.60
  -5   1  10  294.17   23.90
  -5   1  10  299.27   22.80
   4  -1 -10  219.88   23.80
   4  -1 -10  325.57   62.79
   4  -1 -10  189.18   15.00
   4  -1 -10  243.58   40.90
   4  -1 -10  197.08   19.00
   4  -1 -10  252.07   64.89
  -4   1  10  205.38   21.10
  -4   1  10  196.58   15.10
  -4   1  10  226.58   33.50
   3  -1 -10 1237.78  110.79
   3  -1 -10 1068.49   36.50
   3  -1 -10 1235.88   45.30
   3  -1 -10 1201.68   37.90
   3  -1 -10 1234.78   71.59
   3  -1 -10 1183.48  133.19
  -3   1  10 1196.28   41.50
  -3   1  10 1075.99   35.10
  -3   1  10 1161.58   41.60
   2  -1 -10 1662.43  135.89
   2  -1 -10 1823.42  148.39
   2  -1 -10 1771.92   47.10
   2  -1 -10 1765.02   87.89
   2  -1 -10 1754.02   54.09
   2  -1 -10 1659.63   45.50
  -2   1  10 1693.03   50.19
  -2   1  10 1671.93   46.20
  -2   1  10 1689.03   48.30
   1  -1 -10 1006.60   35.90
   1  -1 -10  944.31   36.10
   1  -1 -10  873.01  113.79
   1  -1 -10  989.90   40.20
   1  -1 -10  938.21   68.39
  -1   1  10  998.10   36.20
  -1   1  10  953.80   37.60
   0  -1 -10   93.09   44.50
   0  -1 -10   70.89   13.50
   0  -1 -10  113.39   17.40
   0  -1 -10   53.69   24.00
   0  -1 -10  120.29   18.10
   0   1  10  110.69   15.20
   0   1  10  109.89   38.30
   0   1  10   86.29   11.40
  -1  -1 -10  577.04   30.70
  -1  -1 -10  354.76   74.49
  -1  -1 -10  601.14   33.50
   1   1  10  544.35   23.80
   1   1  10  531.05   75.59
   1   1  10  507.65   25.40
  -2  -1 -10  735.63  104.59
  -2  -1 -10  773.02   38.60
  -2  -1 -10  816.42   41.10
  -2  -1 -10  800.12   89.79
  -2  -1 -10  852.21   38.70
   2   1  10  875.51   31.10
   2   1  10  995.60   92.09
  -3  -1 -10  313.47   60.79
  -3  -1 -10  346.87   28.80
  -3  -1 -10  377.56   29.90
  -3  -1 -10  242.18   63.69
  -3  -1 -10  328.67   32.20
   3   1  10  306.67   29.60
   3   1  10  299.77   70.79
  -4  -1 -10   37.80   16.30
  -4  -1 -10   -0.60   22.40
  -4  -1 -10   41.90   16.30
  -4  -1 -10   18.80   14.10
  -5  -1 -10   -1.30   14.40
  -5  -1 -10  -16.00   13.30
  -5  -1 -10    4.80   13.40
  -6  -1 -10   45.20   22.90
  -6  -1 -10   67.19   21.50
  -6  -1 -10   59.09   19.90
  10  -2 -10   68.39   22.50
 -10   2  10   74.99   22.40
   9  -2 -10  122.69   19.50
   9  -2 -10   89.49   22.90
   9  -2 -10  132.59   18.40
  -9   2  10  102.69   22.10
   8  -2 -10    6.50    8.10
   8  -2 -10    5.60    8.30
   8  -2 -10    2.20   11.80
  -8   2  10   12.80   21.50
  -8   2  10    8.60   10.40
   7  -2 -10  275.67   65.69
   7  -2 -10  375.86   73.59
   7  -2 -10  280.17   21.60
   7  -2 -10  325.77   20.70
   7  -2 -10  350.96   33.80
  -7   2  10  333.17   25.50
  -7   2  10  334.47   63.19
  -7   2  10  250.87   28.00
   6  -2 -10  723.13   38.80
   6  -2 -10  745.93  100.99
   6  -2 -10  755.32   32.00
   6  -2 -10  628.54   85.89
   6  -2 -10  761.32   29.30
  -6   2  10  766.52   38.50
  -6   2  10  813.02   36.50
  -6   2  10  736.03   65.39
   5  -2 -10  736.33  104.19
   5  -2 -10  803.72   57.89
   5  -2 -10  828.02   30.30
   5  -2 -10  864.01   33.30
   5  -2 -10  774.92   92.79
   5  -2 -10  787.12   39.20
  -5   2  10  818.22   35.60
  -5   2  10  832.32   37.80
   4  -2 -10   29.80   22.70
   4  -2 -10   36.50   10.10
   4  -2 -10   65.59   24.10
   4  -2 -10   72.89   14.10
   4  -2 -10   49.90   13.70
   4  -2 -10   11.60   28.70
  -4   2  10   41.70   12.50
  -4   2  10   73.89   15.20
  -4   2  10   47.50    9.90
   3  -2 -10  396.66   50.59
   3  -2 -10  382.06   25.70
   3  -2 -10  346.87   21.60
   3  -2 -10  440.76   73.99
   3  -2 -10  322.57   21.20
   3  -2 -10  380.26   77.29
  -3   2  10  363.76   24.50
  -3   2  10  408.36   24.30
  -3   2  10  390.96   22.40
   2  -2 -10  924.61   38.30
   2  -2 -10 1090.59   69.69
   2  -2 -10  909.61   34.00
   2  -2 -10 1025.80  127.89
   2  -2 -10  946.51   36.00
   2  -2 -10  831.42   98.09
  -2   2  10  951.30   35.90
  -2   2  10  947.71   35.80
   1  -2 -10  669.93   91.39
   1  -2 -10  895.01   36.30
   1  -2 -10  803.42  114.79
   1  -2 -10  764.52   62.59
   1  -2 -10  935.71   38.20
   1  -2 -10  927.41   35.50
  -1   2  10  840.12   33.30
  -1   2  10  908.41   30.50
  -1   2  10  877.81   35.80
   0  -2 -10  185.58   22.40
   0  -2 -10  156.98   50.89
   0  -2 -10  185.98   59.49
   0  -2 -10  200.88   22.10
   0  -2 -10  200.48   40.40
   0  -2 -10  150.28   18.60
   0   2  10  198.78   19.80
   0   2  10  202.98   16.40
   0   2  10  146.39   23.30
  -1  -2 -10    8.60   18.60
  -1  -2 -10    8.40   18.20
  -1  -2 -10   -9.30    9.40
  -1  -2 -10   -3.30    7.90
  -1  -2 -10    2.40   23.20
  -1  -2 -10   11.80   10.00
   1   2  10   -0.30    7.70
   1   2  10    8.70    7.70
   1   2  10    7.20    8.20
  -2  -2 -10  407.26   32.20
  -2  -2 -10  488.95   31.60
  -2  -2 -10  432.76   65.79
  -2  -2 -10  263.87   78.49
  -2  -2 -10  478.15   30.00
  -2  -2 -10  457.65   93.89
   2   2  10  497.45   31.50
   2   2  10  439.76   24.80
  -3  -2 -10  461.85   36.00
  -3  -2 -10  391.36   29.70
  -3  -2 -10  401.26   51.99
   3   2  10  382.06   30.70
   3   2  10  396.26   25.00
  -4  -2 -10  305.97   33.90
  -4  -2 -10  425.36   33.90
  -4  -2 -10  403.86   30.90
   4   2  10  420.36   32.60
   4   2  10  402.56   27.70
  -5  -2 -10  104.89   21.20
  -5  -2 -10  117.69   25.60
   5   2  10   92.09   22.90
  -6  -2 -10   77.69   20.20
  -6  -2 -10   63.99   24.60
  -6  -2 -10   65.09   21.90
   6   2  10   84.99   22.00
  10  -3 -10   50.49   20.40
  10  -3 -10   70.69   16.50
  10  -3 -10   70.89   17.80
 -10   3  10   31.20   21.00
   9  -3 -10   -1.30    8.50
   9  -3 -10    4.60   13.00
   9  -3 -10   -7.80    7.90
  -9   3  10    5.30   12.70
   8  -3 -10   -2.20   12.20
   8  -3 -10   -4.20    7.70
   8  -3 -10  -11.70    7.30
  -8   3  10   -7.50    9.70
   7  -3 -10   10.60    9.20
   7  -3 -10   -0.50   10.20
   7  -3 -10   -2.20    8.10
   7  -3 -10   -6.00   13.30
   7  -3 -10   -1.10   21.30
  -7   3  10   -6.20   12.50
  -7   3  10   -6.90   15.00
   6  -3 -10   -7.60   16.40
   6  -3 -10   -5.70    8.00
   6  -3 -10    6.30    8.50
   6  -3 -10   -0.70   13.90
   6  -3 -10    7.60    8.30
  -6   3  10    3.40   11.10
  -6   3  10   -4.20   12.40
   5  -3 -10   53.39   13.20
   5  -3 -10   51.79   11.90
   5  -3 -10   34.50   17.60
   5  -3 -10   25.20   22.70
   5  -3 -10   24.10   11.60
   5  -3 -10   23.20   24.60
  -5   3  10   41.80   12.50
  -5   3  10   13.20   11.30
   4  -3 -10   55.29   13.60
   4  -3 -10   49.80   11.70
   4  -3 -10   65.69   12.30
   4  -3 -10   50.99   29.10
   4  -3 -10   66.29   21.90
   4  -3 -10   95.69   44.60
  -4   3  10   47.80   11.00
  -4   3  10   59.89   13.00
   3  -3 -10    8.50    7.70
   3  -3 -10   -3.30   11.40
   3  -3 -10   11.90   22.40
   3  -3 -10   -3.30   11.10
  -3   3  10   -4.20    7.20
  -3   3  10   -0.20    7.20
   2  -3 -10   -5.50   11.80
   2  -3 -10    6.10   23.50
   2  -3 -10   18.70   10.50
   2  -3 -10   24.60   17.60
  -2   3  10    6.80    8.10
  -2   3  10   10.00    8.70
   1  -3 -10  277.27   21.70
   1  -3 -10  268.27   21.10
   1  -3 -10  289.07   62.19
   1  -3 -10  204.68   59.59
   1  -3 -10  316.97   49.10
  -1   3  10  291.47   19.10
  -1   3  10  307.17   21.00
  -1   3  10  280.87   22.60
   0  -3 -10  391.26   25.00
   0  -3 -10  371.56   56.29
   0  -3 -10  369.96   26.10
   0  -3 -10  335.07   26.70
   0  -3 -10  311.07   71.29
   0  -3 -10  354.26   71.49
   0   3  10  373.26   26.80
   0   3  10  349.27   22.10
   0   3  10  372.06   22.40
  -1  -3 -10    6.20    9.70
  -1  -3 -10    7.40   26.90
  -1  -3 -10    4.90    8.80
  -1  -3 -10   17.90   21.50
  -1  -3 -10    1.40   11.30
  -1  -3 -10   -3.40   17.80
   1   3  10    7.90    9.70
   1   3  10   11.70    8.50
  -2  -3 -10    0.80   12.50
  -2  -3 -10   -6.60   28.60
  -2  -3 -10    1.50   23.10
  -2  -3 -10    3.60   19.00
  -2  -3 -10   24.40   13.50
  -2  -3 -10    7.00   10.60
   2   3  10   18.20   10.80
   2   3  10    0.90    8.80
  -3  -3 -10  111.49   44.70
  -3  -3 -10  175.58   21.00
  -3  -3 -10  156.28   25.20
  -3  -3 -10  165.48   23.80
  -3  -3 -10  148.09   59.39
   3   3  10  168.38   23.40
   3   3  10  164.88   20.20
  -4  -3 -10  185.08   28.00
  -4  -3 -10  213.28   23.50
  -4  -3 -10  263.77   32.30
   4   3  10  203.08   24.60
   4   3  10  193.88   25.70
  -5  -3 -10  107.19   26.80
  -5  -3 -10   87.29   22.40
  -5  -3 -10  100.69   19.30
   5   3  10  136.79   25.00
   5   3  10  140.19   22.90
  -6  -3 -10   28.50   28.50
  -6  -3 -10   -2.30   13.50
  -6  -3 -10    7.60   19.50
   6   3  10    9.60   17.70
  10  -4 -10  331.67   40.50
  10  -4 -10  379.56   43.10
  10  -4 -10  381.16   32.40
  10  -4 -10  414.06   30.70
   9  -4 -10  316.27   26.20
   9  -4 -10  248.08   31.50
   9  -4 -10  269.47   35.40
   9  -4 -10  312.97   27.80
   8  -4 -10  194.48   62.89
   8  -4 -10  172.78   21.20
   8  -4 -10  118.29   18.80
   8  -4 -10  161.88   26.30
   7  -4 -10    9.30    9.50
   7  -4 -10   11.10   19.50
   7  -4 -10    1.60    8.70
   6  -4 -10  318.47   72.19
   6  -4 -10  325.07   22.70
   6  -4 -10  321.77   22.50
   6  -4 -10  301.87   30.10
   5  -4 -10  757.52   32.90
   5  -4 -10  790.12   37.60
   5  -4 -10  837.92   33.90
   5  -4 -10  668.93   90.59
   5  -4 -10  752.22   54.59
   5  -4 -10  770.72  111.09
  -5   4  10  753.12   31.00
   4  -4 -10   48.50   11.70
   4  -4 -10   50.19   13.20
   4  -4 -10  103.99   41.80
   4  -4 -10   63.99   13.40
   4  -4 -10   91.09   27.00
   4  -4 -10   26.40   28.50
  -4   4  10   75.19   13.60
   3  -4 -10  233.78   22.80
   3  -4 -10  220.68   61.69
   3  -4 -10  207.08   54.09
   3  -4 -10  274.77   43.20
   3  -4 -10  214.88   21.80
   3  -4 -10  186.98   20.60
  -3   4  10  240.78   19.90
  -3   4  10  223.68   22.40
   2  -4 -10   12.30   23.10
   2  -4 -10   15.00   20.60
   2  -4 -10    5.70    8.60
   2  -4 -10    1.70    7.30
   2  -4 -10   -1.50   11.80
   2  -4 -10   12.90    9.90
  -2   4  10    9.70    8.70
  -2   4  10    9.50    7.30
  -2   4  10   -2.20   14.00
   1  -4 -10   97.79   46.70
   1  -4 -10   24.80   12.00
   1  -4 -10   24.70   26.50
   1  -4 -10   29.60   12.20
   1  -4 -10   28.30    9.50
   1  -4 -10   52.19   24.50
  -1   4  10   28.40   10.80
  -1   4  10   27.00   10.10
  -1   4  10   27.90   10.70
   0  -4 -10  156.18   52.59
   0  -4 -10  238.48   65.49
   0  -4 -10  137.59   50.99
   0  -4 -10  234.68   19.20
   0  -4 -10  188.88   22.60
   0  -4 -10  206.28   23.60
   0   4  10  224.88   18.80
   0   4  10  232.98   22.00
   0   4  10  209.78   23.30
  -1  -4 -10   -2.70   11.50
  -1  -4 -10   24.00   23.50
  -1  -4 -10    4.50   25.70
  -1  -4 -10    8.00   10.80
  -1  -4 -10   37.60   31.10
  -1  -4 -10   53.39   11.80
   1   4  10   50.39   14.80
   1   4  10   17.30    9.80
  -2  -4 -10    2.90    8.60
  -2  -4 -10    3.40   11.30
  -2  -4 -10    2.60   11.10
  -2  -4 -10    9.90   25.80
  -2  -4 -10    8.50   29.00
   2   4  10    0.30   11.10
   2   4  10    0.40    9.90
  -3  -4 -10   -0.70   42.00
  -3  -4 -10    4.00    9.60
  -3  -4 -10    8.80   13.80
  -3  -4 -10   -1.50   14.00
   3   4  10    4.00   10.80
   3   4  10    8.00   12.20
  -4  -4 -10   -1.10    9.70
  -4  -4 -10   17.30   16.10
  -4  -4 -10   -0.60   16.60
   4   4  10   -5.00   11.50
   4   4  10   -7.20   13.80
  -5  -4 -10   42.00   23.30
  -5  -4 -10   19.40   17.60
   5   4  10    9.50   14.60
   5   4  10    3.00   15.80
  10  -5 -10  114.29   27.00
  10  -5 -10  142.89   29.50
  10  -5 -10  128.39   22.30
  10  -5 -10  125.69   21.80
   9  -5 -10  452.85   29.80
   9  -5 -10  452.45   39.30
   9  -5 -10  432.56   42.00
   8  -5 -10  409.96   42.40
   8  -5 -10  461.85   29.60
   8  -5 -10  394.66   27.10
   8  -5 -10  443.66   34.90
   7  -5 -10  130.39   22.80
   7  -5 -10  108.69   17.40
   6  -5 -10   79.49   15.30
   6  -5 -10  113.19   17.10
   6  -5 -10   65.99   28.40
   6  -5 -10   78.99   41.70
   6  -5 -10   15.50   22.40
   5  -5 -10  489.05   28.20
   5  -5 -10  624.84  103.39
   5  -5 -10  549.35   82.39
   5  -5 -10  603.04   29.80
   5  -5 -10  562.64   31.50
  -5   5  10  529.15   27.50
   4  -5 -10 1216.98   42.80
   4  -5 -10 1257.47   43.70
   4  -5 -10 1122.89   98.99
   4  -5 -10 1147.29   41.80
  -4   5  10 1186.38   44.60
   3  -5 -10  573.04   31.00
   3  -5 -10  545.95   27.80
   3  -5 -10  514.65  104.69
   3  -5 -10  501.45   80.79
   3  -5 -10  551.24   49.50
   3  -5 -10  698.43   33.10
  -3   5  10  601.74   32.70
   2  -5 -10    6.70    7.50
   2  -5 -10    5.30    9.40
   2  -5 -10    9.30   19.00
   2  -5 -10   31.30   32.40
   2  -5 -10   -3.80   14.20
   2  -5 -10    3.60    9.30
  -2   5  10    0.90    7.40
  -2   5  10    5.30    8.80
   1  -5 -10  295.87   49.00
   1  -5 -10  220.08   17.20
   1  -5 -10  230.58   24.70
   1  -5 -10  261.77   26.20
  -1   5  10  208.78   23.90
  -1   5  10  242.78   20.60
   0  -5 -10  607.54   35.60
   0  -5 -10  592.84  105.69
   0  -5 -10  573.74   23.80
   0  -5 -10  499.25   87.59
   0  -5 -10  608.24   35.60
   0   5  10  631.54   32.10
   0   5  10  539.55   34.10
  -1  -5 -10  444.26   34.10
  -1  -5 -10  405.86   32.00
  -1  -5 -10  453.55   19.60
  -1  -5 -10  418.36   91.19
  -1  -5 -10  453.35   67.19
   1   5  10  405.36   31.70
  -2  -5 -10   20.70   15.90
  -2  -5 -10    5.40   49.90
  -2  -5 -10    5.90   13.20
  -2  -5 -10   12.20   23.90
   2   5  10   34.00   13.60
   2   5  10   23.10   13.80
  -3  -5 -10  -11.40   13.20
  -3  -5 -10   15.10   16.10
   3   5  10   14.00   12.70
   3   5  10    7.30   13.40
  -4  -5 -10   18.90   19.60
  -4  -5 -10   47.10   19.00
   4   5  10   42.20   16.70
   4   5  10   41.90   18.60
  -5  -5 -10   14.70   24.30
   5   5  10   18.40   17.50
   5   5  10    4.00   15.10
  10  -6 -10   15.10   17.80
  10  -6 -10   10.60   16.50
  10  -6 -10   23.20   13.50
  10  -6 -10   10.90   13.30
   9  -6 -10   -1.40   14.60
   9  -6 -10   -0.90   14.70
   9  -6 -10    9.10   12.10
   9  -6 -10   26.70   13.00
   8  -6 -10   83.09   26.60
   8  -6 -10   94.59   18.80
   8  -6 -10   94.49   17.80
   8  -6 -10  106.29   26.70
   7  -6 -10  286.37   35.10
   7  -6 -10  338.17   29.40
   7  -6 -10  275.97   30.00
   7  -6 -10  305.27   23.70
   6  -6 -10   -0.60   12.10
   6  -6 -10   -6.30    7.30
   6  -6 -10   -8.00    8.60
   6  -6 -10    9.50   10.70
   6  -6 -10   -7.10   16.10
  -6   6  10   -0.80    7.50
   5  -6 -10   89.29   38.50
   5  -6 -10   68.59   16.70
   5  -6 -10   52.59   13.00
   5  -6 -10   53.39   15.70
  -5   6  10   63.79   14.00
   4  -6 -10  302.87   27.80
   4  -6 -10  183.48   21.70
   4  -6 -10  172.28   18.60
   4  -6 -10  207.08   74.69
  -4   6  10  218.88   23.70
   3  -6 -10  574.34   26.10
   3  -6 -10  596.24  107.09
   3  -6 -10  655.63   33.30
   3  -6 -10  625.64   34.20
  -3   6  10  598.34   33.70
  -3   6  10  581.14   29.90
   2  -6 -10  272.97   27.00
   2  -6 -10  233.98   25.50
   2  -6 -10  242.78   73.89
   2  -6 -10  233.98   15.90
   2  -6 -10  172.88   52.89
  -2   6  10  225.98   21.80
  -2   6  10  201.88   24.30
   1  -6 -10   17.00   13.60
   1  -6 -10   10.40   18.20
   1  -6 -10   -9.60    9.50
   1  -6 -10   10.40   24.10
   1  -6 -10   30.60   35.40
  -1   6  10   11.90   19.60
  -1   6  10  -17.90    8.70
   0  -6 -10  249.18   27.40
   0  -6 -10  251.17   29.30
   0  -6 -10  330.07   57.79
   0   6  10  207.88   23.30
   0   6  10  251.57   28.00
  -1  -6 -10  251.57   29.30
  -1  -6 -10  306.37   32.10
  -1  -6 -10  250.67   51.29
   1   6  10  299.37   25.70
   1   6  10  333.07   33.60
  -2  -6 -10  241.18   30.50
  -2  -6 -10  266.67   32.30
   2   6  10  342.47   34.90
   2   6  10  352.16   28.60
  -3  -6 -10   56.99   21.20
  -3  -6 -10   41.60   19.80
   3   6  10   43.70   16.50
   3   6  10   54.99   18.20
  -4  -6 -10  -18.20   14.60
  -4  -6 -10   -2.70   17.50
   4   6  10    2.60   13.80
   4   6  10   13.90   17.00
   9  -7 -10   36.60   17.50
   9  -7 -10   80.59   19.20
   9  -7 -10   32.40   20.40
   8  -7 -10   17.50   11.60
   8  -7 -10   -9.80   11.90
   8  -7 -10    2.10   11.90
   8  -7 -10   25.10   14.60
   7  -7 -10   10.40   10.60
   7  -7 -10    6.20   11.00
   7  -7 -10   20.90   15.20
   7  -7 -10   15.30   12.50
   6  -7 -10   87.19   22.50
   6  -7 -10  119.99   26.20
   6  -7 -10   81.29   16.00
   6  -7 -10   81.99   18.40
  -6   7  10   95.59   16.10
   5  -7 -10   67.29   19.80
   5  -7 -10   97.69   15.40
   5  -7 -10  129.59   21.00
   5  -7 -10   26.00   27.50
   5  -7 -10   73.59   15.10
  -5   7  10   97.69   17.20
   4  -7 -10   53.99   14.60
   4  -7 -10   43.20   16.90
   4  -7 -10   67.19   15.70
   4  -7 -10   31.40   10.80
   4  -7 -10   76.29   42.00
   3  -7 -10   47.30   17.60
   3  -7 -10   25.60   28.10
   3  -7 -10   64.39   15.50
   3  -7 -10   70.39   16.90
  -3   7  10   31.20   12.10
  -3   7  10   45.00   14.80
   2  -7 -10  161.08   25.30
   2  -7 -10  194.58   24.50
  -2   7  10  206.28   23.20
  -2   7  10  154.58   22.20
   1  -7 -10   -2.90   12.30
   1  -7 -10    7.80   12.30
  -1   7  10   -9.00    9.40
  -1   7  10   14.90   12.80
   0  -7 -10   25.10   15.10
   0  -7 -10    3.30   13.40
   0   7  10    5.70   11.10
   0   7  10   -8.20   10.40
  -1  -7 -10  179.88   26.60
  -1  -7 -10  204.68   28.90
   1   7  10  130.19   24.80
   1   7  10  279.87   29.20
  -2  -7 -10  109.09   24.10
  -2  -7 -10   99.89   22.80
   2   7  10   89.59   22.40
   2   7  10  101.59   20.30
  -3  -7 -10   59.69   23.50
  -3  -7 -10   25.30   18.20
   3   7  10   66.29   22.00
   3   7  10   30.60   15.60
   8  -8 -10   49.40   18.00
   8  -8 -10   62.19   17.80
   8  -8 -10   81.69   24.80
   7  -8 -10   87.89   16.60
   7  -8 -10   84.19   18.80
   7  -8 -10  125.89   28.60
   6  -8 -10   24.40   21.10
   6  -8 -10   36.20   11.90
   6  -8 -10   50.89   17.50
  -6   8  10   29.90   12.80
   5  -8 -10   33.50    9.70
   5  -8 -10   43.70   18.20
   5  -8 -10   48.80   16.90
   5  -8 -10   10.60   10.70
  -5   8  10   22.40   12.10
   4  -8 -10   71.89   21.10
   4  -8 -10   68.19   17.80
   4  -8 -10   70.19   16.50
  -4   8  10   81.49   17.30
   3  -8 -10   69.59   17.60
   3  -8 -10   48.90   15.00
   3  -8 -10   36.30   17.80
  -3   8  10   40.10   14.70
  -3   8  10   44.50   13.30
   2  -8 -10   40.00   15.20
   2  -8 -10   69.99   17.80
   2  -8 -10   13.60   17.50
  -2   8  10   39.80   13.00
  -2   8  10   40.10   15.50
   1  -8 -10   24.40   14.50
   1  -8 -10   21.90   15.50
  -1   8  10   -2.40   10.90
  -1   8  10    9.80   12.90
   0  -8 -10   -4.50   13.30
   0  -8 -10  -10.60   13.20
   0   8  10  -10.00    9.50
   0   8  10   -4.60   11.20
  -1  -8 -10   -1.20   14.70
  -1  -8 -10   -0.60   15.00
   1   8  10    1.00   13.80
   1   8  10   25.90   14.60
  -2  -8 -10    6.10   16.90
  -2  -8 -10   10.80   17.50
   2   8  10    1.10   13.50
   2   8  10   -2.30   14.70
   7  -9 -10  254.97   21.70
   7  -9 -10  294.57   32.20
   7  -9 -10  265.67   40.10
   6  -9 -10  599.74   46.30
   6  -9 -10  507.75   37.50
   5  -9 -10  414.36   38.20
   5  -9 -10  352.16   42.60
   4  -9 -10   14.20   16.60
   4  -9 -10   -7.70   11.80
  -4   9  10   11.10   12.70
   3  -9 -10   56.79   21.00
   3  -9 -10   46.60   15.70
   3  -9 -10   49.50   18.30
  -3   9  10   53.99   15.90
  -3   9  10   20.70   12.90
   2  -9 -10  203.18   28.30
   2  -9 -10  142.89   22.80
  -2   9  10   97.19   20.70
  -2   9  10  107.39   19.10
   1  -9 -10  232.58   28.50
   1  -9 -10  203.58   28.30
  -1   9  10  267.57   29.20
  -1   9  10  314.17   34.00
   0  -9 -10   11.10   16.60
   0  -9 -10   28.00   18.60
   0   9  10    4.00   12.20
   0   9  10    1.20   13.40
  -1  -9 -10   -8.30   15.40
  -1  -9 -10    6.00   18.00
   1   9  10   -9.50   13.80
   1   9  10   -8.40   15.00
   6 -10 -10  312.47   41.90
   6 -10 -10  287.37   40.80
  -6  10  10  330.37   33.50
   5 -10 -10  366.26   42.80
   5 -10 -10  445.26   39.90
  -5  10  10  348.77   34.40
   4 -10 -10  121.49   24.40
   4 -10 -10   94.49   26.20
  -4  10  10  100.39   20.70
   3 -10 -10   -5.40   15.10
   3 -10 -10   -1.60   14.80
  -3  10  10    3.90   11.70
  -3  10  10   -6.40   11.10
   2 -10 -10  135.69   25.70
  -2  10  10  137.59   23.90
  -2  10  10  144.39   22.60
   1 -10 -10  280.47   33.00
  -1  10  10  284.37   47.00
   1  10 -11   -5.40   15.60
   1  10 -11  -13.40   19.40
  -1 -10  11    1.60   17.70
   0  10 -11   -7.20   15.70
   0 -10  11  -10.90   22.90
   4   9 -11  268.67   32.30
   4   9 -11  275.27   33.90
  -4  -9  11  340.77   41.20
  -4  -9  11  308.97   36.90
   3   9 -11  270.17   33.90
   3   9 -11  198.68   27.10
  -3  -9  11  248.68   35.20
  -3  -9  11  249.08   33.00
   2   9 -11   -0.30   12.70
   2   9 -11   -3.80   14.20
  -2  -9  11   -9.80   15.90
  -2  -9  11   -7.00   15.50
   1   9 -11   45.80   19.70
   1   9 -11   27.70   15.40
  -1  -9  11   10.30   17.60
  -1  -9  11   55.79   22.10
  -1  -9  11   21.30   10.40
   0   9 -11   35.50   16.60
   0   9 -11    8.30   16.70
   0  -9  11   27.50   18.60
   0  -9  11   54.19   13.60
   0  -9  11   18.20   17.90
  -1   9 -11  129.09   25.30
  -1   9 -11  124.39   22.30
   1  -9  11  136.59   19.50
   1  -9  11  152.88   28.00
   1  -9  11  148.99   29.40
  -2   9 -11   28.20   14.50
  -2   9 -11   20.00   17.20
   2  -9  11   26.70   15.20
   2  -9  11   22.70   17.50
   2  -9  11   22.80   19.90
  -3   9 -11    2.30   16.60
   3  -9  11    0.30   22.10
   3  -9  11   24.80   18.50
   5   8 -11   29.00   16.10
   5   8 -11   27.70   19.30
  -5  -8  11   22.70   23.10
  -5  -8  11   40.60   21.70
   4   8 -11  114.39   28.60
   4   8 -11  153.78   24.20
  -4  -8  11  167.28   28.70
  -4  -8  11  197.88   45.60
   3   8 -11  227.18   29.70
  -3  -8  11  217.08   17.20
  -3  -8  11  238.38   32.00
  -3  -8  11  214.38   31.70
   2   8 -11   42.40   15.50
   2   8 -11   65.59   19.40
  -2  -8  11   65.59   20.40
  -2  -8  11   76.39   13.90
  -2  -8  11   65.99   28.30
   1   8 -11    8.50   11.60
   1   8 -11  -11.80   12.60
  -1  -8  11   20.10   28.60
  -1  -8  11    1.80   15.60
  -1  -8  11   -6.70    9.40
   0   8 -11   67.09   18.30
   0   8 -11  119.19   31.40
   0  -8  11   97.09   17.20
  -1   8 -11  286.77   31.30
  -1   8 -11  292.57   29.70
   1  -8  11  276.47   33.90
   1  -8  11  280.77   26.90
   1  -8  11  274.07   32.80
  -2   8 -11  411.06   31.20
  -2   8 -11  457.45   36.40
   2  -8  11  499.35   40.50
   2  -8  11  447.66   42.80
   2  -8  11  405.56   31.00
  -3   8 -11   95.49   22.30
  -3   8 -11  112.59   20.90
   3  -8  11  184.38   30.90
   3  -8  11  168.78   24.80
   3  -8  11  183.98   31.40
  -4   8 -11   16.30   14.90
  -4   8 -11   14.20   17.80
   4  -8  11   11.10   18.10
   4  -8  11    4.50   17.40
   4  -8  11   19.70   20.20
   7   7 -11   -7.30   15.20
   7   7 -11   -1.10   13.50
   6   7 -11   -2.10   12.30
   6   7 -11   19.00   16.20
  -6  -7  11    1.40   16.90
   5   7 -11    0.80   11.30
   5   7 -11   13.90   15.40
  -5  -7  11   -7.20   15.00
  -5  -7  11   -7.40    8.00
  -5  -7  11   -2.50   14.90
   4   7 -11   -8.00   11.70
   4   7 -11    5.60   11.60
  -4  -7  11   -1.40    8.50
  -4  -7  11    5.40   14.50
  -4  -7  11   10.70   14.80
   3   7 -11   53.79   17.30
   3   7 -11   33.10   14.60
  -3  -7  11   17.00   15.20
  -3  -7  11   39.70   18.40
  -3  -7  11   51.79   13.20
  -3  -7  11   68.29   41.10
   2   7 -11   93.59   18.60
   2   7 -11   92.69   27.90
  -2  -7  11   67.19   18.90
  -2  -7  11   76.19   38.20
  -2  -7  11   61.39   19.10
  -2  -7  11   51.99   13.20
   1   7 -11   13.40   13.80
   1   7 -11   18.50   12.00
  -1  -7  11    9.50   14.00
  -1  -7  11   51.89   17.90
  -1  -7  11   38.80   36.50
  -1  -7  11   17.00   10.60
   0   7 -11   75.59   19.80
   0   7 -11   45.40   27.00
   0   7 -11   46.70   14.80
   0  -7  11   74.79   19.70
   0  -7  11   36.50   13.60
   0  -7  11   27.90   16.50
  -1   7 -11   84.89   39.60
  -1   7 -11  119.29   19.60
  -1   7 -11  154.78   23.90
   1  -7  11   99.29   21.80
   1  -7  11   99.89   22.00
   1  -7  11  126.89   19.80
  -2   7 -11  124.29   22.50
  -2   7 -11   98.89   18.30
   2  -7  11   52.79   18.90
   2  -7  11   70.39   19.00
   2  -7  11  132.29   25.90
  -3   7 -11   78.79   21.00
   3  -7  11   45.90   20.30
   3  -7  11   54.89   29.70
   3  -7  11   64.39   18.70
  -4   7 -11   16.20   25.00
   4  -7  11  -12.50   16.40
   4  -7  11    4.20   15.30
  -5   7 -11   -3.60   16.30
   5  -7  11    5.10   22.10
   5  -7  11   -0.60   19.30
   7   6 -11  220.78   30.90
  -7  -6  11  156.38   18.60
  -7  -6  11   80.79   23.80
   6   6 -11   93.39   19.90
   6   6 -11   91.09   21.00
   6   6 -11   48.30   19.90
  -6  -6  11   66.39   19.30
  -6  -6  11   70.69   14.20
  -6  -6  11   54.69   19.90
   5   6 -11    8.30   14.20
   5   6 -11    2.00   11.20
  -5  -6  11    3.20   13.60
  -5  -6  11    2.10   14.70
  -5  -6  11   16.30   11.20
   4   6 -11   -1.40    9.40
   4   6 -11   17.50   13.30
  -4  -6  11   12.40   11.20
  -4  -6  11   13.50   25.30
  -4  -6  11   33.30   17.00
  -4  -6  11    9.50   13.90
   3   6 -11   92.59   18.50
  -3  -6  11   88.19   16.00
  -3  -6  11   93.89   21.00
  -3  -6  11  106.89   21.80
  -3  -6  11   30.60   28.90
   2   6 -11  120.89   20.00
   2   6 -11   86.19   17.20
  -2  -6  11   61.09   13.60
  -2  -6  11   66.79   18.30
  -2  -6  11   65.99   35.60
  -2  -6  11   48.90   17.10
   1   6 -11   50.39   27.10
   1   6 -11   26.30   13.50
  -1  -6  11   29.80   29.90
  -1  -6  11   21.10   10.90
  -1  -6  11   30.20   15.10
  -1  -6  11   -0.60   11.20
   0   6 -11    8.20   16.10
   0   6 -11   -2.50   10.40
   0   6 -11    6.90    9.80
   0  -6  11   -6.30   24.20
   0  -6  11    1.10   12.10
   0  -6  11    9.80   10.60
   0  -6  11   18.60   13.80
  -1   6 -11    4.70    8.90
  -1   6 -11    7.90   12.50
  -1   6 -11   15.40   21.00
   1  -6  11    1.80   11.50
   1  -6  11    1.50   12.50
   1  -6  11   -5.40   12.80
  -2   6 -11   25.00   23.90
  -2   6 -11    6.40   12.40
   2  -6  11   -2.20   13.00
   2  -6  11   -1.40   13.70
   2  -6  11    9.50   13.00
  -3   6 -11   -2.70   13.20
  -3   6 -11   22.00   23.30
   3  -6  11   11.80   16.20
   3  -6  11   10.80   14.70
  -4   6 -11   13.40   15.90
   4  -6  11   -0.80   15.50
   4  -6  11   -6.70   15.00
   5  -6  11   -0.80   17.90
   5  -6  11   -7.30   16.20
   8   5 -11   36.30   17.60
   8   5 -11   42.10   17.90
  -8  -5  11   23.10   13.20
  -8  -5  11   15.70   18.40
   7   5 -11  124.39   31.90
   7   5 -11   91.09   20.10
   7   5 -11  126.59   22.60
  -7  -5  11   84.69   17.30
  -7  -5  11  105.19   23.80
   6   5 -11  404.46   32.10
   6   5 -11  475.05   31.80
   6   5 -11  503.95   35.00
  -6  -5  11  464.05   36.10
  -6  -5  11  441.16   28.40
  -6  -5  11  420.16   32.80
   5   5 -11  439.76   72.89
   5   5 -11  395.66   26.50
   5   5 -11  453.75   30.30
   5   5 -11  448.66   25.80
   5   5 -11  393.36   28.30
  -5  -5  11  444.06   35.60
  -5  -5  11  229.38   53.49
  -5  -5  11  454.95   39.60
   4   5 -11   25.90   11.00
   4   5 -11   17.10   23.60
   4   5 -11   36.80   13.80
   4   5 -11   23.60    9.80
  -4  -5  11   12.10   13.60
  -4  -5  11   26.00   16.90
   3   5 -11  127.99   18.60
  -3  -5  11   76.59   33.30
  -3  -5  11  134.59   29.80
  -3  -5  11  130.79   21.40
  -3  -5  11  107.99   20.70
   2   5 -11  561.34   30.00
   2   5 -11  610.34   30.10
   2   5 -11  493.65   65.29
  -2  -5  11  459.95   72.09
  -2  -5  11  487.05   33.00
  -2  -5  11  551.54   35.50
  -2  -5  11  526.95   29.50
   1   5 -11  822.02   35.10
   1   5 -11  812.62   34.00
   1   5 -11  850.61   69.49
  -1  -5  11  849.12   40.40
  -1  -5  11  721.83   39.20
  -1  -5  11  788.62   36.40
  -1  -5  11  817.82  107.09
   0   5 -11  392.26   24.70
   0   5 -11  382.66   27.10
   0   5 -11  376.86   55.69
   0  -5  11  383.36   27.90
   0  -5  11  229.88   59.59
   0  -5  11  422.36   30.30
   0  -5  11  403.16   30.70
  -1   5 -11    6.30   16.20
   1  -5  11    5.10   11.70
   1  -5  11   11.60   17.70
  -2   5 -11   55.99   30.90
   2  -5  11   50.79   16.70
   2  -5  11   58.79   18.20
   2  -5  11   62.69   18.00
  -3   5 -11  224.88   48.60
   3  -5  11  320.97   33.20
   3  -5  11  235.48   29.90
   4  -5  11   70.19   21.50
   4  -5  11   84.39   21.70
  -5   5 -11    6.70   20.60
   5  -5  11   89.79   24.30
   9   4 -11   42.90   17.80
   9   4 -11   11.90   15.40
  -9  -4  11   39.80   16.60
  -9  -4  11   32.90   20.60
   8   4 -11   54.09   17.40
   8   4 -11   73.69   19.00
  -8  -4  11   56.09   15.80
  -8  -4  11   26.70   18.20
   7   4 -11   88.79   18.60
  -7  -4  11  112.09   22.80
  -7  -4  11   72.79   16.90
  -7  -4  11   64.49   18.00
   6   4 -11  428.16   29.80
   6   4 -11  466.35   35.50
   6   4 -11  434.46   29.50
  -6  -4  11  460.95   30.40
  -6  -4  11  534.45   36.80
  -6  -4  11  508.25   37.70
   5   4 -11  754.62   35.40
   5   4 -11  971.70  168.48
   5   4 -11  820.52   33.20
   5   4 -11  784.92   34.80
  -5  -4  11  915.81  111.89
  -5  -4  11  907.01   45.70
  -5  -4  11  840.92   38.20
  -5  -4  11  758.72   39.30
   4   4 -11  335.47   23.30
   4   4 -11  339.67   21.30
   4   4 -11  418.16   67.39
  -4  -4  11  382.66   29.20
  -4  -4  11  353.86   32.20
  -4  -4  11  361.76   25.50
  -4  -4  11  257.27   56.39
   3   4 -11    5.60   14.90
   3   4 -11   22.00   19.30
   3   4 -11    5.40    7.30
  -3  -4  11   10.60   16.80
  -3  -4  11   -4.00    9.40
  -3  -4  11   -6.40    8.40
  -3  -4  11   -1.40   10.30
   2   4 -11  378.96   59.89
   2   4 -11  312.37   50.19
   2   4 -11  338.87   20.00
   2   4 -11  349.17   24.50
  -2  -4  11  346.87   27.90
  -2  -4  11  458.25   74.19
  -2  -4  11  324.37   28.90
  -2  -4  11  388.96   26.10
   1   4 -11 1406.16   41.90
   1   4 -11 1231.08   87.09
   1   4 -11 1391.46   38.50
   1   4 -11 1341.07   85.59
  -1  -4  11 1367.26   51.89
  -1  -4  11 1487.45   50.69
  -1  -4  11 1321.17   47.60
  -1  -4  11 1282.47  105.79
   0   4 -11  542.25   65.69
   0  -4  11  465.65   30.60
   0  -4  11  489.45   31.00
   0  -4  11  468.35   80.69
   0  -4  11  513.45   32.90
  -1   4 -11  225.18   46.80
  -1   4 -11  129.19   25.20
   1  -4  11  240.78   26.50
   1  -4  11  180.28   24.10
   1  -4  11  110.89   46.30
   1  -4  11  165.78   22.40
  -2   4 -11   52.49   29.90
  -2   4 -11   19.20   15.70
   2  -4  11   40.50   15.90
   2  -4  11   31.50   14.20
  -3   4 -11  472.45   40.40
  -3   4 -11  510.95   35.30
  -3   4 -11  394.06   85.49
   3  -4  11  442.56   35.20
   3  -4  11  478.35   35.50
  -4   4 -11  396.96   36.50
  -4   4 -11  428.96   43.60
   4  -4  11  528.85   39.30
   4  -4  11  499.45   34.70
  -5   4 -11  191.98   32.80
   5  -4  11  131.39   27.60
  -6   4 -11   59.49   26.20
   6  -4  11   93.69   27.60
   9   3 -11    3.80   13.40
  -9  -3  11   -9.80   11.70
  -9  -3  11   20.20   17.80
  -8  -3  11    7.70   15.30
  -8  -3  11    4.70   11.40
   7   3 -11   14.00   11.30
  -7  -3  11    1.80   16.80
  -7  -3  11    6.40   12.90
  -7  -3  11   10.10   10.60
   6   3 -11   57.89   32.70
   6   3 -11   67.39   14.60
  -6  -3  11   68.69   18.10
  -6  -3  11   83.09   17.80
  -6  -3  11  125.09   44.40
   5   3 -11   49.90   15.60
   5   3 -11   54.39   12.50
   5   3 -11   43.40   25.10
  -5  -3  11   55.69   15.40
  -5  -3  11   83.49   35.30
  -5  -3  11   56.69   16.80
  -5  -3  11   63.19   14.90
   4   3 -11   25.80    9.50
   4   3 -11   19.50   20.10
   4   3 -11   21.90    9.40
  -4  -3  11    3.90   10.90
  -4  -3  11   15.20   10.20
  -4  -3  11   26.90   12.50
   3   3 -11    7.80   16.60
   3   3 -11    2.40    7.20
   3   3 -11    7.90   17.20
   3   3 -11    7.00    7.20
  -3  -3  11   31.10   26.20
  -3  -3  11   -3.90    9.00
  -3  -3  11   -1.90   13.80
  -3  -3  11    3.90    8.10
   2   3 -11   55.99   25.90
   2   3 -11   19.70   19.80
   2   3 -11    4.40    6.80
   2   3 -11   32.60   10.00
  -2  -3  11    0.90    9.30
  -2  -3  11   20.50   12.30
  -2  -3  11   37.10   25.20
  -2  -3  11   40.70   12.50
   1   3 -11  164.08   39.90
   1   3 -11   99.69   35.70
   1   3 -11  143.39   23.10
   1   3 -11  102.19   13.80
   1   3 -11   90.69   13.00
  -1  -3  11  119.39   18.40
  -1  -3  11   74.49   15.20
  -1  -3  11  113.09   18.40
  -1  -3  11  152.18   46.80
   0   3 -11  805.62   30.50
   0   3 -11  756.02   65.29
   0   3 -11  744.13   42.10
   0   3 -11  660.63   79.19
   0  -3  11  759.32   37.40
   0  -3  11  850.71   39.50
   0  -3  11  631.14   90.29
  -1   3 -11   32.30   25.60
  -1   3 -11   32.00   15.20
  -1   3 -11    8.20   16.70
  -1   3 -11   36.10   10.90
  -1   3 -11   14.70   12.30
   1  -3  11   29.00   27.60
   1  -3  11   34.60   14.20
   1  -3  11   27.80   12.70
   1  -3  11   12.10   11.10
  -2   3 -11   10.10   12.80
  -2   3 -11   18.60   16.20
  -2   3 -11   44.80   24.70
   2  -3  11   15.20   12.90
   2  -3  11   32.00   15.00
  -3   3 -11   42.00   17.40
  -3   3 -11   78.09   21.80
   3  -3  11   60.49   17.10
   3  -3  11   77.89   19.80
  -4   3 -11  108.39   23.20
  -4   3 -11   88.39   23.20
   4  -3  11  121.59   24.80
  -5   3 -11  272.27   40.10
  -5   3 -11  240.08   32.30
   5  -3  11  190.18   32.40
  -6   3 -11   33.00   21.80
  -6   3 -11   52.09   23.70
  -6   3 -11   99.99   23.40
 -10  -2  11   33.00   20.40
  -9  -2  11  133.39   23.50
  -9  -2  11  208.88   30.20
   8   2 -11  125.59   19.90
  -8  -2  11  106.29   21.60
  -8  -2  11   83.69   18.60
  -8  -2  11  143.59   22.30
   7   2 -11    7.50   10.80
  -7  -2  11   21.90   12.00
  -7  -2  11  -11.70   17.00
  -7  -2  11    4.10   11.40
   6   2 -11   18.50   22.40
   6   2 -11   16.20    9.90
  -6  -2  11   65.69   37.60
  -6  -2  11   35.10   13.40
  -6  -2  11   26.80   13.30
  -6  -2  11   10.20   11.70
   5   2 -11  503.75   77.59
   5   2 -11  500.15   26.10
  -5  -2  11  461.45   29.60
  -5  -2  11  516.45   30.70
  -5  -2  11  401.76   65.39
  -5  -2  11  473.85   30.50
   4   2 -11  293.87   49.40
   4   2 -11  163.58   23.90
   4   2 -11  223.38   18.00
   4   2 -11  252.07   53.39
   4   2 -11  214.68   60.29
  -4  -2  11  251.17   23.70
  -4  -2  11  216.48   23.80
  -4  -2  11  239.98   23.80
   3   2 -11   45.70   22.10
   3   2 -11   82.89   32.60
   3   2 -11   82.69   18.10
   3   2 -11   69.59   12.30
   3   2 -11   56.79   10.50
  -3  -2  11   76.39   14.90
  -3  -2  11   82.59   17.00
  -3  -2  11   51.99   13.40
   2   2 -11    3.70   10.80
   2   2 -11    5.80   20.40
   2   2 -11    6.40    6.40
   2   2 -11   21.30   18.50
   2   2 -11   15.10    8.00
  -2  -2  11    0.60    8.60
  -2  -2  11    1.00    8.30
  -2  -2  11    4.40    8.70
  -2  -2  11   29.90   22.50
   1   2 -11  101.99   15.10
   1   2 -11  103.49   19.70
   1   2 -11   95.99   31.70
   1   2 -11   93.39   41.60
  -1  -2  11   57.59   14.20
  -1  -2  11   84.29   35.80
  -1  -2  11   75.39   14.20
  -1  -2  11  109.39   17.50
   0   2 -11   47.70   15.40
   0   2 -11   77.69   27.60
   0   2 -11   74.49   15.20
   0   2 -11   86.99   13.80
   0  -2  11   84.49   16.80
   0  -2  11   63.89   14.00
   0  -2  11   62.29   14.30
   0  -2  11   67.99   34.90
  -1   2 -11   13.60   18.70
  -1   2 -11   15.40   13.90
  -1   2 -11   20.90   21.40
  -1   2 -11   -4.50   10.60
  -1   2 -11    3.50    8.60
   1  -2  11    9.30   10.60
   1  -2  11    2.60    9.80
   1  -2  11   -4.60    9.60
  -2   2 -11   -0.90    8.90
  -2   2 -11   -3.20   12.10
  -2   2 -11   -0.70   11.20
  -2   2 -11   -2.80   16.90
  -2   2 -11   21.30   29.50
   2  -2  11    1.10   17.60
   2  -2  11   -1.80   10.80
   2  -2  11   11.80   13.20
  -3   2 -11   -8.10   18.30
  -3   2 -11   19.80   26.90
  -3   2 -11  -18.60   12.10
  -3   2 -11   -4.40   12.00
  -3   2 -11   -1.10   10.60
   3  -2  11    2.80   11.30
   3  -2  11    5.20   13.60
  -4   2 -11   -0.50   15.20
  -4   2 -11  -13.80   13.90
  -4   2 -11    9.10   12.50
  -5   2 -11   -1.70   19.90
  -5   2 -11   16.50   26.50
  -5   2 -11  -13.40   12.50
  -6   2 -11   39.00   22.10
  -6   2 -11   19.50   17.30
  -6   2 -11   22.10   20.90
 -10  -1  11    2.40   15.90
 -10  -1  11   28.10   16.20
   9   1 -11  218.18   26.00
  -9  -1  11  180.18   27.30
  -9  -1  11  177.18   27.30
   8   1 -11  310.67   29.30
  -8  -1  11  298.27   30.00
  -8  -1  11  257.07   29.40
  -8  -1  11  262.67   30.50
   7   1 -11  272.67   25.40
  -7  -1  11  232.18   26.60
  -7  -1  11  255.37   27.50
  -7  -1  11  203.68   25.80
   6   1 -11  106.39   16.70
   6   1 -11   62.19   33.90
  -6  -1  11  117.69   37.90
  -6  -1  11   85.59   17.40
  -6  -1  11   90.19   18.60
  -6  -1  11   57.29   14.30
   5   1 -11   29.50   12.60
   5   1 -11   73.29   33.30
   5   1 -11   50.49   11.70
   5   1 -11   14.10   23.50
  -5  -1  11   29.10   11.20
  -5  -1  11   15.90   10.90
  -5  -1  11    3.80   20.10
  -5  -1  11   33.90   12.70
   4   1 -11  277.47   28.30
   4   1 -11  381.46   67.49
   4   1 -11  338.57   52.79
   4   1 -11  293.07   66.59
   4   1 -11  384.86   22.80
  -4  -1  11  359.16   33.70
  -4  -1  11  426.36   27.80
  -4  -1  11  397.46   24.70
   3   1 -11  473.85   32.50
   3   1 -11  555.74   66.59
   3   1 -11  481.15   74.49
   3   1 -11  392.76   76.99
   3   1 -11  542.65   25.90
  -3  -1  11  549.74   30.10
  -3  -1  11  527.75   30.10
  -3  -1  11  498.35   26.30
   2   1 -11  119.99   15.00
   2   1 -11  105.29   37.00
   2   1 -11   58.39    9.40
   2   1 -11   81.29   16.80
   2   1 -11  110.59   31.60
   2   1 -11  117.79   15.60
  -2  -1  11  117.29   17.90
  -2  -1  11  111.29   17.40
  -2  -1  11  111.09   34.80
  -2  -1  11  108.69   15.10
   1   1 -11    2.90   19.90
   1   1 -11   20.80   10.40
   1   1 -11   19.70   20.00
   1   1 -11    0.30   10.20
   1   1 -11    1.50    7.40
  -1  -1  11   35.40   23.50
  -1  -1  11   28.10   12.30
  -1  -1  11    3.90    8.70
   0   1 -11  191.48   19.90
   0   1 -11  206.18   21.50
   0   1 -11  141.59   20.90
   0   1 -11  159.38   37.10
   0   1 -11  131.19   39.80
   0  -1  11  236.48   19.40
   0  -1  11  187.98   49.99
   0  -1  11  205.68   22.40
  -1   1 -11  709.73   40.10
  -1   1 -11  630.64   32.70
  -1   1 -11  558.44   70.59
  -1   1 -11  635.34   34.70
  -1   1 -11  707.13   94.49
   1  -1  11  599.34   34.30
   1  -1  11  595.54   86.29
  -2   1 -11  167.18   24.00
  -2   1 -11  192.18   44.70
  -2   1 -11  107.29   44.50
  -2   1 -11  150.18   22.10
  -2   1 -11  205.08   23.10
   2  -1  11  139.19   50.09
   2  -1  11  147.09   21.20
  -3   1 -11   51.19   18.90
  -3   1 -11   26.60   15.30
  -3   1 -11   41.90   14.30
  -3   1 -11   20.00   22.10
  -3   1 -11   11.40   25.70
  -4   1 -11  -13.60   13.80
  -4   1 -11    5.90   12.40
  -4   1 -11  -15.50   13.50
  -4   1 -11   -3.00   11.80
  -5   1 -11   23.50   18.90
  -5   1 -11    2.20   17.00
  -5   1 -11   23.60   15.80
  -5   1 -11   28.10   17.30
  -6   1 -11   12.50   17.70
  -6   1 -11   38.40   19.10
  -6   1 -11   21.30   21.00
  -6   1 -11   22.20   20.50
 -10   0  11   30.20   17.50
 -10   0  11   41.10   18.70
   9   0 -11   39.90   14.80
  -9   0  11   18.50   15.40
  -9   0  11   25.90   19.40
   8   0 -11  484.25   30.30
  -8   0  11  471.85   32.20
  -8   0  11  480.25   32.60
  -8   0  11  503.05   36.10
  -8   0  11  290.97   64.39
   7   0 -11  548.15   29.90
   7   0 -11  414.16   34.50
  -7   0  11  525.35   35.70
  -7   0  11  411.86   70.39
  -7   0  11  482.65   31.40
  -7   0  11  521.45   30.90
   6   0 -11  612.44  119.29
   6   0 -11  757.32  100.99
   6   0 -11  730.03   32.60
   6   0 -11  677.93   40.10
  -6   0  11  661.53   32.40
  -6   0  11  647.44   36.60
  -6   0  11  687.23   83.59
  -6   0  11  753.52   36.80
   5   0 -11   55.49   11.50
   5   0 -11   45.00   28.80
   5   0 -11   39.70   14.40
  -5   0  11   57.69   14.70
  -5   0  11   46.70   23.50
  -5   0  11   68.39   13.70
   4   0 -11   76.59   25.10
   4   0 -11  107.19   37.50
   4   0 -11   48.40   14.50
   4   0 -11   84.89   14.30
   4   0 -11   86.09   40.30
  -4   0  11   68.29   14.80
  -4   0  11   34.80   12.60
   3   0 -11  148.79   42.90
   3   0 -11  134.59   48.80
   3   0 -11  134.79   20.30
   3   0 -11  152.18   19.00
   3   0 -11  151.28   33.10
  -3   0  11  146.79   20.00
  -3   0  11  145.89   19.20
  -3   0  11  172.98   20.50
  -3   0  11  139.59   15.70
   2   0 -11  457.95   90.39
   2   0 -11  430.66   73.09
   2   0 -11  465.05   58.59
   2   0 -11  498.65   32.30
   2   0 -11  506.75   26.20
   2   0 -11  485.05   25.30
  -2   0  11  512.05   29.90
  -2   0  11  410.16   32.20
   1   0 -11  128.29   32.60
   1   0 -11  225.18   21.80
   1   0 -11  227.68   25.20
   1   0 -11  181.38   48.20
   1   0 -11  220.78   20.70
  -1   0  11  220.48   22.20
  -1   0  11  187.48   21.50
  -1   0  11  202.58   52.59
   0   0 -11   58.09   25.70
   0   0 -11   17.20   22.80
   0   0 -11   10.10   10.70
   0   0 -11    3.50    8.80
   0   0 -11   -0.30    9.80
   0   0  11    2.50   10.10
   0   0  11    0.20   12.40
   0   0  11    1.00    8.80
  -1   0 -11  277.97   28.00
  -1   0 -11  338.97   30.20
  -1   0 -11  349.37   76.19
  -1   0 -11  348.97   25.30
  -1   0 -11  331.77   54.59
   1   0  11  320.87   23.20
   1   0  11  138.19   44.50
  -2   0 -11  453.05   67.09
  -2   0 -11  552.94   36.70
  -2   0 -11  513.65   34.90
  -2   0 -11  408.06   91.79
  -2   0 -11  552.54   32.60
   2   0  11  535.65   29.10
   2   0  11  476.85   75.99
  -3   0 -11  231.78   51.59
  -3   0 -11  175.48   61.59
  -3   0 -11  359.76   30.10
  -3   0 -11  303.27   32.70
  -3   0 -11  373.36   35.40
  -4   0 -11  171.78   25.90
  -4   0 -11  236.78   28.60
  -4   0 -11  158.78   27.50
  -5   0 -11   86.29   22.30
  -5   0 -11   68.09   20.80
  -5   0 -11   59.19   19.50
  -6   0 -11   78.59   26.70
  -6   0 -11  130.69   26.10
  -6   0 -11   66.79   21.60
 -10   1  11   16.10   16.10
   9  -1 -11   12.30   15.20
  -9   1  11   -6.70   11.40
  -9   1  11    2.80   14.70
   8  -1 -11   10.30   10.10
   8  -1 -11   11.50   15.00
  -8   1  11   31.10   14.60
  -8   1  11    3.20   21.50
  -8   1  11   -0.40   10.60
   7  -1 -11    7.20   13.00
   7  -1 -11    9.00    8.90
  -7   1  11  -10.20    9.50
  -7   1  11    0.10   17.40
   6  -1 -11    9.10   16.30
   6  -1 -11   15.30    8.60
   6  -1 -11   22.30    9.80
   6  -1 -11   14.30   23.40
   6  -1 -11    4.60   10.80
  -6   1  11    7.00   16.00
  -6   1  11   14.60   12.00
  -6   1  11   14.90   11.60
   5  -1 -11   70.09   30.00
   5  -1 -11   67.39   25.30
   5  -1 -11  112.39   41.50
   5  -1 -11   70.19   11.90
   5  -1 -11   63.19   12.80
   5  -1 -11   14.60   25.60
  -5   1  11   77.19   15.60
  -5   1  11   75.79   15.40
   4  -1 -11    7.60    7.50
   4  -1 -11   -4.80   13.50
   4  -1 -11   13.70   14.80
   4  -1 -11    7.10    7.40
   4  -1 -11   17.90   26.20
   4  -1 -11   16.30   11.20
  -4   1  11   -4.70    8.00
  -4   1  11    3.30    7.30
  -4   1  11   15.00    9.90
   3  -1 -11   13.10    8.40
   3  -1 -11   21.40   24.50
   3  -1 -11   14.00    9.20
   3  -1 -11   19.90   11.40
   3  -1 -11    5.10   16.60
   3  -1 -11    7.00   12.90
  -3   1  11   14.60    9.50
  -3   1  11   22.10   11.50
  -3   1  11    3.70    7.30
   2  -1 -11  506.05   27.20
   2  -1 -11  468.25   59.59
   2  -1 -11  429.56   72.49
   2  -1 -11  479.15   90.49
   2  -1 -11  486.75   31.90
   2  -1 -11  463.55   26.00
  -2   1  11  492.25   26.80
  -2   1  11  491.15   36.70
  -2   1  11  435.56   28.00
   1  -1 -11  808.62   34.60
   1  -1 -11  865.31   40.20
   1  -1 -11  888.91   36.80
   1  -1 -11  763.02  118.79
   1  -1 -11  974.40   91.09
   1  -1 -11  871.81   69.59
  -1   1  11  778.52   34.70
  -1   1  11  789.62   34.20
   0  -1 -11  114.49   34.00
   0  -1 -11   95.29   18.20
   0  -1 -11  133.49   20.90
   0  -1 -11  175.78   53.49
   0  -1 -11  110.69   16.90
   0   1  11  110.99   13.20
   0   1  11   89.89   15.30
  -1  -1 -11    1.90   15.70
  -1  -1 -11   11.30   11.70
  -1  -1 -11   35.10   12.90
  -1  -1 -11   47.30   36.00
  -1  -1 -11   15.80   12.70
   1   1  11   26.10   38.00
   1   1  11    1.50    8.90
   1   1  11    6.60    7.80
  -2  -1 -11  138.89   39.40
  -2  -1 -11  168.98   54.69
  -2  -1 -11  225.58   25.60
  -2  -1 -11  154.58   24.50
  -2  -1 -11  165.58   24.00
   2   1  11  186.78   53.69
   2   1  11  142.89   21.40
  -3  -1 -11  407.46   32.30
  -3  -1 -11  383.76   31.50
  -3  -1 -11  304.17   61.79
  -3  -1 -11  339.17   34.10
  -4  -1 -11   53.79   20.30
  -4  -1 -11   70.29   19.40
  -4  -1 -11   56.39   18.30
  -5  -1 -11   -3.90   15.70
  -5  -1 -11   20.50   17.20
  -5  -1 -11    4.70   15.20
  -6  -1 -11   95.79   30.50
  -6  -1 -11   66.39   36.70
  -6  -1 -11   55.29   21.80
   6   1  11   88.99   23.50
  10  -2 -11  119.59   21.40
 -10   2  11   70.99   22.20
   9  -2 -11   -4.20   14.30
  -9   2  11   -3.20   13.00
   8  -2 -11   -5.10    7.60
   8  -2 -11   15.20   14.40
   8  -2 -11   12.10   11.30
  -8   2  11   -2.10   19.10
   7  -2 -11  245.68   24.70
   7  -2 -11  257.47   30.50
   7  -2 -11  131.19   49.99
   7  -2 -11  232.98   20.60
  -7   2  11  212.28   48.90
   6  -2 -11  333.47   33.10
   6  -2 -11  250.27   64.89
   6  -2 -11  349.47   24.20
   6  -2 -11  335.77   21.50
   6  -2 -11  378.36   71.69
  -6   2  11  386.66   27.90
  -6   2  11  335.17   31.70
   5  -2 -11   30.20   10.90
   5  -2 -11   20.70   12.20
   5  -2 -11    7.90    8.30
   5  -2 -11    2.20   13.80
   5  -2 -11   32.80   28.80
   5  -2 -11   21.60   21.50
  -5   2  11    8.70   10.10
  -5   2  11   11.50   10.70
   4  -2 -11   14.70   22.20
   4  -2 -11   26.80   16.90
   4  -2 -11   34.10   10.50
   4  -2 -11   21.00   10.90
   4  -2 -11   21.90    9.70
   4  -2 -11   -2.90   13.80
  -4   2  11   27.90   11.40
  -4   2  11   20.30    8.90
  -4   2  11   26.00   12.20
   3  -2 -11   -3.10    6.30
   3  -2 -11   -2.00   12.40
   3  -2 -11   35.60   31.40
   3  -2 -11    5.30    8.60
   3  -2 -11   12.60   22.70
   3  -2 -11   10.30   10.20
  -3   2  11    0.30    6.60
  -3   2  11   -4.90    7.40
   2  -2 -11    2.40   14.50
   2  -2 -11   -0.80    9.20
   2  -2 -11  -14.30   11.00
   2  -2 -11    0.70    8.70
   2  -2 -11   10.10   25.70
   2  -2 -11   -3.90    7.20
  -2   2  11    6.20    8.70
   1  -2 -11   55.59   37.40
   1  -2 -11   68.99   15.00
   1  -2 -11   35.40   24.50
   1  -2 -11   61.99   14.50
   1  -2 -11   89.19   15.70
   1  -2 -11   78.39   36.30
  -1   2  11   70.99   14.30
  -1   2  11   50.19   12.70
  -1   2  11   64.19   11.60
   0  -2 -11   -1.10    9.70
   0  -2 -11   -7.70   15.60
   0  -2 -11   -1.60   10.40
   0  -2 -11   -9.40   12.20
   0  -2 -11   -6.00    7.90
   0  -2 -11   23.60   30.80
   0   2  11    7.70    7.50
   0   2  11    5.00    9.10
   0   2  11    2.30    9.30
  -1  -2 -11   -7.90   25.90
  -1  -2 -11   -1.80    9.10
  -1  -2 -11   23.10   13.90
  -1  -2 -11   -2.50   15.10
  -1  -2 -11   -2.20    9.90
  -1  -2 -11   28.00   27.50
   1   2  11    6.60    9.70
   1   2  11    3.30    8.00
   1   2  11   -4.10    9.60
  -2  -2 -11   10.00   13.20
  -2  -2 -11   19.80   15.00
  -2  -2 -11    9.30   30.80
  -2  -2 -11   13.90   36.80
  -2  -2 -11    4.80   11.00
   2   2  11   -8.20    8.00
   2   2  11    4.60   10.70
  -3  -2 -11  -22.60   12.10
  -3  -2 -11  -18.00   10.30
  -3  -2 -11    2.10   11.40
   3   2  11    0.60   11.80
   3   2  11    6.00   10.50
  -4  -2 -11   11.90   18.60
  -4  -2 -11    9.70   14.40
   4   2  11   76.09   20.80
  -5  -2 -11    1.10   18.80
  -5  -2 -11    6.50   15.50
  -5  -2 -11    5.50   15.00
   5   2  11   -1.90   15.10
  10  -3 -11  288.87   38.50
  10  -3 -11  376.26   35.70
 -10   3  11  311.37   38.40
   9  -3 -11  338.27   25.10
   9  -3 -11  329.57   38.60
  -9   3  11  325.87   35.70
   8  -3 -11  166.08   21.00
   8  -3 -11  166.08   27.10
   8  -3 -11  158.88   21.50
  -8   3  11  156.18   25.60
   7  -3 -11   46.40   12.60
   7  -3 -11   45.30   13.20
   6  -3 -11  380.56   76.79
   6  -3 -11  349.27   68.39
   6  -3 -11  538.35   35.50
   6  -3 -11  500.25   28.30
   6  -3 -11  531.05   27.70
  -6   3  11  518.75   30.90
  -6   3  11  488.05   68.59
   5  -3 -11  854.91   62.39
   5  -3 -11  824.22  117.69
   5  -3 -11  732.33  154.38
   5  -3 -11  933.01   37.50
   5  -3 -11  821.32   33.60
   5  -3 -11  901.51   42.70
  -5   3  11  971.30   41.30
   4  -3 -11  625.44   54.59
   4  -3 -11  654.53   35.70
   4  -3 -11  633.34   30.70
   4  -3 -11  704.53   31.20
   4  -3 -11  634.14   87.59
   4  -3 -11  659.13  108.99
  -4   3  11  693.43   34.10
  -4   3  11  623.84   30.50
   3  -3 -11   31.20   10.60
   3  -3 -11   39.30   12.80
   3  -3 -11   21.10   18.50
   3  -3 -11   47.60   13.60
   3  -3 -11   65.69   31.80
   3  -3 -11   38.00   34.70
  -3   3  11   36.70   12.00
  -3   3  11   32.90   12.40
   2  -3 -11  343.97   25.40
   2  -3 -11  302.07   48.20
   2  -3 -11  323.27   65.79
   2  -3 -11  348.07   26.10
   2  -3 -11  354.36   83.79
   2  -3 -11  332.47   23.60
  -2   3  11  337.57   25.20
  -2   3  11  387.86   25.30
   1  -3 -11  561.64   89.99
   1  -3 -11  445.36   90.79
   1  -3 -11  590.94   31.80
   1  -3 -11  601.24   33.10
   1  -3 -11  610.14   32.20
  -1   3  11  578.44   33.60
  -1   3  11  585.44   33.00
  -1   3  11  620.04   28.30
   0  -3 -11  439.26   30.60
   0  -3 -11  390.06   28.40
   0  -3 -11  344.47   72.69
   0  -3 -11  487.05   29.30
   0  -3 -11  439.16   63.79
   0  -3 -11  344.57  102.79
   0   3  11  376.86   24.10
   0   3  11  359.16   27.80
   0   3  11  389.06   24.00
  -1  -3 -11   47.10   19.20
  -1  -3 -11   43.00   16.30
  -1  -3 -11   48.80   29.50
  -1  -3 -11   24.20   12.50
  -1  -3 -11    9.50   30.40
   1   3  11   13.20   14.40
   1   3  11   26.30   10.40
  -2  -3 -11   15.80   14.00
  -2  -3 -11   22.40   14.10
  -2  -3 -11    6.50   10.80
  -2  -3 -11   18.10   27.50
   2   3  11    5.10   11.60
   2   3  11   31.10   12.50
  -3  -3 -11   33.40   17.70
  -3  -3 -11   44.50   16.70
  -3  -3 -11   62.39   15.70
   3   3  11   49.00   16.70
   3   3  11   57.09   14.90
  -4  -3 -11   69.69   21.00
  -4  -3 -11   46.40   20.20
  -4  -3 -11   75.49   16.80
   4   3  11  112.79   22.80
   4   3  11  119.19   20.60
  -5  -3 -11   62.49   21.70
  -5  -3 -11   72.09   17.50
  -5  -3 -11   60.29   24.40
   5   3  11   63.19   21.30
  10  -4 -11  214.78   34.50
  10  -4 -11  276.57   38.90
  10  -4 -11  226.78   27.20
  10  -4 -11  238.38   27.00
   9  -4 -11  378.06   28.00
   9  -4 -11  410.46   53.19
   9  -4 -11  416.16   46.30
   8  -4 -11  666.03   43.40
   8  -4 -11  585.54   31.90
   8  -4 -11  552.94   32.20
   7  -4 -11   10.20   10.00
   7  -4 -11   -3.20    8.30
   7  -4 -11   20.90   34.00
   7  -4 -11   -1.40   10.60
   6  -4 -11  617.64  128.29
   6  -4 -11  455.65   27.40
   6  -4 -11  465.95   46.60
   6  -4 -11  401.16   88.99
   6  -4 -11  441.86   30.80
   5  -4 -11  729.33   34.00
   5  -4 -11  724.13   37.90
   5  -4 -11  803.42   34.90
   5  -4 -11  709.93   98.39
   5  -4 -11  785.92  116.49
  -5   4  11  786.42   33.30
   4  -4 -11  569.84  123.39
   4  -4 -11  814.92  144.69
   4  -4 -11  688.03   33.00
   4  -4 -11  719.13   33.80
   4  -4 -11  789.62   37.70
   4  -4 -11  621.34   53.29
  -4   4  11  727.53   35.60
   3  -4 -11  748.33   35.70
   3  -4 -11  775.62   36.70
   3  -4 -11  770.72  168.18
   3  -4 -11  677.93  154.88
   3  -4 -11  701.93   34.10
   3  -4 -11  703.33   58.49
  -3   4  11  730.33   35.80
  -3   4  11  689.83   34.20
   2  -4 -11   46.10   13.60
   2  -4 -11    6.90   27.40
   2  -4 -11   42.90   14.60
   2  -4 -11   29.20   21.00
   2  -4 -11   44.60   12.30
   2  -4 -11   54.79   42.30
  -2   4  11   35.30   12.60
  -2   4  11   43.10   10.50
  -2   4  11   43.50   12.80
   1  -4 -11  468.85   98.29
   1  -4 -11  332.87   73.59
   1  -4 -11  459.45   27.30
   1  -4 -11  420.76   28.50
   1  -4 -11  414.26   29.70
   1  -4 -11  274.17   48.30
  -1   4  11  358.66   27.80
  -1   4  11  397.86   25.50
  -1   4  11  368.36   23.40
   0  -4 -11  522.85  102.09
   0  -4 -11  831.42   35.40
   0  -4 -11  962.00   55.69
   0  -4 -11  900.31   76.19
   0  -4 -11  817.12   44.60
   0   4  11  798.42   34.80
   0   4  11  904.31   43.20
   0   4  11  845.92   34.70
  -1  -4 -11  520.75   77.49
  -1  -4 -11  536.45   28.90
  -1  -4 -11  529.95   36.70
  -1  -4 -11  498.95   33.90
   1   4  11  526.15   35.90
   1   4  11  506.25   29.80
  -2  -4 -11   57.49   17.60
  -2  -4 -11   60.59   36.30
  -2  -4 -11   87.39   20.10
  -2  -4 -11   78.49   15.40
   2   4  11   79.19   16.50
   2   4  11   67.99   18.10
  -3  -4 -11   34.70   28.20
  -3  -4 -11   19.60   11.90
  -3  -4 -11   -1.40   27.30
   3   4  11    2.60   12.30
   3   4  11    6.50   19.70
  -4  -4 -11  147.59   26.00
  -4  -4 -11  148.89   28.90
  -4  -4 -11  237.98   32.50
   4   4  11  203.28   29.50
  10  -5 -11   -7.60   11.30
  10  -5 -11    1.10   16.20
  10  -5 -11   20.00   18.80
  10  -5 -11   -0.20   11.10
   9  -5 -11   48.50   20.50
   9  -5 -11   58.59   15.30
   9  -5 -11   24.30   18.30
   9  -5 -11   51.39   16.00
   8  -5 -11   27.40   16.00
   8  -5 -11   64.59   16.20
   8  -5 -11   33.90   13.70
   7  -5 -11   63.79   15.50
   7  -5 -11   24.80   11.10
   7  -5 -11   32.20   15.20
   6  -5 -11    0.30    8.60
   6  -5 -11    2.70   10.10
   6  -5 -11   10.50   10.50
   5  -5 -11  153.88   26.10
   5  -5 -11   92.99   41.80
   5  -5 -11  108.49   17.80
   5  -5 -11  116.89   19.20
  -5   5  11   99.89   16.20
   4  -5 -11  689.13   35.90
   4  -5 -11  647.14   33.70
   4  -5 -11  649.34  127.09
   4  -5 -11  652.33   95.09
   4  -5 -11  673.03   34.00
  -4   5  11  630.44   33.50
   3  -5 -11  257.87   60.79
   3  -5 -11  375.96   27.20
   3  -5 -11  345.27   60.99
   3  -5 -11  422.86   29.00
   3  -5 -11  431.96   98.39
   3  -5 -11  428.46   26.60
  -3   5  11  413.96   29.70
   2  -5 -11    5.00   10.90
   2  -5 -11   19.80    9.80
   2  -5 -11   42.90   38.80
   2  -5 -11   27.30   22.70
   2  -5 -11   -2.20    9.30
   2  -5 -11    9.90   19.50
  -2   5  11   15.10   10.30
  -2   5  11   23.20   12.00
   1  -5 -11   71.09   32.10
   1  -5 -11   24.80   10.00
   1  -5 -11   25.40   13.20
  -1   5  11    9.30   10.80
   0  -5 -11  309.37   54.09
   0  -5 -11  366.16   33.20
   0  -5 -11  306.17   20.60
   0  -5 -11  351.96   29.10
   0   5  11  289.77   29.20
   0   5  11  335.37   25.40
  -1  -5 -11  329.17   33.90
  -1  -5 -11  271.47   30.40
  -1  -5 -11  380.86   68.69
   1   5  11  282.47   30.90
   1   5  11  288.87   27.50
  -2  -5 -11  177.78   27.40
  -2  -5 -11  102.09   22.60
   2   5  11  185.98   26.00
   2   5  11  162.18   22.60
  -3  -5 -11   -8.60   13.40
  -3  -5 -11   -0.10   15.70
   3   5  11   -1.00   13.60
   3   5  11   13.30   18.80
  -4  -5 -11   17.80   18.70
  -4  -5 -11   21.40   21.00
   4   5  11   39.70   19.60
   4   5  11   39.40   17.40
   9  -6 -11  105.69   21.10
   9  -6 -11  110.19   25.10
   9  -6 -11   66.99   24.00
   9  -6 -11   99.49   19.40
   8  -6 -11   83.09   17.90
   8  -6 -11   79.09   23.80
   8  -6 -11   89.59   18.10
   8  -6 -11   74.49   21.00
   7  -6 -11   48.10   15.30
   7  -6 -11    7.00   14.10
   7  -6 -11   36.60   16.00
   7  -6 -11   46.40   14.70
   6  -6 -11    1.50   10.00
   6  -6 -11   24.60   12.20
   6  -6 -11   -3.70   10.00
   5  -6 -11   21.60   12.90
   5  -6 -11   29.30   12.40
   5  -6 -11   32.60   13.20
  -5   6  11   14.20   10.70
   4  -6 -11   14.00   10.30
   4  -6 -11   11.40   12.00
  -4   6  11   31.60   13.30
   3  -6 -11    3.50   18.60
   3  -6 -11    7.00   14.90
   3  -6 -11   25.00   13.10
  -3   6  11    6.60   15.20
   2  -6 -11   16.90    8.70
   2  -6 -11   21.60   13.50
   2  -6 -11   29.10   13.30
  -2   6  11   15.60   12.70
  -2   6  11   31.10   12.30
   1  -6 -11   11.70   12.90
   1  -6 -11   33.70   14.90
  -1   6  11   -0.80    9.50
  -1   6  11    6.10   11.80
   0  -6 -11   15.00   13.90
   0  -6 -11   27.20   14.60
   0  -6 -11   47.50   30.30
   0   6  11    8.70   13.20
   0   6  11   25.40   13.20
  -1  -6 -11    7.20   13.50
  -1  -6 -11   -6.70   24.10
  -1  -6 -11    4.40   13.80
   1   6  11   28.60   15.70
   1   6  11    6.10   11.00
  -2  -6 -11   31.30   16.70
  -2  -6 -11   37.10   20.20
   2   6  11   60.99   17.40
   2   6  11   31.90   17.00
  -3  -6 -11   49.80   21.70
  -3  -6 -11   27.20   18.70
   3   6  11   58.99   20.20
   3   6  11   86.29   20.20
   9  -7 -11   39.40   20.50
   9  -7 -11   30.90   17.90
   9  -7 -11   49.00   22.40
   9  -7 -11   68.69   18.90
   8  -7 -11  380.66   45.10
   8  -7 -11  371.06   33.60
   8  -7 -11  408.16   36.50
   8  -7 -11  377.46   36.90
   7  -7 -11  261.07   28.20
   7  -7 -11  307.17   30.30
   7  -7 -11  336.17   30.40
   7  -7 -11  212.88   33.60
   6  -7 -11  126.79   19.50
   6  -7 -11  131.69   19.90
   6  -7 -11  225.18   27.20
   6  -7 -11  150.68   29.30
  -6   7  11  164.88   21.20
   5  -7 -11    5.50    9.80
   5  -7 -11   12.50   13.20
   5  -7 -11   15.60   11.10
   5  -7 -11   -6.80   12.80
  -5   7  11   27.50   13.00
   4  -7 -11  239.68   19.10
   4  -7 -11  239.48   26.20
   4  -7 -11  229.48   32.40
   4  -7 -11  203.78   25.50
  -4   7  11  234.88   26.10
   3  -7 -11  167.48   24.00
   3  -7 -11  182.68   23.60
   3  -7 -11  168.88   28.00
  -3   7  11  170.18   21.10
  -3   7  11  175.28   24.70
   2  -7 -11  326.67   32.20
   2  -7 -11  292.17   30.40
  -2   7  11  369.76   27.60
  -2   7  11  311.47   33.20
   1  -7 -11    3.60   12.00
   1  -7 -11   12.50   13.40
  -1   7  11   17.70   11.80
  -1   7  11   -4.20   11.50
   0  -7 -11    2.30   13.40
   0  -7 -11   -1.10   21.00
   0   7  11    2.40   12.60
   0   7  11    6.80   17.90
  -1  -7 -11  -11.90   12.30
  -1  -7 -11   -2.80   14.40
   1   7  11   24.20   16.60
   1   7  11   -8.50   10.80
  -2  -7 -11   36.20   20.90
  -2  -7 -11   66.49   22.10
   2   7  11   74.79   22.30
   2   7  11   84.19   20.40
   8  -8 -11   58.69   17.90
   8  -8 -11   42.30   17.00
   8  -8 -11   33.20   20.80
   7  -8 -11  157.58   24.50
   7  -8 -11  134.89   20.60
   7  -8 -11  149.59   30.40
   6  -8 -11  151.78   28.80
   6  -8 -11  182.18   21.90
   6  -8 -11  200.98   24.30
   6  -8 -11  292.27   32.30
  -6   8  11  195.38   24.60
   5  -8 -11   67.79   19.20
   5  -8 -11   53.29   11.60
   5  -8 -11   68.49   17.10
  -5   8  11   76.99   17.60
   4  -8 -11   -1.80   11.20
   4  -8 -11   18.80   16.50
   4  -8 -11    3.00   13.30
  -4   8  11    8.00   12.20
   3  -8 -11  229.48   31.70
   3  -8 -11  219.58   26.30
   3  -8 -11  312.37   37.40
  -3   8  11  247.18   27.90
  -3   8  11  252.57   29.70
   2  -8 -11  425.76   33.30
   2  -8 -11  328.07   33.10
  -2   8  11  353.86   28.10
  -2   8  11  328.27   34.70
   1  -8 -11  373.56   45.60
   1  -8 -11  366.36   37.10
  -1   8  11  350.36   33.90
  -1   8  11  310.77   33.10
   0  -8 -11    1.10   14.80
   0  -8 -11   21.80   17.80
   0   8  11   17.30   13.70
   0   8  11    8.50   15.30
  -1  -8 -11   -2.40   15.70
  -1  -8 -11   29.00   19.80
   1   8  11    5.30   15.20
   1   8  11   23.30   15.70
   7  -9 -11   -9.10   19.30
   7  -9 -11    9.20   10.70
   6  -9 -11   58.09   22.80
   6  -9 -11   35.50   18.20
  -6   9  11   43.10   15.80
   5  -9 -11  143.89   25.40
   5  -9 -11  111.39   27.00
  -5   9  11  139.29   23.00
   4  -9 -11    1.60   14.80
   4  -9 -11    7.70   16.50
   4  -9 -11   21.30   19.90
  -4   9  11    2.40   11.60
   3  -9 -11  -14.90   14.20
   3  -9 -11   -2.40   15.00
  -3   9  11   15.50   12.90
  -3   9  11    2.00   11.70
   2  -9 -11  108.19   22.40
   2  -9 -11  173.78   27.70
  -2   9  11  120.79   23.00
  -2   9  11  121.19   21.40
   1  -9 -11  176.78   27.00
   1  -9 -11  201.68   30.50
  -1   9  11  152.58   24.10
  -1   9  11  173.38   28.00
   3   9 -12  153.68   24.90
   3   9 -12  137.99   27.50
  -3  -9  12  176.58   55.49
  -3  -9  12  110.49   27.50
   2   9 -12   23.80   19.10
   2   9 -12    1.20   14.10
  -2  -9  12   60.59   23.80
  -2  -9  12   34.00   19.50
   1   9 -12    8.50   16.80
   1   9 -12    1.90   13.00
  -1  -9  12   21.70   20.10
  -1  -9  12    8.30   11.80
  -1  -9  12  -10.40   16.70
   0   9 -12   99.79   21.90
   0   9 -12  135.09   27.60
   0  -9  12   97.09   18.10
   0  -9  12  182.98   32.10
   0  -9  12  102.39   26.10
  -1   9 -12  161.38   27.00
  -1   9 -12   89.99   24.10
   1  -9  12   93.79   33.50
   1  -9  12  131.89   38.60
   1  -9  12  109.29   19.70
   5   8 -12   -4.80   12.90
   5   8 -12   16.60   19.10
  -5  -8  12   -2.10   17.40
  -5  -8  12   12.30   24.10
   4   8 -12    2.30   15.40
   4   8 -12    5.90   13.50
  -4  -8  12  -16.00   15.50
  -4  -8  12   12.70   18.60
   3   8 -12    0.90   15.60
   3   8 -12   21.80   15.10
  -3  -8  12   24.30   18.30
  -3  -8  12   -7.70   15.60
   2   8 -12   71.29   20.80
   2   8 -12   25.10   14.70
  -2  -8  12   34.00   19.90
  -2  -8  12   36.30   20.40
  -2  -8  12   52.29   14.00
   1   8 -12  102.59   23.00
   1   8 -12   48.80   16.00
  -1  -8  12   61.99   21.10
  -1  -8  12   56.89   15.60
  -1  -8  12   76.89   23.80
   0   8 -12   17.80   13.60
   0   8 -12   69.39   20.50
   0  -8  12   12.10   13.10
   0  -8  12   40.10   18.50
   0  -8  12   -2.90   15.60
  -1   8 -12    4.30   15.00
  -1   8 -12  -11.00   10.70
   1  -8  12   -7.00   15.60
   1  -8  12   23.60   19.10
   1  -8  12   18.90   14.50
  -2   8 -12   12.70   14.50
  -2   8 -12   22.80   20.20
   2  -8  12   20.10   15.80
   2  -8  12   -2.40   17.10
   2  -8  12   19.60   18.90
   3  -8  12   81.99   25.50
   3  -8  12  113.59   45.30
   6   7 -12  129.69   24.80
   6   7 -12  121.09   24.10
  -6  -7  12  124.69   27.90
  -6  -7  12  131.19   37.10
  -6  -7  12  122.29   15.70
   5   7 -12    6.50   13.60
   5   7 -12  -11.60   13.80
  -5  -7  12   16.80   18.60
  -5  -7  12    4.90   10.50
  -5  -7  12    6.70   18.10
   4   7 -12  107.29   21.90
   4   7 -12  172.88   25.10
  -4  -7  12  104.09   29.90
  -4  -7  12  155.48   27.80
   3   7 -12   84.49   20.00
   3   7 -12  146.19   23.30
  -3  -7  12   81.09   15.80
  -3  -7  12   83.99   23.50
   2   7 -12  163.08   24.00
   2   7 -12  148.69   22.50
  -2  -7  12  209.58   30.40
  -2  -7  12  119.89   24.20
  -2  -7  12  150.88   19.90
   1   7 -12   10.90   11.80
   1   7 -12   24.00   15.90
  -1  -7  12   11.10   15.20
  -1  -7  12    9.60   14.60
  -1  -7  12   14.60   12.20
   0   7 -12    6.90   10.80
   0  -7  12   20.60   16.50
   0  -7  12   17.30   20.10
  -1   7 -12    0.90   13.90
   1  -7  12   -4.70   11.20
   1  -7  12   -7.50   14.60
   1  -7  12   19.70   17.80
  -2   7 -12   45.60   14.90
   2  -7  12   40.30   16.80
   2  -7  12   52.19   19.80
   2  -7  12   84.19   23.90
   3  -7  12   15.90   18.80
   3  -7  12   16.90   15.80
   3  -7  12   -7.60   16.70
   4  -7  12   -3.40   21.10
   4  -7  12   -6.10   21.20
   4  -7  12    0.00   19.90
   7   6 -12  197.28   30.30
  -7  -6  12  170.08   29.60
  -7  -6  12  196.78   21.50
   6   6 -12  299.37   32.20
   6   6 -12  265.67   31.70
  -6  -6  12  256.77   33.00
  -6  -6  12  232.28   30.60
  -6  -6  12  304.57   25.30
   5   6 -12   29.00   20.70
   5   6 -12   88.49   19.00
  -5  -6  12   86.39   22.20
  -5  -6  12   35.00   17.70
   4   6 -12   -0.70   10.20
  -4  -6  12   -9.20   10.40
  -4  -6  12    4.20   14.20
  -4  -6  12   10.10   16.00
   3   6 -12  205.98   24.50
  -3  -6  12  260.87   25.30
  -3  -6  12  221.58   29.40
  -3  -6  12  175.08   26.00
   2   6 -12  454.35   29.90
  -2  -6  12  489.55   30.40
  -2  -6  12  457.95   35.90
  -2  -6  12  373.56   76.39
  -2  -6  12  431.46   34.60
   1   6 -12  422.56   64.89
   1   6 -12  439.06   29.00
  -1  -6  12  427.06   35.20
  -1  -6  12  463.55   30.70
  -1  -6  12  450.45   34.60
   0   6 -12   65.59   31.70
   0   6 -12   49.40   14.40
   0  -6  12   39.80   18.10
   0  -6  12    4.00   13.90
   0  -6  12   57.39   16.00
  -1   6 -12   12.80   10.70
  -1   6 -12   19.20   21.40
   1  -6  12   16.70   15.90
   1  -6  12   32.40   17.10
   1  -6  12   43.00   16.50
   2  -6  12  153.98   26.80
   2  -6  12  229.68   30.00
   2  -6  12  227.98   37.10
   3  -6  12  239.58   30.00
   3  -6  12  206.58   30.20
   3  -6  12  288.87   43.30
   4  -6  12   33.50   19.60
   4  -6  12   21.20   18.70
   8   5 -12   12.50   16.50
  -8  -5  12   23.10   13.80
  -8  -5  12    9.70   17.40
   7   5 -12   81.79   19.70
  -7  -5  12   65.19   20.50
  -7  -5  12   52.89   15.90
  -7  -5  12   29.40   18.40
   6   5 -12  120.19   18.70
   6   5 -12   94.09   18.60
  -6  -5  12   90.49   21.80
  -6  -5  12  112.59   24.30
   5   5 -12  172.58   32.40
  -5  -5  12  161.98   21.40
  -5  -5  12  181.08   25.80
  -5  -5  12  142.59   24.40
   4   5 -12   53.59   14.20
  -4  -5  12   40.80   14.10
  -4  -5  12   71.89   19.40
  -4  -5  12   70.49   44.20
  -4  -5  12   39.10   16.30
   3   5 -12   -0.30    9.20
  -3  -5  12   13.90   13.60
  -3  -5  12   11.80   14.10
  -3  -5  12    6.30   10.60
   2   5 -12  132.09   18.50
   2   5 -12  115.99   42.40
  -2  -5  12  170.28   26.00
  -2  -5  12  122.49   22.70
  -2  -5  12   99.49   17.30
   1   5 -12  370.56   93.59
   1   5 -12  423.46   26.70
  -1  -5  12  497.65   31.80
  -1  -5  12  400.26   33.30
  -1  -5  12  365.86   69.09
  -1  -5  12  502.85   38.60
   0   5 -12  109.09   17.10
   0  -5  12  153.78   22.50
   0  -5  12   89.79   20.70
   0  -5  12  153.58   23.00
  -1   5 -12   39.00   25.60
   1  -5  12   40.10   17.00
   1  -5  12   26.30   15.00
   1  -5  12   12.70   13.90
  -2   5 -12   26.20   24.70
   2  -5  12   66.99   18.80
   2  -5  12   28.70   15.80
   2  -5  12   81.69   21.20
   3  -5  12  181.58   27.80
   3  -5  12  183.98   27.10
   4  -5  12  242.48   32.50
   4  -5  12  347.17   36.30
  -5   5 -12   49.50   25.60
   5  -5  12   44.70   23.20
   8   4 -12   11.00   12.80
  -8  -4  12    9.10   13.00
  -8  -4  12   -7.70   15.30
   7   4 -12   -2.10   10.00
  -7  -4  12    3.90   13.20
  -7  -4  12    6.40   11.70
  -7  -4  12   -1.60   15.20
   6   4 -12    5.70   10.10
  -6  -4  12    4.20   12.50
  -6  -4  12   15.70   14.80
  -6  -4  12   12.30   12.20
   5   4 -12   10.10   24.20
   5   4 -12   26.20   11.60
  -5  -4  12   27.00   15.00
  -5  -4  12    7.00   31.10
  -5  -4  12    9.90   11.90
  -5  -4  12   15.80   13.50
   4   4 -12    1.40    8.70
   4   4 -12   12.80   19.30
   4   4 -12   12.60   10.00
  -4  -4  12   12.60   22.30
  -4  -4  12    1.70    9.30
  -4  -4  12    8.80   13.60
  -4  -4  12   12.40   12.70
   3   4 -12   14.50    9.60
   3   4 -12    0.10   15.80
   3   4 -12   12.30   10.20
   3   4 -12   15.20   18.90
  -3  -4  12   -1.10   18.00
  -3  -4  12    2.80   11.90
  -3  -4  12   23.50   15.60
  -3  -4  12   11.50   17.50
   2   4 -12   59.59   25.40
   2   4 -12   72.29   33.90
   2   4 -12   49.10   12.40
   2   4 -12   60.99   15.70
  -2  -4  12   74.49   16.90
  -2  -4  12   49.99   14.20
  -2  -4  12   61.69   34.20
   1   4 -12   18.90    9.40
   1   4 -12   17.90   20.80
  -1  -4  12   11.30   11.50
  -1  -4  12    4.30   21.50
  -1  -4  12   22.60   12.50
   0   4 -12   23.20   22.50
   0   4 -12   33.20   10.70
   0  -4  12   31.20   19.20
   0  -4  12   25.50   13.40
   0  -4  12   27.60   13.80
   1  -4  12  101.59   21.30
   1  -4  12   82.49   20.10
   1  -4  12   98.79   20.20
  -2   4 -12   -7.90   17.10
  -2   4 -12   -6.10   14.80
   2  -4  12    9.70   14.70
   2  -4  12   24.90   15.80
   2  -4  12  -11.10   13.00
  -3   4 -12  158.18   30.10
   3  -4  12  135.09   24.10
   3  -4  12  121.59   23.70
  -4   4 -12   51.19   24.20
  -4   4 -12   65.09   21.90
   4  -4  12   71.99   22.80
  -5   4 -12   45.60   25.50
  -5   4 -12   89.29   24.80
   5  -4  12   57.09   23.50
  -9  -3  12  315.57   38.80
  -9  -3  12  283.87   31.50
   8   3 -12  176.48   24.10
  -8  -3  12  207.28   27.50
  -8  -3  12  183.28   26.10
  -8  -3  12  188.68   31.70
   7   3 -12   84.49   17.50
  -7  -3  12   59.09   18.60
  -7  -3  12   30.10   15.10
  -7  -3  12   81.29   18.70
   6   3 -12   62.69   14.20
  -6  -3  12   69.29   17.50
  -6  -3  12   53.39   17.20
   5   3 -12  389.26   71.79
   5   3 -12  450.75   26.30
  -5  -3  12  466.85   33.30
  -5  -3  12  464.65   31.00
  -5  -3  12  439.96   76.79
  -5  -3  12  550.94   55.59
   4   3 -12  661.03   29.90
   4   3 -12  512.15   74.79
  -4  -3  12  703.43   36.30
  -4  -3  12  615.54   36.00
  -4  -3  12  608.34   35.40
   3   3 -12  177.28   18.30
   3   3 -12  189.28   42.60
   3   3 -12  195.78   18.90
   3   3 -12  184.78   45.10
  -3  -3  12  190.98   24.10
  -3  -3  12  220.28   24.70
  -3  -3  12  185.88   22.00
  -3  -3  12  143.59   44.50
   2   3 -12   -6.70   12.60
   2   3 -12   -0.50    8.80
   2   3 -12   24.20   22.70
   2   3 -12    4.80    7.90
  -2  -3  12   12.40   11.80
  -2  -3  12   19.60   24.90
  -2  -3  12   -4.10    9.00
  -2  -3  12    4.30   10.40
   1   3 -12   94.39   16.70
   1   3 -12   66.29   24.70
   1   3 -12   63.49   12.20
   1   3 -12   40.20   25.70
   1   3 -12   73.19   19.30
  -1  -3  12   85.49   17.10
  -1  -3  12   76.19   17.40
  -1  -3  12  105.89   17.90
   0   3 -12  310.17   60.69
   0   3 -12  214.28   28.80
   0   3 -12  317.47   53.59
   0  -3  12  241.08   26.30
   0  -3  12  218.98   23.70
   0  -3  12  197.88   54.99
   0  -3  12  235.18   26.90
  -1   3 -12  223.18   22.10
  -1   3 -12  204.58   47.40
  -1   3 -12  131.09   25.10
   1  -3  12  171.28   22.30
   1  -3  12  148.79   22.80
   1  -3  12  170.08   23.70
  -2   3 -12  -11.10   12.20
  -2   3 -12  -11.40   13.20
  -2   3 -12    4.90   18.70
   2  -3  12   10.70   13.70
   2  -3  12   -7.80   12.30
  -3   3 -12    7.00   15.40
  -3   3 -12   11.70   18.60
   3  -3  12  -13.40   14.10
   3  -3  12   10.10   15.80
  -4   3 -12   11.00   18.10
  -4   3 -12   -5.00   16.60
   4  -3  12  -13.90   15.80
  -5   3 -12    2.30   18.90
  -5   3 -12    6.10   18.30
  -9  -2  12  592.94   43.90
  -9  -2  12  529.25   38.90
  -8  -2  12  605.84   40.50
  -8  -2  12  607.14   39.10
  -8  -2  12  537.75   36.40
   7   2 -12  277.27   26.90
  -7  -2  12  243.68   28.40
  -7  -2  12  299.07   30.80
  -7  -2  12  242.48   28.10
   6   2 -12   -1.80    8.70
  -6  -2  12    2.90   12.10
  -6  -2  12   -1.40   19.20
  -6  -2  12    8.60   12.50
  -6  -2  12    2.60   10.60
   5   2 -12  789.02   98.89
   5   2 -12  806.82   34.10
  -5  -2  12  817.32   39.20
  -5  -2  12  819.22   40.40
  -5  -2  12  776.52   98.09
  -5  -2  12  856.41   41.00
   4   2 -12  790.02   32.60
   4   2 -12  789.32   92.79
   4   2 -12  680.53  105.69
   4   2 -12  782.22   68.39
  -4  -2  12  802.12   39.40
  -4  -2  12  769.92   36.40
  -4  -2  12  855.51   40.60
   3   2 -12  806.32   33.10
   3   2 -12  791.32   43.70
   3   2 -12  874.01   71.29
   3   2 -12  924.51  103.69
  -3  -2  12  812.82   97.89
  -3  -2  12  902.11   40.80
  -3  -2  12  896.71   41.00
  -3  -2  12  895.11   37.70
   2   2 -12  204.68   16.20
   2   2 -12  132.99   42.40
   2   2 -12  282.57   49.90
   2   2 -12  177.18   24.50
   2   2 -12  238.98   21.60
  -2  -2  12  158.88   21.40
  -2  -2  12  196.98   23.40
  -2  -2  12  144.89   18.70
  -2  -2  12  209.38   51.99
   1   2 -12   91.39   20.40
   1   2 -12   75.49   27.70
   1   2 -12  154.18   44.10
   1   2 -12  171.58   19.60
  -1  -2  12  142.79   20.60
  -1  -2  12  165.38   21.90
  -1  -2  12  151.18   47.50
  -1  -2  12  134.99   18.70
   0   2 -12 1014.20   80.29
   0   2 -12  949.21   39.30
   0   2 -12 1085.69   92.99
   0   2 -12  948.31   36.20
   0  -2  12  627.04   92.09
   0  -2  12  923.71   43.10
   0  -2  12  969.30   42.80
  -1   2 -12  515.15   38.20
  -1   2 -12  558.34   30.00
  -1   2 -12  615.64   92.59
  -1   2 -12  640.64   79.59
  -1   2 -12  537.15   33.20
   1  -2  12  594.14   36.20
   1  -2  12  552.64   31.90
   1  -2  12  621.54   35.40
  -2   2 -12  177.28   57.89
  -2   2 -12  211.18   33.10
  -2   2 -12  177.78   21.90
  -2   2 -12  179.88   24.90
  -2   2 -12  150.38   45.20
   2  -2  12  167.88   22.30
   2  -2  12  128.29   22.40
  -3   2 -12   70.39   20.90
  -3   2 -12   57.19   16.30
  -3   2 -12   25.50   17.80
   3  -2  12   88.89   25.90
  -4   2 -12   59.79   21.60
  -4   2 -12   49.80   22.50
  -5   2 -12   76.79   24.10
  -5   2 -12   90.79   26.00
   9   1 -12    9.40   12.40
  -9  -1  12   14.30   16.00
  -9  -1  12    0.30   18.30
  -9  -1  12  -15.70   12.80
   8   1 -12   95.69   19.10
  -8  -1  12   55.19   18.50
  -8  -1  12   48.70   16.10
  -8  -1  12   75.89   19.60
   7   1 -12   64.89   15.30
  -7  -1  12   59.29   33.90
  -7  -1  12   79.89   18.60
  -7  -1  12   45.00   16.00
   6   1 -12   80.59   15.30
  -6  -1  12   77.39   21.50
  -6  -1  12   37.50   13.80
  -6  -1  12   47.60   36.90
   5   1 -12   21.90   14.20
   5   1 -12   33.90   11.60
   5   1 -12    9.00   18.60
   5   1 -12   44.60   35.50
  -5  -1  12   53.99   15.30
  -5  -1  12   26.20   13.00
   4   1 -12  456.55   76.19
   4   1 -12  621.34   39.10
   4   1 -12  555.14   28.30
   4   1 -12  502.35   94.89
   4   1 -12  577.54   68.49
  -4  -1  12  558.94   30.00
  -4  -1  12  606.14   34.60
  -4  -1  12  514.45   32.20
   3   1 -12  701.43  106.69
   3   1 -12  846.42  100.69
   3   1 -12  926.51   35.50
   3   1 -12  868.31   70.49
   3   1 -12  972.10   47.10
  -3  -1  12  853.91   39.90
  -3  -1  12  878.21   35.20
  -3  -1  12  944.81   41.40
   2   1 -12  503.85   27.30
   2   1 -12  589.54   69.59
   2   1 -12  453.35   37.20
   2   1 -12  433.76   70.49
  -2  -1  12  423.66   72.69
  -2  -1  12  582.74   28.80
  -2  -1  12  507.15   32.70
  -2  -1  12  510.75   31.10
   1   1 -12   13.20   11.10
   1   1 -12   33.20   22.70
   1   1 -12    1.60   11.90
   1   1 -12   17.10   10.10
   1   1 -12   29.60   23.40
  -1  -1  12   12.10   11.20
  -1  -1  12   23.70   22.80
  -1  -1  12   29.40   11.70
  -1  -1  12   -2.70    9.60
   0   1 -12  210.88   23.30
   0   1 -12  206.58   48.20
   0   1 -12  263.47   62.19
   0   1 -12  162.78   25.00
   0   1 -12  208.78   22.40
   0  -1  12  178.98   47.50
   0  -1  12  175.88   21.80
   0  -1  12  233.08   21.60
   0  -1  12  234.48   25.70
  -1   1 -12  576.44   31.30
  -1   1 -12  543.85   74.89
  -1   1 -12  489.65   32.90
  -1   1 -12  564.24   38.60
  -1   1 -12  530.45   87.79
   1  -1  12  490.55   30.80
   1  -1  12  499.55   31.10
  -2   1 -12  271.37   67.69
  -2   1 -12  377.86   36.60
  -2   1 -12  434.86   33.60
  -2   1 -12  455.85   30.10
  -2   1 -12  388.26   67.39
   2  -1  12  389.86   28.40
  -3   1 -12  145.59   22.00
  -3   1 -12   99.19   23.30
  -3   1 -12   80.19   20.80
  -4   1 -12  -27.50   14.30
  -4   1 -12   -8.30   18.30
  -4   1 -12    2.30   14.30
  -5   1 -12   84.69   22.20
  -5   1 -12   78.99   23.90
  -5   1 -12   82.99   24.50
 -10   0  12   43.80   18.70
 -10   0  12   25.20   18.70
   9   0 -12    9.80   12.00
  -9   0  12    9.30   14.90
  -9   0  12   -2.20   14.30
  -9   0  12    1.90   13.20
   8   0 -12   67.09   16.10
  -8   0  12   47.90   16.20
  -8   0  12   39.60   16.20
  -8   0  12   35.80   18.70
   7   0 -12   17.70   11.00
   7   0 -12    8.20   14.00
  -7   0  12    9.30   11.70
  -7   0  12   -2.20   19.20
  -7   0  12    4.10   13.40
   6   0 -12   94.39   17.00
   6   0 -12   68.59   19.20
  -6   0  12   58.69   28.40
  -6   0  12   72.39   17.70
   5   0 -12    6.80   26.90
   5   0 -12   12.50   16.90
   5   0 -12    8.20   11.90
   5   0 -12   26.60   10.40
   5   0 -12    0.70   15.10
  -5   0  12   11.80   11.10
  -5   0  12   21.60   12.00
   4   0 -12    5.30    8.50
   4   0 -12   38.20   29.70
   4   0 -12    8.90   27.00
   4   0 -12   19.30   12.00
   4   0 -12   -0.30   13.50
  -4   0  12   21.00   11.50
  -4   0  12   40.00   22.80
   3   0 -12   61.79   24.30
   3   0 -12    9.20   17.10
   3   0 -12    8.20   11.60
   3   0 -12   10.90    9.40
   3   0 -12   24.70   33.30
   3   0 -12   11.60    8.80
  -3   0  12    9.80   10.40
  -3   0  12   15.40   11.20
  -3   0  12   13.70    9.10
   2   0 -12   57.89   30.10
   2   0 -12    7.00   26.70
   2   0 -12    6.30   11.90
   2   0 -12   14.70   10.20
   2   0 -12   23.20   11.10
   2   0 -12   50.59   25.40
  -2   0  12   22.30   11.00
  -2   0  12   -6.20    8.60
   1   0 -12   41.30   13.20
   1   0 -12   26.50   10.60
   1   0 -12   64.19   27.00
   1   0 -12   94.79   42.60
   1   0 -12    6.80   11.40
  -1   0  12   57.19   15.20
  -1   0  12   31.90   13.00
  -1   0  12   24.80   24.70
   0   0 -12    1.80   10.30
   0   0 -12   -2.60   13.80
   0   0 -12   28.70   12.30
   0   0 -12   -8.30   11.20
   0   0 -12   15.80   21.10
   0   0  12    2.10    9.20
   0   0  12   -0.50   15.60
  -1   0 -12    7.00   18.30
  -1   0 -12   39.80   14.20
  -1   0 -12   28.90   14.90
  -1   0 -12   29.60   28.00
  -1   0 -12   33.70   16.00
   1   0  12   45.20   13.90
  -2   0 -12   54.79   29.40
  -2   0 -12   55.19   17.90
  -2   0 -12   57.39   31.50
  -3   0 -12  175.68   24.80
  -3   0 -12  160.08   25.70
  -3   0 -12  127.59   23.60
  -4   0 -12    3.20   15.80
  -4   0 -12    6.10   18.90
  -4   0 -12   -3.00   14.00
  -5   0 -12   -1.80   15.10
  -5   0 -12   -2.70   16.10
  -5   0 -12   16.80   18.90
  10  -1 -12  152.88   24.70
 -10   1  12  135.39   27.80
   9  -1 -12   15.70   12.90
  -9   1  12   11.60   23.10
   8  -1 -12   26.70   12.50
   8  -1 -12   52.99   20.00
  -8   1  12   18.60   26.30
  -8   1  12   21.40   15.00
  -8   1  12   39.70   16.80
   7  -1 -12  194.58   23.00
   7  -1 -12  218.98   30.70
  -7   1  12  240.78   27.20
  -7   1  12  261.97   31.60
  -7   1  12   79.69   38.00
   6  -1 -12   47.40   38.30
   6  -1 -12   37.70   16.70
   6  -1 -12   36.40   12.20
  -6   1  12   39.90   24.10
  -6   1  12   37.80   28.10
  -6   1  12   49.99   15.90
   5  -1 -12   10.30    8.80
   5  -1 -12    3.30   15.10
   5  -1 -12    9.50   19.30
   5  -1 -12   -5.30    7.10
   5  -1 -12   -1.60   10.90
   5  -1 -12    6.10   25.00
  -5   1  12   -0.80   10.30
  -5   1  12   10.30   10.90
   4  -1 -12  156.28   18.80
   4  -1 -12  152.38   23.90
   4  -1 -12  183.08   18.60
   4  -1 -12  100.19   28.90
   4  -1 -12  186.18   62.49
  -4   1  12  145.39   21.10
  -4   1  12  225.48   24.80
   3  -1 -12  356.06   23.80
   3  -1 -12  272.17   60.39
   3  -1 -12  435.06   26.30
   3  -1 -12  394.16   30.50
   3  -1 -12  341.97   79.99
   3  -1 -12  415.06   58.49
  -3   1  12  360.06   24.10
  -3   1  12  323.47   27.20
  -3   1  12  364.16   26.70
   2  -1 -12  117.59   42.60
   2  -1 -12  138.59   19.30
   2  -1 -12  114.19   17.30
   2  -1 -12   93.19   30.70
   2  -1 -12  136.39   53.99
   2  -1 -12  128.19   21.60
  -2   1  12  109.29   17.90
  -2   1  12   95.39   25.20
   1  -1 -12   62.09   25.60
   1  -1 -12   35.40   12.00
   1  -1 -12   -4.30   28.60
   1  -1 -12   16.80   12.60
   1  -1 -12   26.10   27.30
   1  -1 -12   36.10   13.80
  -1   1  12   40.90   12.90
  -1   1  12   13.50   10.00
   0  -1 -12   -6.10    9.40
   0  -1 -12   47.50   27.90
   0  -1 -12   19.80   31.60
   0  -1 -12   12.90   12.50
   0  -1 -12    4.20   10.80
   0  -1 -12   31.10   31.40
   0   1  12    7.20   10.30
  -1  -1 -12   15.20   13.30
  -1  -1 -12    2.20   26.10
  -1  -1 -12    6.60   10.90
  -1  -1 -12   27.80   34.70
  -1  -1 -12    5.80   12.60
   1   1  12    9.90   10.20
  -2  -1 -12    9.90   14.10
  -2  -1 -12   -2.10   13.00
  -2  -1 -12   22.60   25.10
  -2  -1 -12    1.50   11.90
  -3  -1 -12   18.30   14.20
  -3  -1 -12   15.30   14.60
  -3  -1 -12   65.59   21.20
  -4  -1 -12    9.80   17.00
  -4  -1 -12    0.20   15.40
  -4  -1 -12  -15.00   12.60
  -5  -1 -12   -0.90   16.10
  -5  -1 -12   23.10   17.90
  -5  -1 -12    2.10   18.50
   5   1  12   14.80   16.30
  10  -2 -12  199.48   32.80
  10  -2 -12  237.48   29.40
 -10   2  12  256.77   37.20
   9  -2 -12  170.48   24.80
   9  -2 -12  134.59   27.20
  -9   2  12  141.19   26.70
   8  -2 -12   11.10   11.80
   8  -2 -12   29.70   17.10
  -8   2  12   32.20   36.20
  -8   2  12    4.00   13.20
   7  -2 -12  347.57   35.70
   7  -2 -12  243.08   97.69
   7  -2 -12  325.07   25.70
   7  -2 -12  290.17   21.90
  -7   2  12  223.48   52.39
  -7   2  12  306.77   33.20
  -7   2  12  301.57   30.60
   6  -2 -12  511.15   27.00
   6  -2 -12  491.65   36.20
   6  -2 -12  500.05   29.60
   6  -2 -12  476.15  106.79
  -6   2  12  467.45   31.70
  -6   2  12  499.75   35.00
  -6   2  12  458.15   67.59
   5  -2 -12  126.69   51.49
   5  -2 -12  135.79   17.00
   5  -2 -12  104.59   32.00
   5  -2 -12  140.39   45.90
   5  -2 -12  141.19   19.60
   5  -2 -12  125.29   21.50
  -5   2  12  153.88   21.20
  -5   2  12  114.29   19.90
   4  -2 -12  392.36   87.39
   4  -2 -12  373.16   24.80
   4  -2 -12  402.96   58.39
   4  -2 -12  492.85   33.80
   4  -2 -12  401.36   24.80
   4  -2 -12  331.47   68.79
  -4   2  12  488.15   30.10
  -4   2  12  368.26   24.50
   3  -2 -12   29.90   12.00
   3  -2 -12   -2.90   30.30
   3  -2 -12   42.70   24.50
   3  -2 -12   29.90   12.50
   3  -2 -12   33.00   12.10
   3  -2 -12   -4.60   15.20
  -3   2  12   25.10   10.30
  -3   2  12   32.30   12.90
   2  -2 -12  258.77   67.69
   2  -2 -12  332.97   52.09
   2  -2 -12  177.28   61.89
   2  -2 -12  293.27   23.80
   2  -2 -12  333.47   28.80
   2  -2 -12  264.37   27.20
  -2   2  12  221.68   23.70
  -2   2  12  225.08   24.00
   1  -2 -12  737.43   36.80
   1  -2 -12  717.23   38.50
   1  -2 -12  506.85   87.19
   1  -2 -12  484.95   96.39
   1  -2 -12  699.13   81.59
   1  -2 -12  605.54   33.50
  -1   2  12  657.93   33.10
  -1   2  12  647.94   35.20
   0  -2 -12  257.57   68.29
   0  -2 -12  178.68   22.40
   0  -2 -12  201.28   24.80
   0  -2 -12  153.68   23.50
   0  -2 -12  211.28   71.59
   0  -2 -12  160.08   42.00
   0   2  12  197.78   24.00
   0   2  12  229.68   23.10
   0   2  12  253.67   19.40
  -1  -2 -12   26.60   25.10
  -1  -2 -12   72.69   18.80
  -1  -2 -12   68.09   16.70
  -1  -2 -12   62.69   17.00
   1   2  12   68.79   16.70
   1   2  12   77.29   14.50
  -2  -2 -12   51.09   16.90
  -2  -2 -12   74.29   18.40
  -2  -2 -12   71.79   20.30
   2   2  12   76.89   15.10
   2   2  12   57.09   16.30
  -3  -2 -12  203.98   29.70
  -3  -2 -12  167.98   25.80
  -3  -2 -12  156.88   27.30
   3   2  12  199.78   36.90
  -4  -2 -12  130.09   23.30
  -4  -2 -12  128.79   25.30
  -4  -2 -12  138.89   28.10
   4   2  12  121.89   24.50
  10  -3 -12   93.49   20.40
  10  -3 -12   66.19   23.50
 -10   3  12   30.90   18.80
   9  -3 -12   65.99   16.50
   9  -3 -12   54.29   16.40
   9  -3 -12   37.70   25.20
  -9   3  12   37.10   18.30
   8  -3 -12   34.10   14.50
   8  -3 -12   40.60   13.60
   8  -3 -12   18.10   16.50
   7  -3 -12   28.70   12.80
   7  -3 -12    5.50   11.60
   7  -3 -12   19.00   15.60
   7  -3 -12    8.00   34.30
   6  -3 -12   63.49   39.10
   6  -3 -12  149.59   20.00
   6  -3 -12  110.69   22.20
   6  -3 -12  125.09   17.80
  -6   3  12  162.18   23.40
  -6   3  12   53.89   29.30
   5  -3 -12 1076.99   39.70
   5  -3 -12  967.80   70.29
   5  -3 -12 1273.77  155.68
   5  -3 -12 1147.79   50.59
   4  -3 -12  450.55   28.40
   4  -3 -12  470.45   32.30
   4  -3 -12  387.26   87.69
   4  -3 -12  392.06   73.79
   4  -3 -12  419.36   60.49
   4  -3 -12  396.66   26.20
  -4   3  12  442.66   29.40
  -4   3  12  389.66   28.10
   3  -3 -12   10.70   10.20
   3  -3 -12   11.10   11.10
   3  -3 -12    7.50   26.80
   3  -3 -12    8.10   16.40
   3  -3 -12   33.90   13.10
   3  -3 -12    8.10   21.00
  -3   3  12   29.30   12.50
  -3   3  12   21.40   11.00
   2  -3 -12  161.08   51.99
   2  -3 -12   91.69   17.70
   2  -3 -12  162.48   63.89
   2  -3 -12   94.49   17.60
   2  -3 -12  125.39   36.30
   2  -3 -12  111.79   17.80
  -2   3  12   71.19   16.10
  -2   3  12  130.79   19.80
   1  -3 -12  319.87   55.09
   1  -3 -12  184.78   68.79
   1  -3 -12  330.97   27.90
   1  -3 -12  381.76   30.20
   1  -3 -12  271.27   86.29
   1  -3 -12  337.77   30.70
  -1   3  12  260.87   27.50
  -1   3  12  304.97   24.20
  -1   3  12  346.97   22.80
   0  -3 -12  369.86   60.09
   0  -3 -12  416.66   43.10
   0  -3 -12  404.46   30.00
   0  -3 -12  407.76   29.80
   0   3  12  442.26   32.20
   0   3  12  476.25   26.60
   0   3  12  421.16   26.80
  -1  -3 -12  114.69   21.50
  -1  -3 -12  168.08   49.60
  -1  -3 -12   94.79   21.00
  -1  -3 -12  115.99   19.20
   1   3  12  126.59   18.10
   1   3  12   80.59   17.60
  -2  -3 -12   27.20   14.70
  -2  -3 -12   23.80   14.80
  -2  -3 -12   21.30   15.40
   2   3  12   11.20   10.80
   2   3  12   17.90   14.30
  -3  -3 -12  141.39   24.90
  -3  -3 -12  143.99   22.70
  -3  -3 -12  159.58   28.40
   3   3  12  103.19   22.70
   3   3  12  121.79   19.70
  -4  -3 -12  244.88   33.10
  -4  -3 -12  245.58   27.00
  -4  -3 -12  289.17   38.50
   4   3  12  264.37   33.80
  10  -4 -12    2.80   11.40
  10  -4 -12   -0.80   12.10
  10  -4 -12   -0.50   16.80
  10  -4 -12  -15.80   16.30
   9  -4 -12   18.60   22.70
   9  -4 -12    0.80   10.50
   9  -4 -12   18.70   17.30
   8  -4 -12   13.60   11.40
   8  -4 -12   14.00   16.40
   8  -4 -12    7.70   12.00
   7  -4 -12   14.40   11.60
   7  -4 -12   -5.80   12.20
   7  -4 -12    3.00   10.30
   6  -4 -12   14.60   13.10
   6  -4 -12   -2.40    8.60
   6  -4 -12   11.90   10.50
   5  -4 -12   38.90   14.10
   5  -4 -12   36.10   13.30
   5  -4 -12   27.30   12.20
   4  -4 -12   59.79   14.50
   4  -4 -12   61.19   15.50
  -4   4  12   69.19   21.00
  -4   4  12   79.69   15.90
   3  -4 -12   21.80   18.20
   3  -4 -12   10.00   16.60
   3  -4 -12   12.20   10.70
  -3   4  12    0.70    9.70
  -3   4  12    9.60   11.30
   2  -4 -12   -5.20    9.40
   2  -4 -12   11.80   13.60
   2  -4 -12   49.80   27.80
   2  -4 -12   -0.10   10.50
  -2   4  12    3.30   10.20
  -2   4  12    0.30   10.00
   1  -4 -12    5.20    9.80
   1  -4 -12   12.70   13.90
   1  -4 -12    7.00   19.10
   1  -4 -12    3.30   11.10
  -1   4  12   -0.20   10.60
  -1   4  12    1.70   10.40
  -1   4  12    0.10    8.50
   0  -4 -12   59.79   15.20
   0  -4 -12   63.09   17.10
   0  -4 -12  103.99   20.90
   0  -4 -12   96.59   40.90
   0   4  12   38.90   15.70
   0   4  12   67.49   15.10
  -1  -4 -12   84.99   16.60
  -1  -4 -12   46.90   35.10
  -1  -4 -12   40.90   16.70
  -1  -4 -12   66.99   19.50
   1   4  12   97.39   21.40
   1   4  12   64.89   15.20
  -2  -4 -12   22.20   23.30
  -2  -4 -12   24.80   13.00
  -2  -4 -12   10.80   17.90
   2   4  12    5.90   12.30
   2   4  12   11.40   15.90
  -3  -4 -12  110.09   24.60
  -3  -4 -12  155.08   19.60
  -3  -4 -12   97.69   23.80
   3   4  12  115.39   23.10
   3   4  12  128.59   22.00
  -4  -4 -12   96.69   33.10
  -4  -4 -12   72.69   15.60
   4   4  12   54.49   18.20
   4   4  12   62.19   21.40
   9  -5 -12  282.97   29.80
   9  -5 -12  196.28   35.80
   9  -5 -12  249.48   28.10
   9  -5 -12  191.88   30.30
   8  -5 -12  319.97   40.70
   8  -5 -12  240.18   31.60
   7  -5 -12   65.99   16.30
   7  -5 -12  122.49   20.60
   7  -5 -12  111.39   22.30
   6  -5 -12   12.00   12.10
   6  -5 -12  -12.30    9.50
   6  -5 -12   11.40   11.10
   5  -5 -12   55.49   15.30
   5  -5 -12   47.30   15.00
   5  -5 -12   67.79   15.40
  -5   5  12   66.09   15.10
   4  -5 -12  164.88   21.90
   4  -5 -12  193.48   24.20
   4  -5 -12  175.78   22.60
  -4   5  12  204.98   24.70
   3  -5 -12   90.29   18.60
   3  -5 -12   76.79   15.30
   3  -5 -12  106.29   19.30
  -3   5  12  123.59   21.30
   2  -5 -12   25.10   14.60
   2  -5 -12   31.80   13.70
   2  -5 -12   84.49   31.80
   2  -5 -12   30.80   12.30
  -2   5  12   63.79   14.70
  -2   5  12   22.40   13.90
   1  -5 -12   17.60   10.70
   1  -5 -12   36.00   27.00
   1  -5 -12    4.60   12.80
   1  -5 -12   33.80   14.10
  -1   5  12    5.90    9.50
  -1   5  12   17.20   14.40
   0  -5 -12   23.90   24.20
   0  -5 -12  -11.60   12.90
   0  -5 -12    9.40    9.80
   0  -5 -12   -4.60   12.30
   0   5  12    7.40   12.60
   0   5  12   20.10   11.30
  -1  -5 -12   23.30   24.00
  -1  -5 -12   10.00    9.90
   1   5  12    5.50   10.80
  -2  -5 -12   61.89   20.40
  -2  -5 -12   25.10   17.90
   2   5  12   20.30   15.80
   2   5  12   28.50   19.10
  -3  -5 -12  -16.00   13.20
  -3  -5 -12    0.50   17.60
   3   5  12    9.90   14.70
   3   5  12   -2.60   14.90
   9  -6 -12  155.18   24.00
   9  -6 -12  113.79   20.80
   9  -6 -12  106.49   28.90
   9  -6 -12  169.08   29.20
   8  -6 -12  469.45   37.70
   8  -6 -12  499.15   34.20
   8  -6 -12  457.75   49.60
   8  -6 -12  467.45   32.10
   7  -6 -12  571.74   38.60
   7  -6 -12  784.92   70.79
   7  -6 -12  639.94   35.60
   6  -6 -12  243.18   27.90
   6  -6 -12  209.68   24.40
   6  -6 -12  236.88   27.30
   5  -6 -12   -8.60    8.90
   5  -6 -12   10.00   11.60
   5  -6 -12    5.70   10.70
  -5   6  12    6.20   11.30
   4  -6 -12  309.17   30.40
   4  -6 -12  346.27   26.20
   4  -6 -12  355.36   31.80
  -4   6  12  296.97   29.40
   3  -6 -12  641.04   36.80
   3  -6 -12  616.44   30.50
   3  -6 -12  637.34   38.20
  -3   6  12  634.84   38.20
   2  -6 -12  384.56   23.20
   2  -6 -12  434.96   38.00
   2  -6 -12  381.76   31.60
  -2   6  12  394.46   36.50
  -2   6  12  415.56   28.60
   1  -6 -12   16.20    8.70
   1  -6 -12   32.70   15.30
   1  -6 -12  -15.00   11.60
  -1   6  12   21.20   11.60
  -1   6  12   18.40   14.50
   0  -6 -12   53.79   32.20
   0  -6 -12   45.60   21.10
   0   6  12   21.80   18.90
   0   6  12   31.30   14.30
  -1  -6 -12   90.29   22.30
  -1  -6 -12   47.10   20.20
   1   6  12   62.79   17.00
   1   6  12   88.99   22.50
  -2  -6 -12   23.50   17.80
  -2  -6 -12    2.00   16.60
   2   6  12   15.60   13.70
   2   6  12    2.00   15.90
   8  -7 -12  167.68   23.70
   8  -7 -12  165.58   25.50
   8  -7 -12  148.09   23.70
   8  -7 -12  137.39   31.80
   7  -7 -12  348.37   34.60
   7  -7 -12  275.27   29.80
   7  -7 -12  307.07   41.70
   7  -7 -12  221.38   36.30
   6  -7 -12  420.06   47.90
   6  -7 -12  332.27   33.00
   6  -7 -12  403.46   30.10
   6  -7 -12  454.15   31.80
   5  -7 -12   -6.50   16.90
   5  -7 -12    7.30   10.90
   5  -7 -12    6.00   11.90
   5  -7 -12   38.00   16.60
  -5   7  12   22.50   13.20
   4  -7 -12   45.80   12.10
   4  -7 -12   73.29   18.70
   4  -7 -12   33.40   19.20
  -4   7  12   92.59   20.10
   3  -7 -12  293.77   18.30
   3  -7 -12  305.47   37.80
   3  -7 -12  296.77   30.60
  -3   7  12  319.37   33.00
   2  -7 -12  219.28   32.30
   2  -7 -12  319.97   32.80
   2  -7 -12  268.97   31.30
  -2   7  12  333.87   44.40
  -2   7  12  300.17   29.00
   1  -7 -12   35.10   19.00
   1  -7 -12   70.49   19.80
  -1   7  12   28.90   14.20
  -1   7  12   50.89   18.20
   0  -7 -12   13.70   15.50
   0  -7 -12   21.70   17.40
   0   7  12   40.90   19.70
   0   7  12   31.30   15.30
  -1  -7 -12   41.40   18.60
  -1  -7 -12   25.10   18.50
   1   7  12   42.90   19.80
   1   7  12   23.70   15.10
   7  -8 -12   15.60   13.40
   7  -8 -12   -0.30   14.70
   7  -8 -12    4.30   13.00
   7  -8 -12   16.80   18.70
   6  -8 -12    9.90   13.40
   6  -8 -12   -5.10   16.10
   6  -8 -12   17.60   16.10
   6  -8 -12   16.10   11.60
   5  -8 -12   21.60   18.30
   5  -8 -12    8.50   11.90
   5  -8 -12   15.10   16.40
  -5   8  12   28.10   14.20
   4  -8 -12   -8.10   15.70
   4  -8 -12    5.70   15.70
  -4   8  12    2.30   12.50
   3  -8 -12    3.30   14.70
   3  -8 -12   11.90   18.10
   3  -8 -12   -2.60   13.50
  -3   8  12   16.30   14.70
   2  -8 -12   34.90   16.90
   2  -8 -12   56.09   19.60
  -2   8  12   46.00   17.50
  -2   8  12   28.80   14.00
   1  -8 -12   89.49   23.00
   1  -8 -12   94.09   23.00
  -1   8  12   99.59   20.50
  -1   8  12  129.19   27.10
   0  -8 -12    1.10   16.80
   0  -8 -12   -1.00   15.60
   0   8  12   -1.40   12.80
   0   8  12    0.10   16.40
   5  -9 -12   55.09   23.70
   5  -9 -12  105.29   30.70
  -5   9  12   95.09   21.30
   4  -9 -12    2.60   14.40
   4  -9 -12    9.90   19.00
   4  -9 -12    5.30   17.20
  -4   9  12    2.20   12.30
   3  -9 -12    7.60   15.00
   3  -9 -12    0.90   17.90
   3  -9 -12    8.00   17.70
  -3   9  12    9.60   13.70
   2  -9 -12    3.80   14.40
  -2   9  12  -14.90   15.60
  -2   9  12   22.10   22.60
   3   8 -13  235.48   29.40
  -3  -8  13  215.08   31.70
  -3  -8  13  263.17   36.30
  -3  -8  13  230.18   23.50
   2   8 -13  245.48   29.60
  -2  -8  13  230.78   33.20
  -2  -8  13  328.67   38.70
  -2  -8  13  246.68   24.70
   1   8 -13   21.30   15.30
  -1  -8  13   36.70   20.80
  -1  -8  13   14.50   13.90
  -1  -8  13   23.70   19.10
   0   8 -13   85.69   21.30
   0  -8  13  114.19   27.10
   0  -8  13   99.99   19.80
   0  -8  13   66.99   22.90
  -1   8 -13  211.98   27.20
   1  -8  13  190.98   32.10
   1  -8  13  202.88   27.00
   1  -8  13  170.18   31.30
   5   7 -13   16.30   15.70
  -5  -7  13   73.39   22.60
  -5  -7  13   22.00   19.90
  -5  -7  13   35.90   14.20
   4   7 -13   30.30   16.00
  -4  -7  13   11.50   18.40
  -4  -7  13   31.60   19.00
   3   7 -13   71.39   20.30
  -3  -7  13   74.99   17.40
  -3  -7  13   18.80   17.70
  -3  -7  13  107.09   25.60
   2   7 -13  129.19   27.30
  -2  -7  13  175.58   22.90
  -2  -7  13  239.58   32.10
  -2  -7  13  117.99   25.70
   1   7 -13   84.69   19.10
  -1  -7  13   96.89   23.10
  -1  -7  13   25.70   18.40
  -1  -7  13   40.30   15.50
   0   7 -13   38.00   16.10
   0  -7  13   22.40   17.00
   0  -7  13   34.30   16.80
   0  -7  13   20.10   18.30
  -1   7 -13   44.80   17.20
   1  -7  13   46.10   18.30
   1  -7  13   32.90   20.10
   1  -7  13   85.29   23.60
  -2   7 -13  284.77   30.60
   2  -7  13  269.87   36.30
   2  -7  13  243.18   29.60
   2  -7  13  242.98   34.50
  -6  -6  13   -6.10   15.60
  -6  -6  13   -4.30   16.90
  -6  -6  13   -9.80   10.70
   5   6 -13   17.20   13.10
  -5  -6  13   46.50   19.90
  -5  -6  13   57.19   22.50
   4   6 -13   26.80   13.90
  -4  -6  13   51.69   21.50
  -4  -6  13   34.40   29.90
  -4  -6  13   60.89   16.30
   3   6 -13   -8.70   10.40
  -3  -6  13    1.50   14.90
  -3  -6  13   -6.70   17.50
  -3  -6  13   -4.20   18.30
   2   6 -13  129.19   20.70
  -2  -6  13   27.50   20.60
  -2  -6  13   93.79   21.70
  -2  -6  13  172.58   29.60
   1   6 -13  164.48   22.80
  -1  -6  13  177.68   44.00
  -1  -6  13  145.19   30.00
  -1  -6  13  135.79   25.80
   0   6 -13  169.48   22.60
   0  -6  13  137.89   25.30
   0  -6  13   91.49   23.50
   0  -6  13  110.09   34.30
  -1   6 -13   51.69   21.00
   1  -6  13   38.50   17.40
   1  -6  13   28.90   20.80
   1  -6  13   45.40   20.70
   2  -6  13   93.89   24.80
   2  -6  13  137.39   26.80
   2  -6  13  136.09   25.70
   3  -6  13   79.59   23.30
   3  -6  13   92.09   25.40
   3  -6  13   97.49   25.70
   7   5 -13   46.20   26.40
  -7  -5  13   62.79   22.40
  -7  -5  13   71.49   18.30
  -7  -5  13   58.09   20.80
   6   5 -13  200.08   24.40
  -6  -5  13  137.59   26.10
  -6  -5  13  103.89   19.80
   5   5 -13   79.99   21.50
  -5  -5  13   80.99   22.40
  -5  -5  13   94.79   20.30
  -5  -5  13   82.09   20.70
   4   5 -13   -4.80   10.40
  -4  -5  13   12.50   12.20
  -4  -5  13   11.50   14.60
  -4  -5  13   -4.20   14.40
   3   5 -13    7.20   11.40
  -3  -5  13    8.40   13.90
  -3  -5  13   10.00   12.80
  -3  -5  13   11.40   14.40
   2   5 -13   43.00   14.10
  -2  -5  13   14.50   14.60
  -2  -5  13    4.60   13.40
  -2  -5  13   44.40   16.00
   1   5 -13   16.20   11.20
  -1  -5  13   15.40   14.00
  -1  -5  13   -3.80   11.20
  -1  -5  13   17.10   15.20
   0   5 -13    2.80   10.00
   0  -5  13  -11.50   14.20
   0  -5  13    3.40   14.10
   0  -5  13   21.80   14.70
   1  -5  13   40.60   18.10
   1  -5  13   36.70   17.10
   1  -5  13   40.40   19.00
   2  -5  13   11.50   23.00
   2  -5  13   -1.70   16.00
   2  -5  13    3.50   16.70
   3  -5  13    0.80   16.90
   3  -5  13   -0.30   15.40
   3  -5  13   19.80   19.30
   4  -5  13   -8.30   18.10
  -8  -4  13   35.00   21.00
  -8  -4  13   36.20   16.50
   7   4 -13   -3.30   11.60
  -7  -4  13  -10.00   14.20
  -7  -4  13   -8.60   17.20
  -7  -4  13    5.20   13.50
   6   4 -13  320.07   28.50
  -6  -4  13  266.17   32.50
  -6  -4  13  252.37   29.70
   5   4 -13  239.68   23.10
  -5  -4  13  226.58   29.20
  -5  -4  13  244.38   30.20
  -5  -4  13  244.18   28.00
   4   4 -13  235.28   58.89
   4   4 -13  220.38   22.20
  -4  -4  13  247.28   29.70
  -4  -4  13  198.38   26.70
  -4  -4  13  170.08   23.20
   3   4 -13   -4.70   17.90
   3   4 -13   11.20   10.70
   3   4 -13    7.40    9.20
  -3  -4  13    5.70   12.10
  -3  -4  13   13.30   13.90
  -3  -4  13    9.30   13.90
  -3  -4  13   46.20   33.00
   2   4 -13   89.09   33.90
   2   4 -13   52.49   13.70
  -2  -4  13    6.70   24.20
  -2  -4  13   69.79   17.20
  -2  -4  13   49.80   16.70
  -2  -4  13   63.19   27.50
   1   4 -13  623.64   78.89
   1   4 -13  665.93   32.40
  -1  -4  13  735.43   40.30
   0   4 -13  148.89   19.20
   0   4 -13  113.49   38.30
   0  -4  13  182.28   25.40
   0  -4  13  174.18   26.70
   0  -4  13  125.29   21.80
   1  -4  13   75.39   19.50
   1  -4  13   44.50   18.20
   1  -4  13   47.60   17.00
  -2   4 -13   17.70   18.30
   2  -4  13    9.90   15.90
   2  -4  13   -8.20   14.30
   2  -4  13   -0.40   14.80
  -3   4 -13   50.09   24.30
   3  -4  13   17.30   17.80
   3  -4  13   34.50   25.80
  -4   4 -13  302.57   42.80
   4  -4  13  205.38   32.00
   8   3 -13   79.59   19.10
  -8  -3  13  112.49   22.10
  -8  -3  13  122.89   25.60
  -8  -3  13  117.49   30.00
   7   3 -13   54.59   16.20
  -7  -3  13   87.69   21.40
  -7  -3  13   50.19   18.60
  -7  -3  13   35.20   16.90
   6   3 -13    6.00   10.50
  -6  -3  13   12.50   14.10
  -6  -3  13    5.30   14.10
  -6  -3  13   23.00   15.50
   5   3 -13  341.47   24.60
  -5  -3  13  348.97   37.50
  -5  -3  13  378.06   31.90
  -5  -3  13  361.16   29.80
   4   3 -13  516.45  125.09
   4   3 -13  640.94   31.30
   4   3 -13  697.43   95.19
  -4  -3  13  695.63   39.30
  -4  -3  13  675.63   38.30
  -4  -3  13  664.83   39.60
   3   3 -13  371.26   24.10
   3   3 -13  289.27   51.79
  -3  -3  13  351.76   29.00
  -3  -3  13  270.67   65.09
  -3  -3  13  416.96   32.50
  -3  -3  13  431.06   30.70
   2   3 -13   40.70   26.40
   2   3 -13   -0.60    8.10
   2   3 -13   -1.10    8.10
   2   3 -13   -4.90   14.00
  -2  -3  13   14.80   20.20
  -2  -3  13   18.90   23.90
  -2  -3  13   -4.00   11.10
  -2  -3  13   -3.80   11.40
   1   3 -13   35.40   18.10
   1   3 -13   42.30   12.40
   1   3 -13   22.90   24.00
   1   3 -13   82.49   31.30
   1   3 -13   39.20   11.30
  -1  -3  13   31.50   14.60
  -1  -3  13   28.10   17.10
  -1  -3  13   46.40   15.00
   0   3 -13  820.62   35.00
   0   3 -13  692.03   45.70
   0   3 -13  676.23   81.09
   0  -3  13  771.92   38.90
   0  -3  13  760.42   61.29
   0  -3  13  794.22   42.60
  -1   3 -13  382.36   43.30
   1  -3  13  459.15   34.60
   1  -3  13  516.05   36.80
   1  -3  13  348.47   36.00
  -2   3 -13  145.29   29.60
   2  -3  13  182.58   26.30
   2  -3  13  119.09   22.90
   2  -3  13  183.48   26.20
  -3   3 -13   13.80   20.00
  -3   3 -13   -3.10   16.10
   3  -3  13   12.50   17.10
   3  -3  13   -2.90   17.10
  -4   3 -13  194.78   34.40
  -4   3 -13  166.98   30.00
   9   2 -13   33.70   15.70
  -9  -2  13   24.00   17.40
  -9  -2  13   38.30   21.10
   8   2 -13   10.80   12.10
  -8  -2  13    5.40   15.50
  -8  -2  13   11.40   16.60
  -8  -2  13   -6.80   12.10
   7   2 -13   20.00   12.70
  -7  -2  13   43.80   17.30
  -7  -2  13   57.49   18.20
   6   2 -13   16.90   11.40
  -6  -2  13   20.70   14.20
  -6  -2  13   21.60   13.70
   5   2 -13   64.39   15.30
  -5  -2  13   55.89   16.70
  -5  -2  13   45.50   15.60
  -5  -2  13   60.39   16.10
  -5  -2  13   27.30   27.60
   4   2 -13  131.29   60.39
   4   2 -13  149.49   18.90
   4   2 -13   71.79   28.70
   4   2 -13  195.38   56.19
  -4  -2  13  197.48   32.00
  -4  -2  13  174.48   24.80
  -4  -2  13  176.18   22.90
   3   2 -13  266.37   21.70
   3   2 -13  139.09   24.50
   3   2 -13  253.87   58.39
  -3  -2  13  201.38   24.90
  -3  -2  13  259.27   25.60
  -3  -2  13  204.78   25.80
   2   2 -13  116.39   16.80
   2   2 -13  129.09   23.60
   2   2 -13  152.78   52.59
   2   2 -13   82.29   38.40
  -2  -2  13   81.19   37.50
  -2  -2  13  153.88   20.20
  -2  -2  13  121.19   20.40
   1   2 -13   10.70   14.40
   1   2 -13    8.00   26.70
   1   2 -13   25.30   11.60
   1   2 -13   27.30   23.30
  -1  -2  13    9.00   11.80
  -1  -2  13   19.90   12.20
   0   2 -13   98.29   35.90
   0   2 -13   54.49   14.10
   0   2 -13   79.29   21.40
   0  -2  13   64.79   17.60
   0  -2  13   65.09   16.00
  -1   2 -13  348.97   37.80
  -1   2 -13  192.38   52.99
  -1   2 -13  309.77   76.59
  -1   2 -13  365.16   27.40
  -1   2 -13  262.27   28.30
   1  -2  13  361.16   36.60
   1  -2  13  367.66   35.10
   1  -2  13  353.66   28.70
  -2   2 -13  245.18   29.30
  -2   2 -13  216.18   30.90
  -2   2 -13  227.58   32.60
   2  -2  13  250.87   35.00
   2  -2  13  266.87   29.30
  -3   2 -13   61.39   21.20
  -3   2 -13   20.90   20.50
  -4   2 -13  -11.60   16.20
  -4   2 -13   12.20   19.00
   9   1 -13   34.60   15.80
  -9  -1  13   22.70   16.40
  -9  -1  13   34.20   19.10
  -9  -1  13   11.10   15.60
   8   1 -13  167.18   24.10
  -8  -1  13  137.69   24.30
  -8  -1  13  200.38   28.40
  -8  -1  13  137.09   24.80
   7   1 -13  240.98   26.20
  -7  -1  13  235.58   28.80
  -7  -1  13  237.68   31.40
   6   1 -13    0.00   10.30
  -6  -1  13   14.50   12.80
  -6  -1  13    8.40   12.80
  -6  -1  13    3.70   19.60
  -6  -1  13   15.30   13.60
   5   1 -13   19.10   29.10
   5   1 -13    6.40   10.10
   5   1 -13    7.90   13.00
  -5  -1  13   17.20   13.50
  -5  -1  13   14.80   12.60
   4   1 -13  126.99   56.29
   4   1 -13  106.59   16.90
   4   1 -13   84.29   20.20
   4   1 -13  126.09   42.00
   4   1 -13  100.39   33.70
  -4  -1  13   63.39   16.70
  -4  -1  13   95.09   18.60
   3   1 -13  110.39   17.00
   3   1 -13   96.39   40.30
   3   1 -13   99.89   21.50
   3   1 -13   98.79   51.09
   3   1 -13  134.49   40.10
  -3  -1  13  131.39   21.50
  -3  -1  13   27.00   16.30
   2   1 -13   38.10   31.30
   2   1 -13   38.10   23.20
   2   1 -13   75.59   15.60
   2   1 -13   48.30   17.70
  -2  -1  13   87.19   19.10
  -2  -1  13   54.29   15.90
  -2  -1  13   44.90   28.80
   1   1 -13   12.00   18.20
   1   1 -13   14.10   11.20
   1   1 -13   -5.30   12.60
   1   1 -13    2.30   18.70
  -1  -1  13   -1.30   11.40
  -1  -1  13    2.10   11.30
   0   1 -13   -1.00   12.30
   0   1 -13    8.80   21.20
   0   1 -13   12.80   12.80
   0   1 -13    0.50    9.20
   0   1 -13    4.10   23.50
   0  -1  13  -17.00   10.50
   0  -1  13   -0.30   11.90
  -1   1 -13   12.80   14.40
  -1   1 -13   10.60   13.30
  -1   1 -13    2.20   14.40
  -1   1 -13    4.90   24.30
   1  -1  13   -7.00   10.70
  -2   1 -13    2.10   11.80
  -2   1 -13   14.20   15.50
  -2   1 -13   -8.10   14.50
   2  -1  13   14.90   15.00
  -3   1 -13    7.50   16.40
  -3   1 -13   -4.50   18.50
  -3   1 -13   20.10   15.40
  -4   1 -13  -10.90   16.80
  -4   1 -13   -7.30   19.80
  -4   1 -13    6.40   17.30
   9   0 -13   39.60   15.90
  -9   0  13    8.00   14.80
  -9   0  13   19.80   15.20
   8   0 -13  496.65   31.90
  -8   0  13  372.76   41.70
  -8   0  13  502.95   36.40
   7   0 -13  695.03   36.20
  -7   0  13  681.83   40.00
  -7   0  13  693.13   42.80
   6   0 -13  341.37   35.70
   6   0 -13  448.86   29.30
  -6   0  13  408.56   31.50
  -6   0  13  574.74   46.40
  -6   0  13  308.27   61.39
   5   0 -13  125.39   68.09
   5   0 -13  269.07   25.50
   5   0 -13  247.28   30.40
   5   0 -13  245.08   50.29
  -5   0  13  275.97   29.00
  -5   0  13  257.47   28.90
   4   0 -13  125.39   37.10
   4   0 -13   63.99   18.10
   4   0 -13   83.29   55.39
   4   0 -13  110.99   17.80
   4   0 -13  123.49   48.50
  -4   0  13   61.09   21.10
  -4   0  13  113.69   20.10
   3   0 -13  585.74   41.40
   3   0 -13  473.95  102.19
   3   0 -13  571.54   90.09
   3   0 -13  559.94   70.99
   3   0 -13  680.43   32.90
   3   0 -13  611.64   39.40
  -3   0  13  614.14   35.40
  -3   0  13  590.44   33.10
  -3   0  13  586.04   36.20
   2   0 -13  752.32   44.10
   2   0 -13  756.22  123.79
   2   0 -13  676.03   97.19
   2   0 -13  828.82   72.69
   2   0 -13  799.72   36.10
   2   0 -13  819.52   44.00
  -2   0  13  887.91   41.40
  -2   0  13  750.32   56.59
   1   0 -13   73.09   32.10
   1   0 -13  117.19   18.60
   1   0 -13  109.49   34.50
   1   0 -13   41.20   14.90
   1   0 -13  123.29   19.20
  -1   0  13  112.79   19.10
   0   0 -13   20.00   25.80
   0   0 -13    1.70   11.50
   0   0 -13    2.00   18.50
   0   0 -13   -5.20   12.30
   0   0 -13    4.30   13.10
   0   0  13  -10.10   10.30
  -1   0 -13  111.69   22.30
  -1   0 -13  152.48   22.40
  -1   0 -13   98.79   32.40
   1   0  13  142.69   21.30
  -2   0 -13  175.08   27.30
  -2   0 -13  125.99   21.70
  -2   0 -13   88.59   22.20
  -3   0 -13   19.20   16.80
  -3   0 -13   25.50   23.10
  -3   0 -13   26.50   16.30
  -4   0 -13   -2.70   17.10
  -4   0 -13   58.39   20.80
  -4   0 -13    3.60   16.20
   9  -1 -13   68.09   18.50
  -9   1  13   78.69   22.00
   8  -1 -13   21.40   13.30
   8  -1 -13   38.30   19.60
  -8   1  13   31.90   16.60
  -8   1  13   18.40   14.60
   7  -1 -13  183.58   29.90
   7  -1 -13  218.38   25.60
  -7   1  13  266.47   62.79
  -7   1  13  187.48   27.70
  -7   1  13  231.38   28.20
   6  -1 -13  674.53  109.69
   6  -1 -13  748.33   36.40
   6  -1 -13  836.22   64.19
  -6   1  13  760.92   40.50
  -6   1  13  784.32   44.30
   5  -1 -13  333.47   80.29
   5  -1 -13  480.95   29.60
   5  -1 -13  428.56   35.80
   5  -1 -13  471.25   65.09
  -5   1  13  451.05   31.90
  -5   1  13  452.85   33.40
   4  -1 -13   40.00   36.50
   4  -1 -13   -3.10   13.70
   4  -1 -13   -7.80    8.30
   4  -1 -13   -5.10   11.70
  -4   1  13    1.80   11.80
  -4   1  13    9.50   14.70
   3  -1 -13  396.76   27.00
   3  -1 -13  233.58   71.49
   3  -1 -13  262.17   62.69
   3  -1 -13  338.67   24.90
   3  -1 -13  320.27   32.80
   3  -1 -13  304.57   50.59
  -3   1  13  361.96   28.50
  -3   1  13  273.87   25.00
   2  -1 -13  384.16   73.89
   2  -1 -13  507.45   30.50
   2  -1 -13  463.25   34.50
   2  -1 -13  297.97  104.79
   2  -1 -13  484.45   30.90
   2  -1 -13  470.75   64.69
  -2   1  13  489.65   31.60
  -2   1  13  499.15   30.80
   1  -1 -13  695.43   36.80
   1  -1 -13  789.62   56.99
   1  -1 -13  659.63   81.29
  -1   1  13  690.83   36.80
  -1   1  13  753.92   37.60
   0  -1 -13   82.49   36.70
   0  -1 -13   93.99   19.80
   0  -1 -13   85.99   19.20
   0  -1 -13  108.69   18.80
   0   1  13  129.39   19.40
   0   1  13   91.09   18.60
  -1  -1 -13   -8.20   11.50
  -1  -1 -13    9.40   14.10
  -1  -1 -13    5.70   13.80
   1   1  13  -11.30   11.70
  -2  -1 -13  148.99   23.90
  -2  -1 -13  191.38   25.80
  -2  -1 -13  139.89   25.30
  -3  -1 -13  205.38   29.60
  -3  -1 -13  191.48   30.00
  -3  -1 -13  108.59   22.70
  -4  -1 -13   49.10   20.70
  -4  -1 -13   16.60   20.10
  -4  -1 -13   25.80   17.40
   4   1  13   41.70   19.80
   9  -2 -13  158.28   25.10
   9  -2 -13  105.69   26.70
  -9   2  13   69.39   21.90
   8  -2 -13   54.39   16.10
   8  -2 -13  125.49   27.00
  -8   2  13   72.09   22.10
   7  -2 -13    8.60   10.90
   7  -2 -13    5.70   14.50
  -7   2  13   23.40   14.80
  -7   2  13   -9.30   16.30
  -7   2  13    7.80   20.80
   6  -2 -13   10.60   11.30
   6  -2 -13   14.00   14.20
   6  -2 -13   26.70   11.40
  -6   2  13   13.80   22.70
  -6   2  13   30.80   14.40
  -6   2  13    1.30   12.70
   5  -2 -13  108.79   22.40
   5  -2 -13  173.68   22.10
   5  -2 -13  169.88   20.10
   5  -2 -13  176.68   40.50
   5  -2 -13  110.19   57.09
  -5   2  13  190.88   24.60
   4  -2 -13  172.48  100.09
   4  -2 -13  133.39   38.10
   4  -2 -13  199.58   44.50
   4  -2 -13  153.88   19.40
   4  -2 -13  168.18   21.40
  -4   2  13  114.89   20.20
  -4   2  13  145.49   21.60
   3  -2 -13    9.40   11.50
   3  -2 -13   10.20   18.60
   3  -2 -13  -11.20    8.10
  -3   2  13    6.20   10.10
  -3   2  13   -4.80   10.70
   2  -2 -13   99.99   17.60
   2  -2 -13   45.80   25.10
   2  -2 -13   75.69   17.60
   2  -2 -13   71.09   17.50
  -2   2  13   85.69   17.50
  -2   2  13   71.69   16.60
   1  -2 -13  424.96   76.49
   1  -2 -13  376.06   28.50
   1  -2 -13  314.67   30.30
   1  -2 -13  257.87   28.60
  -1   2  13  294.87   35.90
  -1   2  13  361.16   27.40
   0  -2 -13  319.67   60.49
   0  -2 -13  495.45   34.50
   0  -2 -13  383.36   30.40
   0  -2 -13  422.36   33.10
   0   2  13  410.86   32.30
   0   2  13  390.66   27.80
   0   2  13  452.55   25.50
  -1  -2 -13   45.90   16.90
  -1  -2 -13   23.30   13.00
  -1  -2 -13   36.30   15.80
   1   2  13   25.10   11.80
   1   2  13   51.19   16.30
  -2  -2 -13   48.00   20.10
  -2  -2 -13   67.29   19.20
  -2  -2 -13   66.19   29.90
   2   2  13   56.09   26.80
  -3  -2 -13   74.69   22.50
  -3  -2 -13   92.79   21.40
  -3  -2 -13  139.09   24.10
   3   2  13  135.39   24.70
  -4  -2 -13  132.19   23.90
  -4  -2 -13  115.59   25.10
  -4  -2 -13  173.78   31.50
   4   2  13  134.69   27.30
   9  -3 -13   29.40   19.90
   9  -3 -13   32.60   15.00
   8  -3 -13   17.30   13.30
   8  -3 -13   27.60   13.80
   7  -3 -13  191.18   24.60
   7  -3 -13  237.68   23.80
   7  -3 -13  201.88   28.80
   6  -3 -13   43.80   14.80
   6  -3 -13   54.79   23.10
   6  -3 -13   25.00   15.20
  -6   3  13   19.80   14.70
   5  -3 -13   22.20   21.00
   5  -3 -13   25.20   14.90
   5  -3 -13   27.20   12.50
   5  -3 -13   14.10   11.40
  -5   3  13    5.90   11.40
   4  -3 -13    5.80   10.50
   4  -3 -13   -2.20   10.70
   4  -3 -13    2.20   15.70
   4  -3 -13  -11.60    9.30
  -4   3  13    2.70   11.30
  -4   3  13   -5.50    8.80
   3  -3 -13   -4.70   10.00
   3  -3 -13   10.40   10.60
   3  -3 -13   10.70   11.60
   3  -3 -13   16.50   20.40
  -3   3  13   17.10   11.40
  -3   3  13    9.70   14.30
   2  -3 -13   13.90   10.70
   2  -3 -13    3.10   17.20
   2  -3 -13   39.40   14.90
  -2   3  13   34.60   14.20
  -2   3  13   55.79   16.10
   1  -3 -13   14.20   14.10
   1  -3 -13   34.00   14.00
   1  -3 -13   16.20   13.10
   1  -3 -13   16.30   32.70
  -1   3  13   53.89   16.60
  -1   3  13   46.00   15.00
   0  -3 -13   26.50   14.80
   0  -3 -13    4.70   21.20
   0  -3 -13    8.90   12.40
   0  -3 -13   -3.50   12.80
   0   3  13   30.00   15.50
   0   3  13    9.50   10.70
  -1  -3 -13  -12.50   11.90
  -1  -3 -13   10.50   14.10
  -1  -3 -13    7.60   13.10
   1   3  13   -5.30    9.60
   1   3  13   -6.60   11.30
  -2  -3 -13   -4.60   12.00
  -2  -3 -13   12.20   15.80
  -2  -3 -13   13.10   15.80
   2   3  13   17.00   12.70
   2   3  13   14.70   14.60
  -3  -3 -13   -5.10   14.30
  -3  -3 -13   -0.20   17.00
  -3  -3 -13   18.30   15.50
   3   3  13  -15.00   14.10
   9  -4 -13  328.37   31.00
   9  -4 -13  304.77   39.40
   9  -4 -13  316.17   33.00
   8  -4 -13  242.38   28.30
   8  -4 -13  167.68   29.20
   8  -4 -13  269.27   28.40
   7  -4 -13   98.89   19.90
   7  -4 -13  125.89   29.70
   7  -4 -13   96.69   18.20
   6  -4 -13   80.09   17.40
   6  -4 -13   46.70   15.30
   6  -4 -13   66.59   19.70
   5  -4 -13  296.27   28.30
   5  -4 -13  209.18   27.40
   5  -4 -13  295.17   29.50
   4  -4 -13  267.87   27.70
   4  -4 -13  224.48   45.50
   4  -4 -13  277.47   29.10
   4  -4 -13  307.27   29.50
  -4   4  13  300.87   30.90
  -4   4  13  339.67   28.00
   3  -4 -13  186.98   24.90
   3  -4 -13  110.69   19.40
   3  -4 -13  121.89   21.00
   3  -4 -13  103.29   34.30
  -3   4  13  109.29   23.90
  -3   4  13  145.99   23.00
   2  -4 -13    0.80   13.30
   2  -4 -13  -11.90   16.10
   2  -4 -13    1.10   11.10
   2  -4 -13    9.80   11.80
  -2   4  13    3.20   12.40
  -2   4  13    8.10   18.50
   1  -4 -13  133.29   40.20
   1  -4 -13  140.99   24.70
   1  -4 -13  126.99   21.90
   1  -4 -13  109.99   19.80
  -1   4  13  114.19   17.50
  -1   4  13  105.49   19.10
  -1   4  13  138.59   24.50
   0  -4 -13  153.88   25.50
   0  -4 -13  130.39   23.10
   0  -4 -13  127.39   20.30
   0   4  13  135.09   19.50
   0   4  13   87.89   20.30
  -1  -4 -13   73.79   21.20
  -1  -4 -13  101.59   21.10
  -1  -4 -13   90.19   20.80
   1   4  13  147.59   20.80
   1   4  13   80.29   21.20
  -2  -4 -13   20.60   16.70
  -2  -4 -13   26.20   14.30
  -2  -4 -13   38.10   18.10
   2   4  13   23.40   19.10
   2   4  13   14.80   16.50
  -3  -4 -13   12.50   20.40
  -3  -4 -13   13.00   13.70
  -3  -4 -13   65.79   26.80
   3   4  13   17.20   17.90
   3   4  13   19.30   14.90
   9  -5 -13  285.77   30.20
   9  -5 -13  389.26   31.70
   9  -5 -13  263.07   36.30
   8  -5 -13  357.16   33.60
   8  -5 -13  329.47   31.00
   8  -5 -13  369.46   39.30
   7  -5 -13  280.07   34.40
   7  -5 -13  226.68   30.60
   7  -5 -13  233.38   27.90
   6  -5 -13    5.30   11.20
   6  -5 -13   -8.50    9.50
   6  -5 -13   -2.90   18.30
   5  -5 -13  159.28   23.70
   5  -5 -13  234.58   26.70
   5  -5 -13  216.68   25.80
  -5   5  13  228.38   30.60
   4  -5 -13  398.66   30.60
   4  -5 -13  471.65   33.50
   4  -5 -13  430.76   32.20
  -4   5  13  416.86   31.90
   3  -5 -13  327.67   31.40
   3  -5 -13  459.45   31.20
   3  -5 -13  358.66   30.00
  -3   5  13  395.16   36.00
   2  -5 -13   20.70   15.20
   2  -5 -13   44.90   14.10
   2  -5 -13   16.10   12.40
   2  -5 -13   63.19   33.70
  -2   5  13   45.60   17.70
   1  -5 -13   16.40   14.00
   1  -5 -13    4.80   11.30
   1  -5 -13   12.80   16.70
   1  -5 -13   30.10   27.50
  -1   5  13   -3.50    9.70
  -1   5  13  -12.20   11.90
   0  -5 -13  176.98   20.50
   0  -5 -13  237.38   30.10
   0  -5 -13  201.88   28.70
   0   5  13  184.88   27.50
   0   5  13  240.78   25.90
  -1  -5 -13  591.34   31.60
   1   5  13  581.54   42.50
   1   5  13  660.13   37.70
  -2  -5 -13  275.97   35.80
  -2  -5 -13  312.17   37.80
   2   5  13  264.57   35.00
   2   5  13  312.07   31.20
   8  -6 -13   60.29   19.70
   8  -6 -13   32.20   21.10
   8  -6 -13   53.49   16.90
   8  -6 -13   45.80   17.00
   7  -6 -13   41.60   15.40
   7  -6 -13   96.69   20.90
   7  -6 -13   74.49   21.40
   6  -6 -13   45.70   21.40
   6  -6 -13   75.69   20.00
   6  -6 -13   75.39   19.10
   5  -6 -13    3.50   11.80
   5  -6 -13   -5.20   11.10
  -5   6  13   -0.40   11.90
   4  -6 -13   67.09   21.90
   4  -6 -13   77.69   16.60
   4  -6 -13   77.89   18.80
  -4   6  13  127.29   22.10
   3  -6 -13  201.08   22.00
   3  -6 -13  250.77   29.30
  -3   6  13  191.68   27.00
   2  -6 -13  407.66   37.30
   2  -6 -13  378.26   24.60
  -2   6  13  327.67   38.00
  -2   6  13  386.86   49.70
   1  -6 -13    3.60    8.60
   1  -6 -13    1.70   13.90
   1  -6 -13  -13.60   12.20
  -1   6  13    8.50   15.40
  -1   6  13   -0.80   10.70
   0  -6 -13   37.00   19.60
   0  -6 -13   53.09   21.00
   0   6  13   43.20   16.00
   0   6  13   23.70   17.80
  -1  -6 -13  132.59   24.50
  -1  -6 -13  109.79   25.90
   1   6  13  205.48   31.50
   1   6  13  146.69   24.20
   7  -7 -13   12.20   17.40
   7  -7 -13    5.30   12.40
   7  -7 -13    9.30   15.10
   7  -7 -13   -0.50   13.00
   6  -7 -13    6.90   11.80
   6  -7 -13   -8.00   15.50
   6  -7 -13    8.80   13.00
   6  -7 -13   14.70   16.30
   5  -7 -13   17.30   18.60
   5  -7 -13   18.80   14.20
   5  -7 -13    5.70   15.20
   5  -7 -13    1.40   11.10
  -5   7  13   30.70   15.90
   4  -7 -13   14.70   18.00
   4  -7 -13    6.90   14.70
   4  -7 -13   -0.70   14.90
   4  -7 -13    1.80   13.30
  -4   7  13   24.20   22.10
   3  -7 -13   21.40   17.40
   3  -7 -13   43.30   17.90
   3  -7 -13   19.50    9.70
   3  -7 -13   -2.70   15.80
  -3   7  13    9.80   15.10
   2  -7 -13   -2.70   12.60
   2  -7 -13   13.10   16.50
  -2   7  13   -5.00   13.70
  -2   7  13   28.80   15.10
   1  -7 -13   18.50   17.80
   1  -7 -13   29.80   18.00
  -1   7  13   32.00   15.80
  -1   7  13   22.10   17.80
   0  -7 -13   30.40   19.30
   0  -7 -13    9.80   18.90
   0   7  13   10.80   18.20
   0   7  13   24.00   15.20
   6  -8 -13  199.38   46.80
   6  -8 -13  205.18   22.10
   6  -8 -13  196.98   35.70
   6  -8 -13  184.78   26.80
   5  -8 -13  116.69   31.60
   5  -8 -13   85.69   22.80
   5  -8 -13   85.69   20.40
   5  -8 -13   61.39   13.20
  -5   8  13  107.59   21.10
   4  -8 -13    1.40   17.10
   4  -8 -13  -13.90   13.00
   4  -8 -13   14.10   18.00
  -4   8  13    3.90   14.50
   3  -8 -13   44.10   18.60
   3  -8 -13   61.69   22.30
   3  -8 -13   22.90   19.20
  -3   8  13   26.50   17.40
   2  -8 -13   24.30   18.70
   2  -8 -13   27.80   17.10
  -2   8  13   21.60   14.80
  -2   8  13   33.50   18.40
   4   7 -14   14.00   15.00
  -4  -7  14   13.00   14.80
  -4  -7  14    2.10   18.10
  -4  -7  14  -10.60   17.20
   3   7 -14   -3.70   13.80
  -3  -7  14   11.60   14.10
  -3  -7  14   -2.40   17.20
  -3  -7  14   17.60   18.30
   2   7 -14    8.00   14.50
  -2  -7  14    5.00   13.60
  -2  -7  14   -3.40   17.50
  -2  -7  14  -25.20   15.20
   1   7 -14    6.40   14.10
  -1  -7  14   21.30   15.30
  -1  -7  14   31.00   20.20
  -1  -7  14   32.60   20.00
   0   7 -14    4.70   13.80
   0  -7  14   11.80   18.00
   0  -7  14   -2.20   13.40
   0  -7  14   23.20   19.50
  -1   7 -14    5.50   13.80
   1  -7  14  -13.20   20.30
   1  -7  14   14.20   19.30
  -5  -6  14   22.20   18.80
  -5  -6  14   14.00   16.40
   4   6 -14   -7.40   12.30
  -4  -6  14   33.30   20.50
  -4  -6  14    9.40   16.00
  -4  -6  14    4.80   13.20
   3   6 -14   55.79   17.00
  -3  -6  14   46.60   19.30
  -3  -6  14   31.70   18.30
  -3  -6  14   81.79   19.30
   2   6 -14  220.78   26.60
  -2  -6  14  198.28   26.50
  -2  -6  14  194.78   29.20
  -2  -6  14  196.88   31.00
   1   6 -14   63.49   28.20
  -1  -6  14   82.79   21.80
  -1  -6  14   66.89   21.90
  -1  -6  14   90.29   21.40
   0   6 -14   23.50   13.80
   0  -6  14   29.60   16.20
   0  -6  14   34.00   19.50
   0  -6  14   25.90   18.20
  -1   6 -14   19.50   13.90
   1  -6  14   19.90   20.80
   1  -6  14    2.70   14.90
   1  -6  14   -5.10   17.20
  -2   6 -14   10.90   14.10
   2  -6  14   -3.80   17.00
   2  -6  14   21.60   20.00
   2  -6  14    3.60   17.70
  -6  -5  14  104.79   24.30
  -6  -5  14  121.89   22.10
  -6  -5  14  107.49   25.60
  -5  -5  14  195.78   26.20
  -5  -5  14  137.89   26.10
  -5  -5  14  128.99   25.20
  -4  -5  14  166.48   24.30
  -4  -5  14  111.69   26.40
  -4  -5  14   93.39   22.20
   3   5 -14   -7.20   10.70
  -3  -5  14   13.00   16.30
  -3  -5  14    1.70   12.70
  -3  -5  14   -0.10   14.80
   2   5 -14   14.20   12.90
  -2  -5  14   12.50   16.00
  -2  -5  14   24.00   16.40
  -2  -5  14    6.10   15.30
   1   5 -14  406.46   29.00
  -1  -5  14  321.97   34.30
  -1  -5  14  389.36   36.10
   0   5 -14  256.37   25.80
   0  -5  14  187.28   29.50
   0  -5  14  258.37   30.90
   0  -5  14  245.48   30.00
  -1   5 -14   75.49   18.30
   1  -5  14   49.99   18.70
   1  -5  14   88.09   25.40
   1  -5  14   68.69   22.40
   2  -5  14    2.50   17.50
   2  -5  14   -2.60   16.10
   2  -5  14  -15.30   16.60
   7   4 -14   12.30   13.60
  -7  -4  14    7.60   16.30
  -7  -4  14    2.80   17.60
  -7  -4  14    3.40   13.50
   6   4 -14   64.49   18.50
  -6  -4  14   38.70   21.90
  -6  -4  14   43.30   18.50
  -6  -4  14   47.50   17.90
   5   4 -14  131.59   20.00
  -5  -4  14  131.09   22.70
  -5  -4  14   97.09   22.80
  -5  -4  14  139.79   34.90
   4   4 -14  217.68   23.20
  -4  -4  14  238.68   30.30
  -4  -4  14  202.88   28.50
  -4  -4  14  191.58   27.40
  -3  -4  14  184.28   27.10
  -3  -4  14  236.28   29.70
  -3  -4  14  256.27   29.80
   2   4 -14   20.60   12.40
  -2  -4  14    6.10   12.70
  -2  -4  14   14.50   15.50
  -2  -4  14   18.40   15.00
   1   4 -14   65.49   15.40
  -1  -4  14   19.30   15.90
  -1  -4  14   62.99   19.30
  -1  -4  14   49.50   18.30
   0   4 -14  199.98   22.90
   0  -4  14  204.28   27.30
   0  -4  14  195.78   27.10
   0  -4  14  241.78   32.00
   1  -4  14  125.89   24.50
   1  -4  14   69.59   24.30
   1  -4  14   96.99   23.90
  -2   4 -14   20.40   21.60
   2  -4  14   38.60   19.50
   2  -4  14   51.19   20.60
  -3   4 -14   25.50   23.60
   3  -4  14   63.59   22.30
   3  -4  14   70.19   23.10
   3  -4  14  110.99   24.90
   8   3 -14   20.90   14.70
  -8  -3  14   11.00   18.40
  -8  -3  14   32.60   19.20
  -8  -3  14   -3.30   15.00
   7   3 -14   25.80   14.10
  -7  -3  14   41.70   18.00
  -7  -3  14   58.99   26.20
  -7  -3  14   38.80   17.50
   6   3 -14   15.20   12.60
  -6  -3  14   14.40   16.20
  -6  -3  14    2.00   14.70
   5   3 -14   21.10   11.90
  -5  -3  14   11.90   14.90
  -5  -3  14   10.60   13.50
  -5  -3  14   18.80   15.40
   4   3 -14    2.30   10.10
  -4  -3  14   -9.80   11.20
  -4  -3  14   -0.20   13.00
  -4  -3  14   -4.60   12.80
   3   3 -14    4.10   17.30
  -3  -3  14   -4.50   12.10
  -3  -3  14   -5.30   16.90
  -3  -3  14   -4.60   11.40
   2   3 -14   99.39   16.30
   2   3 -14  164.58   51.69
  -2  -3  14   92.79   19.50
  -2  -3  14   87.09   20.20
  -2  -3  14  136.99   23.70
   1   3 -14  -12.60   14.60
   1   3 -14    7.80   10.50
   1   3 -14    5.80    8.90
  -1  -3  14   -9.30   15.00
  -1  -3  14    1.50   12.10
  -1  -3  14   -2.60   13.00
   0   3 -14   20.40   18.30
   0  -3  14    7.70   13.20
   0  -3  14   10.50   14.10
   0  -3  14   13.70   15.30
  -1   3 -14   45.80   22.20
   1  -3  14   35.20   16.60
   1  -3  14   -2.50   14.60
   1  -3  14   26.50   17.10
  -2   3 -14   -1.10   18.00
   2  -3  14   -5.10   15.80
   2  -3  14  -21.10   14.20
   2  -3  14    7.60   17.80
  -3   3 -14   34.60   23.00
   3  -3  14   51.19   24.30
   3  -3  14   -7.20   17.30
   8   2 -14  161.68   23.60
  -8  -2  14  138.49   24.80
  -8  -2  14  149.99   27.40
  -8  -2  14  103.39   23.40
   7   2 -14   92.29   17.80
  -7  -2  14  107.59   23.30
  -7  -2  14   90.29   22.00
   6   2 -14   31.80   13.50
  -6  -2  14   32.80   16.10
  -6  -2  14   39.50   17.60
  -6  -2  14   16.70   14.60
   5   2 -14   53.89   14.80
  -5  -2  14   63.29   17.50
  -5  -2  14   57.59   18.60
  -5  -2  14  105.69   21.90
   4   2 -14  260.27   25.30
  -4  -2  14  185.98   25.80
  -4  -2  14  236.28   36.00
  -4  -2  14  227.28   28.20
   3   2 -14   89.29   22.50
   3   2 -14  106.69   18.50
  -3  -2  14  166.28   24.90
  -3  -2  14   98.29   20.70
   2   2 -14   45.10   19.10
  -2  -2  14   32.70   15.50
  -2  -2  14   41.00   16.90
  -1  -2  14    5.10   13.70
  -1  -2  14   -2.60   12.90
   0   2 -14    4.10   10.70
   0   2 -14   28.60   18.70
   0  -2  14   37.20   17.70
   0  -2  14    7.20   13.60
  -1   2 -14  117.09   20.00
  -1   2 -14   54.49   22.60
   1  -2  14   97.09   21.70
   1  -2  14  114.39   23.50
  -2   2 -14   26.10   18.50
  -2   2 -14   28.40   22.50
   2  -2  14   11.70   16.10
  -3   2 -14   22.80   19.20
  -3   2 -14  -17.80   17.00
   8   1 -14  493.15   34.20
  -8  -1  14  488.15   38.20
  -8  -1  14  372.36   40.00
   7   1 -14  510.75   32.60
  -7  -1  14  410.06   52.09
  -7  -1  14  597.14   65.69
   6   1 -14  411.36   29.20
  -6  -1  14  393.26   32.80
  -6  -1  14  398.26   38.00
   5   1 -14   22.00   37.10
   5   1 -14   36.80   13.60
   5   1 -14   23.40   17.90
  -5  -1  14   18.50   14.40
  -5  -1  14   10.50   13.00
   4   1 -14  342.77   26.10
   4   1 -14  336.07   71.29
   4   1 -14  242.98   32.10
  -4  -1  14  323.87   32.70
  -4  -1  14  240.88   28.30
   3   1 -14  336.87   35.50
   3   1 -14  428.76   67.69
   3   1 -14  450.65   28.80
  -3  -1  14  458.35   33.20
  -3  -1  14  466.15   34.70
   2   1 -14  435.66   52.59
   2   1 -14  585.54   32.50
   2   1 -14  492.25   74.19
  -2  -1  14  516.35   35.80
  -2  -1  14  548.55   36.20
   1   1 -14  176.28   25.70
   1   1 -14  186.48   22.60
  -1  -1  14  142.79   23.10
  -1  -1  14  176.28   24.30
   0   1 -14   -9.30   13.10
   0   1 -14  -12.10   12.80
   0   1 -14   -5.20    9.90
   0  -1  14    9.70   13.80
   0  -1  14   -3.20   12.30
  -1   1 -14  105.99   23.80
  -1   1 -14  117.69   23.00
  -1   1 -14  124.49   20.70
   1  -1  14  146.99   23.40
  -2   1 -14  271.57   29.30
  -2   1 -14  200.78   30.30
  -2   1 -14  196.88   31.00
  -3   1 -14   14.30   18.80
  -3   1 -14    2.90   14.90
  -3   1 -14   -9.70   16.40
   9   0 -14   -9.20   12.40
  -9   0  14    4.50   16.10
  -9   0  14   22.90   17.40
   8   0 -14   80.69   18.60
  -8   0  14   98.39   22.80
  -8   0  14   61.29   20.90
   7   0 -14  204.38   25.60
   7   0 -14  164.98   30.30
  -7   0  14  203.98   29.80
   6   0 -14  233.08   32.80
   6   0 -14  271.87   27.40
  -6   0  14  245.48   30.90
  -6   0  14  258.77   30.60
   5   0 -14  156.78   51.59
   5   0 -14  105.79   18.60
   5   0 -14   68.79   20.60
  -5   0  14  135.89   22.60
  -5   0  14   90.19   22.10
   4   0 -14   53.79   29.40
   4   0 -14   61.29   15.50
  -4   0  14   56.09   18.70
  -4   0  14   44.70   16.30
   3   0 -14  152.18   39.60
   3   0 -14  241.28   38.50
   3   0 -14  261.37   26.30
  -3   0  14  243.98   24.40
  -3   0  14  341.97   32.20
  -3   0  14  245.98   29.50
   2   0 -14  409.26   28.70
   2   0 -14  460.55   32.20
   2   0 -14  488.95   38.50
   2   0 -14  452.05   67.19
  -2   0  14  535.65   35.10
  -2   0  14  391.76   33.30
  -2   0  14  432.76   30.70
   1   0 -14  377.66   29.50
   1   0 -14  346.57   34.80
   1   0 -14  478.75   31.40
  -1   0  14  368.86   30.20
   0   0 -14   48.90   18.10
   0   0 -14   89.89   19.20
   0   0 -14   58.09   17.40
   0   0  14   77.49   18.40
  -1   0 -14   65.29   19.10
  -1   0 -14  116.69   21.60
  -1   0 -14   79.19   20.90
   1   0  14  109.49   20.60
  -2   0 -14  113.49   24.90
  -2   0 -14  125.49   25.50
  -2   0 -14  104.79   22.90
  -3   0 -14  315.17   37.40
  -3   0 -14  471.65   38.10
  -3   0 -14  255.77   34.20
   9  -1 -14  -14.70   11.20
   9  -1 -14   12.40   21.30
  -9   1  14  -10.80   14.60
   8  -1 -14    2.20   17.50
   8  -1 -14   -1.60   11.40
  -8   1  14    3.60   14.30
  -8   1  14  -22.30   13.50
   7  -1 -14   -2.60   14.70
   7  -1 -14    4.70   12.30
  -7   1  14   -3.50   20.40
  -7   1  14   10.50   17.30
   6  -1 -14    2.50   11.30
   6  -1 -14   14.90   15.30
  -6   1  14   -0.20   12.80
  -6   1  14    3.40   13.00
   5  -1 -14    4.80   10.30
   5  -1 -14   -0.70   13.60
   5  -1 -14   55.29   29.50
  -5   1  14   17.10   14.30
  -5   1  14    2.70   11.90
   4  -1 -14    9.50   13.90
   4  -1 -14   49.20   29.00
   4  -1 -14   22.30   12.40
  -4   1  14   20.20   16.70
  -4   1  14   39.60   15.20
   3  -1 -14    5.90   12.70
   3  -1 -14   -1.70   11.50
   3  -1 -14    9.40   12.10
   3  -1 -14   12.00   20.70
  -3   1  14   17.10   11.80
  -3   1  14   15.70   12.90
   2  -1 -14   52.29   15.10
   2  -1 -14   28.10   14.80
   2  -1 -14    6.60   20.10
   2  -1 -14   27.00   15.40
  -2   1  14   39.10   14.30
  -2   1  14   11.70   13.10
   1  -1 -14   64.19   15.60
   1  -1 -14   95.69   26.80
   1  -1 -14   54.59   19.30
  -1   1  14   76.89   18.70
  -1   1  14   65.69   17.70
   0  -1 -14   35.60   17.70
   0  -1 -14   50.99   17.80
   0  -1 -14    0.80   13.50
   0   1  14   27.30   15.70
   0   1  14   30.90   15.80
  -1  -1 -14    8.10   13.90
  -1  -1 -14    9.60   15.50
   1   1  14   -9.40   12.50
  -2  -1 -14   10.90   17.00
  -2  -1 -14   26.20   16.50
  -2  -1 -14   13.10   17.00
   2   1  14   18.40   16.40
  -3  -1 -14   71.39   22.10
  -3  -1 -14   40.90   20.60
  -3  -1 -14   46.20   18.40
   3   1  14   55.49   20.50
   9  -2 -14  112.69   23.30
   9  -2 -14  105.09   28.40
  -9   2  14  102.19   26.00
   8  -2 -14  110.09   21.40
   8  -2 -14   79.69   24.30
  -8   2  14   96.49   23.10
   7  -2 -14   55.79   21.70
   7  -2 -14   32.90   14.90
  -7   2  14   28.60   18.40
  -7   2  14   37.30   17.30
   6  -2 -14  363.56   29.00
   6  -2 -14  274.87   33.30
  -6   2  14  352.76   34.10
   5  -2 -14  198.88   24.90
   5  -2 -14   95.69   36.80
   5  -2 -14  123.89   23.50
   5  -2 -14  149.49   20.30
  -5   2  14  153.58   24.50
   4  -2 -14   47.60   27.20
   4  -2 -14  117.19   25.00
   4  -2 -14  119.99   19.90
   4  -2 -14  116.09   19.40
  -4   2  14  106.49   20.80
   3  -2 -14   15.40   14.30
   3  -2 -14    2.90   11.60
   3  -2 -14    1.10   14.10
   3  -2 -14   -5.60   16.40
  -3   2  14    5.60   12.90
  -3   2  14    0.90   11.40
   2  -2 -14   93.09   37.70
   2  -2 -14  136.59   22.40
   2  -2 -14  145.09   24.40
   2  -2 -14   88.39   19.80
  -2   2  14  106.19   20.30
  -2   2  14  116.69   20.30
   1  -2 -14   35.40   14.50
   1  -2 -14   35.00   16.70
   1  -2 -14   32.70   16.70
  -1   2  14   45.40   15.80
  -1   2  14   68.49   18.50
   0  -2 -14   13.80   14.90
   0  -2 -14    4.10   13.10
   0  -2 -14   27.40   15.90
   0   2  14   50.39   15.50
   0   2  14   19.10   14.70
  -1  -2 -14   20.20   16.10
  -1  -2 -14   -2.00   13.40
  -1  -2 -14   10.60   18.20
   1   2  14  -13.70   11.60
  -2  -2 -14    2.10   15.90
  -2  -2 -14    1.80   15.10
  -2  -2 -14    5.60   15.40
   2   2  14    6.20   15.00
  -3  -2 -14   27.40   19.70
  -3  -2 -14   31.20   20.00
  -3  -2 -14   20.40   18.30
   3   2  14    7.80   16.90
   9  -3 -14  109.79   27.60
   9  -3 -14  198.08   34.10
   8  -3 -14   69.49   22.80
   8  -3 -14   91.59   20.10
   7  -3 -14    7.80   12.90
   7  -3 -14    8.80   11.60
   7  -3 -14  -11.70   13.50
   6  -3 -14  122.69   19.30
   6  -3 -14  131.89   28.70
   6  -3 -14   83.09   21.30
   5  -3 -14  520.55   39.50
   5  -3 -14  534.95   32.40
   5  -3 -14  509.85   33.40
   5  -3 -14  457.55   68.19
  -5   3  14  548.35   36.80
   4  -3 -14  204.88   27.70
   4  -3 -14  371.16   60.79
   4  -3 -14  335.87   31.30
   4  -3 -14  362.96   29.00
  -4   3  14  359.86   30.00
  -4   3  14  288.67   27.90
   3  -3 -14  122.49   21.00
   3  -3 -14  120.09   21.00
   3  -3 -14  105.19   34.40
   3  -3 -14   71.09   18.90
  -3   3  14  104.59   19.70
  -3   3  14  104.89   20.90
   2  -3 -14   18.80   13.10
   2  -3 -14   -1.90   11.20
   2  -3 -14   18.70   15.40
   2  -3 -14   24.60   24.40
  -2   3  14    5.90   13.30
  -2   3  14    1.40   12.60
   1  -3 -14  131.99   22.50
   1  -3 -14  130.29   23.10
   1  -3 -14  162.48   26.20
  -1   3  14  186.18   24.80
  -1   3  14  113.29   21.80
   0  -3 -14  341.17   45.00
   0  -3 -14  285.77   31.20
   0  -3 -14  263.37   31.00
   0   3  14  273.17   47.00
   0   3  14  328.47   25.00
  -1  -3 -14  210.08   29.50
  -1  -3 -14  169.88   27.60
  -1  -3 -14  128.89   21.90
   1   3  14  217.58   23.60
   1   3  14  205.58   29.50
  -2  -3 -14    6.10   14.40
  -2  -3 -14   -8.00   15.50
  -2  -3 -14    7.40   15.60
   2   3  14  -13.60   14.80
   8  -4 -14  114.99   20.70
   8  -4 -14  149.19   28.80
   8  -4 -14  128.19   22.40
   7  -4 -14  127.09   21.50
   7  -4 -14  156.08   27.30
   7  -4 -14  132.69   23.10
   6  -4 -14   -7.00   10.20
   6  -4 -14   -2.90   13.90
   6  -4 -14   -0.80   11.50
   5  -4 -14   54.99   18.20
   5  -4 -14   64.49   22.60
   5  -4 -14   78.39   17.80
   4  -4 -14  450.05   32.70
   4  -4 -14  367.66   32.90
   4  -4 -14  406.16   33.50
  -4   4  14  403.06   32.30
  -4   4  14  379.66   31.50
   3  -4 -14  490.45   34.30
   3  -4 -14  484.75   34.30
   3  -4 -14  473.35   35.40
   3  -4 -14  544.95   71.99
  -3   4  14  490.75   34.60
  -3   4  14  478.55   35.30
   2  -4 -14  -16.40   11.90
   2  -4 -14   27.30   15.10
   2  -4 -14   14.20   29.90
   2  -4 -14   26.00   14.10
  -2   4  14   33.90   16.40
  -2   4  14   20.50   14.60
   1  -4 -14   66.19   20.60
   1  -4 -14   64.99   26.30
   1  -4 -14   67.99   24.10
  -1   4  14   64.09   19.10
  -1   4  14   91.29   19.60
   0  -4 -14  450.35   36.70
   0  -4 -14  378.46   31.00
   0  -4 -14  400.96   39.20
   0   4  14  358.96   35.90
   0   4  14  475.55   30.80
  -1  -4 -14  166.78   23.50
  -1  -4 -14  125.29   25.50
  -1  -4 -14  138.29   26.80
   1   4  14  145.49   27.80
   1   4  14  166.18   22.40
  -2  -4 -14  219.78   25.50
  -2  -4 -14  137.39   35.90
   2   4  14  221.88   27.30
   8  -5 -14   19.00   19.20
   8  -5 -14   -5.60   12.30
   8  -5 -14   16.90   15.90
   7  -5 -14   41.80   19.00
   7  -5 -14   31.50   15.00
   7  -5 -14    9.30   13.20
   6  -5 -14   -0.20   12.70
   6  -5 -14    2.90   13.40
   6  -5 -14   -4.50   12.80
   5  -5 -14   -2.70   12.70
   5  -5 -14    9.10   12.70
   4  -5 -14   19.10   15.20
   4  -5 -14   -0.10   17.70
   4  -5 -14   23.80   14.00
  -4   5  14   20.60   15.10
   3  -5 -14   21.20   15.10
   3  -5 -14   35.00   15.20
  -3   5  14   34.90   17.70
   2  -5 -14   -2.10   11.90
   2  -5 -14   21.60   15.00
   2  -5 -14   36.30   18.40
   1  -5 -14    3.30   12.40
   1  -5 -14   12.50   16.00
   1  -5 -14   -9.50   15.50
  -1   5  14    2.20   12.30
  -1   5  14    4.20   14.40
   0  -5 -14   41.00   18.00
   0  -5 -14   20.10   13.10
   0  -5 -14   72.69   23.40
   0   5  14   25.40   18.70
   0   5  14   26.60   14.40
  -1  -5 -14  141.29   29.90
  -1  -5 -14  180.68   20.00
  -1  -5 -14  240.78   36.40
   1   5  14  195.48   30.90
   1   5  14  172.58   24.10
   7  -6 -14  221.58   28.30
   7  -6 -14  142.09   24.70
   7  -6 -14   95.19   23.30
   6  -6 -14   18.00   14.90
   6  -6 -14    3.70   14.00
   6  -6 -14    4.20   13.20
   5  -6 -14   13.40   13.80
   5  -6 -14   19.20   15.00
   5  -6 -14    6.90   15.40
  -5   6  14   40.40   17.30
   4  -6 -14   56.09   19.00
   4  -6 -14   83.29   18.50
   4  -6 -14  104.19   21.90
  -4   6  14   98.69   26.00
   3  -6 -14   17.80   13.60
   3  -6 -14   10.40   14.70
   3  -6 -14    3.00   15.40
  -3   6  14   25.30   16.80
   2  -6 -14   65.19   19.00
   2  -6 -14   45.10   20.50
   2  -6 -14   45.50   13.90
  -2   6  14   59.99   21.30
   1  -6 -14   83.89   23.30
   1  -6 -14   44.00   20.90
   1  -6 -14   60.09   14.90
  -1   6  14   44.50   15.90
  -1   6  14   39.00   19.40
   0  -6 -14    4.20   22.10
   0  -6 -14   12.10   18.90
   0   6  14    1.20   17.90
   0   6  14   17.20   14.50
   6  -7 -14  374.06   48.50
   6  -7 -14  350.46   37.20
   6  -7 -14  314.77   33.00
   6  -7 -14  238.88   27.00
   5  -7 -14   65.39   20.20
   5  -7 -14   38.20   18.60
   5  -7 -14   25.40   13.40
   5  -7 -14   46.10   23.60
  -5   7  14   50.89   18.40
   4  -7 -14    2.80   16.00
   4  -7 -14  -18.40   12.10
   4  -7 -14   -5.70   10.00
  -4   7  14    1.90   14.10
   3  -7 -14  155.38   26.10
   3  -7 -14  203.78   30.80
  -3   7  14  146.19   26.80
   2  -7 -14  354.16   36.70
   2  -7 -14  325.87   37.90
  -2   7  14  323.67   36.60
  -4  -6  15   -3.00   16.70
  -4  -6  15   14.30   20.00
  -4  -6  15   11.00   21.50
   3   6 -15   63.69   18.20
  -3  -6  15   89.99   25.30
  -3  -6  15   70.79   22.60
  -3  -6  15   75.59   20.00
   2   6 -15  244.58   28.00
  -2  -6  15  177.78   25.90
  -2  -6  15  222.68   32.20
  -2  -6  15  175.68   28.90
   1   6 -15  183.38   24.70
  -1  -6  15  186.28   27.10
  -1  -6  15  228.98   32.10
  -1  -6  15  177.18   31.00
   0   6 -15   53.39   17.90
   0  -6  15   40.60   23.10
   0  -6  15   93.99   26.50
   0  -6  15   65.09   22.00
  -5  -5  15   26.10   19.30
  -5  -5  15    0.60   14.50
  -5  -5  15   12.40   19.20
  -4  -5  15    1.10   16.70
  -4  -5  15   13.80   17.00
  -4  -5  15   16.70   15.30
  -3  -5  15   13.70   15.40
  -3  -5  15   16.80   17.90
  -3  -5  15   12.80   17.10
   2   5 -15   -7.60   11.70
  -2  -5  15   -3.50   16.10
  -2  -5  15   21.60   15.40
  -2  -5  15   13.80   17.20
  -1  -5  15  202.88   28.60
  -1  -5  15  176.18   29.60
  -1  -5  15  198.88   28.90
   0   5 -15  155.48   23.30
   0  -5  15   97.49   22.70
   0  -5  15  126.39   26.40
   0  -5  15  140.39   26.10
  -1   5 -15   15.50   13.80
   1  -5  15   16.20   18.90
   1  -5  15   11.20   19.10
   1  -5  15    3.40   16.20
   6   4 -15   45.90   16.40
  -6  -4  15    9.50   16.70
  -6  -4  15   41.10   19.30
  -6  -4  15   67.89   20.70
   5   4 -15   62.69   19.50
  -5  -4  15   63.49   19.70
  -5  -4  15   62.59   20.60
  -5  -4  15   78.79   22.40
  -4  -4  15  -10.60   14.70
  -4  -4  15  -10.70   14.00
  -4  -4  15    6.80   14.40
  -3  -4  15   -0.50   15.50
  -3  -4  15   17.90   16.80
  -3  -4  15  -19.90   11.20
  -2  -4  15   19.70   17.30
  -2  -4  15   22.40   18.00
  -2  -4  15   -5.40   13.20
   1   4 -15   14.60   11.70
  -1  -4  15    6.60   16.70
  -1  -4  15    8.80   15.30
  -1  -4  15   -1.80   14.70
   0   4 -15   12.50   12.50
   0  -4  15   23.10   16.30
   0  -4  15   -5.10   14.80
   0  -4  15   15.80   17.20
   1  -4  15    8.60   17.60
   1  -4  15   20.90   18.90
   1  -4  15    6.80   16.40
  -2   4 -15   10.20   21.10
   2  -4  15    6.40   17.80
   2  -4  15   19.30   19.30
   2  -4  15    2.20   18.10
   7   3 -15   21.00   15.20
  -7  -3  15   29.50   19.60
  -7  -3  15   39.70   19.20
   6   3 -15    1.30   11.50
  -6  -3  15   29.00   23.10
  -6  -3  15   21.10   16.50
  -6  -3  15    3.80   15.70
   5   3 -15  141.49   21.70
  -5  -3  15  119.19   23.60
  -5  -3  15  126.29   23.90
  -5  -3  15  135.99   25.40
   4   3 -15  208.28   24.00
  -4  -3  15  196.98   29.60
  -4  -3  15  158.38   25.80
  -4  -3  15  178.98   26.80
   3   3 -15   80.99   17.60
  -3  -3  15   96.09   20.80
  -3  -3  15   83.99   25.20
  -3  -3  15   90.19   21.70
   2   3 -15    1.50   11.70
  -2  -3  15    8.60   15.70
  -2  -3  15    6.20   15.00
   1   3 -15   -9.60   16.70
  -1  -3  15   30.90   19.70
  -1  -3  15   16.40   16.00
   0   3 -15  115.99   28.20
   0  -3  15  144.19   26.70
   0  -3  15  117.09   24.30
  -1   3 -15   99.09   29.90
   1  -3  15  163.88   28.50
   1  -3  15  144.09   26.80
  -2   3 -15   27.60   22.60
   2  -3  15   26.20   19.80
   2  -3  15   17.50   19.70
   7   2 -15  140.19   22.50
  -7  -2  15  151.78   27.90
  -7  -2  15  125.69   24.80
   6   2 -15   42.30   15.00
  -6  -2  15   76.29   21.50
  -6  -2  15   46.40   18.40
   5   2 -15   54.49   16.40
  -5  -2  15   34.00   17.50
   4   2 -15   98.89   18.20
  -4  -2  15  132.49   24.20
   3   2 -15  276.07   27.80
   3   2 -15  198.98   31.00
  -3  -2  15  245.48   32.20
  -3  -2  15  243.58   30.10
   2   2 -15  207.58   23.80
   2   2 -15  157.38   27.70
  -2  -2  15  146.19   24.10
  -2  -2  15  128.39   24.60
   1   2 -15   22.50   18.70
   1   2 -15   17.50   13.50
  -1  -2  15    5.70   14.60
  -1  -2  15    6.60   16.10
   0   2 -15  227.08   33.50
   0   2 -15  356.66   32.10
   0  -2  15  286.67   32.80
   0  -2  15  228.28   29.70
  -1   2 -15  335.67   33.60
  -1   2 -15  304.67   38.80
   1  -2  15  357.76   36.90
   1  -2  15  367.96   53.69
  -2   2 -15  269.77   36.00
   8   1 -15    0.70   13.40
  -8  -1  15   -2.50   15.60
  -8  -1  15   -4.00   15.50
   7   1 -15   25.60   14.80
  -7  -1  15   38.00   20.30
  -7  -1  15   22.60   16.90
   6   1 -15   46.30   16.00
  -6  -1  15   44.70   18.00
  -6  -1  15   40.30   27.70
   5   1 -15   -3.20   10.50
   5   1 -15   -4.60   14.80
  -5  -1  15   15.10   15.30
  -5  -1  15    2.00   15.90
   4   1 -15  -10.00   10.00
   4   1 -15   -5.70   15.90
  -4  -1  15   -4.00   12.80
  -4  -1  15    4.10   14.20
   3   1 -15   75.49   16.80
   3   1 -15   92.49   23.60
  -3  -1  15   72.89   20.30
  -3  -1  15   89.49   20.50
   2   1 -15  250.87   26.30
   2   1 -15  211.48   31.00
  -2  -1  15  207.98   27.20
  -2  -1  15  160.38   25.10
   1   1 -15   10.80   16.10
   1   1 -15   19.70   14.20
  -1  -1  15   22.60   15.10
  -1  -1  15    6.00   14.50
   0   1 -15   14.50   17.50
   0   1 -15   33.70   15.00
   0  -1  15   27.80   17.10
  -1   1 -15  108.59   24.70
  -1   1 -15  156.08   28.40
  -1   1 -15  195.08   27.30
   1  -1  15  151.18   24.00
  -2   1 -15  112.79   25.20
  -2   1 -15   93.39   26.20
  -2   1 -15   46.60   18.90
   8   0 -15   10.60   13.80
  -8   0  15   13.60   17.80
  -8   0  15    7.90   15.70
   7   0 -15   90.89   19.70
   7   0 -15   35.90   21.60
  -7   0  15   93.99   24.30
  -7   0  15   61.89   19.20
   6   0 -15    8.80   17.20
   6   0 -15    5.70   12.20
  -6   0  15   -5.30   14.60
  -6   0  15   10.40   15.40
   5   0 -15   17.50   18.30
   5   0 -15    8.10   11.70
  -5   0  15    0.30   13.90
  -5   0  15    5.10   19.60
   4   0 -15    9.90   15.50
   4   0 -15    1.30   11.60
  -4   0  15   -9.00   13.30
  -4   0  15  -21.10   11.20
   3   0 -15   -7.40   13.70
   3   0 -15    3.20   11.70
  -3   0  15   -8.30   14.00
  -3   0  15    6.50   13.60
   2   0 -15    2.90   12.20
   2   0 -15    8.40   15.90
  -2   0  15    4.20   12.30
  -2   0  15    7.60   14.00
   1   0 -15   22.90   18.00
   1   0 -15   25.40   14.30
   1   0 -15    7.20   15.60
  -1   0  15    7.30   14.20
  -1   0  15    6.60   13.40
   0   0 -15    2.40   14.80
   0   0 -15    1.10   15.40
   0   0 -15    7.20   12.60
   0   0  15    0.80   13.60
  -1   0 -15   14.90   16.70
  -1   0 -15   24.10   22.40
  -1   0 -15    8.70   14.40
  -2   0 -15   15.60   15.80
  -2   0 -15   -8.50   16.30
  -2   0 -15   -5.50   15.40
   8  -1 -15   11.40   19.20
   8  -1 -15   -2.10   13.00
  -8   1  15   -2.90   15.00
   7  -1 -15   55.39   23.20
   7  -1 -15  150.38   24.10
  -7   1  15  122.79   25.40
  -7   1  15  110.39   34.80
   6  -1 -15  496.95   33.30
   6  -1 -15  514.15   43.10
  -6   1  15  465.65   39.60
  -6   1  15  516.65   38.60
   5  -1 -15  244.78   32.80
  -5   1  15  212.38   31.20
   4  -1 -15   46.00   18.50
   4  -1 -15   70.09   17.10
  -4   1  15   87.59   20.40
   3  -1 -15   50.39   15.90
   3  -1 -15   49.20   19.40
  -3   1  15   35.90   16.00
  -3   1  15    7.80   12.70
   2  -1 -15   30.50   16.60
   2  -1 -15   28.20   16.20
   2  -1 -15   49.60   16.40
  -2   1  15   65.89   18.70
  -2   1  15   63.99   18.40
   1  -1 -15  136.29   40.00
   1  -1 -15  157.48   25.00
   1  -1 -15  185.98   26.40
  -1   1  15  147.79   23.60
  -1   1  15  176.58   25.50
   0  -1 -15   56.29   18.90
   0  -1 -15   36.40   19.20
   0  -1 -15   74.39   18.80
   0   1  15   52.79   17.50
   0   1  15   49.80   19.70
  -1  -1 -15    9.30   15.70
  -1  -1 -15    7.70   16.80
  -1  -1 -15    7.80   14.50
   1   1  15   -1.30   14.70
  -2  -1 -15    4.70   18.00
  -2  -1 -15   15.00   17.30
  -2  -1 -15   26.50   18.00
   2   1  15    2.10   16.10
   8  -2 -15   87.09   20.70
   8  -2 -15  119.69   29.00
  -8   2  15   66.29   21.00
   7  -2 -15  167.28   24.30
   7  -2 -15  184.58   30.40
  -7   2  15  173.68   27.90
   6  -2 -15  262.17   29.30
   6  -2 -15  155.58   29.00
  -6   2  15  188.98   27.20
   5  -2 -15  491.05   34.10
   5  -2 -15  352.76   43.00
  -5   2  15  440.56   36.30
   4  -2 -15  312.27   29.10
   4  -2 -15  240.88   29.80
   4  -2 -15  258.97   40.10
  -4   2  15  281.07   31.50
   3  -2 -15   -5.10   13.80
   3  -2 -15   17.70   15.60
   3  -2 -15    3.80   13.70
  -3   2  15   25.60   15.30
  -3   2  15    3.50   14.30
   2  -2 -15  122.69   23.30
   2  -2 -15   99.59   31.00
  -2   2  15  163.48   25.50
  -2   2  15  138.69   23.30
   1  -2 -15  234.28   30.90
   1  -2 -15  332.97   33.20
   1  -2 -15  291.57   32.60
  -1   2  15  347.97   35.40
  -1   2  15  325.07   32.20
   0  -2 -15  163.58   26.20
   0  -2 -15  269.57   32.60
   0   2  15  181.68   27.20
  -1  -2 -15  142.29   25.30
  -1  -2 -15  128.09   25.90
  -1  -2 -15  122.89   24.90
   1   2  15  161.68   28.60
   8  -3 -15   33.70   18.50
   8  -3 -15  -16.20   15.20
   7  -3 -15   13.00   18.30
   7  -3 -15    3.60   12.50
   6  -3 -15   35.00   17.90
   6  -3 -15   27.80   14.50
   6  -3 -15   58.59   16.60
  -6   3  15   32.60   17.20
   5  -3 -15   22.40   17.70
   5  -3 -15   49.30   16.90
   5  -3 -15   57.29   16.70
  -5   3  15   56.29   19.70
   4  -3 -15  157.68   23.40
   4  -3 -15  138.79   24.80
   4  -3 -15  140.29   22.50
   3  -3 -15   54.29   18.60
   3  -3 -15   30.10   15.30
   3  -3 -15   14.70   15.70
  -3   3  15   69.39   19.60
  -3   3  15   51.19   18.20
   2  -3 -15   -7.50   13.80
   2  -3 -15    9.10   13.60
   2  -3 -15   -0.50   14.30
  -2   3  15   15.30   14.50
  -2   3  15    1.50   13.90
   1  -3 -15   26.80   16.50
   1  -3 -15   22.80   18.10
   1  -3 -15   14.30   15.10
  -1   3  15   -6.20   13.50
  -1   3  15   13.40   15.20
   0  -3 -15  191.88   29.80
   0  -3 -15  126.49   23.10
   0  -3 -15  178.38   27.80
   0   3  15  152.18   26.90
  -1  -3 -15   57.49   20.50
  -1  -3 -15   23.50   16.60
  -1  -3 -15   50.59   20.00
   1   3  15   31.60   19.30
   7  -4 -15    6.50   17.00
   7  -4 -15   -9.00   12.00
   7  -4 -15    2.90   14.00
   6  -4 -15    5.20   13.30
   6  -4 -15   23.10   15.50
   6  -4 -15   29.80   19.40
   5  -4 -15   24.50   14.90
   5  -4 -15   27.50   16.80
   4  -4 -15   -1.10   12.20
   4  -4 -15    2.30   14.30
  -4   4  15   19.10   15.90
  -4   4  15    2.70   13.70
   3  -4 -15    2.70   13.30
   3  -4 -15   -6.00   12.90
   3  -4 -15   12.50   15.70
  -3   4  15   -6.40   14.00
   2  -4 -15    0.80   13.80
   2  -4 -15  -10.00   14.60
   2  -4 -15   23.70   15.60
  -2   4  15  -13.50   13.50
  -2   4  15  -18.00   12.70
   1  -4 -15   -3.40   15.80
   1  -4 -15    3.40   15.40
   1  -4 -15   33.20   18.90
  -1   4  15    0.80   14.50
   0  -4 -15   -2.10   17.10
   0  -4 -15    9.60   16.50
   0  -4 -15   -8.20   13.80
   0   4  15   14.00   17.00
   0   4  15   14.80   12.70
   7  -5 -15  178.38   26.80
   7  -5 -15  182.88   27.10
   6  -5 -15   -3.60   13.90
   6  -5 -15   50.89   17.40
   6  -5 -15   31.10   18.40
   5  -5 -15   11.70   14.40
   5  -5 -15   -1.60   13.50
   5  -5 -15    1.70   13.80
   4  -5 -15   75.19   20.80
   4  -5 -15   52.39   18.10
   4  -5 -15   81.79   20.70
   3  -5 -15  258.27   31.40
   3  -5 -15  368.86   36.60
   3  -5 -15  267.67   28.80
  -3   5  15  295.27   34.80
   2  -5 -15   35.80   17.40
   2  -5 -15   78.69   22.50
   2  -5 -15   84.39   19.10
  -2   5  15  124.79   25.70
   1  -5 -15   -4.30   15.90
   1  -5 -15    2.60   12.80
   1  -5 -15   -2.50   18.30
  -1   5  15    6.00   16.20
   5  -6 -15   -9.10   13.20
   5  -6 -15   -8.40   12.70
   5  -6 -15    9.20   17.50
   4  -6 -15   27.50   16.10
   4  -6 -15   62.19   19.20
   4  -6 -15   47.20   20.20
  -4   6  15   92.29   23.10
   3  -6 -15  200.48   28.50
   3  -6 -15  203.58   24.10
   3  -6 -15  221.88   31.50
  -3   6  15  176.18   29.50
   2  -6 -15  349.37   57.19
   2  -6 -15  422.96   67.19
  -2   6  15  412.46   40.20
  -3  -5  16   16.60   18.90
  -2  -5  16   -6.00   17.80
  -2  -5  16   30.70   21.10
  -5  -4  16  125.59   34.30
  -5  -4  16  264.37   40.70
  -5  -4  16  256.67   33.90
  -4  -4  16  161.28   27.40
  -4  -4  16  199.48   30.50
  -4  -4  16  178.18   29.70
  -3  -4  16  268.87   33.00
  -3  -4  16  236.28   31.70
  -3  -4  16  235.18   35.50
  -2  -4  16    2.20   16.10
  -2  -4  16   -2.30   15.30
  -1  -4  16   61.19   21.50
  -1  -4  16   91.39   24.70
   0   4 -16  222.88   29.40
   0  -4  16  183.38   29.40
   0  -4  16  217.08   33.40
   6   3 -16    2.30   13.40
  -6  -3  16   15.10   18.30
  -6  -3  16   24.70   22.40
   5   3 -16   57.89   17.30
  -5  -3  16   47.80   19.10
  -5  -3  16   61.89   20.50
   4   3 -16  210.88   25.60
  -4  -3  16  195.08   28.80
  -4  -3  16  305.57   36.60
   3   3 -16  241.68   30.30
  -3  -3  16  271.97   32.90
  -3  -3  16  266.97   33.90
  -2  -3  16   54.09   20.20
  -2  -3  16  114.79   24.60
   1   3 -16  -17.20   26.60
  -1  -3  16   11.40   17.10
  -1  -3  16    8.00   17.10
   0   3 -16   65.99   26.10
   0  -3  16  127.59   26.90
   0  -3  16   72.39   23.20
   6   2 -16   30.80   15.50
  -6  -2  16   37.90   18.90
  -6  -2  16    9.00   17.10
   5   2 -16    3.20   12.40
  -5  -2  16    3.70   16.10
  -5  -2  16   -3.40   14.90
   4   2 -16    8.20   13.20
  -4  -2  16    5.90   15.20
  -4  -2  16   -2.70   14.20
   3   2 -16   11.90   19.80
  -3  -2  16    0.50   14.50
  -3  -2  16    1.90   14.70
   2   2 -16   28.30   15.40
   2   2 -16   32.90   21.70
  -2  -2  16   47.50   28.40
  -2  -2  16   29.90   18.00
   1   2 -16    0.60   17.70
  -1  -2  16   16.00   20.70
  -1  -2  16   12.40   16.90
   0   2 -16    7.80   15.40
   0   2 -16   -2.40   17.90
   0  -2  16   -1.30   16.90
   0  -2  16    8.90   17.00
  -1   2 -16   14.40   20.50
   1  -2  16   16.80   18.30
   7   1 -16  145.59   24.70
  -7  -1  16  112.39   27.50
  -7  -1  16  225.98   33.20
   6   1 -16    9.90   13.60
  -6  -1  16   18.60   17.70
  -6  -1  16    4.20   16.20
   5   1 -16   -4.10   11.30
   5   1 -16   -9.20   16.50
  -5  -1  16   13.60   16.80
  -5  -1  16    7.50   16.70
   4   1 -16   89.79   19.80
   4   1 -16   49.80   21.30
  -4  -1  16  110.39   29.60
  -4  -1  16  114.29   23.60
   3   1 -16   71.99   24.10
   3   1 -16   70.29   23.10
  -3  -1  16   47.40   19.30
  -3  -1  16   20.80   18.20
   2   1 -16   80.59   33.00
   2   1 -16  152.08   36.40
  -2  -1  16  100.99   23.20
  -2  -1  16  151.88   24.30
  -2  -1  16  137.39   26.80
   1   1 -16   65.89   18.10
   1   1 -16   23.70   19.10
  -1  -1  16   48.10   18.90
   0   1 -16    7.70   17.30
   0   1 -16   10.90   14.50
   0  -1  16   18.40   17.00
  -1   1 -16   13.80   20.50
  -1   1 -16    8.20   14.80
   7   0 -16  140.39   30.80
   7   0 -16  194.68   27.30
  -7   0  16  250.67   36.30
  -7   0  16  130.79   26.90
   6   0 -16  211.58   27.40
   6   0 -16  145.69   29.60
  -6   0  16  138.89   25.70
  -6   0  16  120.79   25.60
   5   0 -16  102.19   20.20
   5   0 -16  140.49   32.60
  -5   0  16  123.79   28.20
  -5   0  16  159.28   26.00
   4   0 -16   -1.30   12.10
  -4   0  16   12.70   17.50
  -4   0  16   -6.00   13.60
   3   0 -16  232.98   34.20
   3   0 -16  423.36   32.40
  -3   0  16  384.46   37.40
   2   0 -16  500.55   35.50
   2   0 -16  390.16   40.50
  -2   0  16  507.25   38.40
  -2   0  16  482.05   36.30
   1   0 -16  582.14   37.70
   1   0 -16  347.87   39.00
  -1   0  16  393.26   36.90
  -1   0  16  450.25   36.70
   0   0 -16   63.59   19.10
   0   0 -16   20.50   18.90
   0   0  16   35.70   19.00
   0   0  16   66.99   20.90
  -1   0 -16   10.40   22.00
  -1   0 -16   40.70   20.60
  -1   0 -16   18.90   16.40
   1   0  16   57.09   22.40
   7  -1 -16   28.40   16.80
   7  -1 -16   53.99   22.80
  -7   1  16   45.70   23.60
  -7   1  16   63.89   21.30
   6  -1 -16  139.29   26.70
   6  -1 -16  218.68   27.60
  -6   1  16  168.38   27.80
  -6   1  16  183.08   47.80
   5  -1 -16  232.28   32.60
   5  -1 -16  422.56   33.00
  -5   1  16  285.77   33.40
   4  -1 -16   70.49   17.90
   4  -1 -16   42.40   20.10
  -4   1  16   87.99   21.90
   3  -1 -16   11.40   16.90
   3  -1 -16   -5.20   11.50
  -3   1  16   -0.40   14.80
   2  -1 -16  104.29   24.60
   2  -1 -16   89.39   21.00
  -2   1  16  132.09   24.40
  -2   1  16  126.19   24.30
   1  -1 -16  162.28   28.40
   1  -1 -16  179.08   26.00
  -1   1  16  224.98   29.30
  -1   1  16  204.48   28.20
   0  -1 -16   71.39   21.10
   0  -1 -16   42.50   20.30
   0  -1 -16   81.29   20.60
   0   1  16   47.20   19.70
   7  -2 -16  -13.50   15.60
   7  -2 -16   -3.40   18.40
  -7   2  16   -4.40   14.60
   6  -2 -16  -15.00   16.30
   6  -2 -16   -2.80   11.90
  -6   2  16   -1.50   14.20
   5  -2 -16   77.79   20.50
   5  -2 -16   34.70   19.90
  -5   2  16   59.49   21.00
   4  -2 -16  134.49   23.20
   4  -2 -16   84.19   23.50
  -4   2  16   90.49   22.20
   3  -2 -16   -1.60   13.80
   3  -2 -16  -13.60   14.30
   3  -2 -16  -17.70   13.00
  -3   2  16   18.00   15.60
  -3   2  16   24.10   16.40
   2  -2 -16   11.10   17.00
   2  -2 -16   14.70   14.40
  -2   2  16   -8.50   13.60
  -2   2  16   -8.10   14.30
   1  -2 -16   21.50   17.70
   1  -2 -16   39.20   19.40
   1  -2 -16   26.40   16.40
  -1   2  16   36.20   18.70
  -1   2  16   16.60   17.10
   0  -2 -16   40.20   20.80
   0  -2 -16   68.99   22.40
   0  -2 -16   63.19   19.30
   0   2  16  103.09   25.60
   6  -3 -16   50.59   22.30
   6  -3 -16   50.09   18.00
  -6   3  16   37.80   19.50
   5  -3 -16  101.99   21.90
   5  -3 -16   42.80   20.70
   5  -3 -16   91.19   21.00
  -5   3  16   74.69   22.00
   4  -3 -16  104.29   21.80
   4  -3 -16   55.89   20.10
   4  -3 -16  100.39   21.80
  -4   3  16  101.09   23.80
   3  -3 -16   22.20   17.20
   3  -3 -16   36.50   18.30
   3  -3 -16    3.90   16.00
  -3   3  16   20.60   16.00
  -3   3  16   34.70   19.10
   2  -3 -16   21.90   15.50
   2  -3 -16    6.50   15.50
   2  -3 -16    1.60   15.50
  -2   3  16   17.60   17.00
  -2   3  16   19.60   16.90
   1  -3 -16   -0.30   17.90
   1  -3 -16    0.70   15.40
   1  -3 -16    8.10   15.40
  -1   3  16   16.40   17.40
   6  -4 -16    8.40   15.30
   6  -4 -16   15.60   27.90
   6  -4 -16   -5.90   16.50
   5  -4 -16  109.99   23.30
   5  -4 -16   94.19   21.10
   5  -4 -16   87.49   23.10
   4  -4 -16  159.88   26.20
   4  -4 -16  130.49   23.70
   4  -4 -16  130.49   26.00
  -4   4  16  131.09   24.90
   3  -4 -16  161.48   27.10
   3  -4 -16  154.28   25.80
   3  -4 -16  174.08   27.80
  -3   4  16  123.59   24.70
  -3   4  16  176.68   29.40
   2  -4 -16    7.30   15.40
   2  -4 -16   14.40   17.70
   2  -4 -16    5.50   15.10
  -2   4  16   -5.10   14.90
  -2   4  16   22.40   18.40
   4   2 -17  179.98   25.80
  -4  -2  17  140.39   28.90
  -4  -2  17  129.69   37.30
   3   2 -17  134.09   30.60
   3   2 -17  136.49   23.70
  -3  -2  17  181.98   30.10
  -3  -2  17  137.19   25.80
   2   2 -17   65.79   25.80
   2   2 -17  111.49   23.00
  -2  -2  17   83.19   22.40
  -2  -2  17   75.09   23.40
   5   1 -17   38.20   23.40
   5   1 -17   84.19   20.40
  -5  -1  17   53.29   38.00
  -5  -1  17   62.99   23.40
   4   1 -17   41.30   21.90
   4   1 -17   14.90   15.10
  -4  -1  17   25.40   19.40
  -4  -1  17    9.90   18.90
   3   1 -17   66.99   24.50
   3   1 -17   64.99   19.20
  -3  -1  17   61.69   20.50
  -3  -1  17   55.19   22.40
   2   1 -17  133.79   30.10
   2   1 -17  160.78   24.40
  -2  -1  17  237.98   32.70
  -2  -1  17  133.89   40.40
   5   0 -17  152.08   24.90
   5   0 -17  129.89   29.40
  -5   0  17  113.69   25.90
  -5   0  17  106.29   27.40
   4   0 -17   -2.80   17.30
   4   0 -17   -5.00   12.60
  -4   0  17   13.00   16.90
   3   0 -17   32.00   17.10
   3   0 -17   21.50   19.40
  -3   0  17   35.60   19.90
   2   0 -17  121.09   22.60
   2   0 -17   65.99   23.40
  -2   0  17  180.68   29.60
  -2   0  17  113.19   24.20
   5  -1 -17   35.60   21.10
   5  -1 -17   59.59   18.90
  -5   1  17   39.40   22.40
   4  -1 -17   40.30   21.30
   4  -1 -17   66.89   20.00
  -4   1  17   34.60   19.50
   3  -1 -17   20.40   19.40
   3  -1 -17   23.10   16.00
  -3   1  17   -9.80   14.90
   2  -1 -17   -1.60   15.20
   2  -1 -17   -9.20   16.00
  -2   1  17   10.60   17.10
  -2   1  17   -5.00   16.30
   4  -2 -17   96.19   24.00
   4  -2 -17  147.99   30.10
  -4   2  17  152.68   27.20
   3  -2 -17   -2.70   15.00
   3  -2 -17    6.70   18.80
  -3   2  17   15.40   17.50
   0   0   0    0.00    0.00

_computing_structure_solution     'SHELXT 2014/5 (Sheldrick, 2014)'
;
_shelx_hkl_checksum              32270
_olex2_date_sample_data_collection 2020-03-12
_olex2_date_sample_submission    2020-03-12
_olex2_submission_original_sample_id 'NMR tube--AC2.190'
_olex2_submission_special_instructions 'No special instructions were received'
loop_
_space_group_symop_operation_xyz
'x, y, z'
'-x, -y, -z'
loop_
_atom_site_label
_atom_site_type_symbol
_atom_site_fract_x
_atom_site_fract_y
_atom_site_fract_z
_atom_site_U_iso_or_equiv
_atom_site_adp_type
_atom_site_occupancy
_atom_site_site_symmetry_order
_atom_site_calc_flag
_atom_site_refinement_flags_posn
_atom_site_refinement_flags_adp
_atom_site_refinement_flags_occupancy
_atom_site_disorder_assembly
_atom_site_disorder_group
Br1 Br 0.38189(3) 0.69186(2) 0.70320(2) 0.01972(6) Uani 1 1 d . . . . .
Ni1 Ni 0.59584(3) 0.54791(3) 0.66202(2) 0.01196(7) Uani 1 1 d . . . . .
N2 N 0.4463(2) 0.36095(18) 0.57411(15) 0.0128(3) Uani 1 1 d . . . . .
N3 N 0.3671(2) 0.31653(18) 0.46225(15) 0.0132(3) Uani 1 1 d . . . . .
N1 N 0.5874(2) 0.41150(19) 0.79827(16) 0.0141(3) Uani 1 1 d . . . . .
N4 N 0.8262(2) 0.4702(2) 0.66156(18) 0.0186(4) Uani 1 1 d . . . . .
C9 C 0.2904(3) 0.1689(2) 0.45611(19) 0.0140(4) Uani 1 1 d . . . . .
C7 C 0.4208(3) 0.2429(2) 0.63881(19) 0.0144(4) Uani 1 1 d . . . . .
C8 C 0.3224(3) 0.1164(2) 0.56614(19) 0.0161(4) Uani 1 1 d . . . . .
H8 H 0.286062 0.017560 0.587312 0.019 Uiso 1 1 calc R U . . .
C6 C 0.4908(3) 0.2707(2) 0.76327(19) 0.0151(4) Uani 1 1 d . . . . .
C2 C 0.6610(3) 0.4488(2) 0.91182(19) 0.0173(4) Uani 1 1 d . . . . .
C3 C 0.6334(3) 0.3492(3) 0.9943(2) 0.0203(4) Uani 1 1 d . . . . .
H3 H 0.683816 0.378122 1.074244 0.024 Uiso 1 1 calc R U . . .
C10 C 0.1855(3) 0.0911(2) 0.34334(18) 0.0139(4) Uani 1 1 d . . . . .
C11 C 0.2181(3) -0.0453(2) 0.3077(2) 0.0211(4) Uani 1 1 d . . . . .
H11 H 0.308960 -0.089799 0.356316 0.025 Uiso 1 1 calc R U . . .
C5 C 0.4622(3) 0.1654(2) 0.8417(2) 0.0202(4) Uani 1 1 d . . . . .
H5 H 0.396453 0.066818 0.815839 0.024 Uiso 1 1 calc R U . . .
C16 C 0.9139(3) 0.4090(2) 0.6256(2) 0.0211(4) Uani 1 1 d . . . . .
C12 C 0.1181(3) -0.1161(3) 0.2013(2) 0.0237(5) Uani 1 1 d . . . . .
H12 H 0.141699 -0.208700 0.177353 0.028 Uiso 1 1 calc R U . . .
C15 C 0.0498(3) 0.1535(2) 0.2708(2) 0.0212(4) Uani 1 1 d . . . . .
H15 H 0.025588 0.246092 0.294178 0.025 Uiso 1 1 calc R U . . .
C14 C -0.0495(3) 0.0813(3) 0.1650(2) 0.0258(5) Uani 1 1 d . . . . .
H14 H -0.141479 0.124429 0.116200 0.031 Uiso 1 1 calc R U . . .
C13 C -0.0150(3) -0.0540(3) 0.1301(2) 0.0235(5) Uani 1 1 d . . . . .
H13 H -0.082862 -0.103479 0.057457 0.028 Uiso 1 1 calc R U . . .
C1 C 0.7746(3) 0.6028(3) 0.9449(2) 0.0227(5) Uani 1 1 d . . . . .
H1A H 0.708616 0.679065 0.906862 0.034 Uiso 1 1 calc R U . . .
H1B H 0.880939 0.607404 0.920493 0.034 Uiso 1 1 calc R U . . .
H1C H 0.808326 0.622382 1.028750 0.034 Uiso 1 1 calc R U . . .
C4 C 0.5314(3) 0.2072(3) 0.9582(2) 0.0222(4) Uani 1 1 d . . . . .
H4 H 0.509132 0.138699 1.013399 0.027 Uiso 1 1 calc R U . . .
C17 C 1.0227(4) 0.3310(3) 0.5775(3) 0.0310(6) Uani 1 1 d . . . . .
H17A H 0.958497 0.296027 0.497195 0.047 Uiso 1 1 calc R U . . .
H17B H 1.050680 0.244284 0.622567 0.047 Uiso 1 1 calc R U . . .
H17C H 1.132273 0.400250 0.580260 0.047 Uiso 1 1 calc R U . . .
loop_
_atom_site_aniso_label
_atom_site_aniso_U_11
_atom_site_aniso_U_22
_atom_site_aniso_U_33
_atom_site_aniso_U_23
_atom_site_aniso_U_13
_atom_site_aniso_U_12
Br1 0.02298(12) 0.02073(11) 0.02062(12) 0.00302(8) 0.01106(9) 0.00977(8)
Ni1 0.01341(13) 0.01067(12) 0.01246(13) 0.00065(9) 0.00474(10) 0.00245(9)
N2 0.0135(8) 0.0128(7) 0.0127(8) -0.0001(6) 0.0046(6) 0.0028(6)
N3 0.0144(8) 0.0127(7) 0.0135(8) 0.0005(6) 0.0054(6) 0.0026(6)
N1 0.0155(8) 0.0141(8) 0.0144(8) 0.0017(6) 0.0064(7) 0.0043(6)
N4 0.0177(9) 0.0166(8) 0.0233(10) 0.0071(7) 0.0081(8) 0.0045(7)
C9 0.0148(9) 0.0105(8) 0.0181(10) 0.0002(7) 0.0070(8) 0.0028(7)
C7 0.0140(9) 0.0142(9) 0.0165(10) 0.0025(7) 0.0059(8) 0.0040(7)
C8 0.0185(10) 0.0128(9) 0.0182(10) 0.0032(7) 0.0070(8) 0.0034(7)
C6 0.0137(9) 0.0147(9) 0.0181(10) 0.0024(7) 0.0056(8) 0.0045(7)
C2 0.0197(10) 0.0163(9) 0.0171(10) 0.0010(8) 0.0063(8) 0.0050(8)
C3 0.0243(11) 0.0235(10) 0.0134(10) 0.0021(8) 0.0053(9) 0.0060(8)
C10 0.0154(9) 0.0117(8) 0.0153(9) 0.0014(7) 0.0064(8) 0.0009(7)
C11 0.0204(11) 0.0186(10) 0.0238(12) -0.0021(8) 0.0042(9) 0.0067(8)
C5 0.0235(11) 0.0173(10) 0.0209(11) 0.0050(8) 0.0084(9) 0.0035(8)
C16 0.0173(10) 0.0204(10) 0.0265(12) 0.0030(9) 0.0075(9) 0.0039(8)
C12 0.0279(12) 0.0188(10) 0.0233(12) -0.0060(9) 0.0070(10) 0.0028(9)
C15 0.0229(11) 0.0150(9) 0.0236(12) -0.0003(8) 0.0032(9) 0.0044(8)
C14 0.0248(12) 0.0202(10) 0.0242(12) 0.0015(9) -0.0040(9) 0.0023(8)
C13 0.0257(12) 0.0209(11) 0.0198(11) -0.0010(9) 0.0049(9) -0.0033(9)
C1 0.0281(12) 0.0201(10) 0.0181(11) -0.0003(8) 0.0054(9) 0.0023(9)
C4 0.0275(12) 0.0215(10) 0.0187(11) 0.0072(8) 0.0083(9) 0.0047(9)
C17 0.0244(12) 0.0299(12) 0.0453(16) 0.0000(11) 0.0184(12) 0.0086(10)
loop_
_atom_type_symbol
_atom_type_description
_atom_type_scat_dispersion_real
_atom_type_scat_dispersion_imag
_atom_type_scat_source
C C 0.0033 0.0016 'International Tables Vol C Tables 4.2.6.8 and 6.1.1.4'
N N 0.0061 0.0033 'International Tables Vol C Tables 4.2.6.8 and 6.1.1.4'
Br Br -0.2901 2.4595 'International Tables Vol C Tables 4.2.6.8 and 6.1.1.4'
Ni Ni 0.3393 1.1124 'International Tables Vol C Tables 4.2.6.8 and 6.1.1.4'
H H 0.0000 0.0000 'International Tables Vol C Tables 4.2.6.8 and 6.1.1.4'
loop_
_geom_angle_atom_site_label_1
_geom_angle_atom_site_label_2
_geom_angle_atom_site_label_3
_geom_angle
_geom_angle_site_symmetry_1
_geom_angle_site_symmetry_3
_geom_angle_publ_flag
N2 Ni1 Br1 104.30(5) . . ?
N2 Ni1 N3 103.28(7) . 2_666 ?
N2 Ni1 N1 80.44(7) . . ?
N2 Ni1 N4 91.11(7) . . ?
N3 Ni1 Br1 91.94(5) 2_666 . ?
N3 Ni1 N1 173.71(7) 2_666 . ?
N3 Ni1 N4 87.93(7) 2_666 . ?
N1 Ni1 Br1 92.03(5) . . ?
N1 Ni1 N4 86.92(7) . . ?
N4 Ni1 Br1 164.16(6) . . ?
N3 N2 Ni1 136.04(13) . . ?
N3 N2 C7 108.87(16) . . ?
C7 N2 Ni1 115.00(14) . . ?
N2 N3 Ni1 120.56(12) . 2_666 ?
N2 N3 C9 107.93(17) . . ?
C9 N3 Ni1 130.82(14) . 2_666 ?
C6 N1 Ni1 113.12(14) . . ?
C2 N1 Ni1 127.61(14) . . ?
C2 N1 C6 119.24(18) . . ?
C16 N4 Ni1 156.71(19) . . ?
N3 C9 C8 109.93(18) . . ?
N3 C9 C10 120.04(18) . . ?
C8 C9 C10 129.98(18) . . ?
N2 C7 C8 109.27(19) . . ?
N2 C7 C6 117.04(17) . . ?
C8 C7 C6 133.65(19) . . ?
C9 C8 C7 103.98(18) . . ?
C9 C8 H8 128.0 . . ?
C7 C8 H8 128.0 . . ?
N1 C6 C7 114.15(18) . . ?
N1 C6 C5 121.8(2) . . ?
C5 C6 C7 124.05(19) . . ?
N1 C2 C3 121.44(19) . . ?
N1 C2 C1 116.74(19) . . ?
C3 C2 C1 121.8(2) . . ?
C2 C3 H3 120.5 . . ?
C4 C3 C2 119.0(2) . . ?
C4 C3 H3 120.5 . . ?
C11 C10 C9 121.13(19) . . ?
C11 C10 C15 118.9(2) . . ?
C15 C10 C9 120.00(18) . . ?
C10 C11 H11 119.9 . . ?
C12 C11 C10 120.1(2) . . ?
C12 C11 H11 119.9 . . ?
C6 C5 H5 120.8 . . ?
C4 C5 C6 118.5(2) . . ?
C4 C5 H5 120.8 . . ?
N4 C16 C17 178.8(3) . . ?
C11 C12 H12 119.6 . . ?
C13 C12 C11 120.8(2) . . ?
C13 C12 H12 119.6 . . ?
C10 C15 H15 119.8 . . ?
C14 C15 C10 120.4(2) . . ?
C14 C15 H15 119.8 . . ?
C15 C14 H14 119.9 . . ?
C15 C14 C13 120.2(2) . . ?
C13 C14 H14 119.9 . . ?
C12 C13 C14 119.7(2) . . ?
C12 C13 H13 120.2 . . ?
C14 C13 H13 120.2 . . ?
C2 C1 H1A 109.5 . . ?
C2 C1 H1B 109.5 . . ?
C2 C1 H1C 109.5 . . ?
H1A C1 H1B 109.5 . . ?
H1A C1 H1C 109.5 . . ?
H1B C1 H1C 109.5 . . ?
C3 C4 H4 120.0 . . ?
C5 C4 C3 119.9(2) . . ?
C5 C4 H4 120.0 . . ?
C16 C17 H17A 109.5 . . ?
C16 C17 H17B 109.5 . . ?
C16 C17 H17C 109.5 . . ?
H17A C17 H17B 109.5 . . ?
H17A C17 H17C 109.5 . . ?
H17B C17 H17C 109.5 . . ?
loop_
_geom_bond_atom_site_label_1
_geom_bond_atom_site_label_2
_geom_bond_distance
_geom_bond_site_symmetry_2
_geom_bond_publ_flag
Br1 Ni1 2.4888(3) . ?
Ni1 N2 1.9851(17) . ?
Ni1 N3 2.0067(18) 2_666 ?
Ni1 N1 2.0800(18) . ?
Ni1 N4 2.0997(19) . ?
N2 N3 1.344(2) . ?
N2 C7 1.351(3) . ?
N3 C9 1.358(3) . ?
N1 C6 1.360(3) . ?
N1 C2 1.345(3) . ?
N4 C16 1.144(3) . ?
C9 C8 1.388(3) . ?
C9 C10 1.477(3) . ?
C7 C8 1.403(3) . ?
C7 C6 1.452(3) . ?
C8 H8 0.9500 . ?
C6 C5 1.389(3) . ?
C2 C3 1.391(3) . ?
C2 C1 1.503(3) . ?
C3 H3 0.9500 . ?
C3 C4 1.386(3) . ?
C10 C11 1.393(3) . ?
C10 C15 1.398(3) . ?
C11 H11 0.9500 . ?
C11 C12 1.387(3) . ?
C5 H5 0.9500 . ?
C5 C4 1.382(3) . ?
C16 C17 1.454(3) . ?
C12 H12 0.9500 . ?
C12 C13 1.375(4) . ?
C15 H15 0.9500 . ?
C15 C14 1.384(3) . ?
C14 H14 0.9500 . ?
C14 C13 1.388(4) . ?
C13 H13 0.9500 . ?
C1 H1A 0.9800 . ?
C1 H1B 0.9800 . ?
C1 H1C 0.9800 . ?
C4 H4 0.9500 . ?
C17 H17A 0.9800 . ?
C17 H17B 0.9800 . ?
C17 H17C 0.9800 . ?
loop_
_geom_hbond_atom_site_label_D
_geom_hbond_atom_site_label_H
_geom_hbond_atom_site_label_A
_geom_hbond_distance_DH
_geom_hbond_distance_HA
_geom_hbond_distance_DA
_geom_hbond_angle_DHA
_geom_hbond_site_symmetry_A
_geom_hbond_publ_flag
C3 H3 Br1 0.95 2.95 3.729(2) 139.7 2_667 yes
C1 H1A Br1 0.98 3.06 3.847(3) 138.0 . yes
C17 H17A Br1 0.98 3.11 3.945(3) 143.8 2_666 yes
C17 H17C Br1 0.98 3.09 3.916(3) 143.5 1_655 yes
C17 H17C N2 0.98 2.64 3.392(3) 133.7 1_655 yes
loop_
_geom_torsion_atom_site_label_1
_geom_torsion_atom_site_label_2
_geom_torsion_atom_site_label_3
_geom_torsion_atom_site_label_4
_geom_torsion
_geom_torsion_site_symmetry_1
_geom_torsion_site_symmetry_2
_geom_torsion_site_symmetry_3
_geom_torsion_site_symmetry_4
_geom_torsion_publ_flag
Ni1 N2 N3 Ni1 4.8(3) . . . 2_666 ?
Ni1 N2 N3 C9 176.30(15) . . . . ?
Ni1 N2 C7 C8 -176.57(13) . . . . ?
Ni1 N2 C7 C6 5.5(2) . . . . ?
Ni1 N3 C9 C8 169.61(15) 2_666 . . . ?
Ni1 N3 C9 C10 -12.7(3) 2_666 . . . ?
Ni1 N1 C6 C7 2.6(2) . . . . ?
Ni1 N1 C6 C5 -176.77(17) . . . . ?
Ni1 N1 C2 C3 175.02(16) . . . . ?
Ni1 N1 C2 C1 -5.2(3) . . . . ?
N2 N3 C9 C8 -0.7(2) . . . . ?
N2 N3 C9 C10 177.03(18) . . . . ?
N2 C7 C8 C9 -0.9(2) . . . . ?
N2 C7 C6 N1 -5.4(3) . . . . ?
N2 C7 C6 C5 174.0(2) . . . . ?
N3 N2 C7 C8 0.5(2) . . . . ?
N3 N2 C7 C6 -177.43(17) . . . . ?
N3 C9 C8 C7 1.0(2) . . . . ?
N3 C9 C10 C11 128.3(2) . . . . ?
N3 C9 C10 C15 -52.3(3) . . . . ?
N1 C6 C5 C4 1.3(3) . . . . ?
N1 C2 C3 C4 1.6(3) . . . . ?
C9 C10 C11 C12 -179.9(2) . . . . ?
C9 C10 C15 C14 -179.9(2) . . . . ?
C7 N2 N3 Ni1 -171.38(13) . . . 2_666 ?
C7 N2 N3 C9 0.1(2) . . . . ?
C7 C6 C5 C4 -178.0(2) . . . . ?
C8 C9 C10 C11 -54.5(3) . . . . ?
C8 C9 C10 C15 124.9(2) . . . . ?
C8 C7 C6 N1 177.3(2) . . . . ?
C8 C7 C6 C5 -3.3(4) . . . . ?
C6 N1 C2 C3 -3.2(3) . . . . ?
C6 N1 C2 C1 176.63(19) . . . . ?
C6 C7 C8 C9 176.6(2) . . . . ?
C6 C5 C4 C3 -2.8(4) . . . . ?
C2 N1 C6 C7 -178.94(18) . . . . ?
C2 N1 C6 C5 1.7(3) . . . . ?
C2 C3 C4 C5 1.4(4) . . . . ?
C10 C9 C8 C7 -176.5(2) . . . . ?
C10 C11 C12 C13 -0.5(4) . . . . ?
C10 C15 C14 C13 0.0(4) . . . . ?
C11 C10 C15 C14 -0.4(3) . . . . ?
C11 C12 C13 C14 0.1(4) . . . . ?
C15 C10 C11 C12 0.7(3) . . . . ?
C15 C14 C13 C12 0.2(4) . . . . ?
C1 C2 C3 C4 -178.1(2) . . . . ?
