#------------------------------------------------------------------------------
#$Date: 2021-01-07 06:47:51 +0200 (Thu, 07 Jan 2021) $
#$Revision: 260664 $
#$URL: file:///home/coder/svn-repositories/cod/cif/7/12/71/7127115.cif $
#------------------------------------------------------------------------------
#
# This file is available in the Crystallography Open Database (COD),
# http://www.crystallography.net/
#
# All data on this site have been placed in the public domain by the
# contributors.
#
data_7127115
loop_
_publ_author_name
'Zhang, Mengsi'
'Zhao, Zhiying'
'Zhang, Wanwan'
'Li, Jinyang'
'Huang, Xiaoying'
'He, Zhangzhen'
_publ_section_title
;
 Pb(OF)Cu<sub>3</sub>(SeO<sub>3</sub>)<sub>2</sub>(NO<sub>3</sub>): a
 selenite fluoride nitrate with a breathing kagom\'e lattice.
;
_journal_issue                   80
_journal_name_full
'Chemical communications (Cambridge, England)'
_journal_page_first              11965
_journal_page_last               11968
_journal_paper_doi               10.1039/d0cc03684f
_journal_volume                  56
_journal_year                    2020
_chemical_formula_moiety         '0.67(Cu4.5 F1.5 N1.5 O15 Pb1.5 Se3)'
_chemical_formula_sum            'Cu3 F N O10 Pb Se2'
_chemical_formula_weight         748.74
_space_group_crystal_system      trigonal
_space_group_IT_number           160
_space_group_name_Hall           'R 3 -2"'
_space_group_name_H-M_alt        'R 3 m :H'
_atom_sites_solution_primary     direct
_audit_creation_date             2019-01-19
_audit_creation_method
;
Olex2 1.2
(compiled 2017.08.10 svn.r3458 for OlexSys, GUI svn.r5381)
;
_audit_update_record
;
2019-01-28 deposited with the CCDC.	2020-08-25 downloaded from the CCDC.
;
_cell_angle_alpha                90
_cell_angle_beta                 90
_cell_angle_gamma                120
_cell_formula_units_Z            3
_cell_length_a                   6.69730(10)
_cell_length_b                   6.69730(10)
_cell_length_c                   18.5548(3)
_cell_measurement_reflns_used    2844
_cell_measurement_temperature    293(2)
_cell_measurement_theta_max      33.1680
_cell_measurement_theta_min      3.2790
_cell_volume                     720.753(19)
_computing_cell_refinement       'CrysAlisPro 1.171.39.46c (Rigaku OD, 2018)'
_computing_data_collection       'CrysAlisPro 1.171.39.46c (Rigaku OD, 2018)'
_computing_data_reduction        'CrysAlisPro 1.171.39.46c (Rigaku OD, 2018)'
_computing_molecular_graphics    'Olex2 (Dolomanov et al., 2009)'
_computing_publication_material  'Olex2 (Dolomanov et al., 2009)'
_computing_structure_refinement  'ShelXL (Sheldrick, 2015)'
_computing_structure_solution    'SIR2004 (Burla et al., 2007)'
_diffrn_ambient_temperature      293(2)
_diffrn_detector                 'CCD plate'
_diffrn_measured_fraction_theta_full 1.000
_diffrn_measured_fraction_theta_max 1.000
_diffrn_measurement_details
;
List of Runs (angles in degrees, time in seconds):

  # Type    Start    End  Width  t~exp~   \w     \q     \k     \f   Frames
#--------------------------------------------------------------------------
  1  \w   -118.00  62.00   0.50    5.00    --  -28.00  45.00 270.00  360
  2  \w   -118.00  62.00   0.50    5.00    --  -28.00  45.00 180.00  360
  3  \w   -118.00  62.00   0.50    5.00    --  -28.00  45.00  90.00  360
  4  \w   -118.00 -93.00   0.50    5.00    --  -28.00  45.00   0.00   50
;
_diffrn_measurement_device       'abstract diffractometer'
_diffrn_measurement_device_type
'dtrek-CrysAlisPro-abstract goniometer imported rigaku-d*trek images'
_diffrn_measurement_method       '\w scans'
_diffrn_orient_matrix_type
'CrysAlisPro convention (1999,Acta A55,543-557)'
_diffrn_orient_matrix_UB_11      0.0220887000
_diffrn_orient_matrix_UB_12      -0.0671880000
_diffrn_orient_matrix_UB_13      0.0248215000
_diffrn_orient_matrix_UB_21      -0.0743640000
_diffrn_orient_matrix_UB_22      -0.1009954000
_diffrn_orient_matrix_UB_23      -0.0197506000
_diffrn_orient_matrix_UB_31      0.0945704000
_diffrn_orient_matrix_UB_32      0.0153437000
_diffrn_orient_matrix_UB_33      -0.0213315000
_diffrn_radiation_monochromator  graphite
_diffrn_radiation_probe          x-ray
_diffrn_radiation_type           MoK\a
_diffrn_radiation_wavelength     0.71073
_diffrn_reflns_av_R_equivalents  0.0243
_diffrn_reflns_av_unetI/netI     0.0148
_diffrn_reflns_Laue_measured_fraction_full 1.000
_diffrn_reflns_Laue_measured_fraction_max 1.000
_diffrn_reflns_limit_h_max       10
_diffrn_reflns_limit_h_min       -10
_diffrn_reflns_limit_k_max       10
_diffrn_reflns_limit_k_min       -10
_diffrn_reflns_limit_l_max       27
_diffrn_reflns_limit_l_min       -27
_diffrn_reflns_number            3679
_diffrn_reflns_point_group_measured_fraction_full 1.000
_diffrn_reflns_point_group_measured_fraction_max 1.000
_diffrn_reflns_theta_full        25.242
_diffrn_reflns_theta_max         32.540
_diffrn_reflns_theta_min         3.294
_diffrn_source                   'fine-focus sealed X-ray tube'
_diffrn_source_type              'Enhance (Mo) X-ray Source'
_exptl_absorpt_coefficient_mu    31.657
_exptl_absorpt_correction_T_max  1.00000
_exptl_absorpt_correction_T_min  0.58032
_exptl_absorpt_correction_type   multi-scan
_exptl_absorpt_process_details
;
CrysAlisPro 1.171.39.46c (Rigaku Oxford Diffraction, 2018)
Empirical absorption correction using spherical harmonics,
 implemented in SCALE3 ABSPACK scaling algorithm.
;
_exptl_crystal_colour            'clear light yellow'
_exptl_crystal_colour_lustre     clear
_exptl_crystal_colour_modifier   light
_exptl_crystal_colour_primary    yellow
_exptl_crystal_density_diffrn    5.175
_exptl_crystal_description       block
_exptl_crystal_F_000             999
_exptl_crystal_size_max          0.045
_exptl_crystal_size_mid          0.042
_exptl_crystal_size_min          0.04
_refine_diff_density_max         0.683
_refine_diff_density_min         -0.988
_refine_diff_density_rms         0.182
_refine_ls_abs_structure_details
;
 Refined as an inversion twin.
;
_refine_ls_abs_structure_Flack   0.488(9)
_refine_ls_extinction_method     none
_refine_ls_goodness_of_fit_ref   1.102
_refine_ls_hydrogen_treatment    undef
_refine_ls_matrix_type           full
_refine_ls_number_parameters     44
_refine_ls_number_reflns         708
_refine_ls_number_restraints     1
_refine_ls_restrained_S_all      1.102
_refine_ls_R_factor_all          0.0146
_refine_ls_R_factor_gt           0.0146
_refine_ls_shift/su_max          0.000
_refine_ls_shift/su_mean         0.000
_refine_ls_structure_factor_coef Fsqd
_refine_ls_weighting_details
'w=1/[\s^2^(Fo^2^)+(0.0213P)^2^+1.8800P] where P=(Fo^2^+2Fc^2^)/3'
_refine_ls_weighting_scheme      calc
_refine_ls_wR_factor_gt          0.0355
_refine_ls_wR_factor_ref         0.0355
_reflns_Friedel_coverage         0.986
_reflns_Friedel_fraction_full    1.000
_reflns_Friedel_fraction_max     1.000
_reflns_number_gt                705
_reflns_number_total             708
_reflns_threshold_expression     'I > 2\s(I)'
_cod_data_source_file            d0cc03684f2.cif
_cod_data_source_block           pb(of)cu3(seo3)2(no3)
_cod_depositor_comments          'Adding full bibliography for 7127115.cif.'
_cod_original_cell_volume        720.75(2)
_cod_original_sg_symbol_H-M      'R 3 m'
_cod_database_code               7127115
_shelx_shelxl_version_number     2014/7
_chemical_oxdiff_formula         'C11 H10 N O'
_shelx_space_group_comment
;
The symmetry employed for this shelxl refinement is uniquely defined
by the following loop, which should always be used as a source of
symmetry information in preference to the above space-group names.
They are only intended as comments.
;
_shelx_estimated_absorpt_t_max   0.364
_shelx_estimated_absorpt_t_min   0.330
_reflns_odcompleteness_completeness 100.00
_reflns_odcompleteness_iscentric 1
_reflns_odcompleteness_theta     32.50
_olex2_refinement_description
;
1. Twinned data refinement
 Scales: 0.512(9)
 0.488(9)
;
_shelx_res_file
;
    pb(of)cu3(seo3)2(no3).res created by SHELXL-2014/7

TITL pbcuseofn_b.res in R3m
REM Old TITL pbcuseofn2_b.res in R3m
REM SHELXT solution in R3m
REM R1 0.030, Rweak 0.048, Alpha 0.002, Orientation as input
REM Flack x = 0.484 ( 0.005 ) from Parsons' quotients
REM Formula found by SHELXT: Pb Cu4 Se O12
CELL 0.71073 6.6973 6.6973 18.5548 90 90 120
ZERR 3 0.0001 0.0001 0.0003 0 0 0
LATT -3
SYMM -Y,+X-Y,+Z
SYMM +Y-X,-X,+Z
SYMM -Y,-X,+Z
SYMM +Y-X,+Y,+Z
SYMM +X,+X-Y,+Z
SFAC Cu F N O Pb Se
UNIT 9 3 3 30 3 6
EQIV $1 0.333+X,-0.333+Y,-0.333+Z

L.S. 20
PLAN  20
SIZE 0.04 0.042 0.045
BIND Pb1 F1_$1
LIST 6
fmap 2
acta
TWIN -1 0 0 0 -1 0 0 0 -1 2
REM <olex2.extras>
REM <HklSrc "%.\\Pb(OF)Cu3(SeO3)2(NO3).hkl">
REM </olex2.extras>

WGHT    0.021300    1.880000
BASF   0.48783
FVAR       0.20025
PB1   5    0.666667    0.333333    0.350120    10.16667    0.01203    0.01203 =
         0.01147    0.00000    0.00000    0.00602
SE1   6    0.333333    0.666667    0.366900    10.16667    0.01248    0.01248 =
         0.00789    0.00000    0.00000    0.00624
SE2   6    0.666667    0.333333    0.649718    10.16667    0.01295    0.01295 =
         0.00826    0.00000    0.00000    0.00648
CU1   1    0.507133    0.492867    0.508247    10.50000    0.01523    0.01523 =
         0.01077   -0.00054    0.00054    0.01096
F1    2    0.333333    0.666667    0.531313    10.16667    0.01150    0.01150 =
         0.01633    0.00000    0.00000    0.00575
O1    4    0.666667    0.333333    0.479956    10.16667    0.00768    0.00768 =
         0.01171    0.00000    0.00000    0.00384
O2    4    0.466510    0.533490    0.405172    10.50000    0.02789    0.02789 =
         0.00920   -0.00006    0.00006    0.02179
O3    4    0.534788    0.465212    0.611172    10.50000    0.03679    0.03679 =
         0.01169   -0.00073    0.00073    0.03258
O4    4    0.105877    0.211754    0.513025    10.50000    0.01710    0.00792 =
         0.08294    0.00329    0.00164    0.00396
N1    3    0.000000    0.000000    0.512022    10.16667    0.01231    0.01231 =
         0.01589    0.00000    0.00000    0.00615
HKLF 4

REM  pbcuseofn_b.res in R3m
REM R1 =  0.0146 for     705 Fo > 4sig(Fo)  and  0.0146 for all     708 data
REM     44 parameters refined using      1 restraints

END

WGHT      0.0213      1.8800

REM Highest difference peak  0.683,  deepest hole -0.988,  1-sigma level  0.182
Q1    1   0.7490  0.4980  0.3863  10.50000  0.05    0.68
Q2    1   0.5842  0.1685  0.3161  10.50000  0.05    0.57
Q3    1   0.2633  0.5267  0.4599  10.50000  0.05    0.56
Q4    1   0.4176  0.5824  0.5971  10.50000  0.05    0.54
Q5    1   0.5850  0.4150  0.6248  10.50000  0.05    0.53
Q6    1   0.2753  0.1377  0.4257  10.50000  0.05    0.52
Q7    1   0.4180  0.5820  0.4035  10.50000  0.05    0.51
Q8    1   0.3333  0.6667  0.3325  10.16667  0.05    0.48
Q9    1   0.5883  0.1766  0.4347  10.50000  0.05    0.45
Q10   1   0.7874  0.5748  0.4199  10.50000  0.05    0.45
Q11   1   0.3504  0.2580  0.4432  11.00000  0.05    0.44
Q12   1   0.6393  0.6324  0.4171  11.00000  0.05    0.43
Q13   1   0.8599  0.4300  0.3636  10.50000  0.05    0.42
Q14   1   0.7386  0.7063  0.3996  11.00000  0.05    0.41
Q15   1   0.5504  0.1008  0.2789  10.50000  0.05    0.41
Q16   1   0.6667  0.3333  0.3846  10.16667  0.05    0.41
Q17   1   0.4560  0.5440  0.5665  10.50000  0.05    0.41
Q18   1   0.0857  0.1715  0.6137  10.50000  0.05    0.40
Q19   1   0.4204  0.4905  0.6345  11.00000  0.05    0.39
Q20   1   0.4361  0.3338  0.4652  11.00000  0.05    0.39
;
_shelx_res_checksum              68038
_shelx_hkl_file
;
   0   0 -27  384.12   21.54
   0   0 -24  278.22   16.49
   0   0 -21  989.05   26.79
   0   0 -18  829.48   21.94
   0   0 -15  536.68   15.79
   0   0 -15  549.90   10.84
   0   0 -12 3222.42   23.45
   0   0 -12 3069.38   32.55
   0   0  -9  910.83   10.76
   0   0  -9  910.97   15.13
   0   0  -6 9999.00   39.37
   0   0  -6 9448.92   28.61
   0   0  -3  260.73    4.48
   0   0  -3  254.17    3.23
   0   0   3  266.79    3.42
   0   0   3  266.69    5.06
   0   0   6 9747.48   43.82
   0   0   6 9809.53   30.59
   0   0   9  987.79   17.40
   0   0  12 3196.25   36.85
   0   0  15  535.99   17.51
   0   0  18  852.24   24.39
   0   0  21  988.62   28.79
   0   0  24  332.08   19.19
   0   0  27  376.76   22.96
  -1   0 -25  296.57   17.83
   1  -1 -25  281.66   17.57
   0   1 -25  304.75   18.10
  -1   0 -22  334.17   16.79
   0   1 -22  335.36   16.83
   1  -1 -22  316.05   16.43
  -1   0 -19 1231.92   21.37
   0   1 -19 1188.24   27.41
  -1   0 -19 1213.12   27.85
   1  -1 -19 1214.58   27.90
   1  -1 -16 1149.66   16.48
   0   1 -16 1133.38   23.79
   1  -1 -16 1136.96   24.11
  -1   0 -16 1102.74   23.75
  -1   0 -16 1164.95   19.53
   0   1 -13 2850.15   32.87
   0   1 -13 2868.97   15.98
  -1   0 -13 2823.07   33.03
   1  -1 -13 2950.24   23.61
  -1   0 -13 2858.27   27.99
   1  -1 -13 2882.97   34.19
   0   1 -10 1690.28   23.08
   0   1 -10 1619.94   10.63
   0   1 -10 1701.53   21.86
  -1   0 -10 1619.62   18.78
   1  -1 -10 1620.70   15.76
   0   1 -10 1647.21   10.22
   1  -1 -10 1686.74   22.70
  -1   0 -10 1602.51   21.03
  -1   0  -7 4962.16   30.32
   0   1  -7 4939.36   30.99
   1  -1  -7 4948.52   33.07
   0   1  -7 5050.10   34.76
  -1   0  -7 4842.46   29.68
   1  -1  -7 4902.83   24.51
  -1   0  -4 1901.08   16.27
   1  -1  -4 1888.75   17.07
   0   1  -4 1950.13   15.38
   0   1  -4 1956.12   17.87
   1  -1  -4 1893.29   13.54
  -1   0  -4 1925.11   14.31
  -1   0  -1 2061.35   14.97
   0   1  -1 2004.38   13.35
   1  -1  -1 2105.22   13.36
   1  -1  -1 2090.07    8.86
  -1   0  -1 2017.22   12.18
   0   1  -1 2055.05   13.34
   0   1  -1 2088.77   11.66
  -1   0   2   63.94    2.42
  -1   0   2   70.81    2.42
   0   1   2   61.01    2.01
   1  -1   2   64.62    2.89
   0   1   2   64.93    2.75
  -1   0   2   63.81    1.94
   0   1   2   61.89    2.67
   1  -1   2   63.51    2.01
  -1   0   5   96.82    2.21
   1  -1   5   97.87    4.04
   0   1   5   93.51    4.07
   0   1   8  313.91    8.94
  -1   0   8  317.57    4.94
   0   1  11  481.28   13.07
  -1   0  11  471.84   14.48
   1  -1  11  479.29   13.52
   1  -1  14  535.51   16.54
   0   1  14  539.79   16.15
  -1   0  14  546.48   17.88
   0   1  17  663.94   20.20
   1  -1  17  622.41   20.10
  -1   0  17  641.10   21.60
   1  -1  20  515.26   19.94
  -1   0  20  493.78   21.08
   0   1  20  511.08   20.27
  -1   0  23  734.16   27.79
   1  -1  23  748.15   27.02
   0   1  23  702.91   26.58
   1  -1  26  367.55   21.15
  -1   0  26  398.75   22.73
   0   1  26  358.00   21.64
  -1   1 -26  387.62   21.07
   1   0 -26  396.88   20.85
   0  -1 -26  382.60   21.06
  -1   1 -23  730.43   25.39
   1   0 -23  684.89   24.01
   1   0 -20  518.75   18.69
   0  -1 -20  511.52   19.00
  -1   1 -20  530.68   19.38
   1   0 -17  642.89   18.38
  -1   1 -17  648.29   19.17
   0  -1 -17  646.86   14.86
  -1   1 -17  636.01   12.80
   0  -1 -17  643.01   18.99
   0  -1 -14  544.76   12.57
   1   0 -14  511.87   14.68
  -1   1 -14  532.82   10.76
   0  -1 -14  559.20   15.76
   1   0 -14  517.15    7.51
   1   0 -11  493.47    6.43
   0  -1 -11  515.90   13.20
   1   0 -11  462.97   12.09
  -1   1 -11  516.88    9.85
  -1   1 -11  527.10   13.21
   0  -1 -11  469.95   10.59
   1   0  -8  320.08    8.39
  -1   1  -8  324.34    9.00
  -1   1  -8  323.66    7.11
   1   0  -8  317.79    4.39
   1   0  -8  310.67    9.04
   0  -1  -8  311.23    7.86
   0  -1  -8  330.59    9.04
  -1   1  -5  100.95    3.99
   0  -1  -5   89.99    3.96
   0  -1  -5   90.55    3.80
   1   0  -5   92.64    2.40
  -1   1  -5  101.21    4.24
   1   0  -5   97.34    3.73
   1   0  -5   87.68    4.18
  -1   1  -2   59.67    2.82
   1   0  -2   58.12    2.71
   0  -1  -2   59.82    2.45
   1   0  -2   58.34    1.87
  -1   1  -2   58.04    1.80
   1   0  -2   59.57    2.52
   0  -1  -2   67.45    2.14
   0  -1  -2   54.85    2.50
  -1   1   1 2057.81   14.42
   1   0   1 2041.74   12.00
  -1   1   1 2071.81    8.70
   0  -1   1 2059.60   13.16
   0  -1   1 2037.41   11.37
  -1   1   4 1880.66   15.13
   1   0   4 1903.95   15.74
   1   0   7 5001.99   32.20
  -1   1   7 5003.61   33.17
  -1   1  10 1699.26   23.84
   1   0  10 1702.25   22.99
   0  -1  13 2881.52   39.06
  -1   1  13 2827.22   36.21
  -1   1  16 1198.90   26.56
   0  -1  16 1153.63   27.60
   1   0  19 1177.71   28.77
   0  -1  19 1261.40   32.21
  -1   1  19 1242.36   30.21
   0  -1  22  332.60   18.61
  -1   1  22  362.14   18.79
   1   0  22  337.34   17.76
  -1   1  25  274.75   18.60
   1   0  25  269.50   17.86
   0  -1  25  303.21   19.39
   2  -2 -26  772.43   29.44
   0   2 -26  781.65   28.92
  -2   0 -26  752.21   28.93
   2  -2 -23  270.73   16.46
   0   2 -23  267.72   16.09
  -2   0 -23  293.92   16.92
  -2   0 -20 1945.88   32.04
  -2   0 -20 2005.02   37.33
   0   2 -20 1876.91   36.32
   2  -2 -20 1909.02   37.89
   0   2 -17  373.24   14.71
  -2   0 -17  387.87   15.04
  -2   0 -17  371.30   13.46
   2  -2 -17  337.34   14.83
   2  -2 -17  381.36   10.94
  -2   0 -14 1482.08   24.24
   2  -2 -14 1533.35   20.20
   0   2 -14 1505.29   25.68
   0   2 -14 1494.17   27.62
   2  -2 -14 1445.48   27.32
  -2   0 -14 1493.44   25.39
   2  -2 -11 1392.39   24.24
  -2   0 -11 1370.12   21.21
  -2   0 -11 1467.89   22.32
   2  -2 -11 1429.57   18.20
   0   2 -11 1456.01   24.93
   0   2 -11 1394.41   21.93
   2  -2  -8 2513.03   28.56
   0   2  -8 2628.65   11.97
   2  -2  -8 2570.86   22.51
   0   2  -8 2652.19   26.12
  -2   0  -8 2585.88   27.97
   0   2  -8 2676.48   30.51
  -2   0  -8 2535.68   23.80
   2  -2  -5  434.41    8.72
   0   2  -5  470.47   11.33
   0   2  -5  454.73    9.86
   2  -2  -5  450.57   10.68
  -2   0  -5  434.19    7.76
  -2   0  -5  460.70   10.98
  -2   0  -2 3785.67   15.51
   2  -2  -2 3746.81   17.75
   0   2  -2 3706.01   25.70
   0   2  -2 3715.33   25.73
   2  -2  -2 3747.07   25.67
   0   2   1  711.37   10.95
   2  -2   1  754.57   12.40
  -2   0   1  730.47    5.19
  -2   0   1  727.19    5.49
  -2   0   1  679.43   11.42
   0   2   1  696.24   10.32
   0   2   4 3905.64   21.06
   0   2   4 3911.86   29.06
   2  -2   4 3955.86   30.65
  -2   0   4 3959.56   24.72
  -2   0   7  604.07    8.95
   2  -2   7  584.60   11.30
   0   2   7  618.22    8.16
   0   2   7  578.68   12.50
   0   2  10 7724.25   51.85
   2  -2  10 7681.32   49.50
   2  -2  13  812.86   19.14
   0   2  13  777.07   18.97
   2  -2  16 3005.34   41.07
   0   2  16 3121.06   42.85
   0   2  19  369.33   16.92
   2  -2  19  354.85   15.85
  -2   0  19  337.54   17.70
   2  -2  22  941.19   28.10
  -2   0  22  920.59   31.32
   0   2  22  938.83   29.60
  -2   0  25  304.77   20.20
   2  -2  25  346.17   19.59
   1   1 -27  181.30   15.80
  -2   1 -27  193.01   16.47
  -1  -1 -27  153.23   15.12
   2  -1 -27  170.97   15.45
  -1   2 -27  154.39   15.06
   1   1 -24  335.74   17.96
   2  -1 -24  331.44   18.16
  -1   2 -24  323.92   18.56
   1  -2 -24  349.85   19.32
  -2   1 -24  344.78   19.04
  -1  -1 -21  252.60   14.35
   2  -1 -21  249.06   14.23
   1  -2 -21  254.10   14.80
   1   1 -21  262.09   14.18
  -2   1 -21  256.20   14.59
  -1   2 -21  233.92   14.14
   1   1 -18  489.30   17.00
  -1   2 -18  506.15   17.89
   1  -2 -18  529.08   13.96
  -1  -1 -18  532.12   15.60
  -2   1 -18  572.60   15.22
   2  -1 -18  547.53   18.24
  -2   1 -18  537.18   18.43
  -1  -1 -18  545.27   18.27
   1  -2 -18  551.71   19.23
  -2   1 -15  383.50   13.82
   1  -2 -15  376.40   11.04
  -1  -1 -15  402.84   14.02
   1  -2 -15  404.50   14.90
  -1   2 -15  414.48   14.66
  -1  -1 -15  417.29   12.98
   2  -1 -15  415.02    8.89
  -2   1 -15  401.87   11.92
  -1   2 -15  404.22    8.06
   2  -1 -15  434.51   14.68
   1   1 -15  410.43   13.64
   1  -2 -12  377.99   10.31
  -1   2 -12  358.78   12.20
  -2   1 -12  458.40   12.13
   1   1 -12  357.32   10.96
   1   1 -12  393.63   13.75
   1  -2 -12  401.83   13.42
   2  -1 -12  396.49   12.51
   2  -1 -12  389.59    8.04
  -1  -1 -12  397.08   11.84
  -1  -1 -12  379.91   11.89
  -2   1 -12  444.94   13.05
  -1   2 -12  369.96    7.82
  -1   2  -9 2334.75   26.94
   1  -2  -9 2270.38   22.77
   1   1  -9 2204.64   22.88
   2  -1  -9 2394.37   26.46
  -2   1  -9 2267.23   25.25
  -2   1  -9 2265.52   25.11
  -1   2  -9 2279.91   20.27
   2  -1  -9 2257.86   18.36
  -1  -1  -9 2238.77   24.20
  -1   2  -9 2298.51   25.16
   1   1  -9 2337.20   30.03
   1  -2  -9 2279.65   27.82
  -1  -1  -9 2273.15   25.08
  -1   2  -6 2634.89   23.79
  -2   1  -6 2640.00   23.18
   2  -1  -6 2682.67   19.78
  -2   1  -6 2591.16   26.38
   1   1  -6 2578.08   19.90
   2  -1  -6 2549.71   23.63
  -1  -1  -6 2511.38   23.68
  -1   2  -6 2582.77   25.85
   1  -2  -6 2579.50   22.16
  -1  -1  -6 2621.66   21.33
   1   1  -6 2627.23   27.35
   1  -2  -6 2669.96   25.83
   1  -2  -3 4944.39   30.06
   2  -1  -3 4854.09   23.20
  -1   2  -3 4776.59   27.16
   2  -1  -3 4911.82   28.67
  -2   1  -3 4927.43   28.03
   1   1  -3 5078.22   31.19
  -2   1  -3 4778.16   35.13
   1   1  -3 4882.27   20.10
   2  -1  -3 4869.89   26.95
  -1  -1  -3 4963.97   29.58
  -1  -1  -3 4905.94   22.11
  -1   2  -3 4894.15   32.28
  -2   1  -3 4829.49   20.30
   1  -2  -3 4996.96   27.85
   1   1   0 4546.06   25.08
  -1   2   0 4463.64   27.36
   1   1   0 4528.48   14.70
   1  -2   0 4441.62   24.23
   1   1   0 4592.81   14.81
  -1   2   0 4481.41   20.70
   2  -1   0 4575.81   14.78
   2  -1   0 4346.73   28.72
   1   1   0 4370.19   26.49
  -2   1   0 4542.69   13.54
  -2   1   0 4388.45   22.92
  -1  -1   0 4477.70   24.45
  -1   2   3 4853.61   26.39
   1   1   3 4791.38   29.27
   1  -2   3 4842.30   25.14
   1   1   6 2632.88   24.96
   1  -2   6 2528.22   19.94
   2  -1   6 2611.18   21.00
  -1   2   6 2537.81   22.42
   2  -1   9 2256.97   24.50
  -2   1   9 2272.52   27.62
  -1   2   9 2244.09   25.28
   1   1   9 2221.38   26.22
   1   1  12  368.69   12.60
  -1   2  12  380.72   12.31
  -2   1  12  421.31   14.02
   2  -1  12  381.12   11.98
   1  -2  12  401.71   13.74
  -2   1  15  444.45   16.52
  -1  -1  15  345.60   15.48
   1   1  15  373.77   14.47
  -1   2  15  434.17   15.08
   2  -1  15  393.64   14.13
   1  -2  15  441.13   16.45
  -1   2  18  562.71   19.62
   1  -2  18  590.64   21.00
  -2   1  18  569.46   20.82
  -1  -1  18  543.64   21.64
   2  -1  18  576.15   19.07
   1   1  18  545.45   19.51
   1  -2  21  264.07   16.12
  -2   1  21  233.20   15.13
  -1  -1  21  241.20   16.28
  -1   2  21  255.41   15.22
   2  -1  21  257.20   14.59
   1   1  21  250.25   15.10
   2  -1  24  362.31   19.22
   1  -2  24  355.03   19.84
  -2   1  24  345.90   20.03
  -1  -1  24  328.90   20.42
  -1   2  24  364.03   20.48
   1   1  24  300.58   18.51
  -1   2  27  172.00   16.58
   1  -2  27  152.67   15.44
   1   1  27  166.39   16.02
  -2   1  27  156.31   16.02
   2  -1  27  165.93   15.43
   0  -2 -25  327.05   19.37
  -2   2 -25  340.60   19.74
   2   0 -25  338.02   18.55
  -2   2 -22  962.01   29.05
   0  -2 -22  949.72   28.64
   2   0 -22  909.77   26.49
  -2   2 -19  345.79   15.84
   0  -2 -19  359.64   13.26
   0  -2 -19  311.63   15.09
   2   0 -19  352.51   14.92
  -2   2 -16 3138.27   41.93
  -2   2 -16 3136.10   30.72
   0  -2 -16 3014.59   40.89
   0  -2 -16 3158.84   36.22
   2   0 -16 3005.90   37.92
  -2   2 -13  805.56   19.28
   0  -2 -13  818.68   17.27
   0  -2 -13  800.70   19.14
  -2   2 -13  796.73   15.28
   0  -2 -10 7588.04   51.55
  -2   2 -10 7640.28   52.31
   2   0 -10 7670.81   25.29
   2   0 -10 7732.33   45.80
  -2   2 -10 7638.58   47.42
   0  -2  -7  606.72   12.60
   2   0  -7  571.66   13.38
  -2   2  -7  565.27   13.45
  -2   2  -7  581.25   13.26
   2   0  -7  625.80   10.93
   0  -2  -7  602.44   12.45
  -2   2  -4 4051.00   31.47
   0  -2  -4 3909.57   26.96
   2   0  -4 4050.17   29.77
   2   0  -4 3917.72   21.40
   0  -2  -4 3859.19   28.95
  -2   2  -4 3930.32   19.50
   2   0  -4 3853.58   27.48
  -2   2  -1  673.85   11.43
   0  -2  -1  678.69   10.82
   2   0  -1  694.06    9.87
  -2   2   2 3820.93   28.10
   0  -2   2 3826.67   21.61
   2   0   2 3851.83   17.69
   2   0   2 3772.06   22.80
  -2   2   2 3858.48   16.52
  -2   2   5  437.18    7.91
   2   0   5  452.21    9.64
   2   0   8 2663.95   27.00
   0  -2   8 2670.60   12.67
  -2   2   8 2661.09   24.75
   2   0  11 1389.19   22.77
  -2   2  11 1387.63   21.57
  -2   2  14 1535.03   26.64
   2   0  14 1456.73   26.74
   2   0  17  340.71   14.80
   0  -2  17  354.50   16.81
  -2   2  20 1928.64   38.62
   0  -2  20 2022.49   43.41
  -2   2  23  285.72   17.58
   0  -2  23  228.06   17.03
   2   0  23  265.94   16.41
   2   0  26  762.17   29.60
  -2   2  26  746.75   30.45
   0  -2  26  772.71   32.03
   3  -3 -24  192.09   14.89
  -3   0 -24  218.41   15.67
   0   3 -24  193.00   14.84
   3  -3 -21  330.52   17.40
  -3   0 -21  315.99   16.19
   0   3 -21  296.10   16.06
  -3   0 -21  284.68   14.96
   0   3 -18  434.55   17.07
   3  -3 -18  503.89   19.31
  -3   0 -18  462.50   17.25
   3  -3 -18  458.35   13.77
   0   3 -18  503.89   19.38
  -3   0 -18  456.31   17.11
   3  -3 -15  491.76   13.54
   3  -3 -15  440.66   16.61
   0   3 -15  501.80   16.40
  -3   0 -15  475.32   16.13
   0   3 -15  477.77   17.44
  -3   0 -15  431.12   14.78
  -3   0 -12  291.88   11.98
   0   3 -12  293.42   11.49
   3  -3 -12  310.30   13.01
   0   3 -12  288.84   12.95
  -3   0 -12  267.13   10.12
   3  -3 -12  297.26    9.97
   3  -3  -9 2369.83   26.22
   0   3  -9 2515.21   29.22
  -3   0  -9 2535.97   33.65
  -3   0  -9 2346.47   24.63
   3  -3  -9 2350.34   31.89
   0   3  -9 2433.98   32.66
   3  -3  -6 1206.86   18.19
  -3   0  -6 1222.65   21.81
   0   3  -6 1284.68   21.76
  -3   0  -6 1234.87   14.35
   0   3  -6 1244.29   19.20
   0   3  -3 2963.42   27.96
  -3   0  -3 2977.50   16.39
   0   3  -3 3000.60   28.08
  -3   0  -3 3000.77   31.90
   3  -3  -3 2908.95   28.34
   0   3   0 2486.52   23.48
   3  -3   0 2546.84   27.31
   0   3   0 2514.19   24.84
  -3   0   3 5194.50   19.84
  -3   0   3 5210.09   36.92
  -3   0   3 5269.06   22.37
   0   3   3 5144.25   36.92
   3  -3   3 5107.84   19.65
   0   3   3 5117.81   35.79
   0   3   6 2450.38   27.92
  -3   0   6 2475.95   23.28
   3  -3   6 2463.57   29.12
   3  -3   6 2401.17   20.41
   0   3   9 1724.37   16.18
  -3   0   9 1699.97   17.51
  -3   0  12  365.95    6.90
   3  -3  12  381.16   12.09
   0   3  12  379.93    7.64
   0   3  15  222.81   11.72
   3  -3  15  234.90   11.01
   3  -3  18  477.95   17.12
  -3   0  18  440.58   20.17
   0   3  18  477.12   18.77
  -3   0  21  164.00   14.30
   3  -3  21  172.24   11.96
   0   3  21  162.22   12.92
  -3   0  24  339.38   21.55
   0   3  24  358.89   20.49
   3  -3  24  355.66   18.76
   1   2 -25  155.39   13.72
  -1   3 -25  212.23   16.24
  -3   1 -25  174.24   14.84
   2  -3 -25  162.53   14.60
  -2  -1 -25  152.24   14.22
   3  -2 -25  171.81   14.62
   2  -3 -22  291.33   16.79
   1   2 -22  298.38   16.28
  -3   1 -22  296.51   16.87
  -1   3 -22  313.02   17.06
  -2  -1 -22  317.56   17.07
   3  -2 -22  285.89   16.19
  -3   1 -19  858.63   24.56
   3  -2 -19  824.05   24.41
  -2  -1 -19  907.69   23.57
   2  -3 -19  835.57   19.67
   2  -3 -19  861.84   25.62
   1   2 -19  889.21   23.90
  -3   1 -19  902.40   22.41
  -1   3 -19  864.83   24.89
  -2  -1 -19  824.03   23.53
  -2  -1 -16 1140.68   24.35
  -2  -1 -16 1199.93   25.71
   3  -2 -16 1220.02   19.17
  -3   1 -16 1214.25   24.51
   2  -3 -16 1160.79   21.82
  -1   3 -16 1204.44   26.75
   1   2 -16 1194.85   24.31
  -3   1 -16 1262.82   26.22
   3  -2 -16 1237.10   27.20
   2  -3 -16 1252.14   28.05
   1   2 -16 1291.34   29.58
   1   2 -13 2950.96   33.47
  -1   3 -13 2975.07   20.65
   3  -2 -13 3050.67   28.93
   2  -3 -13 3071.91   33.26
  -2  -1 -13 2928.96   34.12
   1   2 -13 2846.76   40.78
  -1   3 -13 3023.91   38.40
   3  -2 -13 3149.26   38.94
  -3   1 -13 3086.69   36.10
  -3   1 -13 3027.46   37.75
  -1   3 -13 3294.74   38.68
  -2  -1 -13 3046.49   37.05
   2  -3 -13 2922.86   39.36
  -1   3 -10 1275.40   22.64
   3  -2 -10 1229.99   17.68
  -2  -1 -10 1256.87   22.18
  -1   3 -10 1280.34   22.46
   2  -3 -10 1142.33   22.55
  -3   1 -10 1296.10   23.39
  -2  -1 -10 1227.95   18.89
   3  -2 -10 1305.68   22.77
   2  -3 -10 1327.31   20.54
   1   2 -10 1266.49   19.40
  -3   1 -10 1240.65   20.21
   1   2 -10 1225.82   24.63
   2  -3  -7 3056.01   29.21
   3  -2  -7 3021.50   26.94
   1   2  -7 2859.15   16.53
  -1   3  -7 2922.44   31.96
  -3   1  -7 3121.01   35.12
   2  -3  -7 3066.71   33.38
   1   2  -7 3060.93   25.23
  -2  -1  -7 3035.46   31.65
   1   2  -7 2734.59   32.05
   3  -2  -7 2942.12   30.53
   3  -2  -7 3115.54   21.20
  -2  -1  -7 3113.22   24.44
  -1   3  -7 2934.00   29.88
  -3   1  -7 3005.44   27.16
   1   2  -4  587.05    9.54
  -1   3  -4  596.13   13.29
   2  -3  -4  594.67   11.93
  -2  -1  -4  606.94   13.15
  -3   1  -4  590.74   10.61
  -2  -1  -4  575.36    8.08
  -1   3  -4  601.52   12.12
   1   2  -4  592.64   13.04
   3  -2  -4  567.05   12.20
  -3   1  -4  593.14   15.00
  -1   3  -1 2763.85   22.32
  -2  -1  -1 2719.30   25.52
  -3   1  -1 2914.57   32.09
  -3   1  -1 2831.54   21.96
   1   2  -1 2903.36   26.05
   2  -3  -1 2864.74   24.64
   3  -2  -1 2828.81   28.72
  -1   3  -1 2825.93   26.36
   1   2  -1 2881.13   20.01
   2  -3   2   87.06    4.55
  -2  -1   2   80.75    4.09
   3  -2   2   84.65    5.44
   1   2   2   71.42    4.21
  -2  -1   2   85.65    2.08
  -1   3   2   81.18    4.08
   1   2   2   71.24    3.34
  -3   1   2   86.07    3.66
  -1   3   2   87.83    5.02
   1   2   2   75.64    4.54
  -1   3   5  485.31   11.03
   1   2   5  499.57   10.27
   3  -2   5  483.82    7.98
   1   2   5  522.39   12.28
   2  -3   5  512.83   11.39
  -2  -1   5  525.03    8.71
   1   2   8  152.57    7.72
   3  -2   8  151.82    5.84
  -2  -1   8  146.44    3.53
   2  -3   8  151.89    6.39
  -2  -1   8  155.19    3.91
  -1   3   8  142.41    6.78
   1   2  11  518.76   15.28
  -3   1  11  540.70   15.93
   3  -2  11  567.44   13.64
  -1   3  11  544.48   14.53
   1   2  14  280.93   12.48
  -3   1  14  271.90   13.09
   2  -3  14  300.23   12.73
  -1   3  14  273.98   11.84
   3  -2  17  871.33   21.90
  -3   1  17  858.07   25.56
   1   2  17  926.34   24.97
  -1   3  17  902.03   23.79
   2  -3  17  880.26   24.00
   1   2  20  387.15   18.19
  -2  -1  20  356.09   19.58
   3  -2  20  361.88   16.08
  -1   3  20  367.48   17.27
   2  -3  20  390.12   18.10
  -3   1  20  344.70   18.27
   3  -2  23  591.59   22.87
  -1   3  23  610.13   24.89
   2  -3  23  612.92   24.61
   1   2  23  553.81   23.97
  -3   1  23  506.71   23.94
  -2  -1  23  497.33   24.78
   1   2  26  182.89   16.45
  -1   3  26  230.24   17.85
   3  -2  26  215.45   16.28
  -3   1  26  167.83   16.26
  -2  -1  26  200.59   17.94
   2  -3  26  201.26   16.13
   1  -3 -26  214.25   16.93
  -1  -2 -26  229.93   17.61
  -3   2 -26  181.09   16.36
  -2   3 -26  233.03   17.54
   3  -1 -26  213.48   16.41
   2   1 -26  208.57   15.67
  -3   2 -23  667.29   25.79
   1  -3 -23  603.61   24.25
  -1  -2 -23  578.92   23.81
   2   1 -23  595.19   22.16
  -2   3 -23  617.62   24.59
   3  -1 -23  600.86   23.37
  -3   2 -20  382.34   17.56
  -1  -2 -20  393.05   15.75
   3  -1 -20  353.94   16.22
   1  -3 -20  397.63   18.25
  -2   3 -20  407.76   18.30
  -1  -2 -20  389.39   17.47
   2   1 -20  373.31   16.03
   1  -3 -20  349.21   13.69
  -1  -2 -17  829.37   22.34
  -3   2 -17  932.23   20.97
  -2   3 -17  906.34   24.64
   1  -3 -17  868.72   23.99
   2   1 -17  897.21   21.54
  -1  -2 -17  864.08   21.56
  -3   2 -17  920.60   24.13
   1  -3 -17  846.30   19.42
   3  -1 -17  888.78   22.62
   1  -3 -14  259.02   10.40
  -3   2 -14  282.36   11.42
  -3   2 -14  249.81   11.64
   3  -1 -14  255.19   11.21
  -2   3 -14  241.60   11.89
  -1  -2 -14  304.63   12.01
   3  -1 -14  261.85    7.49
  -1  -2 -14  260.00   11.41
   2   1 -14  267.51   13.08
   2   1 -14  258.79   10.54
  -2   3 -14  264.01    8.84
   1  -3 -14  277.61   12.61
   2   1 -11  558.49   17.38
   2   1 -11  520.38   12.59
   1  -3 -11  564.63   15.89
  -2   3 -11  545.56   13.48
  -2   3 -11  475.92   14.83
  -3   2 -11  594.00   16.21
   3  -1 -11  523.57   10.79
   3  -1 -11  575.84   14.78
  -1  -2 -11  461.72   13.78
  -2   3 -11  504.88   12.68
  -1  -2 -11  522.99   13.91
  -3   2 -11  527.51   15.04
   1  -3 -11  539.80   13.88
   1  -3  -8  136.42    7.20
   2   1  -8  160.10    8.46
  -2   3  -8  120.52    7.20
  -3   2  -8  138.95    7.03
  -3   2  -8  152.66    8.49
   3  -1  -8  144.18    5.87
   2   1  -8  128.59    5.33
   3  -1  -8  129.39    6.43
   1  -3  -8  133.27    6.56
  -1  -2  -8  143.96    6.49
   3  -1  -8  142.94    6.62
  -2   3  -8  148.19    6.12
  -1  -2  -8  134.12    7.11
  -2   3  -5  484.86   12.74
  -3   2  -5  517.94   12.39
  -2   3  -5  486.30    9.58
   3  -1  -5  509.11   11.00
   2   1  -5  514.17   13.20
  -3   2  -5  465.64   14.36
   3  -1  -5  456.29   10.27
   1  -3  -5  537.09   11.93
   2   1  -5  457.40    7.43
   3  -1  -5  462.99   10.26
   3  -1  -5  472.59    9.95
  -1  -2  -5  491.90    9.46
   3  -1  -2   79.02    4.68
   1  -3  -2   85.34    4.55
  -1  -2  -2   78.01    4.67
  -2   3  -2   84.25    3.54
   3  -1  -2   74.34    3.63
   2   1  -2   89.49    5.19
   2   1  -2   80.01    4.52
  -2   3  -2   83.14    5.11
  -3   2  -2   79.00    4.62
  -2   3   1 2889.19   28.19
   3  -1   1 2893.11   17.66
  -3   2   1 2827.00   24.61
  -1  -2   1 2846.09   23.66
   2   1   1 2956.16   24.82
   1  -3   1 2852.54   23.53
  -2   3   1 2772.65   18.29
   2   1   1 2847.11   26.50
  -3   2   4  574.68   12.40
  -1  -2   4  566.71    9.08
   1  -3   4  576.10    9.73
   3  -1   4  564.63    9.39
  -2   3   4  575.90   13.94
   2   1   4  591.45   12.32
  -2   3   4  597.93   10.29
  -3   2   4  564.22    8.60
  -3   2   7 3006.18   26.35
  -1  -2   7 3031.15   14.92
   3  -1   7 3002.30   26.30
   2   1   7 3082.26   31.63
   1  -3   7 2936.48   22.76
  -2   3   7 2936.11   25.95
  -2   3  10 1225.08   19.82
   1  -3  10 1281.17   14.30
   2   1  10 1274.43   22.70
  -3   2  10 1281.54   21.00
   2   1  13 3091.16   38.99
  -3   2  13 3083.83   37.68
  -2   3  13 3068.31   36.37
  -2   3  16 1266.93   26.54
  -3   2  16 1251.30   27.59
   2   1  16 1130.28   26.28
   1  -3  16 1128.22   27.93
   3  -1  16 1206.25   25.87
  -2   3  19  923.70   25.87
   3  -1  19  838.54   24.20
  -1  -2  19  775.86   27.28
   2   1  19  807.83   24.70
   1  -3  19  835.26   26.92
  -3   2  19  877.57   25.37
  -3   2  22  318.41   17.89
   3  -1  22  328.10   17.11
   2   1  22  293.60   17.03
  -2   3  22  323.02   17.73
  -1  -2  22  314.44   19.41
   1  -3  22  319.58   18.71
   2   1  25  164.71   14.68
   3  -1  25  191.91   15.24
  -2   3  25  173.88   15.61
  -1  -2  25  133.85   14.98
   1  -3  25  166.56   15.45
  -3   2  25  175.93   15.39
   0  -3 -24  348.11   19.65
   3   0 -24  379.76   19.29
  -3   3 -24  358.37   20.28
   0  -3 -21  162.90   12.59
   3   0 -21  184.94   12.32
   0  -3 -21  160.71   10.57
  -3   3 -21  143.84   12.14
   3   0 -18  495.15   17.03
  -3   3 -18  490.96   19.23
   0  -3 -18  489.77   16.61
   0  -3 -18  484.17   18.62
   3   0 -15  216.66   10.17
   0  -3 -15  216.24   11.39
   3   0 -15  211.09   11.96
  -3   3 -15  196.82   11.37
  -3   3 -15  216.53    9.93
  -3   3 -12  340.57   13.30
   0  -3 -12  345.33   12.43
   0  -3 -12  338.74   12.51
   3   0 -12  357.38   13.88
  -3   3 -12  364.46   13.32
   3   0 -12  360.27   11.35
   0  -3  -9 1634.07   23.80
   3   0  -9 1654.64   20.87
  -3   3  -9 1606.17   26.52
   0  -3  -9 1593.20   24.61
  -3   3  -9 1636.89   28.42
   3   0  -6 2338.18   26.62
   3   0  -6 2366.86   28.08
   3   0  -6 2365.79   20.74
   0  -3  -6 2479.44   28.65
   0  -3  -6 2344.59   25.25
  -3   3  -6 2482.85   30.82
   3   0  -3 5149.76   39.20
   0  -3  -3 5300.60   38.94
   3   0  -3 5132.33   36.29
  -3   3  -3 5339.14   42.32
   3   0   0 2470.02   22.12
   0  -3   0 2397.93   24.09
  -3   3   0 2399.05   26.79
   0  -3   3 2989.42   23.29
   3   0   3 3014.19   25.27
  -3   3   3 3025.71   31.26
   0  -3   6 1246.47   13.28
   3   0   6 1168.85   17.85
  -3   3   6 1241.94   22.34
  -3   3   6 1144.31   14.37
  -3   3   9 2360.81   24.89
   0  -3   9 2391.09   16.60
   3   0  12  300.69   11.85
  -3   3  12  286.26   10.33
   3   0  15  475.06   16.51
  -3   3  15  458.50   15.06
  -3   3  18  451.26   17.41
   3   0  18  483.55   18.28
  -3   3  21  305.79   16.59
   3   0  21  306.15   16.53
   0  -3  21  299.86   18.28
  -3   3  24  219.17   16.44
   3   0  24  203.43   15.40
   0  -3  24  186.91   16.38
  -4   0 -25  234.39   17.73
   0   4 -25  251.22   18.09
   0   4 -22  611.99   23.86
  -4   0 -22  575.85   23.09
  -4   0 -22  598.42   24.29
   4  -4 -22  596.08   24.70
  -4   0 -19  236.30   13.57
   0   4 -19  228.23   13.75
  -4   0 -19  240.21   14.63
   0   4 -19  236.06   14.86
   4  -4 -19  234.80   14.96
   0   4 -16 2216.23   37.31
  -4   0 -16 2318.56   35.37
   4  -4 -16 2267.09   33.64
   0   4 -16 2190.68   39.85
   4  -4 -16 2238.30   40.53
  -4   0 -13  527.33   18.53
   0   4 -13  525.16   16.71
  -4   0 -13  547.29   15.24
   0   4 -13  513.46   18.54
   4  -4 -13  529.13   15.62
   4  -4 -13  514.04   18.16
   0   4 -10 3861.75   40.81
   0   4 -10 3883.36   44.95
   4  -4 -10 3788.62   39.79
  -4   0 -10 3903.74   48.30
   0   4  -7  297.83   10.98
  -4   0  -7  306.53    8.06
   4  -4  -7  289.73   10.96
   0   4  -7  299.52   12.21
  -4   0  -7  313.33   13.12
   0   4  -4 2708.09   30.46
  -4   0  -4 2656.41   35.66
   0   4  -4 2554.56   30.51
   4  -4  -4 2582.64   31.18
  -4   0  -4 2697.46   17.10
   0   4  -1   44.60    4.49
  -4   0  -1   58.69    5.45
   4  -4  -1   58.63    5.24
   0   4  -1   46.87    4.34
  -4   0   2 1709.77   25.02
   0   4   2 1687.35   23.73
   0   4   2 1692.15   24.14
   4  -4   2 1743.81   27.25
   4  -4   5  479.00    7.50
   0   4   5  487.48   13.42
   4  -4   5  502.66   15.36
   0   4   5  486.19   13.64
  -4   0   5  505.23   12.81
  -4   0   5  499.04    8.55
   0   4   8 1111.39   22.28
  -4   0   8 1114.50   17.49
   0   4   8 1092.02   21.53
   4  -4   8 1077.69   15.10
  -4   0  11  712.22   12.38
   0   4  11  724.57   19.35
   4  -4  11  738.77   15.29
   4  -4  14 1046.57   20.93
   0   4  14 1012.72   25.03
   4  -4  17  244.94   11.49
   0   4  17  286.76   15.01
  -4   0  17  265.25   15.99
   0   4  20 1239.87   33.92
  -4   0  20 1133.99   34.91
   4  -4  20 1163.78   27.59
   0   4  23  187.57   15.67
  -4   0  23  177.75   16.42
  -1   4 -23  573.38   24.02
  -4   1 -23  518.12   23.20
   1   3 -23  528.96   22.57
   3  -4 -23  552.19   24.37
   4  -3 -23  551.50   23.15
  -3  -1 -23  541.57   23.04
  -1   4 -20  407.39   18.83
  -3  -1 -20  400.69   17.53
   1   3 -20  404.32   19.73
  -3  -1 -20  425.38   18.73
   4  -3 -20  392.44   18.29
  -4   1 -20  385.59   17.40
   1   3 -20  387.72   17.37
   3  -4 -20  419.08   19.75
  -4   1 -20  387.61   17.98
   3  -4 -17  486.32   15.69
  -4   1 -17  508.54   18.05
  -4   1 -17  494.51   18.38
  -1   4 -17  474.00   18.42
   1   3 -17  472.19   16.67
   3  -4 -17  511.44   20.07
  -3  -1 -17  491.55   17.01
  -3  -1 -17  521.52   19.44
   4  -3 -17  462.38   18.33
  -1   4 -17  528.69   18.96
   1   3 -17  486.53   19.92
   1   3 -14  317.82   15.37
  -4   1 -14  318.14   14.54
  -3  -1 -14  301.36   13.69
  -3  -1 -14  325.52   12.11
   4  -3 -14  305.43   13.97
  -1   4 -14  306.68   13.70
  -4   1 -14  305.55   12.40
   4  -3 -14  349.88   11.82
   3  -4 -14  292.21   11.61
  -1   4 -14  319.40   13.84
   3  -4 -14  335.60   15.15
   1   3 -14  323.87   12.35
  -3  -1 -11  271.38    9.54
   4  -3 -11  264.26   10.00
  -1   4 -11  240.04   11.05
   3  -4 -11  283.07   10.81
  -4   1 -11  263.62   10.17
   3  -4 -11  267.90   12.35
  -1   4 -11  282.96   12.14
  -3  -1 -11  282.81   12.22
  -4   1 -11  275.85   12.90
   1   3 -11  262.45    9.97
   1   3 -11  315.96   13.92
  -1   4  -8  208.87    9.87
  -3  -1  -8  229.34    7.28
   1   3  -8  215.65    7.93
   1   3  -8  231.17   10.76
  -4   1  -8  218.89    8.10
   4  -3  -8  236.27    6.59
   3  -4  -8  249.28    9.72
  -4   1  -8  235.86   11.56
   4  -3  -8  232.15    9.30
  -3  -1  -8  234.11   10.68
  -1   4  -8  218.01    9.57
  -1   4  -5  279.52   10.53
   1   3  -5  281.97    8.30
  -3  -1  -5  281.90    6.02
  -3  -1  -5  274.64   10.71
   4  -3  -5  284.79   10.35
  -1   4  -5  290.70   10.16
  -4   1  -5  254.32   11.65
   1   3  -5  274.38   10.63
   3  -4  -5  263.45    9.49
  -4   1  -5  267.61    7.61
   1   3  -2   87.18    4.57
  -4   1  -2   86.13    4.18
  -3  -1  -2   89.40    5.98
  -1   4  -2   90.88    5.26
   3  -4  -2   69.86    5.12
   4  -3  -2   81.33    5.94
  -4   1  -2   78.49    6.54
   1   3  -2   85.25    5.73
  -1   4  -2  105.45    6.41
   4  -3   1 1242.74   22.85
   1   3   1 1246.96   16.27
  -3  -1   1 1161.04   18.97
  -4   1   1 1282.40   23.36
  -1   4   1 1250.13   20.87
  -1   4   1 1228.39   18.02
   1   3   1 1239.49   20.20
  -4   1   1 1286.70   14.46
   3  -4   1 1168.94   19.32
   1   3   4  368.59   11.66
  -4   1   4  394.64   12.55
   4  -3   4  391.96   13.17
   1   3   4  356.63    9.57
   4  -3   4  367.42    4.45
  -1   4   4  377.31   10.64
  -4   1   4  383.56    8.65
  -1   4   4  361.94   11.85
  -3  -1   4  373.07    9.81
   3  -4   4  373.98   11.51
  -3  -1   4  355.77    6.22
   1   3   7 3145.68   28.99
  -4   1   7 3226.27   33.74
   4  -3   7 3143.69   23.07
  -3  -1   7 3135.62   25.11
  -1   4   7 3133.53   32.62
   1   3   7 3154.86   35.40
  -1   4   7 3177.49   37.70
   3  -4   7 3112.09   34.22
   1   3  10 1142.40   17.50
  -4   1  10 1155.29   19.35
   1   3  10 1142.32   23.51
  -3  -1  10 1088.38   11.89
   3  -4  10 1143.48   20.08
  -1   4  10 1160.03   22.24
   4  -3  10 1173.07   17.49
   4  -3  13 2227.72   28.51
   1   3  13 2111.91   23.92
  -4   1  13 2059.67   24.49
   3  -4  13 2185.21   31.60
   1   3  13 2288.57   36.48
  -4   1  13 2058.36   35.24
  -1   4  13 2186.75   33.52
   4  -3  16  703.65   18.44
  -1   4  16  672.69   20.73
   1   3  16  695.61   22.38
   3  -4  16  674.92   19.73
  -4   1  16  671.13   22.82
   4  -3  19  775.09   21.83
   1   3  19  752.02   25.47
  -3  -1  19  681.86   26.16
  -1   4  19  784.53   24.76
  -4   1  19  737.99   26.37
   3  -4  19  768.41   23.33
   4  -3  22  206.73   13.36
   1   3  22  214.78   15.91
  -3  -1  22  201.95   16.67
  -1   4  22  244.99   16.03
  -4   1  22  228.62   17.22
   3  -4  22  221.78   14.33
   1   3  25  199.12   17.06
   4  -3  25  158.55   13.80
  -4   1  25  159.58   16.10
  -3  -1  25  166.07   16.78
  -1   4  25  201.33   16.94
   3  -4  25  155.78   13.74
   2   2 -24  214.67   14.89
  -2   4 -24  227.83   16.66
  -4   2 -24  207.31   16.49
   2  -4 -24  222.02   16.82
  -2  -2 -24  238.82   16.72
   4  -2 -24  187.45   14.74
   2   2 -21  584.70   20.80
   2  -4 -21  621.58   24.20
  -2  -2 -21  584.06   21.65
  -4   2 -21  595.72   23.23
   2  -4 -21  509.24   18.18
  -2  -2 -21  608.91   22.74
  -2   4 -21  566.48   22.90
   4  -2 -21  570.37   21.69
  -2   4 -18  414.71   18.19
   2  -4 -18  461.15   19.35
  -4   2 -18  440.69   17.95
  -4   2 -18  450.00   17.29
   2   2 -18  466.75   16.82
  -2  -2 -18  463.11   18.00
   2  -4 -18  430.37   15.78
  -2  -2 -18  456.07   17.53
   2   2 -18  472.36   20.28
  -2   4 -15  365.81   15.58
  -4   2 -15  426.45   16.43
  -4   2 -15  406.17   15.50
   2  -4 -15  371.39   13.79
  -2  -2 -15  395.09   15.63
   2   2 -15  433.20   18.11
  -2  -2 -15  407.75   14.62
   4  -2 -15  437.89   15.89
   2   2 -15  400.81   13.48
   2  -4 -15  404.35   16.62
  -2   4 -12 1501.79   28.26
   2   2 -12 1578.23   31.57
   2   2 -12 1624.36   23.29
  -2  -2 -12 1605.52   29.51
   2  -4 -12 1545.29   26.07
   4  -2 -12 1652.88   27.67
   4  -2 -12 1585.63   23.03
   2  -4 -12 1616.46   29.89
  -4   2 -12 1622.52   27.78
  -2   4 -12 1621.94   25.59
  -4   2 -12 1652.17   31.13
  -2  -2 -12 1572.07   24.73
  -2   4 -12 1668.42   24.80
  -4   2  -9  184.51    8.65
  -2   4  -9  180.73    9.70
  -4   2  -9  182.18   10.68
  -2  -2  -9  161.25    8.91
   2  -4  -9  182.65    8.76
  -2  -2  -9  173.99    7.20
   4  -2  -9  175.80    8.04
   4  -2  -9  176.94    8.57
   2  -4  -9  182.94    9.41
   2   2  -9  185.85    9.91
  -2   4  -9  176.30    8.16
   2   2  -9  157.45    6.35
  -2   4  -6 4946.16   45.77
  -4   2  -6 5018.14   40.98
   4  -2  -6 5069.47   42.48
   2  -4  -6 4994.90   42.41
  -2  -2  -6 5116.98   45.04
   4  -2  -6 5007.11   35.56
  -2  -2  -6 5084.89   30.36
  -2   4  -6 4858.83   36.08
   2   2  -6 4918.02   46.10
  -4   2  -6 4751.04   51.86
   2   2  -6 5153.08   28.26
  -4   2  -3  427.77   11.10
  -2  -2  -3  429.38   12.08
   2   2  -3  408.49   11.67
  -4   2  -3  387.07   14.67
   4  -2  -3  430.19    7.55
   2  -4  -3  409.48   11.52
  -2   4  -3  411.73    9.68
   4  -2  -3  464.03   13.08
   2   2  -3  417.12    6.24
  -2   4  -3  427.29   13.11
   2   2   0 9759.12   28.10
   2   2   0 9799.07   54.96
   4  -2   0 9774.15   27.62
  -2   4   0 9504.73   42.32
  -4   2   0 9543.12   27.57
   2   2   0 9607.33   28.02
   2  -4   0 9671.04   51.41
  -2  -2   0 9526.70   51.68
   2   2   0 9809.18   57.13
  -2   4   0 9676.23   59.82
  -4   2   0 9673.90   47.77
   2   2   3  407.36    7.50
   2   2   3  423.32   11.63
  -2  -2   3  433.29   10.17
  -2   4   3  414.40    9.56
   2  -4   3  422.45   10.53
   2   2   3  432.18   12.08
  -2   4   3  421.80   12.80
  -4   2   3  404.96   10.06
   4  -2   3  442.91    6.34
   2   2   6 5051.01   43.28
  -4   2   6 4924.42   40.02
  -2   4   6 5137.70   37.78
   2  -4   6 4900.00   36.49
   4  -2   6 4958.53   30.14
   2   2   6 5148.28   38.94
  -4   2   6 5214.83   34.92
  -2  -2   6 5118.77   30.58
  -2   4   6 4956.71   47.79
  -2  -2   9  182.04    4.30
   4  -2   9  182.92    7.28
  -2   4   9  200.84    8.62
   2   2   9  183.70    9.17
  -4   2  12 1627.91   27.46
   2   2  12 1669.79   29.97
   4  -2  12 1601.02   24.40
   4  -2  15  409.80   14.27
   2   2  15  403.17   16.60
  -4   2  15  417.93   16.26
  -2   4  15  422.72   15.17
   4  -2  18  440.99   16.64
   2   2  18  483.54   19.78
  -2   4  18  443.90   17.47
   2  -4  18  468.94   19.41
  -4   2  18  458.87   19.00
  -2   4  21  623.91   23.14
   2   2  21  538.20   23.03
   4  -2  21  613.52   21.75
  -2  -2  21  542.74   24.80
   2  -4  21  583.82   23.29
  -4   2  21  558.76   23.05
  -4   2  24  242.99   17.48
  -2   4  24  241.70   17.06
   2   2  24  202.25   16.27
   4  -2  24  197.10   14.49
  -2  -2  24  217.49   18.08
   2  -4  24  197.51   15.94
   1  -4 -25  180.07   15.66
  -3   4 -25  131.65   14.18
  -4   3 -25  191.06   16.28
   4  -1 -25  190.03   15.25
  -1  -3 -25  174.10   15.35
   3   1 -25  166.58   14.17
   3   1 -22  234.27   14.30
  -4   3 -22  226.95   15.77
  -1  -3 -22  228.25   14.17
   1  -4 -22  199.15   12.47
  -1  -3 -22  190.77   14.24
   1  -4 -22  231.36   15.86
   4  -1 -22  228.00   14.46
   3   1 -19  728.70   21.08
  -3   4 -19  674.74   23.87
  -4   3 -19  753.94   24.93
  -1  -3 -19  770.01   23.95
  -1  -3 -19  808.89   23.83
   1  -4 -19  705.07   23.97
   1  -4 -19  764.05   21.51
   4  -1 -19  771.97   23.11
  -4   3 -16  680.39   21.69
  -1  -3 -16  693.51   20.64
  -3   4 -16  648.13   21.59
   3   1 -16  675.67   17.90
   1  -4 -16  684.34   19.11
  -4   3 -16  716.35   20.67
   4  -1 -16  750.92   20.33
  -1  -3 -16  710.30   20.51
   3   1 -16  698.98   23.17
   1  -4 -16  696.82   21.93
  -4   3 -13 2029.08   35.10
  -4   3 -13 2069.31   34.31
   1  -4 -13 2262.68   35.43
  -3   4 -13 2281.50   33.07
  -1  -3 -13 2200.19   34.26
   1  -4 -13 2179.23   32.00
   3   1 -13 2036.47   26.84
   4  -1 -13 2235.19   31.22
  -1  -3 -13 2178.98   31.48
  -3   4 -13 2114.61   35.55
   3   1 -13 2181.47   37.71
  -3   4 -10 1118.32   24.59
   4  -1 -10 1125.96   19.65
   3   1 -10 1166.49   25.46
  -1  -3 -10 1114.67   23.03
   1  -4 -10 1104.83   21.57
  -4   3 -10 1151.40   26.83
   3   1 -10 1122.54   17.16
  -1  -3 -10 1082.12   19.50
   1  -4 -10 1161.14   22.91
  -4   3 -10 1152.04   23.52
  -3   4 -10 1119.94   17.60
   4  -1 -10 1135.78   21.82
   3   1  -7 3225.86   37.70
  -3   4  -7 3154.85   38.68
  -4   3  -7 3195.92   37.15
  -4   3  -7 3104.91   43.95
  -1  -3  -7 3041.88   35.56
   1  -4  -7 3043.91   33.91
   3   1  -7 3076.43   22.80
  -3   4  -7 3216.16   25.87
   4  -1  -7 3172.41   28.78
  -1  -3  -7 3071.45   28.67
   4  -1  -7 3157.52   32.22
   4  -1  -7 3001.30   32.14
  -3   4  -4  398.03   13.47
   4  -1  -4  352.67   10.89
   3   1  -4  370.81   12.20
  -1  -3  -4  369.55   11.81
   1  -4  -4  366.43   11.19
  -4   3  -4  380.82   12.14
   3   1  -4  397.39    5.55
   3   1  -4  380.19   11.75
  -3   4  -4  388.00    7.98
   4  -1  -4  357.49    9.67
   3   1  -1 1231.38   21.16
   3   1  -1 1178.26   18.78
  -3   4  -1 1184.31   21.30
  -3   4  -1 1181.38   12.47
   1  -4  -1 1239.69   19.34
   4  -1  -1 1186.58   15.49
  -1  -3  -1 1184.38   19.24
  -4   3  -1 1223.03   19.97
  -3   4   2   99.28    6.59
   4  -1   2  101.45    4.38
   1  -4   2   99.09    5.37
   3   1   2   80.14    5.52
  -3   4   2   86.99    3.73
  -1  -3   2   93.84    5.20
  -4   3   2   96.21    5.92
   3   1   2   93.95    5.49
  -4   3   5  281.81    6.21
  -3   4   5  277.12    7.68
  -1  -3   5  277.84    7.62
   3   1   5  264.34    9.57
   1  -4   5  275.44    7.95
   4  -1   5  292.22    8.06
  -4   3   5  285.27   10.57
  -3   4   5  281.03   11.49
  -4   3   8  232.03   10.71
  -3   4   8  215.04   10.99
   4  -1   8  225.31    8.54
  -1  -3   8  236.39    5.80
   3   1   8  226.34    9.68
  -3   4   8  234.88    8.08
   1  -4   8  244.68    7.49
  -4   3   8  244.89    7.64
   3   1  11  281.04   12.08
   1  -4  11  261.42    7.32
  -3   4  11  263.87    9.82
   4  -1  11  261.67   10.56
  -4   3  11  273.36    9.73
  -4   3  14  293.84   11.82
  -3   4  14  290.38   11.80
   3   1  14  318.50   14.26
   4  -1  14  322.38   12.91
  -4   3  17  467.20   17.16
   3   1  17  459.59   18.53
   4  -1  17  497.71   17.67
  -3   4  17  481.43   17.17
  -4   3  20  417.49   18.34
  -3   4  20  406.81   18.10
   4  -1  20  384.07   17.32
   3   1  20  393.99   19.07
   1  -4  20  396.98   20.01
  -4   3  23  558.46   24.05
  -1  -3  23  531.05   25.98
   4  -1  23  576.16   23.08
  -3   4  23  559.19   23.45
   1  -4  23  538.80   24.89
   3   1  23  541.33   23.93
  -4   4 -23  178.42   15.24
   0  -4 -23  178.64   12.95
   4   0 -23  161.50   13.35
   0  -4 -23  184.06   14.79
   0  -4 -20 1174.45   31.29
  -4   4 -20 1126.70   32.30
   0  -4 -20 1184.82   28.74
   4   0 -20 1148.28   28.51
  -4   4 -17  248.56   14.44
   4   0 -17  271.25   12.68
   0  -4 -17  251.27   13.03
   0  -4 -17  281.86   14.42
   4   0 -14  988.39   25.48
   0  -4 -14 1037.23   24.52
   0  -4 -14 1092.70   24.74
  -4   4 -14 1036.28   26.22
   4   0 -14 1105.22   22.14
  -4   4 -14 1079.20   26.16
   4   0 -11  705.86   20.12
  -4   4 -11  728.74   22.08
   0  -4 -11  712.52   19.14
   0  -4 -11  676.13   17.52
  -4   4 -11  719.05   20.37
  -4   4  -8 1124.17   24.10
   0  -4  -8 1088.48   22.40
   4   0  -8 1103.57   15.98
  -4   4  -5  514.01   15.32
   4   0  -5  475.64   13.68
   4   0  -5  503.83   14.48
   0  -4  -5  500.80   14.53
   0  -4  -2 1665.85   24.31
   4   0  -2 1693.52   22.73
   4   0  -2 1733.49   26.04
  -4   4  -2 1738.69   27.31
   4   0   1   54.14    4.24
   0  -4   1   51.80    4.34
   0  -4   4 2631.41   25.88
   4   0   4 2720.54   28.47
  -4   4   4 2729.73   34.86
  -4   4   7  307.83    8.20
   0  -4   7  303.19    8.04
  -4   4   7  284.47   12.44
   4   0   7  302.91   10.52
  -4   4  10 3872.56   34.25
   0  -4  10 3821.71   24.73
  -4   4  13  565.25   15.50
   4   0  13  536.71   17.46
   4   0  16 2068.14   37.48
  -4   4  16 2141.99   34.34
  -4   4  19  237.33   13.52
   4   0  19  239.33   14.43
   4   0  22  656.21   25.22
  -4   4  22  648.74   24.46
   4   0  25  280.00   18.71
  -4   4  25  296.35   19.47
   0   5 -23  332.50   19.73
  -5   0 -23  369.97   22.45
   0   5 -20  197.75   14.21
   5  -5 -20  195.01   14.72
   0   5 -20  191.36   14.71
  -5   0 -20  180.54   14.65
   5  -5 -17  658.40   20.94
  -5   0 -17  640.62   24.53
   0   5 -17  638.99   22.02
   0   5 -17  606.39   23.06
  -5   0 -14  132.12   11.36
   5  -5 -14  147.29   10.08
   0   5 -14  143.70   11.16
   0   5 -14  128.03    9.72
   5  -5 -11  370.87   14.48
   0   5 -11  373.65   15.66
   0   5 -11  367.01   14.20
  -5   0 -11  345.10   16.71
   5  -5  -8   46.23    5.58
   0   5  -8   52.86    5.67
  -5   0  -8   63.78    7.60
   0   5  -8   62.33    6.75
   0   5  -5  282.34   11.49
  -5   0  -5  265.47   13.28
   0   5  -5  285.38   12.06
   5  -5  -5  265.19   11.76
  -5   0  -2   95.81    7.76
   0   5  -2   88.88    6.88
   5  -5  -2   88.43    7.16
   0   5  -2   72.76    6.41
   0   5   1 1191.93   23.34
  -5   0   1 1210.84   24.62
   5  -5   1 1198.29   25.27
   0   5   1 1232.17   22.50
  -5   0   4  469.26   14.47
   5  -5   4  465.09   16.55
   0   5   4  418.74   14.02
   0   5   4  403.91   13.45
  -5   0   7 1325.64   22.38
   0   5   7 1334.13   25.41
   5  -5   7 1355.42   27.63
   0   5   7 1258.99   25.02
   0   5  10  804.61   21.05
   0   5  10  800.56   21.29
   0   5  13 1484.52   30.02
   0   5  16  856.94   25.08
   0   5  19  485.16   20.97
  -5   0  19  447.17   22.78
   0   5  22  226.27   16.70
  -5   0  22  220.61   18.31
  -4  -1 -21  120.49   13.05
   5  -4 -21  106.12   11.68
  -5   1 -21  101.62   11.69
  -5   1 -21  101.85   11.43
  -1   5 -21   97.64   11.34
  -4  -1 -21  100.79   10.86
   4  -5 -21  103.68   11.75
   1   4 -21  104.80   12.08
   1   4 -21   97.87   10.53
   5  -4 -18  354.59   17.61
   1   4 -18  376.10   16.40
   1   4 -18  371.54   18.72
  -1   5 -18  355.92   17.80
  -5   1 -18  370.18   18.69
   4  -5 -18  339.90   15.08
  -4  -1 -18  401.23   19.63
  -5   1 -18  386.59   17.14
   4  -5 -18  353.33   18.04
  -4  -1 -18  315.38   14.89
  -1   5 -18  365.32   17.44
  -1   5 -15  157.23   11.13
   1   4 -15  173.00   10.19
  -5   1 -15  185.64   13.19
   4  -5 -15  170.52   10.21
  -4  -1 -15  177.14    9.74
  -5   1 -15  161.99   10.04
   5  -4 -15  168.91   10.13
  -1   5 -15  199.44   12.18
   5  -4 -15  130.55   10.34
   4  -5 -15  160.66   11.66
  -4  -1 -15  204.63   13.15
   1   4 -15  211.56   13.67
  -1   5 -12  295.28   13.56
  -5   1 -12  315.91   11.79
   1   4 -12  327.48   12.41
  -5   1 -12  320.86   16.16
  -4  -1 -12  328.27   15.17
  -1   5 -12  346.72   14.75
  -4  -1 -12  311.64   10.68
   4  -5 -12  338.88   13.50
   5  -4 -12  319.86   12.98
   1   4 -12  305.17   14.56
  -1   5  -9  798.16   20.76
  -1   5  -9  790.06   19.73
  -5   1  -9  864.03   24.62
  -5   1  -9  916.02   16.96
  -4  -1  -9  833.32   22.57
   4  -5  -9  808.12   19.67
   1   4  -9  872.57   17.89
   5  -4  -9  862.32   20.43
  -4  -1  -9  812.58   14.00
   1   4  -9  875.30   22.54
  -1   5  -6 1311.83   25.29
   1   4  -6 1309.91   20.51
  -4  -1  -6 1249.14   26.17
  -4  -1  -6 1217.96   12.46
   4  -5  -6 1296.94   24.30
   1   4  -6 1285.15   25.76
   5  -4  -6 1220.86   24.12
  -1   5  -6 1300.06   24.41
  -5   1  -6 1309.22   17.53
  -5   1  -6 1274.70   28.65
  -4  -1  -3 2788.73   37.12
   1   4  -3 2747.89   28.53
  -5   1  -3 2733.77   21.66
  -5   1  -3 2759.83   40.48
   1   4  -3 2796.98   35.03
  -1   5  -3 2731.25   31.80
   4  -5  -3 2719.62   34.68
   5  -4  -3 2738.99   36.29
  -1   5  -3 2693.90   36.52
  -5   1   0 2029.49   18.20
   1   4   0 2079.44   30.11
  -5   1   0 2046.14   33.58
  -4  -1   0 1973.75   29.28
   4  -5   0 2070.10   29.66
   5  -4   0 2066.72   32.96
  -1   5   0 2074.49   27.54
  -1   5   0 2117.22   30.29
   1   4   0 2129.50   25.43
  -4  -1   3 2118.71   28.17
   4  -5   3 2151.14   31.15
  -5   1   3 2106.81   19.19
  -1   5   3 2143.16   28.09
  -1   5   3 2039.35   30.62
   1   4   3 2149.73   25.78
   1   4   3 2121.31   30.44
   4  -5   6  806.83   19.96
  -4  -1   6  866.83   16.60
  -5   1   6  857.56   14.33
  -5   1   6  863.43   19.61
  -1   5   6  840.80   18.51
   5  -4   6  891.12   22.27
   1   4   6  832.66   20.03
   1   4   6  845.54   17.33
  -1   5   6  824.37   20.30
  -4  -1   9 1164.54   16.91
  -5   1   9 1163.67   21.71
  -1   5   9 1149.02   22.72
   1   4   9 1177.51   24.73
   4  -5   9 1141.84   23.30
   1   4   9 1155.95   22.67
   4  -5   9 1156.26   18.23
  -1   5   9 1145.59   25.68
  -1   5  12  178.67   10.09
   1   4  12  163.04   10.10
   4  -5  12  168.85    8.48
  -1   5  15  345.88   15.44
   1   4  15  391.41   16.89
  -5   1  15  375.47   17.46
   4  -5  15  376.49   13.98
   1   4  18  262.14   15.47
  -1   5  18  232.43   14.09
  -5   1  18  254.53   16.36
   4  -5  18  223.22   12.33
  -1   5  21  208.57   15.21
   1   4  21  234.57   16.44
  -4  -1  21  249.05   18.16
  -5   1  21  201.33   16.81
  -3  -2 -22  186.26   14.55
   2   3 -22  179.71   13.22
   5  -3 -22  189.42   14.37
   3  -5 -22  197.30   15.79
  -5   2 -22  174.23   14.53
  -2   5 -22  171.81   14.43
   2   3 -19  843.91   28.49
  -3  -2 -19  771.25   23.68
  -2   5 -19  740.29   25.53
  -5   2 -19  765.35   25.54
   2   3 -19  774.83   22.91
  -3  -2 -19  823.79   26.89
   3  -5 -19  740.59   22.16
   5  -3 -19  799.12   25.59
   3  -5 -19  751.73   26.50
  -5   2 -19  743.06   24.54
   3  -5 -16  515.79   20.23
  -2   5 -16  480.83   19.22
  -5   2 -16  508.51   20.78
  -5   2 -16  486.69   17.98
   2   3 -16  530.99   16.62
  -3  -2 -16  504.88   20.14
  -2   5 -16  543.05   18.38
  -3  -2 -16  559.78   17.74
   3  -5 -16  488.62   17.28
   5  -3 -16  520.10   19.14
   2   3 -16  484.39   20.55
  -2   5 -13 1446.92   30.27
  -5   2 -13 1421.27   27.57
  -5   2 -13 1424.55   32.97
   2   3 -13 1554.81   24.64
  -2   5 -13 1509.24   28.21
  -3  -2 -13 1501.98   31.99
   3  -5 -13 1473.98   27.97
  -3  -2 -13 1506.64   25.00
   2   3 -13 1467.76   32.66
   5  -3 -13 1489.58   26.23
   5  -3 -13 1429.20   28.69
  -2   5 -10  799.65   21.62
   2   3 -10  825.47   22.09
  -3  -2 -10  860.08   22.52
   3  -5 -10  865.85   20.42
  -3  -2 -10  885.81   15.98
  -2   5 -10  816.34   19.49
   5  -3 -10  885.74   20.24
  -5   2 -10  853.22   19.42
  -5   2 -10  855.06   24.83
   5  -3 -10  832.12   14.79
   2   3 -10  840.22   15.71
  -2   5  -7 2456.52   30.74
  -2   5  -7 2640.36   36.99
   5  -3  -7 2595.57   28.00
   2   3  -7 2593.63   23.60
  -5   2  -7 2417.89   41.37
  -3  -2  -7 2650.27   36.89
  -5   2  -7 2466.80   29.73
   3  -5  -7 2621.05   33.67
  -3  -2  -7 2495.42   21.94
   5  -3  -7 2559.64   34.56
   2   3  -7 2525.15   37.11
  -2   5  -4  714.57   19.49
  -5   2  -4  748.05   15.66
  -5   2  -4  665.83   21.17
  -3  -2  -4  699.78   17.82
   2   3  -4  725.59   10.82
   2   3  -4  721.43   17.87
  -2   5  -4  734.49   15.65
   5  -3  -4  755.47   18.98
  -5   2  -1  822.42   15.76
   2   3  -1  742.35   10.79
   2   3  -1  725.42   17.70
  -2   5  -1  719.52   14.52
   3  -5  -1  778.94   17.17
  -3  -2  -1  756.86   17.13
  -5   2  -1  741.66   21.33
   5  -3  -1  781.75   19.61
  -2   5  -1  785.09   19.10
  -3  -2   2   89.92    5.75
   3  -5   2   93.86    6.40
   5  -3   2  101.39    7.73
  -5   2   2   82.15    7.30
  -2   5   2   91.80    7.05
   2   3   2   88.73    4.15
  -5   2   2   90.32    5.08
  -2   5   2   87.36    5.36
   2   3   2   82.08    6.33
  -2   5   5   48.76    4.48
  -3  -2   5   51.45    4.20
   3  -5   5   55.19    5.11
   2   3   5   46.80    5.22
   2   3   5   49.30    3.77
   5  -3   5   56.49    2.27
  -2   5   5   51.13    5.76
  -5   2   5   48.04    4.14
   2   3   5   58.92    5.31
   2   3   8  275.18   11.89
   2   3   8  260.02   10.06
  -3  -2   8  262.52    8.05
   5  -3   8  252.45    7.40
  -2   5   8  277.47   10.30
   3  -5   8  243.75   10.16
  -5   2   8  274.25   10.58
  -2   5   8  260.47   12.56
   2   3  11  230.37    9.63
   5  -3  11  247.16    8.94
  -2   5  11  195.72    9.73
   2   3  11  229.96   11.57
   3  -5  11  238.06    9.73
  -2   5  11  231.66   12.96
  -5   2  11  237.86   11.05
   5  -3  14  400.45   13.05
  -2   5  14  400.40   15.23
   2   3  14  400.17   16.58
   2   3  14  389.78   12.51
  -5   2  14  415.42   16.28
  -2   5  17  254.35   13.75
   5  -3  17  274.95   12.37
   2   3  17  264.23   15.29
   3  -5  17  265.29   14.07
  -5   2  17  299.97   15.88
  -2   5  20  374.85   18.21
   2   3  20  412.99   20.52
   3  -5  20  388.02   18.28
  -5   2  20  415.67   20.68
  -2   5  23  404.63   21.31
   2   3  23  448.24   23.61
  -3  -2  23  393.77   23.14
   3  -5  23  380.88   20.18
  -5   2  23  399.41   21.91
  -5   3 -23  377.33   21.19
  -2  -3 -23  397.17   20.21
  -2  -3 -23  398.22   20.57
   5  -2 -23  382.35   19.63
   2  -5 -23  409.85   22.06
  -3   5 -23  457.16   22.76
   3   2 -20  407.57   20.83
  -3   5 -20  360.91   19.25
   2  -5 -20  333.60   16.25
  -5   3 -20  413.69   19.83
  -2  -3 -20  359.09   18.27
   3   2 -20  367.65   16.00
   5  -2 -20  380.93   17.91
   2  -5 -20  331.14   18.29
   3   2 -17  241.47   11.61
  -2  -3 -17  233.47   12.59
  -2  -3 -17  280.37   14.93
   2  -5 -17  231.46   12.88
   5  -2 -17  272.52   13.96
   3   2 -17  281.67   16.20
   2  -5 -17  255.61   14.76
  -5   3 -17  262.53   14.70
  -3   5 -17  271.42   15.37
  -5   3 -17  251.91   14.91
  -5   3 -14  378.55   17.51
  -2  -3 -14  368.63   16.06
   3   2 -14  397.99   12.66
   2  -5 -14  380.83   15.16
  -5   3 -14  370.85   15.76
  -2  -3 -14  361.40   13.36
   5  -2 -14  396.55   14.95
   2  -5 -14  410.01   16.81
   3   2 -14  408.78   18.25
  -3   5 -14  379.08   16.52
  -3   5 -11  209.15   11.86
  -5   3 -11  226.27   13.84
  -2  -3 -11  218.08   11.76
  -5   3 -11  221.66   11.24
   3   2 -11  226.92    8.27
   3   2 -11  220.02   12.43
  -2  -3 -11  220.51    9.17
   2  -5 -11  221.94   10.98
   5  -2 -11  237.93   10.61
   5  -2 -11  223.21    9.65
  -3   5 -11  234.51    9.52
  -3   5  -8  275.88   12.82
  -2  -3  -8  249.29   11.88
   3   2  -8  234.65    6.92
   2  -5  -8  253.82   11.28
  -2  -3  -8  257.09    8.38
  -5   3  -8  260.67   14.47
   5  -2  -8  264.15   10.63
  -3   5  -8  268.77    9.52
   5  -2  -8  275.97   10.22
  -5   3  -8  266.66   11.60
   3   2  -8  231.73   11.71
   5  -2  -8  240.66    8.92
  -3   5  -5   54.02    6.10
  -5   3  -5   60.25    5.59
  -3   5  -5   54.92    4.21
  -5   3  -5   48.12    6.82
  -2  -3  -5   63.07    5.91
   3   2  -5   51.83    2.50
   2  -5  -5   54.39    5.48
   5  -2  -5   58.50    4.10
   3   2  -5   60.06    6.23
   5  -2  -5   54.77    5.07
  -5   3  -2   92.85    6.50
  -2  -3  -2   91.31    6.43
   5  -2  -2   89.29    4.28
  -3   5  -2   92.96    4.89
   2  -5  -2   88.70    6.35
   3   2  -2  101.09    6.92
  -3   5  -2   87.90    7.01
   3   2   1  780.27   17.76
  -3   5   1  800.37   13.16
   3   2   1  787.28   18.54
  -2  -3   1  724.78   16.04
   2  -5   1  774.72   16.47
   5  -2   1  766.27   10.76
  -3   5   1  744.59   19.49
  -5   3   1  779.02   16.22
   3   2   4  721.87   17.29
  -2  -3   4  747.34   14.85
   2  -5   4  717.79   15.31
  -3   5   4  729.31   13.51
   3   2   4  681.78    8.93
   3   2   4  712.74   17.44
  -3   5   4  709.29   19.21
  -5   3   4  701.04   16.10
  -5   3   4  701.13    9.07
   5  -2   4  716.55   10.70
   2  -5   7 2504.99   28.38
  -2  -3   7 2502.34   24.28
  -3   5   7 2619.31   27.71
   5  -2   7 2479.95   23.93
   3   2   7 2521.89   33.84
  -5   3   7 2563.49   33.36
  -3   5   7 2619.74   39.00
  -5   3   7 2527.27   23.90
   3   2   7 2502.76   31.69
   3   2  10  825.16   18.42
  -3   5  10  875.08   18.49
   5  -2  10  861.94   17.17
   3   2  10  872.60   21.44
   2  -5  10  832.42   16.62
  -5   3  10  851.03   21.41
  -3   5  10  889.36   24.58
  -5   3  10  896.15   17.35
  -3   5  13 1441.52   26.24
   3   2  13 1458.38   30.15
  -5   3  13 1520.52   26.65
   5  -2  16  540.61   17.63
  -3   5  16  508.08   17.58
   3   2  16  532.20   20.26
  -5   3  16  560.96   18.12
  -5   3  19  771.73   24.29
   5  -2  19  773.73   23.08
  -3   5  19  768.98   24.02
   2  -5  19  795.35   26.86
   3   2  19  839.14   27.57
  -5   3  22  175.37   14.13
   3   2  22  184.74   15.23
  -3   5  22  190.94   14.15
  -2  -3  22  156.82   15.16
   2  -5  22  203.62   15.80
  -1  -4 -21  224.82   14.61
   1  -5 -21  216.84   13.96
   1  -5 -21  209.32   15.48
  -4   5 -21  253.21   17.22
  -5   4 -21  210.37   15.76
  -1  -4 -18  263.32   14.76
  -5   4 -18  241.06   15.12
   1  -5 -18  268.06   13.99
   5  -1 -18  236.07   12.78
   4   1 -18  262.39   16.23
  -1  -4 -18  266.31   14.44
   1  -5 -18  242.86   14.82
  -4   5 -18  247.34   15.31
  -4   5 -15  364.49   16.80
  -5   4 -15  388.61   17.42
  -5   4 -15  319.02   16.40
  -1  -4 -15  341.56   15.69
   4   1 -15  361.21   17.52
   5  -1 -15  351.38   13.76
  -1  -4 -15  363.31   14.74
   1  -5 -15  373.92   16.02
   1  -5 -15  343.60   14.65
  -5   4 -12  206.36   11.88
   5  -1 -12  189.11   10.46
  -5   4 -12  161.41   12.23
  -1  -4 -12  176.47   10.79
   1  -5 -12  166.05   10.01
   4   1 -12  159.64    7.61
  -4   5 -12  176.47   11.75
  -4   5 -12  187.63   11.51
   5  -1 -12  183.02    9.18
  -1  -4 -12  168.37    9.11
   4   1 -12  167.59   11.44
  -4   5  -9 1256.39   27.45
  -5   4  -9 1196.33   26.39
  -5   4  -9 1210.61   31.39
   5  -1  -9 1196.95   23.38
  -1  -4  -9 1193.31   25.63
   1  -5  -9 1202.93   24.37
   5  -1  -9 1183.92   18.93
  -4   5  -6  816.46   21.37
  -5   4  -6  868.83   21.17
   5  -1  -6  833.07   19.32
  -1  -4  -6  882.99   20.83
   1  -5  -6  837.71   19.35
   5  -1  -6  895.75   18.56
  -4   5  -6  875.51   12.58
   4   1  -6  869.02   21.10
  -5   4  -3 2150.48   32.64
   5  -1  -3 2083.48   30.21
   4   1  -3 2142.00   32.25
  -1  -4  -3 2210.15   31.06
   1  -5  -3 2105.79   29.43
   4   1  -3 2108.95   29.58
  -4   5  -3 2082.72   16.99
   5  -1  -3 2195.17   26.07
  -4   5  -3 2124.93   33.91
   4   1   0 1991.53   30.23
  -1  -4   0 2061.90   28.24
   5  -1   0 1919.05   22.33
  -4   5   0 1999.17   16.26
   1  -5   0 2081.98   28.18
   4   1   0 2139.29   28.67
  -4   5   0 1976.11   31.43
  -5   4   0 2003.27   29.54
   5  -1   3 2822.55   26.47
   4   1   3 2708.80   34.55
  -1  -4   3 2752.96   29.87
   1  -5   3 2825.86   31.09
  -4   5   3 2802.69   21.28
  -4   5   3 2844.00   39.16
  -5   4   3 2790.00   35.78
   4   1   3 2750.78   32.46
  -5   4   6 1275.50   14.21
  -1  -4   6 1356.53   18.43
  -4   5   6 1392.46   17.83
   1  -5   6 1341.36   19.88
   4   1   6 1258.74   23.32
   5  -1   6 1262.95   19.53
  -4   5   6 1264.73   27.36
  -5   4   6 1270.90   25.44
  -5   4   9  847.62   14.98
  -4   5   9  886.96   16.95
   5  -1   9  845.07   17.68
   1  -5   9  842.21   15.25
   4   1   9  866.36   20.56
  -4   5   9  842.83   23.80
  -5   4  12  318.25   11.02
  -4   5  12  307.93   11.55
   5  -1  12  332.47   12.87
   4   1  12  300.59   13.20
  -5   4  12  321.89   15.02
  -4   5  12  331.18   16.04
  -5   4  15  192.47   10.25
  -4   5  15  190.60   10.24
   5  -1  15  169.50   10.58
   4   1  15  173.22   11.52
  -5   4  18  342.77   15.46
  -4   5  18  336.89   15.21
   5  -1  18  375.21   17.03
   4   1  18  356.20   17.63
  -5   4  21  105.12   10.92
  -4   5  21  100.83   10.63
   5  -1  21  107.12   11.15
   4   1  21   97.33   11.06
   1  -5  21   89.47   11.86
   0  -5 -22  224.30   14.89
   0  -5 -22  230.52   16.49
  -5   5 -19  517.66   22.74
   0  -5 -19  471.45   19.67
   0  -5 -19  470.66   20.10
  -5   5 -16  921.77   27.93
   0  -5 -16  864.70   24.77
   5   0 -16  837.94   25.90
   0  -5 -16  823.29   23.51
  -5   5 -16  862.54   26.24
  -5   5 -13 1632.19   36.93
   0  -5 -13 1578.32   31.72
   5   0 -13 1520.57   32.18
  -5   5 -13 1609.84   33.90
  -5   5 -10  800.59   23.23
  -5   5 -10  747.43   25.33
   0  -5 -10  826.08   22.13
   5   0 -10  725.08   21.18
  -5   5  -7 1287.21   27.77
   5   0  -7 1218.26   24.52
   5   0  -7 1234.70   25.65
  -5   5  -4  463.36   17.03
   5   0  -4  439.06   15.32
   0  -5  -4  451.18   14.76
   5   0  -4  403.95   13.80
   5   0  -1 1221.28   21.14
   5   0  -1 1205.30   24.51
   0  -5  -1 1172.81   22.30
  -5   5  -1 1256.69   26.20
   0  -5   2   86.44    6.17
   5   0   2  106.62    6.70
  -5   5   2   94.48    7.70
   0  -5   5  274.33    9.91
   5   0   5  270.52   10.37
  -5   5   8   51.38    4.16
   0  -5   8   47.56    4.05
   5   0   8   38.20    4.78
  -5   5   8   59.01    7.12
   5   0  11  363.30   13.98
  -5   5  11  347.23   11.21
  -5   5  11  328.63   15.91
  -5   5  14  157.39    8.97
   5   0  14  155.86   10.40
  -5   5  14  130.52   11.01
  -5   5  17  590.58   18.82
   5   0  17  622.90   21.56
  -5   5  17  635.10   24.92
   5   0  20  192.29   14.09
   5   0  23  330.64   19.67
   0   6 -18  194.56   14.36
   0   6 -18  174.23   14.15
  -6   0 -15  245.68   17.12
   6  -6 -15  257.43   14.93
   0   6 -15  240.37   14.35
   0   6 -15  258.04   16.12
   0   6 -12  594.52   19.62
  -6   0 -12  558.56   23.44
   0   6 -12  536.14   20.58
   0   6  -9  140.46    9.73
  -6   0  -9  133.57   11.91
   6  -6  -9  147.40   10.64
   0   6  -9  137.14   10.58
   0   6  -6 2282.18   35.29
  -6   0  -6 2257.09   42.79
   6  -6  -6 2206.29   37.93
   0   6  -6 2194.17   37.65
   0   6  -3  366.24   14.32
  -6   0  -3  343.00   16.05
   0   6  -3  324.27   13.86
   6  -6  -3  298.77   14.26
   0   6   0 3135.30   42.48
  -6   0   0 3124.38   44.44
   0   6   0 3206.82   41.49
   0   6   3  230.23   12.04
  -6   0   3  232.49   11.87
   6  -6   3  223.21   12.74
   0   6   3  190.32   10.21
  -6   0   6 2081.98   32.20
   6  -6   6 2018.89   36.77
   0   6   6 2109.86   34.29
   0   6   6 2046.64   34.36
   0   6   9   74.71    7.90
   0   6   9   96.81    8.51
   0   6  12  700.73   22.01
   0   6  12  765.54   22.85
   0   6  15  200.38   13.18
   0   6  15  156.75   12.08
   0   6  18  194.38   14.33
   0   6  18  190.86   14.52
  -1   6 -19  362.07   19.34
  -1   6 -19  328.40   18.15
  -6   1 -19  309.02   19.57
  -5  -1 -19  397.88   22.00
   5  -6 -19  317.93   17.20
   1   5 -19  369.62   19.95
  -1   6 -16  512.65   20.90
   1   5 -16  473.66   17.83
  -6   1 -16  473.47   22.58
  -5  -1 -16  469.34   21.88
   5  -6 -16  523.89   20.28
   6  -5 -16  533.02   19.74
  -1   6 -16  499.74   20.57
   1   5 -16  551.95   23.19
   1   5 -13 1245.73   25.81
  -1   6 -13 1318.28   30.39
  -6   1 -13 1232.38   35.07
   1   5 -13 1309.41   32.29
   5  -6 -13 1336.86   30.49
   6  -5 -13 1310.02   29.57
  -1   6 -13 1271.86   30.48
  -5  -1 -13 1256.58   33.01
   1   5 -10  791.56   23.46
  -1   6 -10  793.02   22.64
   1   5 -10  791.95   19.11
  -1   6 -10  759.33   21.59
  -6   1 -10  716.19   25.57
  -5  -1 -10  776.80   25.04
   5  -6 -10  836.55   23.19
   6  -5 -10  802.32   22.57
  -1   6  -7 1356.95   28.67
   1   5  -7 1351.03   22.93
  -6   1  -7 1368.26   33.35
  -5  -1  -7 1278.29   29.88
   5  -6  -7 1349.52   28.26
   6  -5  -7 1258.05   27.64
   1   5  -7 1308.97   29.34
  -1   6  -7 1393.24   28.54
  -1   6  -4  236.98   11.86
   1   5  -4  233.30    9.74
  -6   1  -4  191.15   12.52
   1   5  -4  229.46   11.78
  -1   6  -4  198.03   10.31
   5  -6  -4  241.07   11.95
   6  -5  -4  173.14   10.61
  -5  -1  -4  207.98   11.76
   1   5  -1  530.35   14.82
  -6   1  -1  593.36   19.98
  -1   6  -1  517.57   15.97
   1   5  -1  544.69   17.68
   5  -6  -1  521.68   17.33
   6  -5  -1  516.82   18.13
  -5  -1  -1  509.83   17.20
  -1   6  -1  536.17   17.74
   1   5   2   39.39    5.44
  -1   6   2   24.34    4.46
  -6   1   2   33.46    5.54
   5  -6   2   29.81    5.18
   6  -5   2   39.63    6.15
  -5  -1   2   21.90    4.26
  -1   6   2   25.31    4.67
   1   5   2   34.15    4.53
  -6   1   5  232.73   11.74
  -5  -1   5  242.20   10.57
   5  -6   5  241.38   12.47
   6  -5   5  225.15   12.52
  -1   6   5  232.15   11.93
  -1   6   5  208.77   10.45
   1   5   5  260.52   10.74
   1   5   5  238.05   11.80
  -6   1   8   51.98    6.01
  -5  -1   8   69.62    5.55
   5  -6   8   62.39    6.84
  -1   6   8   50.85    6.08
   1   5   8   51.67    6.49
   1   5   8   72.14    6.42
  -1   6   8   64.03    7.12
  -1   6  11  190.90   10.95
   1   5  11  201.35   11.79
   1   5  11  195.51   10.80
  -1   6  11  201.28   12.35
  -1   6  14  118.71    9.54
   1   5  14  126.03   10.54
   1   5  14  109.51    9.49
  -1   6  14  115.19   10.84
  -1   6  17  385.18   17.51
   1   5  17  373.90   18.06
  -1   6  17  355.42   18.93
  -6   1  17  404.45   20.60
  -1   6  20  238.38   15.48
   1   5  20  236.01   15.96
  -1   6  20  275.28   18.83
  -6   1  20  253.33   18.64
  -2   6 -20  759.99   28.04
  -6   2 -20  658.88   27.14
  -6   2 -20  690.77   25.47
  -4  -2 -20  785.34   29.44
   4  -6 -20  713.15   24.27
   6  -4 -20  715.25   25.70
   2   4 -20  791.65   29.14
   2   4 -17  181.08   14.15
  -2   6 -17  184.94   13.59
  -6   2 -17  178.28   14.80
  -2   6 -17  179.25   12.49
  -6   2 -17  190.40   12.58
  -4  -2 -17  172.28   13.92
   4  -6 -17  169.93   11.97
  -2   6 -14  822.47   23.42
  -6   2 -14  836.26   28.83
  -6   2 -14  806.29   21.84
  -4  -2 -14  841.60   27.28
   4  -6 -14  838.29   23.58
   2   4 -14  858.99   26.99
   6  -4 -14  825.21   22.71
  -2   6 -14  813.83   24.83
  -2   6 -11  377.23   16.44
  -6   2 -11  362.85   13.45
  -6   2 -11  330.46   17.73
  -4  -2 -11  375.77   17.07
   4  -6 -11  352.79   14.75
  -2   6 -11  382.39   15.16
   6  -4 -11  345.54   14.77
   2   4 -11  373.32   16.29
  -2   6  -8  754.37   19.39
  -2   6  -8  766.56   22.23
  -6   2  -8  782.01   17.57
  -6   2  -8  789.33   25.99
  -4  -2  -8  805.23   23.09
   6  -4  -8  799.03   16.64
   4  -6  -8  817.39   21.48
   6  -4  -8  773.46   21.34
   2   4  -8  780.22   23.23
  -2   6  -5  415.65   15.88
  -6   2  -5  396.78   11.51
  -6   2  -5  387.76   17.96
  -4  -2  -5  392.51   15.40
   2   4  -5  411.65   15.57
   4  -6  -5  396.57   14.58
   6  -4  -5  456.74   16.37
  -2   6  -5  416.57   14.02
  -6   2  -2 1091.21   18.23
  -6   2  -2 1094.81   28.59
   2   4  -2 1141.47   24.81
  -4  -2  -2 1103.84   23.86
  -2   6  -2 1096.81   20.61
   4  -6  -2 1090.76   23.84
   6  -4  -2 1078.89   25.17
  -2   6  -2 1059.03   25.25
  -6   2   1   32.57    3.83
   2   4   1   37.30    5.50
  -2   6   1   30.56    4.15
  -6   2   1   30.96    5.97
  -4  -2   1   33.51    4.59
   4  -6   1   42.17    5.29
   6  -4   1   34.99    5.73
  -2   6   1   39.97    5.58
  -6   2   4 2185.41   36.70
  -4  -2   4 2191.73   29.45
   4  -6   4 2156.26   33.04
   2   4   4 2068.50   24.38
  -2   6   4 2077.68   28.91
  -6   2   4 2061.11   23.95
   2   4   4 2141.49   34.08
  -6   2   7  186.11   10.90
  -4  -2   7  180.25    8.08
   4  -6   7  200.56   10.57
  -2   6   7  211.79   10.06
   2   4   7  197.35   11.17
   2   4   7  197.13    8.51
  -2   6   7  186.46   11.32
  -6   2   7  200.67    8.59
  -6   2  10 2542.55   37.50
  -2   6  10 2580.41   35.64
   2   4  10 2458.93   38.95
   4  -6  10 2479.08   35.79
   2   4  10 2510.76   32.45
  -6   2  10 2623.47   33.93
  -2   6  10 2618.78   42.73
  -2   6  13  292.22   13.01
   2   4  13  294.46   14.81
  -6   2  13  286.00   13.06
  -2   6  13  296.35   15.99
  -6   2  13  296.69   14.30
  -2   6  16 1517.33   32.11
   2   4  16 1522.46   34.79
  -2   6  16 1505.53   37.47
  -2   6  19  171.50   12.95
  -2   6  19  153.84   14.49
   2   4  19  173.52   13.74
  -6   2  19  163.42   14.10
  -2   6  22  436.15   21.74
  -6   2  22  421.65   23.36
  -3   6 -21  113.40   12.84
  -3  -3 -21  108.56   12.60
   3  -6 -21  114.92   11.29
   3   3 -21  125.64   13.64
   6  -3 -21  114.16   11.59
  -6   3 -21   98.36   12.39
  -3   6 -18  196.91   14.54
  -6   3 -18  238.48   16.61
  -6   3 -18  221.95   14.56
  -3  -3 -18  260.77   16.16
   3  -6 -18  226.28   13.72
   3   3 -18  282.83   17.47
   6  -3 -18  216.81   13.73
  -3   6 -15  208.17   13.52
  -6   3 -15  218.98   13.34
  -6   3 -15  247.79   16.17
  -3  -3 -15  243.11   15.00
   3  -6 -15  231.40   13.08
  -3   6 -15  233.63   11.99
   3   3 -15  210.50   14.42
  -6   3 -12  218.68   14.95
  -6   3 -12  223.65   12.35
  -3  -3 -12  218.34   13.40
   3   3 -12  238.38   13.90
  -3   6 -12  236.80   11.16
   3  -6 -12  203.26   11.61
   6  -3 -12  195.92   10.42
  -3   6 -12  223.60   13.16
  -3   6  -9  589.14   20.25
  -6   3  -9  600.24   17.79
   6  -3  -9  619.34   15.91
  -6   3  -9  553.11   22.73
  -3  -3  -9  596.29   20.30
   3  -6  -9  603.10   18.67
  -3   6  -9  608.25   16.53
   6  -3  -9  553.13   17.12
   3   3  -9  577.67   19.73
  -3   6  -6  865.91   23.31
  -3   6  -6  923.62   18.53
  -6   3  -6  942.26   21.13
   6  -3  -6  868.84   19.41
  -6   3  -6  844.42   27.11
  -3  -3  -6  869.98   23.30
   3  -6  -6  869.78   21.50
   3   3  -6  903.77   23.51
   6  -3  -6  843.85   21.59
  -6   3  -3 1938.91   28.83
  -6   3  -3 1855.11   38.24
  -3  -3  -3 1737.62   30.78
   3   3  -3 1806.93   30.79
   3  -6  -3 1884.78   30.31
  -3   6  -3 1785.74   24.83
  -3   6  -3 1824.20   33.95
   3   3   0 2221.69   34.21
  -6   3   0 2162.17   39.97
  -3   6   0 2318.41   27.03
  -3  -3   0 2175.19   32.23
   3  -6   0 2279.76   32.08
  -3   6   0 2175.57   35.70
  -6   3   0 2237.09   30.32
   3   3   3 1772.92   30.43
   3   3   3 1826.22   30.13
  -3  -3   3 1727.89   26.76
   3  -6   3 1837.74   28.94
  -3   6   3 1760.10   33.13
  -6   3   3 1709.38   24.94
  -3   6   3 1806.98   24.17
   3   3   6  866.50   20.42
  -3  -3   6  875.07   17.31
   3  -6   6  907.85   19.96
  -3   6   6  903.03   18.32
   3   3   6  876.96   22.32
  -3   6   6  859.74   23.60
  -6   3   6  866.91   19.11
   3   3   9  581.77   16.82
  -3   6   9  560.37   15.52
   3  -6   9  567.40   16.23
   3   3   9  552.49   18.38
  -3   6   9  598.05   21.01
   3   3  12  237.62   11.13
  -3   6  12  220.24   10.79
   3   3  12  207.90   12.30
  -6   3  12  239.60   12.45
  -3   6  12  215.14   13.95
  -6   3  12  217.36   10.46
  -3   6  15  246.23   12.66
   3   3  15  238.98   14.10
  -3   6  15  235.35   15.69
  -6   3  15  207.74   11.93
  -3   6  18  246.41   14.21
   3   3  18  272.58   16.06
  -3   6  18  226.70   16.51
   3  -6  18  201.41   13.84
  -3   6  21  122.54   11.94
   3   3  21  142.11   13.39
   3  -6  21  112.01   12.23
  -6   4 -22  450.81   23.63
  -2  -4 -22  462.10   22.71
   2  -6 -22  431.48   20.90
  -4   6 -19  156.48   13.57
   4   2 -19  196.76   15.49
  -6   4 -19  160.94   13.92
  -2  -4 -19  158.18   13.18
   2  -6 -19  150.43   12.19
  -4   6 -16 1438.89   34.95
  -6   4 -16 1674.77   39.94
   4   2 -16 1495.46   37.03
  -2  -4 -16 1502.43   35.56
   2  -6 -16 1556.41   33.81
  -2  -4 -16 1536.91   29.81
  -6   4 -16 1587.15   36.43
  -6   4 -13  298.69   14.88
  -4   6 -13  317.87   15.94
  -4   6 -13  262.81   14.39
  -6   4 -13  263.11   16.97
  -2  -4 -13  277.04   14.90
   2  -6 -13  288.13   14.35
   4   2 -13  281.70   15.90
  -2  -4 -13  280.06   11.47
  -6   4 -10 2677.05   40.63
  -4   6 -10 2558.33   42.28
  -4   6 -10 2403.69   28.08
  -6   4 -10 2481.81   48.73
   4   2 -10 2400.32   40.48
  -2  -4 -10 2543.75   41.04
   2  -6 -10 2390.64   38.34
  -4   6  -7  193.45   11.66
  -6   4  -7  224.08   11.68
  -6   4  -7  205.34   14.27
  -2  -4  -7  223.16   12.05
   2  -6  -7  222.29   11.69
   6  -2  -7  206.33   10.49
   6  -2  -7  221.95    8.86
   4   2  -7  196.58   11.63
  -4   6  -7  187.98    7.63
  -4   6  -4 2138.44   37.96
  -6   4  -4 2239.40   33.86
   6  -2  -4 2120.93   32.65
  -6   4  -4 2023.63   41.14
  -4   6  -4 2203.28   23.24
  -2  -4  -4 2286.95   35.34
   2  -6  -4 2000.30   32.35
   4   2  -4 2182.77   34.60
   6  -2  -4 2169.51   24.17
   4   2  -1   46.36    5.88
   4   2  -1   39.97    5.27
  -2  -4  -1   37.55    5.11
   2  -6  -1   49.79    5.41
  -4   6  -1   34.29    3.50
  -4   6  -1   53.07    6.54
  -6   4  -1   34.28    5.15
   4   2   2 1079.18   23.39
   4   2   2 1131.92   24.48
  -2  -4   2 1094.70   21.52
  -4   6   2 1092.79   16.33
   2  -6   2 1061.76   21.40
  -4   6   2 1133.88   27.23
  -6   4   2 1046.30   21.94
   4   2   5  393.52   14.33
  -2  -4   5  420.79   12.48
   2  -6   5  402.75   12.96
  -4   6   5  415.56   11.04
  -4   6   5  408.27   16.84
  -6   4   5  400.71   14.49
   4   2   5  371.74   14.12
   4   2   8  777.70   19.84
  -4   6   8  753.35   16.12
   2  -6   8  803.81   17.76
   4   2   8  747.73   20.92
  -4   6   8  800.45   24.39
  -6   4   8  815.01   21.66
   4   2  11  346.72   13.72
  -4   6  11  398.48   13.27
   4   2  11  414.30   16.29
  -6   4  11  391.73   16.36
  -4   6  11  357.94   17.55
   4   2  14  806.58   21.41
  -4   6  14  780.85   20.56
   4   2  14  846.05   24.87
  -6   4  14  761.66   24.10
  -4   6  14  812.43   27.75
   4   2  17  191.99   11.67
  -4   6  17  206.01   12.49
   4   2  17  182.77   13.05
  -6   4  17  201.55   14.22
  -4   6  17  197.11   15.11
  -4   6  20  741.62   25.26
   4   2  20  725.88   26.76
   2  -6  20  667.78   26.68
  -1  -5 -20  232.59   15.72
   1  -6 -20  217.66   15.02
  -1  -5 -20  215.78   14.59
  -6   5 -20  231.83   16.98
  -5   6 -20  252.87   17.50
   5   1 -17  362.46   18.99
  -5   6 -17  374.19   19.04
  -6   5 -17  369.08   19.33
  -1  -5 -17  390.36   18.90
   1  -6 -17  334.71   16.68
  -1  -5 -17  342.01   15.69
  -5   6 -14  116.19   10.55
   6  -1 -14  103.14    9.34
   5   1 -14  126.41   11.49
  -6   5 -14  124.24   10.99
  -5   6 -14  106.00   10.61
  -6   5 -14  130.46   12.73
  -1  -5 -14  117.72   10.35
   1  -6 -14  117.29    9.75
  -5   6 -11  185.48   12.47
  -6   5 -11  184.38   11.95
  -1  -5 -11  206.77   12.49
   1  -6 -11  157.63   10.43
   5   1 -11  185.83   12.44
   6  -1 -11  218.34   11.64
  -6   5 -11  218.81   15.38
  -5   6  -8   58.46    7.39
  -6   5  -8   51.55    6.85
   6  -1  -8   48.70    6.20
  -6   5  -8   67.39    9.32
  -1  -5  -8   32.86    5.66
   5   1  -8   62.64    6.93
   1  -6  -8   44.86    6.11
   6  -1  -8   58.18    6.35
  -5   6  -5  221.27   12.45
  -6   5  -5  212.40   11.68
   6  -1  -5  213.43   11.47
   6  -1  -5  216.39    9.77
  -1  -5  -5  237.96   12.07
   1  -6  -5  216.38   11.14
   5   1  -5  230.35   12.06
   6  -1  -2   46.23    5.90
   5   1  -2   42.27    6.02
  -1  -5  -2   45.24    5.49
   5   1  -2   27.84    5.00
   1  -6  -2   29.52    4.79
   6  -1  -2   30.17    4.22
  -5   6  -2   41.17    6.10
  -6   5  -2   41.37    5.83
   5   1   1  552.85   16.56
   6  -1   1  507.40   12.97
  -1  -5   1  553.50   15.92
   1  -6   1  548.96   16.27
  -5   6   1  569.96   19.29
  -6   5   1  540.26   17.68
   5   1   1  540.43   17.79
   5   1   4  236.11   11.15
   6  -1   4  226.81    9.06
  -1  -5   4  203.01    9.12
   1  -6   4  218.77    9.87
  -5   6   4  216.53   12.73
  -6   5   4  208.50   11.72
   5   1   7 1238.66   26.42
  -1  -5   7 1318.09   21.13
   1  -6   7 1351.72   22.50
   5   1   7 1312.79   26.28
  -5   6   7 1325.09   31.22
  -6   5   7 1274.55   28.87
   6  -1   7 1283.04   21.52
   6  -1  10  749.62   18.24
   5   1  10  821.74   21.99
  -6   5  10  806.76   24.41
  -5   6  10  762.86   25.20
   6  -1  13 1216.24   25.36
   5   1  13 1321.19   29.77
  -6   5  13 1292.73   32.53
  -5   6  13 1240.96   33.52
   5   1  16  519.04   20.57
  -6   5  16  533.35   22.63
  -5   6  16  469.90   22.47
   5   1  19  330.40   17.72
  -6   5  19  336.96   19.52
  -5   6  19  325.99   20.05
  -6   6 -18  200.80   15.42
   0  -6 -18  199.16   14.05
   6   0 -15  206.93   14.12
  -6   6 -15  186.98   13.81
  -6   6 -15  167.79   14.17
   0  -6 -15  189.45   13.08
  -6   6 -12  741.05   24.83
   6   0 -12  647.74   21.97
  -6   6 -12  784.37   28.72
   0  -6 -12  691.66   22.66
  -6   6  -9   80.33    8.66
   0  -6  -9   68.14    7.63
   6   0  -9   85.95    8.47
  -6   6  -6 2012.99   37.65
   6   0  -6 2071.51   33.52
   0  -6  -6 2090.49   35.61
  -6   6  -3  210.62   12.99
   0  -6  -3  219.91   11.39
   6   0  -3  205.42   12.01
   6   0  -3  227.03   11.45
   6   0   0 3010.65   42.85
   6   0   0 3030.59   37.34
   0  -6   0 2973.33   38.72
   6   0   3  372.33   15.48
   6   0   3  336.43   12.68
   0  -6   3  320.94   12.72
  -6   6   3  369.19   16.37
   6   0   6 2267.20   32.87
   0  -6   6 2276.59   30.46
  -6   6   6 2234.75   41.26
   6   0   9  126.38    8.81
  -6   6   9  158.48   12.00
   6   0  12  533.05   18.26
  -6   6  12  574.01   23.07
   6   0  15  236.53   13.50
  -6   6  15  246.84   16.28
  -7   0 -16  222.70   18.33
   7  -7 -16  221.24   16.18
   0   7 -16  217.09   16.61
  -7   0 -13  680.66   29.03
   0   7 -13  738.59   26.72
   7  -7 -13  710.22   26.10
   0   7 -10  306.52   16.67
  -7   0 -10  294.12   18.42
   7  -7 -10  316.75   17.26
  -7   0  -7 1063.63   33.04
   7  -7  -7  976.06   28.58
   0   7  -7  997.93   28.95
  -7   0  -4  268.46   16.26
   0   7  -4  249.06   14.32
   7  -7  -4  249.35   14.73
  -7   0  -1  432.00   19.34
   0   7  -1  421.30   17.68
   7  -7  -1  434.10   19.32
  -7   0   2  105.15    9.70
   0   7   2   84.35    8.91
   7  -7   2   83.68    9.37
   0   7   5   58.08    7.62
  -7   0   5   60.27    7.29
   7  -7   5   48.66    7.68
   7  -7   8  179.68   12.87
   0   7   8  154.37   11.44
   0   7  11   84.78    9.36
   0   7  14  237.48   15.20
   1   6 -17  174.65   15.13
  -1   7 -17  157.34   14.08
  -7   1 -17  190.77   17.28
  -1   7 -17  148.76   13.69
  -6  -1 -17  195.79   17.05
   6  -7 -17  180.88   14.48
  -1   7 -14  163.83   12.94
  -7   1 -14  154.19   14.86
  -6  -1 -14  163.54   14.76
   1   6 -14  174.68   13.99
   6  -7 -14  164.80   13.23
   7  -6 -14  142.84   12.46
  -1   7 -14  172.92   13.44
  -7   1 -11   85.39   11.51
  -1   7 -11  118.40   10.64
  -6  -1 -11   58.21    8.99
   1   6 -11   93.30   10.09
  -1   7 -11   92.12    9.74
   6  -7 -11   89.01    9.79
   7  -6 -11   81.40    9.40
  -1   7  -8   99.11    9.58
  -7   1  -8  114.27   11.93
  -6  -1  -8   79.01    9.50
   6  -7  -8   99.34    9.82
   7  -6  -8   91.00    9.18
   1   6  -8   88.29    9.64
  -1   7  -8  117.55   10.06
  -1   7  -5  104.64    9.18
  -7   1  -5  119.72   11.28
  -6  -1  -5  114.97   10.44
   1   6  -5  110.01    9.91
   6  -7  -5  111.78    9.80
  -1   7  -5  115.19    9.71
   7  -6  -5   91.17    9.24
  -1   7  -2   32.66    6.75
   1   6  -2   30.63    6.14
  -6  -1  -2   40.50    6.26
  -1   7  -2   30.27    5.86
  -7   1  -2   28.28    6.25
   6  -7  -2   32.32    6.09
   7  -6  -2   26.85    5.83
   1   6   1  362.96   16.31
  -1   7   1  395.37   15.81
  -7   1   1  395.17   17.49
  -6  -1   1  366.06   15.53
   6  -7   1  364.19   16.56
   7  -6   1  406.15   17.68
  -1   7   1  390.66   16.84
   1   6   4  162.34   11.19
  -1   7   4  164.68   10.61
  -7   1   4  192.31   12.01
  -6  -1   4  161.00   10.00
   6  -7   4  156.40   11.61
   7  -6   4  162.31   11.71
  -7   1   7 1105.21   25.88
   6  -7   7 1095.03   28.40
  -1   7   7 1083.72   27.93
  -1   7   7 1165.72   27.00
   1   6   7 1140.40   28.29
   6  -7  10  450.91   18.57
  -1   7  10  454.63   17.93
   1   6  10  470.71   19.26
  -1   7  10  434.05   18.48
  -1   7  13  797.47   24.45
  -1   7  13  819.97   26.58
  -1   7  16  297.15   16.21
   1   6  16  307.11   17.15
  -1   7  16  255.30   16.61
   2   5 -18  145.86   14.17
  -2   7 -18  110.63   12.23
  -2   7 -18  109.85   11.48
  -7   2 -18  112.09   14.02
  -5  -2 -18  116.37   13.81
   5  -7 -18  108.48   11.77
  -2   7 -15  236.24   14.71
  -7   2 -15  236.72   18.06
  -5  -2 -15  268.59   18.10
   5  -7 -15  265.84   15.90
  -2   7 -15  267.22   16.34
   2   5 -15  260.29   16.85
  -2   7 -12   86.22    9.49
   2   5 -12  130.24   11.42
  -7   2 -12   75.33   11.33
  -5  -2 -12   94.51   10.60
   5  -7 -12  119.99   10.77
  -2   7 -12   89.00    9.25
   7  -5 -12   98.58    9.72
  -2   7  -9  821.11   25.36
  -2   7  -9  806.89   22.38
  -7   2  -9  781.67   28.69
  -5  -2  -9  750.86   25.38
   5  -7  -9  774.90   24.00
   7  -5  -9  808.26   24.07
   2   5  -9  773.18   24.88
  -2   7  -6  606.46   21.31
  -7   2  -6  597.86   24.06
  -5  -2  -6  540.81   20.29
   5  -7  -6  621.37   20.94
   2   5  -6  600.93   21.52
   7  -5  -6  593.02   20.63
  -2   7  -6  569.96   18.90
  -2   7  -3 1125.52   29.57
  -7   2  -3 1112.41   31.23
   2   5  -3 1082.99   26.99
  -2   7  -3 1142.18   24.64
   5  -7  -3 1158.57   27.69
   7  -5  -3 1142.62   28.25
  -7   2   0 1023.88   29.05
   2   5   0 1075.26   27.00
  -2   7   0 1080.61   23.84
  -5  -2   0 1065.92   25.04
   5  -7   0 1063.26   26.09
   7  -5   0 1002.36   26.58
  -2   7   0 1061.18   27.68
   2   5   3 1442.07   31.17
  -2   7   3 1418.60   27.10
  -7   2   3 1421.65   32.80
  -5  -2   3 1413.40   27.26
   5  -7   3 1437.23   30.55
  -2   7   3 1334.24   30.01
  -7   2   6  910.89   25.42
  -5  -2   6  840.11   19.55
   5  -7   6  884.02   24.36
  -2   7   6  891.99   25.98
   2   5   6  883.74   24.54
  -7   2   9  516.44   18.58
   5  -7   9  483.10   18.20
  -2   7   9  538.73   18.09
   2   5   9  519.01   19.89
  -2   7   9  501.08   19.98
   5  -7  12  235.64   12.88
   2   5  12  251.89   14.69
  -2   7  12  260.12   15.65
  -2   7  15   54.34    7.70
   2   5  15   65.37    9.08
  -2   7  15   66.25    9.84
  -2   7  18  217.05   14.44
   2   5  18  256.73   16.96
  -2   7  18  250.48   18.08
  -3   7 -19  289.12   18.54
  -7   3 -19  257.37   19.44
  -4  -3 -19  278.01   18.75
   3   4 -19  264.52   18.26
   4  -7 -19  289.62   16.97
  -3   7 -16  582.98   23.60
  -7   3 -16  512.35   25.66
  -4  -3 -16  635.95   26.07
  -3   7 -16  555.33   20.25
   4  -7 -16  557.63   21.55
   3   4 -16  593.51   25.06
  -3   7 -13 1005.70   28.99
  -7   3 -13  958.86   33.42
  -3   7 -13  939.20   24.55
  -4  -3 -13  945.43   29.62
   3   4 -13  914.61   29.10
   4  -7 -13  959.79   26.83
   7  -4 -13  949.98   25.06
   3   4 -10  710.00   24.03
  -3   7 -10  734.22   24.43
  -7   3 -10  673.02   27.06
  -4  -3 -10  688.16   24.71
   4  -7 -10  700.00   22.30
  -3   7 -10  725.19   20.60
   7  -4 -10  677.83   21.21
  -3   7  -7  877.55   25.81
  -3   7  -7  829.96   20.15
   7  -4  -7  872.21   20.77
  -7   3  -7  846.21   29.52
  -4  -3  -7  893.51   26.22
   4  -7  -7  849.93   23.66
   7  -4  -7  804.51   23.28
   3   4  -7  835.77   25.62
  -3   7  -4  346.35   16.60
  -7   3  -4  363.22   18.89
  -4  -3  -4  398.52   16.67
   3   4  -4  374.55   16.36
   4  -7  -4  366.97   15.37
  -3   7  -4  380.14   13.77
   7  -4  -4  381.33   16.32
   3   4  -1  488.13   18.07
  -4  -3  -1  501.99   17.63
  -3   7  -1  517.10   14.81
   4  -7  -1  497.41   17.62
  -3   7  -1  533.93   20.17
   3   4   2   67.46    7.63
  -3   7   2   80.85    6.56
  -7   3   2   90.57    9.49
  -4  -3   2   80.34    7.22
   4  -7   2   89.91    7.95
  -3   7   2   71.70    8.08
  -7   3   5  139.99   11.15
  -4  -3   5  161.15    9.01
   4  -7   5  182.92   10.68
  -3   7   5  158.78   11.60
  -3   7   5  168.40    9.10
   3   4   5  146.85   10.38
  -3   7   8   15.32    4.49
   3   4   8   11.52    4.89
  -3   7   8   17.52    5.67
  -7   3   8   17.97    5.60
   4  -7   8    8.42    4.37
   3   4  11  223.77   11.75
  -7   3  11  231.74   14.05
  -3   7  11  226.77   11.54
   4  -7  11  215.87   11.64
   3   4  11  216.31   13.39
  -3   7  11  228.01   14.81
  -3   7  14  111.27    9.23
   3   4  14  120.93   11.10
  -3   7  14  102.88   11.60
  -3   7  17  341.78   16.36
   3   4  17  359.46   18.93
  -3   7  20  136.81   12.24
  -7   4 -20  146.94   14.53
  -3  -4 -20  154.91   14.80
   3  -7 -20  145.06   13.00
  -4   7 -17  414.02   20.74
  -7   4 -17  391.73   19.94
  -7   4 -17  374.09   21.97
   4   3 -17  373.37   20.85
  -3  -4 -17  442.64   22.08
   3  -7 -17  396.89   18.93
  -4   7 -14   89.83    9.93
  -7   4 -14   86.52   10.11
  -7   4 -14  115.24   13.21
  -3  -4 -14  113.21   11.60
   3  -7 -14  104.94   10.31
   4   3 -14  102.19   11.31
  -4   7 -11  211.33   13.91
  -7   4 -11  196.44   12.19
  -7   4 -11  208.85   16.35
   4   3 -11  214.90   14.08
  -3  -4 -11  206.58   13.69
   3  -7 -11  217.27   13.01
   7  -3  -8   14.48    4.79
  -7   4  -8   15.42    6.75
  -3  -4  -8   11.14    5.33
   3  -7  -8   13.25    4.91
  -4   7  -8   30.78    6.44
  -7   4  -8    8.07    4.51
   4   3  -8    7.71    5.15
  -4   7  -5  163.14   11.72
  -7   4  -5  168.49   10.31
   7  -3  -5  168.54   10.51
  -7   4  -5  137.45   12.52
  -3  -4  -5  172.16   11.38
   3  -7  -5  153.40   10.26
   4   3  -5  171.94   11.63
  -7   4  -2   92.15    7.66
  -7   4  -2  108.96   10.74
   4   3  -2   98.32    8.78
  -3  -4  -2   76.13    7.53
   3  -7  -2   64.84    6.85
  -4   7  -2   83.81    8.93
  -7   4   1  446.92   19.94
   4   3   1  508.00   18.25
  -3  -4   1  470.29   16.06
   3  -7   1  531.31   17.27
  -4   7   1  479.22   19.15
  -7   4   1  448.04   15.65
   4   3   4  408.41   16.70
  -4   7   4  368.04   11.67
   4   3   4  374.69   15.32
  -3  -4   4  361.51   13.35
   3  -7   4  382.90   14.77
  -4   7   4  343.07   17.04
  -7   4   4  395.56   14.43
   4   3   7  830.11   22.14
   3  -7   7  926.58   22.30
  -4   7   7  850.87   18.62
  -4   7   7  802.97   26.00
  -7   4   7  948.29   23.39
   4   3   7  854.62   23.76
   4   3  10  710.83   20.84
  -4   7  10  734.96   18.58
   4   3  10  702.63   22.88
  -4   7  10  708.86   25.38
  -7   4  10  737.82   21.91
   4   3  13  933.94   24.27
  -4   7  13  995.82   23.42
   4   3  13  959.29   27.81
  -7   4  13 1026.86   27.75
  -4   7  13  936.96   30.70
  -4   7  16  559.58   19.16
   4   3  16  590.95   23.30
  -7   4  16  528.88   21.73
  -4   7  16  553.58   25.20
   4   3  19  271.15   17.69
  -4   7  19  255.39   18.94
  -5   7 -18  257.19   17.27
  -7   5 -18  229.01   16.67
  -7   5 -18  257.88   18.83
  -2  -5 -18  225.54   16.52
   2  -7 -18  258.16   16.51
   5   2 -18  246.72   17.52
   5   2 -15   59.88    9.57
  -7   5 -15   72.63   11.14
  -2  -5 -15   75.91    9.93
   2  -7 -15   54.18    8.57
  -7   5 -15   61.44    9.19
  -5   7 -15   46.62    8.10
  -5   7 -12  235.26   14.76
  -7   5 -12  233.07   14.40
  -7   5 -12  251.53   18.21
  -2  -5 -12  273.72   15.77
   2  -7 -12  239.87   14.26
   5   2 -12  287.29   16.78
  -5   7  -9  507.89   20.77
  -7   5  -9  574.10   20.98
   5   2  -9  443.69   18.58
   7  -2  -9  527.11   18.27
  -7   5  -9  513.71   24.22
  -2  -5  -9  509.29   20.05
   2  -7  -9  491.83   19.20
  -5   7  -6  886.08   26.60
  -7   5  -6  918.83   24.90
   7  -2  -6  915.73   24.22
  -7   5  -6  973.40   32.06
  -2  -5  -6  949.46   25.66
   2  -7  -6  924.70   24.96
   5   2  -6  888.83   25.84
  -7   5  -3 1360.90   28.94
   7  -2  -3 1373.55   29.67
  -2  -5  -3 1490.24   30.65
   2  -7  -3 1487.93   30.41
   5   2  -3 1420.39   30.27
  -5   7  -3 1408.46   34.48
   5   2   0 1023.90   26.11
   5   2   0 1127.82   26.22
  -2  -5   0 1095.25   24.87
   2  -7   0 1079.32   24.74
  -5   7   0 1120.16   29.80
  -7   5   0 1054.07   26.03
   5   2   3 1091.42   26.45
   5   2   3 1146.71   26.88
  -2  -5   3 1144.44   23.81
   2  -7   3 1186.16   25.02
  -5   7   3 1167.82   30.50
  -7   5   3 1127.75   26.32
   2  -7   6  574.41   17.49
  -5   7   6  544.79   21.98
  -7   5   6  593.06   20.32
   5   2   6  534.25   18.67
   5   2   6  536.02   18.89
   5   2   9  787.75   22.52
   5   2   9  736.49   22.67
  -5   7   9  756.31   26.45
  -7   5   9  810.81   24.29
   5   2  12  101.02    9.40
   5   2  12   91.34    9.43
  -5   7  12   95.01   10.85
  -7   5  12  109.85   10.58
   5   2  15  253.45   14.04
   5   2  15  262.35   15.53
  -7   5  15  272.68   16.35
  -5   7  15  278.41   18.25
   5   2  18  123.51   12.41
  -7   5  18  128.92   12.85
  -5   7  18  119.59   13.49
  -6   7 -16  258.71   16.64
  -7   6 -16  257.44   17.12
  -7   6 -16  252.05   18.55
  -1  -6 -16  244.80   16.07
   1  -7 -16  297.77   17.37
   6   1 -16  263.16   17.16
   6   1 -13  903.37   28.75
  -6   7 -13  915.54   28.89
  -7   6 -13  982.22   29.53
  -6   7 -13  910.31   31.25
  -7   6 -13  843.24   32.13
  -1  -6 -13  918.43   28.38
   1  -7 -13  932.44   27.85
  -6   7 -10  498.12   21.06
  -7   6 -10  435.04   19.32
  -7   6 -10  407.27   22.23
  -1  -6 -10  487.64   20.10
   1  -7 -10  467.08   19.17
   6   1 -10  429.31   19.01
  -6   7  -7 1038.60   29.48
  -7   6  -7 1134.84   29.74
   6   1  -7 1076.65   27.71
   7  -1  -7 1026.02   27.17
  -7   6  -7 1071.83   34.29
  -1  -6  -7 1156.28   29.08
   1  -7  -7 1104.41   27.87
  -6   7  -4  188.21   13.27
  -7   6  -4  181.07   12.11
   6   1  -4  165.19   11.64
  -1  -6  -4  189.49   11.66
   1  -7  -4  147.10   10.51
   6   1  -4  161.31   11.32
   7  -1  -4  162.79   11.43
   6   1  -1  377.67   16.72
  -1  -6  -1  406.35   15.70
   6   1  -1  382.30   15.53
   1  -7  -1  349.85   15.11
   7  -1  -1  376.19   16.58
  -6   7  -1  394.35   18.54
  -7   6  -1  383.94   17.51
   7  -1   2   40.06    6.48
   6   1   2   32.80    6.32
   6   1   2   31.40    5.87
  -1  -6   2   27.73    5.12
   1  -7   2   41.93    5.82
  -6   7   2   29.28    6.54
  -7   6   2   36.37    6.48
   6   1   5   98.92    8.58
   6   1   5  107.91    9.47
  -1  -6   5  103.55    7.79
   1  -7   5  109.00    8.20
  -6   7   5   88.30    9.96
  -7   6   5  105.37    9.69
   6   1   8   99.24    9.22
  -6   7   8  107.46   11.07
  -7   6   8  101.23   10.29
   6   1   8   82.52    8.15
   6   1  11   90.46    9.22
   6   1  11   90.07    9.23
  -6   7  11   91.07   10.68
  -7   6  11   79.35    9.60
   6   1  14  144.09   11.91
   6   1  14  154.15   11.95
  -6   7  14  156.94   14.02
   6   1  17  163.48   13.49
  -7   6  17  194.48   15.60
  -6   7  17  177.73   15.73
  -7   7 -14  253.77   16.50
  -7   7 -14  218.46   18.28
   0  -7 -14  216.12   14.90
  -7   7 -11   79.75   10.14
  -7   7 -11  112.13   13.52
   0  -7 -11  101.32   10.26
  -7   7  -8  178.21   13.37
   0  -7  -8  183.12   12.49
  -7   7  -5   49.96    7.90
   7   0  -5   54.91    8.20
   0  -7  -5   69.18    7.98
  -7   7  -2   74.02    9.49
   7   0  -2   94.87    9.57
   0  -7  -2   98.11    8.95
   7   0   1  433.73   18.76
   0  -7   1  430.23   16.91
  -7   7   1  460.17   20.68
   7   0   4  215.83   13.51
   0  -7   4  215.89   11.87
  -7   7   4  215.19   14.53
   7   0   7 1009.84   28.48
  -7   7   7  972.50   30.86
  -7   7  10  340.41   19.33
  -7   7  13  714.75   28.00
  -7   7  16  228.67   17.71
   0   8 -11   86.68   11.42
   8  -8 -11   89.79   12.19
  -8   0  -8  249.57   18.46
   8  -8  -8  298.50   18.22
   0   8  -8  245.44   16.70
  -8   0  -5  110.96   12.58
   8  -8  -5   93.06   11.14
   0   8  -5  105.60   11.85
  -8   0  -2  264.33   17.07
   0   8  -2  255.90   16.27
   8  -8  -2  248.56   16.45
  -8   0   1    0.03    5.78
   0   8   1   16.59    6.53
   8  -8   1   12.00    6.61
  -8   0   4  625.89   23.39
   8  -8   4  688.09   25.91
   0   8   7  108.76   11.29
   0   8  10  743.09   26.26
   1   7 -12  152.51   13.97
  -8   1 -12  114.08   14.45
  -7  -1 -12  117.75   13.87
  -1   8 -12  131.11   12.89
   7  -8 -12  111.86   12.60
   8  -7 -12  153.88   14.05
  -1   8  -9  300.13   17.01
  -8   1  -9  258.01   19.00
  -7  -1  -9  298.34   19.03
   7  -8  -9  357.17   19.30
   8  -7  -9  228.31   15.96
   1   7  -9  290.40   17.60
  -8   1  -6  319.01   19.72
  -7  -1  -6  345.32   19.30
   7  -8  -6  345.15   18.62
   8  -7  -6  300.71   17.33
   1   7  -6  351.50   19.07
  -1   8  -6  322.15   17.51
  -1   8  -3  729.08   24.44
  -8   1  -3  832.33   29.41
  -7  -1  -3  819.74   27.27
   1   7  -3  810.23   26.99
  -1   8  -3  790.78   25.28
   7  -8  -3  819.31   27.50
   8  -7  -3  828.74   27.40
  -1   8   0  713.65   25.28
  -8   1   0  747.76   26.51
  -7  -1   0  735.89   24.59
   1   7   0  744.48   25.18
  -1   8   0  764.06   24.29
   7  -8   0  769.80   26.43
   8  -7   0  769.13   26.08
   1   7   3  798.96   26.36
  -1   8   3  806.63   25.04
  -7  -1   3  847.59   24.74
   7  -8   3  882.73   28.48
   8  -7   3  810.43   27.10
  -1   8   3  842.58   26.51
   1   7   6  284.32   16.13
  -1   8   6  300.76   15.81
  -8   1   6  286.97   15.45
   7  -8   6  286.95   16.80
  -1   8   6  300.75   16.36
   7  -8   9  328.65   18.04
  -1   8   9  277.68   16.50
  -1   8   9  334.51   16.78
   1   7   9  339.81   17.54
  -1   8  12   63.30    8.92
   1   7  12   67.76    9.81
  -2   8 -16  737.25   28.25
  -2   8 -16  695.76   26.09
   6  -8 -16  715.86   27.96
  -2   8 -13  207.38   14.88
  -8   2 -13  207.27   18.26
  -6  -2 -13  223.13   17.77
   2   6 -13  232.32   16.47
   6  -8 -13  187.25   14.73
   8  -6 -13  211.54   15.23
  -2   8 -13  191.09   14.32
   2   6 -10 1055.84   31.82
  -2   8 -10 1050.23   30.93
  -8   2 -10  927.33   34.42
  -2   8 -10 1039.73   28.53
  -6  -2 -10  916.01   31.38
   6  -8 -10 1008.92   30.21
   8  -6 -10 1036.58   30.30
  -2   8  -7  151.34   12.62
  -8   2  -7  170.12   15.02
  -6  -2  -7  123.19   11.90
   6  -8  -7  158.29   12.63
   8  -6  -7  147.35   12.29
   2   6  -7  166.95   13.76
  -2   8  -7  127.10   10.80
  -2   8  -4  839.38   26.64
  -8   2  -4  896.65   30.60
  -6  -2  -4  915.89   27.85
   2   6  -4  871.10   27.49
   6  -8  -4  865.77   26.91
  -2   8  -4  864.31   25.12
   8  -6  -4  869.97   26.74
  -2   8  -1   18.22    5.33
  -8   2  -1   19.28    6.80
  -2   8  -1   13.86    7.13
  -6  -2  -1    9.78    5.31
   6  -8  -1   24.75    6.49
   8  -6  -1   19.82    6.49
   2   6  -1    9.26    5.56
   2   6   2  452.26   19.66
  -8   2   2  466.39   20.57
  -2   8   2  438.29   17.35
  -6  -2   2  435.94   17.45
   6  -8   2  454.49   19.62
   2   6   5  146.05   11.67
  -2   8   5  113.72    9.53
  -8   2   5  130.46   11.55
   6  -8   5  120.67   11.14
  -2   8   5  123.30   11.11
  -8   2   8  243.07   14.43
   6  -8   8  265.82   15.59
  -2   8   8  280.31   16.65
  -2   8   8  269.28   14.11
   2   6   8  283.68   15.97
   6  -8  11  108.52   11.01
  -2   8  11  137.47   11.08
  -2   8  11  131.08   12.42
  -2   8  14  378.31   18.09
   2   6  14  443.28   21.52
  -2   8  14  391.19   20.78
  -3   8 -14  121.73   12.36
  -8   3 -14   92.95   13.96
  -5  -3 -14  102.53   12.94
   3   5 -14  117.30   12.73
   5  -8 -14  105.13   11.69
  -3   8 -11   67.92    9.43
   3   5 -11   62.90    9.47
  -8   3 -11  106.67   13.30
  -5  -3 -11   86.56   11.03
   5  -8 -11   91.97   10.34
   8  -5 -11   75.36    9.50
  -3   8  -8   87.42   10.46
  -3   8  -8   73.21    7.99
  -8   3  -8   74.67   11.07
  -5  -3  -8   65.13    9.60
   5  -8  -8   91.16   10.33
   8  -5  -8   80.26    9.64
   3   5  -8   91.72   10.83
  -3   8  -5  109.81   10.89
  -8   3  -5  141.62   13.53
  -5  -3  -5  121.17   11.21
   5  -8  -5  130.96   11.15
   3   5  -5  135.39   11.91
   8  -5  -5  152.48   11.70
  -3   8  -5  120.80    9.65
   3   5  -2   40.01    7.26
  -5  -3  -2   40.56    7.29
  -3   8  -2   39.16    6.20
  -8   3  -2   31.67    7.83
  -3   8  -2   33.28    7.72
   5  -8  -2   36.55    6.71
  -8   3   1  290.34   17.39
   3   5   1  274.25   15.46
  -3   8   1  246.72   12.12
  -5  -3   1  294.00   14.74
   5  -8   1  258.27   14.50
  -3   8   1  246.01   15.49
   3   5   4  123.31   11.06
  -3   8   4  112.72    8.87
  -8   3   4  123.95   11.64
  -5  -3   4  115.40    9.27
   5  -8   4  134.52   10.99
  -3   8   4  114.72   10.86
   3   5   7  846.11   26.56
  -8   3   7  906.44   28.51
   5  -8   7  884.90   26.21
  -3   8   7  840.66   28.21
  -3   8   7  794.53   22.05
   5  -8  10  491.42   19.48
  -3   8  10  524.61   18.72
  -3   8  10  517.88   22.85
   3   5  10  504.11   21.06
  -3   8  13  729.48   23.17
   3   5  13  782.84   27.29
  -3   8  13  809.93   29.31
  -3   8  16  233.17   14.61
   3   5  16  261.94   17.40
  -3   8  16  231.63   17.62
  -4   8 -15  168.49   14.31
  -8   4 -15  152.60   16.57
  -4  -4 -15  149.68   14.24
   4  -8 -15  147.03   13.02
   4   4 -15  162.14   15.02
  -4   8 -12  521.31   22.86
  -8   4 -12  442.46   24.89
   4   4 -12  451.88   21.29
  -4  -4 -12  483.68   22.54
  -4   8  -9   67.94    9.72
  -8   4  -9   64.15   10.80
  -4  -4  -9   92.41   10.58
   4  -8  -9   61.88    8.35
   4   4  -9   86.10   10.29
  -4   8  -6 1551.87   37.16
   8  -4  -6 1655.67   32.75
  -8   4  -6 1615.34   43.06
  -4  -4  -6 1674.32   37.46
   4  -8  -6 1589.50   34.61
   4   4  -6 1639.47   38.37
  -4   8  -3  178.50   13.92
  -8   4  -3  143.80   13.39
  -4  -4  -3  159.39   11.85
   4   4  -3  180.30   12.92
   4  -8  -3  171.95   11.79
  -8   4   0 2034.73   44.68
   4   4   0 2248.77   41.86
  -4  -4   0 2054.12   37.23
   4  -8   0 2192.22   39.83
  -4   8   0 2145.90   44.43
   4   4   3  176.75   12.69
  -8   4   3  182.53   14.17
  -4  -4   3  168.26   10.60
   4  -8   3  171.10   11.62
  -4   8   3  166.01   13.08
   4   4   6 1626.25   36.34
  -8   4   6 1532.10   38.65
   4  -8   6 1675.25   34.09
  -4   8   6 1611.76   39.58
  -8   4   9   77.61   10.50
   4  -8   9   61.36    8.41
  -4   8   9   70.48   10.22
   4   4   9   93.49   10.28
   4   4  12  431.40   17.88
   4   4  12  492.76   21.55
  -4   8  12  456.79   22.46
   4   4  15  147.95   13.56
  -4   8  15  152.02   14.93
   5   3 -16  248.24   18.17
  -5   8 -16  212.33   16.03
  -8   5 -16  261.33   20.43
  -3  -5 -16  283.51   19.18
   3  -8 -16  231.54   15.95
  -5   8 -13  766.35   27.93
  -8   5 -13  718.50   25.63
  -8   5 -13  786.29   32.86
  -3  -5 -13  790.93   28.77
   3  -8 -13  784.17   26.40
   5   3 -13  830.85   29.65
  -5   8 -10  527.83   22.89
  -8   5 -10  493.13   19.87
   5   3 -10  540.06   22.64
  -8   5 -10  542.83   26.92
  -3  -5 -10  467.13   21.21
   3  -8 -10  543.69   21.56
  -5   8  -7  850.91   28.33
  -8   5  -7  831.80   24.85
   8  -3  -7  863.81   24.87
  -8   5  -7  806.22   31.19
  -3  -5  -7  811.11   26.13
   3  -8  -7  842.72   25.68
   5   3  -7  794.36   27.05
  -5   8  -4  131.79   12.24
  -8   5  -4   95.68    9.18
   8  -3  -4  114.08   10.17
  -8   5  -4  132.94   13.32
  -3  -5  -4   87.89    9.17
   3  -8  -4  126.58   10.35
   5   3  -4  117.57   11.13
  -8   5  -1  219.34   12.60
  -8   5  -1  244.02   16.65
   5   3  -1  252.01   14.50
  -3  -5  -1  259.08   13.98
   3  -8  -1  274.31   14.39
  -5   8  -1  290.57   17.26
  -3  -5   2   36.09    6.20
   5   3   2   31.75    6.93
  -5   8   2   28.44    7.66
  -8   5   2   37.73    8.23
  -8   5   2   26.09    5.90
   3  -8   2   33.51    6.22
   5   3   5  146.77   11.53
   5   3   5  124.94   10.12
   3  -8   5  127.78   10.11
  -5   8   5  141.82   12.67
  -8   5   5  139.09   10.58
   5   3   8   78.90    8.68
  -5   8   8   76.26   10.73
  -8   5   8   74.64    8.90
   5   3   8   59.99    8.64
   5   3  11   93.68    9.65
  -5   8  11   96.62   11.86
   5   3  11   84.28   10.07
   5   3  14   96.76   11.27
  -5   8  14   97.37   12.89
  -6   8 -14  443.31   21.80
  -8   6 -14  406.38   20.69
  -8   6 -14  424.55   24.87
  -2  -6 -14  401.75   20.90
   2  -8 -14  412.69   20.62
   6   2 -14  415.28   22.17
  -6   8 -11  127.46   12.63
  -8   6 -11  143.11   12.40
  -8   6 -11  111.17   14.30
  -2  -6 -11  151.42   13.06
   6   2 -11  142.99   13.46
  -6   8  -8  253.78   16.19
   6   2  -8  255.18   15.81
  -8   6  -8  242.69   15.04
   8  -2  -8  257.61   15.11
  -8   6  -8  272.81   19.57
  -2  -6  -8  252.27   15.57
   2  -8  -8  221.79   14.28
  -6   8  -5  141.07   12.46
  -8   6  -5  143.81   11.64
   8  -2  -5  135.54   11.61
  -8   6  -5  127.93   13.92
  -2  -6  -5  109.89   10.47
   2  -8  -5  126.47   10.78
   6   2  -5  129.67   12.14
  -8   6  -2  413.71   18.34
   8  -2  -2  452.27   19.44
  -2  -6  -2  438.33   18.20
   2  -8  -2  414.63   17.53
   6   2  -2  448.50   19.29
  -6   8  -2  463.59   22.40
   8  -2   1   13.97    5.88
   6   2   1    5.04    4.72
   6   2   1   15.22    6.01
  -6   8   1   19.10    6.89
  -8   6   1   10.78    5.58
  -2  -6   1   13.77    4.96
   2  -8   1   23.72    5.65
   6   2   4  845.33   25.76
   6   2   4  854.26   25.59
   2  -8   4  860.23   23.77
  -6   8   4  827.81   28.89
  -8   6   4  901.51   27.10
   6   2   7  131.39   11.05
   6   2   7  147.64   11.56
  -6   8   7  140.83   13.57
  -8   6   7  127.16   11.45
   6   2  10  996.34   28.43
  -6   8  10 1001.08   33.95
  -8   6  10 1020.28   31.11
   6   2  10  934.06   27.71
   6   2  13  234.50   15.13
   6   2  13  208.28   14.54
  -6   8  13  207.57   16.89
  -8   6  13  199.58   15.21
   6   2  16  744.06   26.68
   6   2  16  698.55   27.08
  -8   6  16  702.38   28.11
  -8   7 -12   57.74   10.00
  -1  -7 -12   58.20    9.36
   1  -8 -12   73.12   10.50
   7   1 -12   51.39   10.17
  -7   8 -12   53.16   11.92
  -8   7 -12   67.65   12.37
  -7   8 -12   58.86    9.60
  -7   8  -9  328.15   19.01
  -8   7  -9  296.02   17.64
  -8   7  -9  308.30   21.39
  -1  -7  -9  347.64   18.12
   7   1  -9  303.55   17.57
   1  -8  -9  371.65   18.87
  -7   8  -6  303.85   18.01
  -8   7  -6  315.68   17.65
   7   1  -6  303.57   16.49
   8  -1  -6  269.83   16.33
  -8   7  -6  288.72   20.20
  -1  -7  -6  320.00   16.80
   1  -8  -6  310.66   16.91
  -7   8  -3  921.57   31.10
  -8   7  -3  771.57   26.43
   8  -1  -3  874.32   27.86
   7   1  -3  845.59   27.54
  -1  -7  -3  910.39   26.40
   1  -8  -3  783.52   25.47
   7   1  -3  832.19   26.40
   8  -1   0  800.20   26.64
   7   1   0  772.89   26.02
  -1  -7   0  729.71   22.69
   1  -8   0  768.19   23.76
   7   1   0  744.98   23.81
  -7   8   0  714.81   27.75
  -8   7   0  748.68   27.50
   8  -1   3  787.91   26.49
   7   1   3  816.70   26.27
   7   1   3  742.79   22.91
   1  -8   3  753.26   22.81
  -7   8   3  781.87   28.83
  -8   7   3  782.82   27.59
   8  -1   6  341.18   18.48
   7   1   6  333.44   17.48
  -7   8   6  301.07   18.45
  -8   7   6  345.83   18.73
   7   1   9  281.84   16.29
  -7   8   9  277.30   18.84
  -8   7   9  252.00   17.56
   7   1  12  116.99   11.80
  -7   8  12  146.11   15.02
  -8   7  12  141.48   14.31
  -8   8 -10  746.76   29.01
  -8   8 -10  732.48   33.07
   0  -8 -10  782.78   27.95
  -8   8  -7  143.85   13.61
   0  -8  -7  131.95   12.19
  -8   8  -4  671.16   26.81
   8   0  -4  688.89   25.74
   0  -8  -4  749.13   25.92
   8   0  -1   12.30    7.38
  -8   8  -1   15.67    8.01
   0  -8  -1    4.25    5.87
   8   0   2  273.39   16.73
   0  -8   2  227.31   14.05
  -8   8   2  241.10   17.39
   8   0   5   93.25   10.89
  -8   8   5   88.67   11.59
   8   0   8  236.24   16.12
  -8   8   8  237.86   17.55
  -8   8  11   80.98   12.65
  -9   1  -4  131.78   14.40
  -8  -1  -4  172.29   15.05
   1   8  -4  132.78   13.99
  -1   9  -4  138.64   13.92
  -9   1  -1  139.46   14.07
  -8  -1  -1  151.19   13.71
   1   8  -1  150.64   14.17
  -1   9  -1  131.34   12.66
   8  -9  -1  144.24   14.34
   9  -8  -1  148.67   13.68
   1   8   2   20.01    7.65
  -9   1   2   28.86    8.97
   8  -9   2   21.18    8.06
   9  -8   2   40.96    9.05
  -1   9   2   14.88    7.00
  -1   9   5   74.94   10.57
   8  -9   5   69.85   10.77
  -2   9  -8   -4.23    7.31
   2   7  -8   -1.18    7.87
  -9   2  -8   10.94    9.00
  -7  -2  -8    9.94    8.03
  -2   9  -8    8.45    7.61
   7  -9  -8    5.16    7.49
   9  -7  -8    9.43    7.31
  -2   9  -5   82.43   11.25
  -9   2  -5   93.98   13.19
  -7  -2  -5  112.51   12.48
   7  -9  -5  115.63   12.76
   2   7  -5  109.68   12.56
   9  -7  -5   86.99   10.94
  -2   9  -5  124.64   12.75
  -2   9  -2   31.72    8.16
   2   7  -2   34.44    8.58
  -9   2  -2   21.68    8.33
  -7  -2  -2   24.34    7.98
  -2   9  -2   16.10    7.51
   7  -9  -2   26.14    8.04
   9  -7  -2   25.09    7.79
  -9   2   1  246.83   17.20
   2   7   1  258.29   16.85
  -7  -2   1  237.13   15.02
  -2   9   1  225.55   14.70
   7  -9   1  257.16   17.08
  -2   9   1  252.37   17.44
   2   7   4  202.27   15.15
  -9   2   4  149.20   13.44
  -2   9   4  147.76   12.39
   7  -9   4  154.28   14.28
  -2   9   4  162.21   14.45
   2   7   7  419.21   21.14
  -2   9   7  381.98   18.81
   7  -9   7  428.18   21.53
  -2   9   7  392.03   20.41
   7  -9  10  244.75   16.69
  -2   9  10  261.36   18.23
  -3   9 -12  152.19   14.58
   9  -6 -12  161.21   14.25
  -3   9  -9  279.74   18.26
  -9   3  -9  279.09   20.98
  -6  -3  -9  241.96   18.30
   6  -9  -9  272.13   17.40
   9  -6  -9  258.33   16.69
   3   6  -9  279.42   18.66
  -3   9  -6  373.62   20.38
  -9   3  -6  361.79   22.17
  -6  -3  -6  351.04   20.27
   6  -9  -6  342.10   18.92
   3   6  -6  370.73   21.00
  -3   9  -3  682.90   26.48
  -9   3  -3  705.15   28.97
  -6  -3  -3  684.16   26.06
   3   6  -3  681.64   26.50
   6  -9  -3  768.90   27.40
  -9   3   0  523.32   24.60
  -6  -3   0  612.22   23.43
   3   6   0  578.16   23.93
   6  -9   0  563.67   23.77
  -3   9   0  566.09   25.47
  -9   3   3  709.65   27.87
   3   6   3  731.11   27.17
   6  -9   3  760.28   27.20
  -3   9   3  727.26   27.94
   3   6   6  257.11   16.66
  -9   3   6  271.96   17.79
   6  -9   6  251.10   16.61
  -3   9   6  271.88   17.56
   6  -9   9  310.65   17.91
  -3   9   9  344.47   20.48
  -3   9  12   40.53   10.55
   4   5 -10  220.80   16.75
  -4   9 -10  245.25   17.61
  -9   4 -10  247.29   19.90
  -5  -4 -10  217.74   16.82
   5  -9 -10  234.98   16.29
  -4   9  -7  678.04   27.19
  -9   4  -7  723.74   31.12
  -5  -4  -7  651.43   26.20
   5  -9  -7  716.68   26.69
   4   5  -7  710.83   28.31
  -4   9  -4  150.43   13.66
  -9   4  -4  125.24   13.88
  -5  -4  -4  158.96   13.31
   5  -9  -4  124.92   12.24
   4   5  -4  144.62   13.64
  -9   4  -1  256.85   18.13
  -5  -4  -1  250.81   15.31
   4   5  -1  283.04   17.23
   5  -9  -1  292.37   17.01
  -4   9  -1  292.04   19.14
   5  -9   2   50.32    8.84
   4   5   2   41.51    8.60
  -4   9   2   42.13    9.56
  -9   4   2   52.25    9.58
   4   5   5   55.24    9.48
  -9   4   5   51.78   10.07
   5  -9   5   50.97    8.64
  -4   9   5   51.74    9.84
   4   5   8  109.21   11.86
  -9   4   8  101.58   12.86
   5  -9   8   72.26   10.00
  -4   9   8   81.98   11.82
  -4   9  11   49.99   10.72
   4   5  11   57.71    9.91
   5   4 -11   58.48   10.57
  -9   5 -11   60.21   12.95
  -4  -5 -11   49.55    9.92
   4  -9 -11   46.13    8.96
  -5   9 -11   40.23    9.62
  -5   9  -8  100.39   12.43
  -9   5  -8  106.06   13.88
  -4  -5  -8   92.75   11.50
   4  -9  -8  106.27   11.21
   5   4  -8  118.96   12.93
   9  -4  -5   41.69    8.31
   5   4  -5   50.90    9.43
  -4  -5  -5   60.40    9.24
  -9   5  -5   34.19    9.18
  -5   9  -5   34.49    8.83
   4  -9  -5   39.67    7.85
  -9   5  -2   49.29    9.65
  -5   9  -2   56.44   10.34
  -4  -5  -2   41.49    7.84
   5   4  -2   43.88    8.79
   4  -9  -2   38.52    8.01
  -9   5   1  273.94   18.82
   5   4   1  328.14   18.34
  -4  -5   1  267.17   15.09
   4  -9   1  298.71   16.87
  -5   9   1  307.16   19.60
  -9   5   4  179.67   15.81
   5   4   4  175.54   14.06
   4  -9   4  135.23   11.99
  -5   9   4  146.21   14.12
   5   4   7  640.73   25.33
  -9   5   7  657.84   29.01
  -5   9   7  678.17   28.31
   5   4  10  242.00   16.36
  -9   5  10  228.76   19.14
  -5   9  10  256.48   19.14
   6   3 -12   34.29   10.11
  -6   9  -9  390.29   21.48
   6   3  -9  366.41   20.33
  -9   6  -9  337.01   23.16
  -3  -6  -9  355.12   20.01
   3  -9  -9  344.22   18.80
  -6   9  -6  301.25   19.24
   9  -3  -6  282.25   16.85
  -9   6  -6  287.59   20.82
  -3  -6  -6  290.61   17.56
   3  -9  -6  281.97   16.63
   6   3  -6  309.13   18.87
  -6   9  -3  751.00   29.92
   9  -3  -3  780.02   27.03
  -9   6  -3  722.48   30.31
  -3  -6  -3  722.25   25.38
   3  -9  -3  754.28   25.87
   6   3  -3  709.96   27.24
   9  -3   0  653.52   25.20
  -9   6   0  575.36   27.10
  -3  -6   0  504.52   20.30
   6   3   0  599.93   24.38
   3  -9   0  544.50   21.75
  -6   9   0  655.94   28.34
  -9   6   3  763.51   31.22
   6   3   3  701.19   25.85
  -6   9   3  727.50   29.47
   6   3   6  349.56   17.81
   6   3   6  350.90   19.05
  -6   9   6  329.22   20.62
   6   3   9  228.25   16.08
   6   3   9  283.14   16.55
  -6   9   9  273.36   19.95
   6   3  12  139.90   12.84
   6   3  12  144.93   13.85
  -9   7 -10  246.48   17.07
   7   2 -10  249.88   18.02
  -7   9  -7  431.47   22.84
  -9   7  -7  398.35   20.45
   7   2  -7  351.21   19.58
   9  -2  -7  416.04   20.96
  -9   7  -7  464.80   26.26
  -2  -7  -7  438.09   20.98
   2  -9  -7  418.62   20.59
  -7   9  -4  164.61   15.15
  -9   7  -4  153.82   13.67
   9  -2  -4  190.65   14.70
  -9   7  -4  179.71   17.47
  -2  -7  -4  195.04   14.35
   2  -9  -4  169.64   13.55
   7   2  -4  157.30   13.80
  -9   7  -1  262.84   16.72
   9  -2  -1  272.15   17.45
  -9   7  -1  261.80   19.86
  -2  -7  -1  241.27   14.78
   2  -9  -1  241.69   15.16
   7   2  -1  266.18   17.03
  -7   9  -1  279.03   20.11
   9  -2   2   25.47    8.36
   7   2   2   19.87    6.97
   7   2   2   15.66    7.57
  -7   9   2   40.49   10.23
  -9   7   2   23.77    8.93
   2  -9   2   26.15    7.31
   9  -2   5   94.61   11.87
   7   2   5  105.29   11.30
   7   2   5   92.22   11.06
  -7   9   5   90.80   13.03
  -9   7   5   90.41   11.93
   7   2   8   -0.31    6.07
  -7   9   8    2.73    7.36
  -9   7   8    7.46    7.69
  -9   8  -5   66.44   11.07
   9  -1  -5   77.75   11.29
  -1  -8  -5   78.66   10.37
   1  -9  -5   95.46   11.66
   9  -1  -2   24.56    8.08
  -8   9  -2   26.82    9.03
   1  -9  -2   15.97    7.04
  -9   8  -2    6.53    7.71
  -9   8   1  136.40   15.08
   9  -1   1  160.68   14.80
   8   1   1  150.80   13.87
   1  -9   1  124.75   11.98
  -8   9   1  138.81   15.60
  -8   9   4  172.50   17.14
  -9   8   4  121.53   14.01
  -6  -4  -2  177.25   14.79
 -10   4   1   15.29    9.25
  -4  10   1   20.92    9.85
   6 -10   1   11.14    7.94
  -5  -5  -3  471.43   22.72
 -10   5   0  475.91   25.98
   5   5   0  508.25   25.04
   5 -10   0  519.76   23.97
  -5  10   0  483.59   26.62
 -10   5   3  459.71   25.63
   5 -10   3  522.33   24.29
  10  -4  -1   14.92    8.82
   4 -10  -1   12.37    7.99
   6   4  -1   15.20    9.05
   6   4   2  182.36   15.69
   4 -10   2  153.53   14.07


TITL PbCuSeOFN2 in R3m
REM R3m (#160 in standard setting)
CELL 0.71073   6.697325   6.697325  18.554778  90.0000  90.0000 120.0000
ZERR    3.00   0.000103   0.000103   0.000295   0.0000   0.0000   0.0000
LATT -3
SYMM -y, x-y, z
SYMM -x+y,-x, z
SYMM -y,-x, z
SYMM -x+y, y, z
SYMM  x, x-y, z
SFAC C H N O
UNIT 33.00 30.00 3.00 3.00
TREF
HKLF 4
END
_computing_structure_solution     'SHELXT 2014/4 (Sheldrick, 2014)'
_computing_structure_solution     'SHELXT 2014/4 (Sheldrick, 2014)'
_computing_structure_solution     'SHELXT 2014/4 (Sheldrick, 2014)'
;
_shelx_hkl_checksum              72060
_olex2_submission_special_instructions 'No special instructions were received'
_oxdiff_exptl_absorpt_empirical_details
;
Empirical correction (ABSPACK) includes:
- Absorption correction using spherical harmonics
- Frame scaling
- Detector area scaling
;
_oxdiff_exptl_absorpt_empirical_full_max 1.566
_oxdiff_exptl_absorpt_empirical_full_min 0.778
loop_
_space_group_symop_operation_xyz
'x, y, z'
'-y, x-y, z'
'-x+y, -x, z'
'-y, -x, z'
'-x+y, y, z'
'x, x-y, z'
'x+2/3, y+1/3, z+1/3'
'-y+2/3, x-y+1/3, z+1/3'
'-x+y+2/3, -x+1/3, z+1/3'
'-y+2/3, -x+1/3, z+1/3'
'-x+y+2/3, y+1/3, z+1/3'
'x+2/3, x-y+1/3, z+1/3'
'x+1/3, y+2/3, z+2/3'
'-y+1/3, x-y+2/3, z+2/3'
'-x+y+1/3, -x+2/3, z+2/3'
'-y+1/3, -x+2/3, z+2/3'
'-x+y+1/3, y+2/3, z+2/3'
'x+1/3, x-y+2/3, z+2/3'
loop_
_atom_site_label
_atom_site_type_symbol
_atom_site_fract_x
_atom_site_fract_y
_atom_site_fract_z
_atom_site_U_iso_or_equiv
_atom_site_adp_type
_atom_site_occupancy
_atom_site_site_symmetry_order
_atom_site_calc_flag
_atom_site_refinement_flags_posn
_atom_site_refinement_flags_adp
_atom_site_refinement_flags_occupancy
_atom_site_disorder_assembly
_atom_site_disorder_group
Pb1 Pb 0.6667 0.3333 0.35012(2) 0.01185(10) Uani 1 6 d S T P . .
Se1 Se 0.3333 0.6667 0.36690(7) 0.0110(3) Uani 1 6 d S T P . .
Se2 Se 0.6667 0.3333 0.64972(7) 0.0114(3) Uani 1 6 d S T P . .
Cu1 Cu 0.50713(9) 0.49287(9) 0.50825(5) 0.01226(18) Uani 1 2 d S T P . .
F1 F 0.3333 0.6667 0.5313(5) 0.0131(14) Uani 1 6 d S T P . .
O1 O 0.6667 0.3333 0.4800(5) 0.0090(16) Uani 1 6 d S T P . .
O2 O 0.4665(5) 0.5335(5) 0.4052(3) 0.0182(11) Uani 1 2 d S T P . .
O3 O 0.5348(5) 0.4652(5) 0.6112(3) 0.0221(13) Uani 1 2 d S T P . .
O4 O 0.1059(5) 0.2118(11) 0.5130(4) 0.0370(17) Uani 1 2 d S T P . .
N1 N 0.0000 0.0000 0.5120(8) 0.0135(17) Uani 1 6 d S T P . .
loop_
_atom_site_aniso_label
_atom_site_aniso_U_11
_atom_site_aniso_U_22
_atom_site_aniso_U_33
_atom_site_aniso_U_23
_atom_site_aniso_U_13
_atom_site_aniso_U_12
Pb1 0.01203(11) 0.01203(11) 0.01147(16) 0.000 0.000 0.00602(6)
Se1 0.0125(4) 0.0125(4) 0.0079(5) 0.000 0.000 0.00624(18)
Se2 0.0130(4) 0.0130(4) 0.0083(5) 0.000 0.000 0.00648(18)
Cu1 0.0152(3) 0.0152(3) 0.0108(4) -0.00054(16) 0.00054(16) 0.0110(3)
F1 0.0115(19) 0.0115(19) 0.016(4) 0.000 0.000 0.0058(10)
O1 0.008(2) 0.008(2) 0.012(4) 0.000 0.000 0.0038(11)
O2 0.028(2) 0.028(2) 0.009(2) -0.0001(9) 0.0001(9) 0.022(3)
O3 0.037(3) 0.037(3) 0.012(2) -0.0007(9) 0.0007(9) 0.033(3)
O4 0.017(2) 0.008(2) 0.083(5) 0.003(3) 0.0016(14) 0.0040(12)
N1 0.012(2) 0.012(2) 0.016(5) 0.000 0.000 0.0062(11)
loop_
_atom_type_symbol
_atom_type_description
_atom_type_scat_dispersion_real
_atom_type_scat_dispersion_imag
_atom_type_scat_source
Cu Cu 0.3201 1.2651 'International Tables Vol C Tables 4.2.6.8 and 6.1.1.4'
F F 0.0171 0.0103 'International Tables Vol C Tables 4.2.6.8 and 6.1.1.4'
N N 0.0061 0.0033 'International Tables Vol C Tables 4.2.6.8 and 6.1.1.4'
O O 0.0106 0.0060 'International Tables Vol C Tables 4.2.6.8 and 6.1.1.4'
Pb Pb -3.3944 10.1111 'International Tables Vol C Tables 4.2.6.8 and 6.1.1.4'
Se Se -0.0929 2.2259 'International Tables Vol C Tables 4.2.6.8 and 6.1.1.4'
loop_
_geom_angle_atom_site_label_1
_geom_angle_atom_site_label_2
_geom_angle_atom_site_label_3
_geom_angle
_geom_angle_site_symmetry_1
_geom_angle_site_symmetry_3
_geom_angle_publ_flag
O1 Pb1 F1 180.0 . 13_544 ?
O1 Pb1 O2 66.25(12) . 3_665 ?
O1 Pb1 O2 66.25(12) . 2_655 ?
O1 Pb1 O2 66.25(12) . . ?
O1 Pb1 O3 119.85(11) . 14_654 ?
O1 Pb1 O3 119.85(11) . 13_544 ?
O1 Pb1 O3 119.85(11) . 15_554 ?
O2 Pb1 F1 113.75(12) . 13_544 ?
O2 Pb1 F1 113.75(12) 3_665 13_544 ?
O2 Pb1 F1 113.75(12) 2_655 13_544 ?
O2 Pb1 O2 104.88(14) 2_655 . ?
O2 Pb1 O2 104.88(14) 3_665 . ?
O2 Pb1 O2 104.88(14) 3_665 2_655 ?
O2 Pb1 O3 78.67(10) 2_655 13_544 ?
O2 Pb1 O3 78.67(10) 3_665 13_544 ?
O2 Pb1 O3 78.67(10) 2_655 15_554 ?
O2 Pb1 O3 173.89(17) . 13_544 ?
O2 Pb1 O3 173.89(17) 3_665 15_554 ?
O2 Pb1 O3 78.67(10) 3_665 14_654 ?
O2 Pb1 O3 173.89(17) 2_655 14_654 ?
O2 Pb1 O3 78.67(10) . 15_554 ?
O2 Pb1 O3 78.67(10) . 14_654 ?
O3 Pb1 F1 60.15(11) 13_544 13_544 ?
O3 Pb1 F1 60.15(11) 14_654 13_544 ?
O3 Pb1 F1 60.15(11) 15_554 13_544 ?
O3 Pb1 O3 97.37(15) 13_544 15_554 ?
O3 Pb1 O3 97.37(15) 13_544 14_654 ?
O3 Pb1 O3 97.37(15) 15_554 14_654 ?
O2 Se1 O2 103.8(2) 3_565 . ?
O2 Se1 O2 103.8(2) 2_665 3_565 ?
O2 Se1 O2 103.8(2) 2_665 . ?
O3 Se2 O3 103.4(2) 2_655 3_665 ?
O3 Se2 O3 103.4(2) 2_655 . ?
O3 Se2 O3 103.4(2) 3_665 . ?
F1 Cu1 O4 72.97(12) . 2_665 ?
F1 Cu1 O4 72.97(12) . . ?
O1 Cu1 F1 176.1(3) . . ?
O1 Cu1 O2 88.0(3) . . ?
O1 Cu1 O3 96.3(3) . . ?
O1 Cu1 O4 106.89(12) . 2_665 ?
O1 Cu1 O4 106.89(12) . . ?
O2 Cu1 F1 88.1(3) . . ?
O2 Cu1 O4 88.1(2) . 2_665 ?
O2 Cu1 O4 88.1(2) . . ?
O3 Cu1 F1 87.6(3) . . ?
O3 Cu1 O2 175.7(3) . . ?
O3 Cu1 O4 90.7(2) . . ?
O3 Cu1 O4 90.7(2) . 2_665 ?
O4 Cu1 O4 145.8(2) . 2_665 ?
Cu1 F1 Cu1 115.80(16) 3_565 . ?
Cu1 F1 Cu1 115.80(16) 2_665 . ?
Cu1 F1 Cu1 115.81(16) 3_565 2_665 ?
Cu1 O1 Pb1 105.8(2) 3_665 . ?
Cu1 O1 Pb1 105.8(2) 2_655 . ?
Cu1 O1 Pb1 105.8(2) . . ?
Cu1 O1 Cu1 112.8(2) 3_665 2_655 ?
Cu1 O1 Cu1 112.9(2) 3_665 . ?
Cu1 O1 Cu1 112.9(2) 2_655 . ?
Se1 O2 Pb1 131.6(3) . . ?
Se1 O2 Cu1 128.5(3) . . ?
Cu1 O2 Pb1 99.9(2) . . ?
Se2 O3 Pb1 125.1(2) . 7_455 ?
Se2 O3 Cu1 124.6(3) . . ?
Cu1 O3 Pb1 110.3(2) . 7_455 ?
Cu1 O4 Cu1 93.8(2) . 3_565 ?
N1 O4 Cu1 132.95(12) . 3_565 ?
N1 O4 Cu1 132.95(12) . . ?
O4 N1 O4 119.98(5) 2 3 ?
O4 N1 O4 119.98(5) . 3 ?
O4 N1 O4 119.98(5) 2 . ?
loop_
_geom_bond_atom_site_label_1
_geom_bond_atom_site_label_2
_geom_bond_distance
_geom_bond_site_symmetry_2
_geom_bond_publ_flag
Pb1 F1 2.823(8) 13_544 ?
Pb1 O1 2.409(9) . ?
Pb1 O2 2.537(6) 3_665 ?
Pb1 O2 2.537(6) 2_655 ?
Pb1 O2 2.537(6) . ?
Pb1 O3 2.694(6) 15_554 ?
Pb1 O3 2.694(6) 14_654 ?
Pb1 O3 2.694(6) 13_544 ?
Se1 O2 1.700(6) 2_665 ?
Se1 O2 1.700(6) 3_565 ?
Se1 O2 1.700(6) . ?
Se2 O3 1.689(6) 3_665 ?
Se2 O3 1.689(6) . ?
Se2 O3 1.689(6) 2_655 ?
Cu1 F1 2.061(2) . ?
Cu1 O1 1.924(3) . ?
Cu1 O2 1.970(6) . ?
Cu1 O3 1.937(5) . ?
Cu1 O4 2.391(4) . ?
Cu1 O4 2.391(4) 2_665 ?
F1 Cu1 2.061(2) 2_665 ?
F1 Cu1 2.061(2) 3_565 ?
O1 Cu1 1.924(3) 2_655 ?
O1 Cu1 1.924(3) 3_665 ?
O3 Pb1 2.694(6) 7_455 ?
O4 Cu1 2.391(4) 3_565 ?
O4 N1 1.228(6) . ?
N1 O4 1.228(6) 3 ?
N1 O4 1.228(6) 2 ?
loop_
_twin_individual_id
_twin_individual_mass_fraction_refined
1 0.512(9)
2 0.488(9)
