#------------------------------------------------------------------------------
#$Date: 2021-04-05 16:53:54 +0300 (Mon, 05 Apr 2021) $
#$Revision: 263623 $
#$URL: file:///home/coder/svn-repositories/cod/cif/7/12/79/7127977.cif $
#------------------------------------------------------------------------------
#
# This file is available in the Crystallography Open Database (COD),
# http://www.crystallography.net/
#
# All data on this site have been placed in the public domain by the
# contributors.
#
data_7127977
loop_
_publ_author_name
'Yuan, Yong'
'Li, Liang-Sen'
'Zhang, Lin'
'Wang, Feng'
'Jiang, Lin'
'Zuo, Lin'
'Wang, Qi'
'Hu, Jian-Guo'
'Lei, Aiwen'
_publ_section_title
;
 Electrochemical synthesis of versatile ammonium oxides under metal
 catalyst-, exogenous-oxidant-, and exogenous-electrolyte-free conditions.
;
_journal_issue                   22
_journal_name_full
'Chemical communications (Cambridge, England)'
_journal_page_first              2768
_journal_page_last               2771
_journal_paper_doi               10.1039/d1cc00486g
_journal_volume                  57
_journal_year                    2021
_chemical_absolute_configuration unk
_chemical_formula_moiety         'C16 H14 N2 O S'
_chemical_formula_sum            'C16 H14 N2 O S'
_chemical_formula_weight         282.37
_chemical_name_systematic
5-methyl-2-phenyl-4-(phenylthio)-1,2-dihydro-3H-pyrazol-3-one
_space_group_crystal_system      monoclinic
_space_group_IT_number           7
_space_group_name_Hall           'P -2yc'
_space_group_name_H-M_alt        'P 1 c 1'
_symmetry_Int_Tables_number      7
_atom_sites_solution_primary     dual
_audit_creation_date             2020-10-27
_audit_creation_method
;
Olex2 1.2
(compiled 2018.05.29 svn.r3508 for OlexSys, GUI svn.r5506)
;
_audit_update_record
;
2020-10-29 deposited with the CCDC.	2021-02-04 downloaded from the CCDC.
;
_cell_angle_alpha                90
_cell_angle_beta                 101.244(6)
_cell_angle_gamma                90
_cell_formula_units_Z            2
_cell_length_a                   9.6728(6)
_cell_length_b                   6.3539(3)
_cell_length_c                   11.8458(6)
_cell_measurement_reflns_used    4567
_cell_measurement_temperature    295
_cell_measurement_theta_max      27.1790
_cell_measurement_theta_min      4.0640
_cell_volume                     714.07(7)
_computing_cell_refinement       'CrysAlisPro 1.171.40.53 (Rigaku OD, 2019)'
_computing_data_collection       'CrysAlisPro 1.171.40.53 (Rigaku OD, 2019)'
_computing_data_reduction        'CrysAlisPro 1.171.40.53 (Rigaku OD, 2019)'
_computing_molecular_graphics    'Olex2 (Dolomanov et al., 2009)'
_computing_publication_material  'Olex2 (Dolomanov et al., 2009)'
_computing_structure_refinement  'olex2.refine (Bourhis et al., 2015)'
_computing_structure_solution    'ShelXT (Sheldrick, 2015)'
_diffrn_ambient_temperature      295
_diffrn_detector                 'CCD plate'
_diffrn_detector_area_resol_mean 8.0353
_diffrn_detector_type            EosS2
_diffrn_measured_fraction_theta_full 0.9932
_diffrn_measured_fraction_theta_max 0.9932
_diffrn_measurement_details
;
List of Runs (angles in degrees, time in seconds):

  # Type    Start    End  Width  t~exp~   \w     \q     \k     \f   Frames
#--------------------------------------------------------------------------
  1  \w    -85.00   3.00   1.00    5.05    --  -15.92 -37.00 -90.00   88
  2  \w    -87.00  13.00   1.00    5.05    --  -15.92 -19.00 -60.00  100
  3  \w    -35.00  53.00   1.00    5.05    --  -15.92  37.00  90.00   88
  4  \w     34.00  89.00   1.00    5.05    --   16.70-178.00   0.00   55
  5  \w    -20.00  56.00   1.00    5.05    --   16.70 -99.00   0.00   76
  6  \w    -20.00  56.00   1.00    5.05    --   16.70 -99.00-150.00   76
  7  \w      0.00  25.00   1.00    5.05    --   16.70  57.00-120.00   25
  8  \w      0.00  84.00   1.00    5.05    --   16.70  57.00 150.00   84
;
_diffrn_measurement_device       'four-circle diffractometer'
_diffrn_measurement_device_type
'SuperNova, Single source at offset/far, EosS2'
_diffrn_measurement_method       '\w scans'
_diffrn_orient_matrix_type
'CrysAlisPro convention (1999,Acta A55,543-557)'
_diffrn_orient_matrix_UB_11      0.0563231000
_diffrn_orient_matrix_UB_12      0.0723016000
_diffrn_orient_matrix_UB_13      0.0022566000
_diffrn_orient_matrix_UB_21      0.0478562000
_diffrn_orient_matrix_UB_22      -0.0761687000
_diffrn_orient_matrix_UB_23      0.0287544000
_diffrn_orient_matrix_UB_31      0.0113553000
_diffrn_orient_matrix_UB_32      -0.0376448000
_diffrn_orient_matrix_UB_33      -0.0538418000
_diffrn_radiation_monochromator  mirror
_diffrn_radiation_probe          x-ray
_diffrn_radiation_type           'Mo K\a'
_diffrn_radiation_wavelength     0.71073
_diffrn_reflns_av_R_equivalents  0.0245
_diffrn_reflns_av_unetI/netI     0.0341
_diffrn_reflns_limit_h_max       12
_diffrn_reflns_limit_h_min       -12
_diffrn_reflns_limit_k_max       8
_diffrn_reflns_limit_k_min       -8
_diffrn_reflns_limit_l_max       15
_diffrn_reflns_limit_l_min       -16
_diffrn_reflns_number            9070
_diffrn_reflns_theta_full        24.9970
_diffrn_reflns_theta_max         25.00
_diffrn_reflns_theta_min         3.51
_diffrn_source                   'micro-focus sealed X-ray tube'
_diffrn_source_type              'SuperNova (Mo) X-ray Source'
_exptl_absorpt_coefficient_mu    0.223
_exptl_absorpt_correction_T_max  1.00000
_exptl_absorpt_correction_T_min  0.72435
_exptl_absorpt_correction_type   multi-scan
_exptl_absorpt_process_details
;
CrysAlisPro 1.171.40.53 (Rigaku Oxford Diffraction, 2019)
Empirical absorption correction using spherical harmonics,
 implemented in SCALE3 ABSPACK scaling algorithm.
;
_exptl_crystal_colour            ??
_exptl_crystal_density_diffrn    1.3132
_exptl_crystal_description       block
_exptl_crystal_F_000             296.3588
_exptl_crystal_recrystallization_method
'Re-crystallisation from solvent: ????'
_exptl_crystal_size_max          0.04
_exptl_crystal_size_mid          0.03
_exptl_crystal_size_min          0.02
_refine_diff_density_max         0.1180
_refine_diff_density_min         -0.1489
_refine_diff_density_rms         0.0314
_refine_ls_abs_structure_details
'Flack, H. D. (1983). Acta Cryst. A39, 876-881.'
_refine_ls_abs_structure_Flack   0.07(7)
_refine_ls_d_res_high            0.8410
_refine_ls_d_res_low             5.8092
_refine_ls_goodness_of_fit_ref   1.0660
_refine_ls_hydrogen_treatment    mixed
_refine_ls_matrix_type           full
_refine_ls_number_constraints    20
_refine_ls_number_parameters     194
_refine_ls_number_reflns         2496
_refine_ls_number_restraints     2
_refine_ls_restrained_S_all      1.0660
_refine_ls_R_factor_all          0.0338
_refine_ls_R_factor_gt           0.0322
_refine_ls_shift/su_max          0.0001
_refine_ls_shift/su_mean         0.0000
_refine_ls_structure_factor_coef Fsqd
_refine_ls_weighting_details
'w=1/[\s^2^(Fo^2^)+(0.0413P)^2^+0.0214P] where P=(Fo^2^+2Fc^2^)/3'
_refine_ls_weighting_scheme      calc
_refine_ls_wR_factor_gt          0.0744
_refine_ls_wR_factor_ref         0.0761
_reflns_Friedel_coverage         0.988
_reflns_limit_h_max              11
_reflns_limit_h_min              -11
_reflns_limit_k_max              7
_reflns_limit_k_min              -7
_reflns_limit_l_max              13
_reflns_limit_l_min              -14
_reflns_number_gt                2393
_reflns_number_total             2496
_reflns_threshold_expression     I>=2u(I)
_iucr_refine_instructions_details
;
TITL ls2020072701_a.res in Pc
REM Old TITL LS2020072701 in Pc
REM SHELXT solution in Pc
REM R1 0.126, Rweak 0.276, Alpha 0.002, Orientation as input
REM Flack x = 0.119 ( 0.022 ) from Parsons' quotients
REM Formula found by SHELXT: C16 N2 O Cl
CELL 0.71073 9.6728 6.3539 11.8458 90 101.244 90
ZERR 2 0.0006 0.0003 0.0006 0 0.006 0
LATT -1
SYMM +X,-Y,0.5+Z
SFAC C H N O S
UNIT 32 28 4 2 2

L.S. 10
PLAN  20
SIZE 0.02 0.03 0.04
TEMP 21.85
BOND $H
FMAP 2
list 4
ACTA 
OMIT 0 50
WGHT 0.041296 0.021433
FVAR 1.18473
REM <olex2.extras>
REM <HklSrc "%.\\LS2020072701.hkl">
REM </olex2.extras>

S7    5     0.54690  0.21502  0.42063  11.00000  0.05486  0.04240  0.04577 =
 -0.01286  0.02354 -0.00731 
N11   3     0.38922  0.48108  0.66256  11.00000  0.05562  0.04927  0.01834 =
 0.00275  0.01262  0.00357 
N12   3     0.32424  0.60321  0.57120  11.00000  0.04743  0.04731  0.01930 =
 -0.00076  0.00906  0.00447 
C15   1     0.24041  0.77921  0.58649  11.00000  0.03602  0.04527  0.02570 =
 -0.00463  0.00471 -0.00363 
C8    1     0.46279  0.36451  0.50993  11.00000  0.04562  0.03858  0.02922 =
 -0.00352  0.01508 -0.00423 
C13   1     0.36727  0.53109  0.47210  11.00000  0.04092  0.04381  0.02370 =
 -0.00350  0.01129 -0.00568 
C20   1     0.22183  0.93979  0.50603  11.00000  0.05520  0.04645  0.03562 =
 -0.00011  0.01193 -0.00398 
AFIX 43
H20   2     0.26470  0.93291  0.44235  11.00000 -1.20000 
AFIX 0
C6    1     0.69243  0.37684  0.40306  11.00000  0.04313  0.04814  0.04006 =
 0.00023  0.01097 -0.00297 
C17   1     0.09714  0.96491  0.69529  11.00000  0.07491  0.07385  0.03886 =
 -0.00948  0.02001  0.01682 
C16   1     0.17751  0.79231  0.68189  11.00000  0.06278  0.05924  0.03007 =
 0.00294  0.01383  0.00826 
AFIX 43
H16   2     0.18972  0.68498  0.73631  11.00000 -1.20000 
AFIX 0
C9    1     0.46973  0.33770  0.62618  11.00000  0.04610  0.04026  0.03184 =
 0.00125  0.00868 -0.00154 
C18   1     0.07626  1.12437  0.61515  11.00000  0.06909  0.05193  0.05654 =
 -0.01370  0.00940  0.01100 
C19   1     0.13903  1.11017  0.52129  11.00000  0.07206  0.04302  0.04804 =
 0.00363  0.00643  0.00241 
AFIX 43
H19   2     0.12557  1.21743  0.46683  11.00000 -1.20000 
AFIX 0
C1    1     0.73940  0.54480  0.47274  11.00000  0.06837  0.07876  0.04222 =
 -0.01595  0.01674 -0.02736 
AFIX 43
H1    2     0.69403  0.58332  0.53197  11.00000 -1.20000 
AFIX 0
C3    1     0.92312  0.60453  0.36685  11.00000  0.05113  0.09802  0.06090 =
 0.01774  0.00760 -0.02312 
AFIX 43
H3    2     1.00172  0.68016  0.35579  11.00000 -1.20000 
AFIX 0
C10   1     0.54727  0.17845  0.70566  11.00000  0.07823  0.05638  0.04061 =
 0.00788  0.00908  0.01028 
AFIX 137
H10a  2     0.55727  0.22729  0.78353  11.00000 -1.50000 
H10b  2     0.49589  0.04830  0.69707  11.00000 -1.50000 
H10c  2     0.63887  0.15665  0.68786  11.00000 -1.50000 
AFIX 0
C2    1     0.85598  0.65633  0.45325  11.00000  0.08207  0.09952  0.05943 =
 -0.01449  0.00580 -0.04709 
AFIX 43
H2    2     0.88883  0.76954  0.50072  11.00000 -1.20000 
AFIX 0
C5    1     0.76064  0.32452  0.31510  11.00000  0.06544  0.06229  0.06548 =
 -0.01498  0.03603 -0.01098 
AFIX 43
H5    2     0.72969  0.21001  0.26802  11.00000 -1.20000 
AFIX 0
C4    1     0.87411  0.44041  0.29646  11.00000  0.05913  0.09256  0.06989 =
 -0.00180  0.03198 -0.00936 
AFIX 43
H4    2     0.91763  0.40650  0.23543  11.00000 -1.20000 
AFIX 0
O14   4     0.32297  0.60534  0.37358  11.00000  0.06754  0.06392  0.01907 =
 0.00221  0.01162  0.01037 
H18   2     0.01948  1.23955  0.63007  11.00000  0.06290 
H11   2     0.36739  0.48076  0.72079  11.00000  0.04223 
H17   2     0.05407  0.96855  0.75616  11.00000  0.09051 
HKLF 4

END
Q1 1 0.566667 0.05 0.666667 11 0.05 0.12
Q2 1 0.433333 0.75 0.583333 11 0.05 0.11
Q3 1 0.366667 0.45 0.361111 11 0.05 0.11
Q4 1 0.566667 0.3 0.194444 11 0.05 0.11
Q5 1 0.466667 0.1 0.75 11 0.05 0.11
Q6 1 0.633333 0.3 0.388889 11 0.05 0.11
Q7 1 0.2 1.4 0.472222 11 0.05 0.11
Q8 1 0.4 0.35 0.5 11 0.05 0.11
Q9 1 0.633333 0.25 0.722222 11 0.05 0.1
Q10 1 0.166667 0.8 0.527778 11 0.05 0.1
Q11 1 0.333333 0.7 0.416667 11 0.05 0.1
Q12 1 0.666667 0.65 0.5 11 0.05 0.1
Q13 1 0.466667 0.3 0.444444 11 0.05 0.09
Q14 1 0.666667 0.5 0.416667 11 0.05 0.09
Q15 1 0.466667 1 0.527778 11 0.05 0.09
Q16 1 0.533333 0.4 0.583333 11 0.05 0.09
Q17 1 0.133333 1.35 0.527778 11 0.05 0.09
Q18 1 0.166667 0.75 0.611111 11 0.05 0.09
Q19 1 0.533333 0.2 0.416667 11 0.05 0.09
Q20 1 0.3 0.55 0.388889 11 0.05 0.09

  REM The information below was added by Olex2.
  REM
  REM R1 = 0.0322 for 2393 Fo > 4sig(Fo) and 0.0338 for all 2496 data
  REM 194 parameters refined using 2 restraints
  REM Highest difference peak 0.1180, deepest hole -0.1489
  REM Mean Shift 0.0000, Max Shift 0.0001.

  REM +++ Tabular Listing of Refinement Information +++
  REM R1_all = 0.0338
  REM R1_gt = 0.0322
  REM wR_ref = 0.0761
  REM GOOF = 1.0660
  REM Shift_max = 0.0001
  REM Shift_mean = 0.0000
  REM Reflections_all = 2496
  REM Reflections_gt = 2393
  REM Parameters = 194
  REM Hole = -0.1489
  REM Peak = 0.1180
  REM Flack = 0.07(7)

  
;
_cod_data_source_file            d1cc00486g2.cif
_cod_data_source_block           LS2020072701
_cod_depositor_comments          'Adding full bibliography for 7127977.cif.'
_cod_original_sg_symbol_Hall     ' P -2yc'
_cod_database_code               7127977
_reflns_odcompleteness_completeness 99.69
_reflns_odcompleteness_iscentric 1
_reflns_odcompleteness_theta     26.32
_olex2_refinement_description
;
1. Fixed Uiso
 At 1.2 times of:
  All C(H) groups
 At 1.5 times of:
  All C(H,H,H) groups
2.a Aromatic/amide H refined with riding coordinates:
 C20(H20), C16(H16), C19(H19), C1(H1), C3(H3), C2(H2), C5(H5), C4(H4)
2.b Idealised Me refined as rotating group:
 C10(H10a,H10b,H10c)
;
_iucr_refine_fcf_details
;
data_LS2020072701_CCDC1
_computing_structure_refinement   'olex2.refine (Bourhis et al., 2015)'
_shelx_refln_list_code            4
loop_
  _space_group_symop_id
  _space_group_symop_operation_xyz
  1  x,y,z
  2  x,-y,z+1/2

_space_group_crystal_system       monoclinic
_space_group_IT_number            7
_space_group_name_H-M_alt         'P 1 c 1'
_space_group_name_Hall            ' P -2yc'
_symmetry_space_group_name_H-M    'P 1 c 1'
_symmetry_space_group_name_Hall   ' P -2yc'
_symmetry_Int_Tables_number       7
_cell_length_a                    9.6728(6)
_cell_length_b                    6.3539(3)
_cell_length_c                    11.8458(6)
_cell_angle_alpha                 90
_cell_angle_beta                  101.244(6)
_cell_angle_gamma                 90
_cell_volume                      714.07(7)
loop_
  _refln_index_h
  _refln_index_k
  _refln_index_l
  _refln_F_squared_calc
  _refln_F_squared_meas
  _refln_F_squared_sigma
  _refln_F_squared_weight
  _refln_observed_status
-11 -1 0 2.830 4.934 1.219 269.567 o
-11 0 0 7.567 5.308 2.529 64.475 o
-11 0 2 4.048 3.783 2.437 70.589 o
-11 0 4 86.124 92.969 10.088 3.649 o
-11 0 6 36.464 33.778 6.141 10.507 o
-11 1 1 30.660 33.518 2.929 38.962 o
-11 1 2 17.106 15.100 2.941 45.119 o
-11 1 3 13.005 13.766 2.795 50.852 o
-11 1 4 8.747 13.624 2.730 54.313 o
-11 1 5 20.648 26.428 3.852 26.367 o
-11 1 6 15.831 19.137 3.292 36.523 o
-11 2 1 3.481 2.534 1.334 229.093 o
-11 2 2 2.446 1.374 1.020 390.488 o
-11 2 3 15.567 9.846 2.449 64.630 o
-11 2 4 9.313 10.784 2.480 65.428 o
-10 -3 -1 26.264 28.179 3.319 33.292 o
-10 -3 0 7.797 8.535 1.800 121.243 o
-10 -2 -3 1.632 1.435 2.707 57.953 o
-10 -2 -2 0.496 1.717 0.880 537.057 o
-10 -2 -1 15.838 17.594 4.040 24.924 o
-10 -2 0 30.153 29.939 3.163 35.020 o
-10 -1 -4 18.405 20.777 2.148 75.542 o
-10 -1 -3 19.993 23.302 2.215 69.816 o
-10 -1 -2 2.393 3.284 1.024 381.916 o
-10 -1 -1 10.730 15.249 1.945 99.279 o
-10 -1 0 5.098 8.225 1.665 143.870 o
-10 0 -4 12.842 8.973 2.022 93.548 o
-10 0 -2 23.586 23.432 2.225 66.721 o
-10 0 0 44.835 49.553 3.626 23.965 o
-10 0 2 62.275 73.725 8.485 5.280 o
-10 0 4 10.162 8.678 3.035 44.577 o
-10 0 6 177.612 177.552 12.938 1.898 o
-10 0 8 1.791 1.254 1.211 283.525 o
-10 1 1 33.323 34.108 4.143 21.551 o
-10 1 2 1.064 0.055 0.800 650.177 o
-10 1 3 21.635 19.726 3.128 38.870 o
-10 1 4 13.526 15.584 3.398 35.002 o
-10 1 5 5.889 6.146 2.365 73.821 o
-10 1 6 22.797 22.949 3.347 33.934 o
-10 1 7 25.938 28.665 3.771 26.639 o
-10 1 8 24.163 22.752 3.530 30.656 o
-10 2 1 19.768 26.974 5.130 15.455 o
-10 2 2 3.090 3.383 1.367 218.357 o
-10 2 3 56.532 54.484 5.190 12.765 o
-10 2 4 16.420 18.702 3.050 41.956 o
-10 2 5 21.013 21.910 3.306 35.111 o
-10 2 6 5.995 11.907 2.493 65.746 o
-10 2 7 32.969 36.505 4.226 20.750 o
-10 2 8 25.531 30.063 4.139 22.518 o
-10 3 1 8.534 9.796 3.377 36.390 o
-10 3 2 8.285 6.576 2.743 54.805 o
-10 3 3 44.060 43.360 6.704 8.685 o
-10 3 4 14.677 13.929 4.054 24.971 o
-10 3 5 29.197 31.767 4.049 22.983 o
-10 3 6 13.070 13.611 2.703 54.120 o
-9 -4 -2 11.617 13.940 1.912 102.035 o
-9 -4 -1 21.976 25.404 2.963 41.921 o
-9 -4 0 6.408 5.425 1.684 140.882 o
-9 -3 -4 2.774 3.742 0.951 432.956 o
-9 -3 -3 13.143 14.179 2.449 64.715 o
-9 -3 -2 5.896 4.361 1.377 207.250 o
-9 -3 -1 27.054 29.849 3.218 34.744 o
-9 -3 0 8.308 9.155 3.163 41.387 o
-9 -2 -5 23.607 22.326 3.898 25.707 o
-9 -2 -4 38.148 35.829 6.266 10.059 o
-9 -2 -3 7.345 5.050 1.480 177.489 o
-9 -2 -2 12.407 13.135 2.113 85.260 o
-9 -2 -1 17.800 21.167 2.868 46.211 o
-9 -2 0 24.221 20.775 4.282 21.633 o
-9 -1 -6 3.920 6.281 1.158 288.525 o
-9 -1 -5 2.537 2.316 0.752 679.188 o
-9 -1 -4 7.759 6.339 1.057 312.869 o
-9 -1 -3 17.596 17.694 1.671 115.349 o
-9 -1 -2 1.045 0.536 0.501 1575.160 o
-9 -1 -1 6.060 7.117 0.964 375.548 o
-9 -1 0 9.850 8.870 0.994 317.049 o
-9 0 -6 24.465 26.553 2.706 47.739 o
-9 0 -4 8.186 7.712 1.378 195.797 o
-9 0 -2 3.438 3.391 0.833 542.373 o
-9 0 0 83.343 86.665 5.995 8.554 o
-9 0 2 148.905 154.070 11.200 2.551 o
-9 0 4 2.745 5.564 2.244 83.088 o
-9 0 6 37.759 39.677 5.771 11.653 o
-9 0 8 52.018 55.380 6.690 8.420 o
-9 0 10 69.502 76.433 7.744 6.073 o
-9 1 1 44.925 40.954 1.943 53.683 o
-9 1 2 2.185 0.502 0.737 733.428 o
-9 1 3 91.327 82.825 9.828 3.817 o
-9 1 4 97.249 108.997 6.735 6.571 o
-9 1 5 68.058 71.858 5.448 10.847 o
-9 1 6 2.630 1.818 1.050 367.061 o
-9 1 7 17.917 14.765 2.853 47.502 o
-9 1 8 9.044 10.100 2.469 66.235 o
-9 1 9 28.647 23.491 4.788 17.261 o
-9 1 10 7.016 7.402 1.449 182.529 o
-9 2 1 25.206 19.771 4.232 22.072 o
-9 2 2 45.580 48.554 6.441 9.246 o
-9 2 3 5.694 5.933 1.690 140.568 o
-9 2 4 15.662 14.819 2.552 58.922 o
-9 2 5 43.643 47.889 4.583 16.788 o
-9 2 6 26.627 28.481 3.490 30.430 o
-9 2 7 24.175 26.773 3.420 32.095 o
-9 2 8 17.073 13.594 2.051 85.768 o
-9 2 9 21.407 17.933 2.318 65.622 o
-9 3 1 42.856 55.344 7.103 7.730 o
-9 3 2 9.562 15.232 3.954 26.513 o
-9 3 3 4.589 9.276 3.035 45.383 o
-9 3 4 25.567 20.832 4.467 19.905 o
-9 3 5 34.329 30.387 5.393 13.489 o
-9 3 6 49.087 46.600 8.496 5.531 o
-9 3 7 29.616 26.099 2.933 40.303 o
-9 3 8 38.796 41.584 3.668 25.116 o
-9 4 1 8.830 9.839 3.220 39.866 o
-9 4 2 10.393 10.338 3.363 36.448 o
-9 4 3 15.944 17.085 4.125 23.959 o
-9 4 4 6.289 4.820 1.602 155.382 o
-9 4 5 15.514 21.003 3.346 35.351 o
-9 4 6 31.450 35.380 6.918 8.473 o
-8 -5 -1 23.683 26.682 3.079 38.649 o
-8 -5 0 47.610 54.601 4.596 16.146 o
-8 -4 -4 1.230 5.746 1.317 236.300 o
-8 -4 -3 7.394 6.202 1.299 222.329 o
-8 -4 -2 16.489 13.451 1.773 109.965 o
-8 -4 -1 21.353 19.724 2.102 76.181 o
-8 -4 0 46.231 55.306 4.692 15.695 o
-8 -3 -6 1.186 1.834 0.787 654.334 o
-8 -3 -5 59.485 57.592 5.228 12.374 o
-8 -3 -4 23.105 24.949 3.095 38.646 o
-8 -3 -3 23.232 25.953 3.097 38.458 o
-8 -3 -2 11.239 10.532 1.854 110.058 o
-8 -3 -1 6.252 8.309 1.626 148.503 o
-8 -3 0 56.074 55.380 6.619 8.485 o
-8 -2 -7 4.050 3.363 0.950 423.345 o
-8 -2 -6 8.936 7.793 1.284 218.156 o
-8 -2 -5 6.922 6.807 1.128 284.553 o
-8 -2 -4 72.570 73.801 3.874 16.643 o
-8 -2 -3 27.427 29.261 2.292 59.331 o
-8 -2 -2 26.478 26.008 2.000 74.302 o
-8 -2 -1 32.318 31.284 1.958 68.179 o
-8 -2 0 79.239 78.734 7.673 5.994 o
-8 -1 -7 17.278 19.821 2.050 82.872 o
-8 -1 -6 19.212 20.537 1.983 85.176 o
-8 -1 -5 24.302 24.951 1.787 90.010 o
-8 -1 -4 30.912 29.795 1.848 75.440 o
-8 -1 -3 31.933 32.027 2.271 56.306 o
-8 -1 -2 15.503 14.479 1.261 185.031 o
-8 -1 -1 32.269 30.701 3.143 34.768 o
-8 -1 0 11.327 11.029 0.918 329.059 o
-8 0 -8 43.576 44.866 3.656 24.247 o
-8 0 -6 57.073 62.099 3.924 18.943 o
-8 0 -4 117.438 116.282 4.859 8.629 o
-8 0 -2 32.432 31.924 2.259 56.407 o
-8 0 0 23.540 20.690 3.968 24.965 o
-8 0 2 202.564 187.035 11.471 2.111 o
-8 0 4 136.576 139.763 10.046 3.135 o
-8 0 6 201.381 203.351 11.984 1.963 o
-8 0 8 52.947 60.723 6.476 8.823 o
-8 0 10 11.867 17.320 3.398 35.107 o
-8 1 1 100.572 97.756 3.647 13.191 o
-8 1 2 31.478 37.316 3.706 26.106 o
-8 1 3 134.847 130.540 6.820 5.356 o
-8 1 4 30.206 35.220 4.777 16.919 o
-8 1 5 121.153 115.377 7.192 5.437 o
-8 1 6 217.385 216.718 8.792 2.629 o
-8 1 7 126.900 128.353 6.782 5.589 o
-8 1 8 10.976 12.207 3.680 30.484 o
-8 1 9 0.454 0.824 0.481 1745.200 o
-8 1 10 1.819 1.269 1.034 384.953 o
-8 1 11 63.105 64.495 4.246 16.244 o
-8 2 1 7.691 7.678 1.753 127.938 o
-8 2 2 53.907 48.127 5.963 10.343 o
-8 2 3 29.186 28.356 4.638 18.125 o
-8 2 4 155.528 147.942 10.559 2.760 o
-8 2 5 29.625 31.109 3.390 31.200 o
-8 2 6 28.977 26.452 3.153 35.902 o
-8 2 7 47.653 48.450 4.244 18.598 o
-8 2 8 32.399 33.056 2.980 37.471 o
-8 2 9 42.637 41.627 3.331 28.357 o
-8 2 10 25.329 24.834 3.385 32.645 o
-8 2 11 37.310 42.420 4.464 18.282 o
-8 3 1 42.011 35.131 5.415 12.993 o
-8 3 2 15.960 10.943 3.056 42.713 o
-8 3 3 0.775 0.748 1.083 358.743 o
-8 3 4 24.983 24.558 4.503 19.532 o
-8 3 5 13.465 14.520 3.577 31.832 o
-8 3 6 12.117 13.432 1.934 99.811 o
-8 3 7 20.395 21.576 2.465 58.839 o
-8 3 8 68.333 61.092 4.128 16.509 o
-8 3 9 32.715 37.134 4.259 20.464 o
-8 3 10 49.026 50.529 5.050 13.887 o
-8 4 1 11.559 12.036 2.180 81.520 o
-8 4 2 0.506 -0.292 0.648 998.142 o
-8 4 3 35.506 33.066 3.895 23.760 o
-8 4 4 40.594 46.392 4.681 16.481 o
-8 4 5 52.834 59.577 5.327 12.294 o
-8 4 6 7.952 7.304 2.112 90.263 o
-8 4 7 31.585 37.855 3.419 29.767 o
-8 4 8 43.814 46.837 3.864 22.107 o
-8 5 1 18.540 23.389 3.288 35.772 o
-8 5 2 34.219 26.540 3.374 30.997 o
-8 5 3 7.429 8.390 1.624 146.959 o
-8 5 4 27.949 29.437 3.110 36.614 o
-8 5 5 3.220 3.609 1.181 287.215 o
-7 -5 -4 6.796 8.732 1.499 170.699 o
-7 -5 -3 0.038 0.444 0.473 1877.810 o
-7 -5 -2 7.866 10.777 1.388 189.931 o
-7 -5 -1 6.552 7.449 1.421 190.051 o
-7 -5 0 13.242 13.678 1.849 106.461 o
-7 -4 -6 3.938 8.996 2.896 49.867 o
-7 -4 -5 24.660 22.400 2.198 67.565 o
-7 -4 -4 21.276 23.994 3.436 32.540 o
-7 -4 -3 29.812 31.421 3.080 36.466 o
-7 -4 -2 14.886 14.754 2.215 76.257 o
-7 -4 -1 106.329 109.581 4.652 9.788 o
-7 -4 0 109.641 102.228 5.856 7.601 o
-7 -3 -7 1.546 1.188 0.850 564.140 o
-7 -3 -6 9.654 10.556 1.687 132.216 o
-7 -3 -5 79.829 73.130 3.742 16.465 o
-7 -3 -4 11.767 12.650 2.307 73.277 o
-7 -3 -3 32.350 33.835 3.338 31.200 o
-7 -3 -2 15.635 12.353 2.804 50.043 o
-7 -3 -1 11.502 13.601 3.185 40.062 o
-7 -3 0 124.093 112.277 8.892 4.018 o
-7 -2 -8 4.642 4.160 1.285 239.728 o
-7 -2 -7 6.334 2.878 0.927 420.171 o
-7 -2 -6 67.608 68.485 2.815 24.765 o
-7 -2 -5 37.678 43.286 2.618 41.179 o
-7 -2 -4 18.237 17.099 1.411 146.320 o
-7 -2 -3 23.279 22.646 1.486 118.231 o
-7 -2 -2 94.736 94.548 2.702 17.347 o
-7 -2 -1 17.708 19.549 1.882 94.712 o
-7 -2 0 56.041 53.794 1.529 48.874 o
-7 -1 -9 5.270 7.617 1.396 199.538 o
-7 -1 -8 6.760 7.225 1.099 296.881 o
-7 -1 -7 64.868 70.481 3.216 22.041 o
-7 -1 -6 8.073 6.461 0.965 359.101 o
-7 -1 -5 40.662 42.082 2.224 48.992 o
-7 -1 -4 10.138 9.554 1.000 308.921 o
-7 -1 -3 127.175 120.201 3.600 10.113 o
-7 -1 -2 26.812 26.531 1.174 134.753 o
-7 -1 -1 73.417 69.156 1.984 29.818 o
-7 -1 0 130.784 132.668 3.304 9.887 o
-7 0 -8 64.086 63.235 4.113 16.927 o
-7 0 -6 47.403 49.798 3.333 26.512 o
-7 0 -4 79.471 84.878 3.914 15.072 o
-7 0 -2 79.171 77.816 3.507 17.391 o
-7 0 0 5.806 7.395 2.266 79.997 o
-7 0 2 45.475 46.139 5.301 13.082 o
-7 0 4 501.156 490.736 17.206 0.586 o
-7 0 6 218.842 205.880 11.036 2.084 o
-7 0 8 153.374 151.348 9.376 3.261 o
-7 0 10 89.675 83.614 5.299 9.915 o
-7 0 12 83.713 83.999 8.514 4.950 o
-7 1 1 100.265 95.745 4.887 10.014 o
-7 1 2 12.748 13.238 2.985 45.075 o
-7 1 3 382.547 383.150 7.962 1.328 o
-7 1 4 37.396 40.550 1.788 65.256 o
-7 1 5 61.077 57.681 3.098 25.099 o
-7 1 6 1.634 2.650 0.695 802.991 o
-7 1 7 218.632 218.895 9.148 2.512 o
-7 1 8 14.233 13.168 1.975 94.341 o
-7 1 9 1.494 1.267 0.508 1463.800 o
-7 1 10 33.027 32.534 2.657 44.440 o
-7 1 11 17.482 21.944 2.370 64.351 o
-7 1 12 15.974 13.061 2.704 53.266 o
-7 2 1 6.730 8.072 0.789 493.905 o
-7 2 2 199.439 186.259 5.764 4.175 o
-7 2 3 23.304 21.526 1.995 79.840 o
-7 2 4 117.982 100.913 4.662 9.353 o
-7 2 5 134.896 139.326 4.979 7.184 o
-7 2 6 199.871 204.188 13.939 1.595 o
-7 2 7 2.763 4.386 1.023 375.693 o
-7 2 8 5.637 5.568 1.173 275.564 o
-7 2 9 115.832 110.479 5.003 8.599 o
-7 2 10 29.751 26.879 3.310 32.878 o
-7 2 11 62.882 55.261 6.882 7.782 o
-7 2 12 14.111 16.565 2.693 53.707 o
-7 3 1 5.346 7.716 2.372 73.307 o
-7 3 2 3.640 0.720 0.997 401.219 o
-7 3 3 30.031 27.907 4.524 18.924 o
-7 3 4 12.639 13.829 3.192 39.693 o
-7 3 5 0.046 -0.144 0.641 1036.810 o
-7 3 6 4.964 5.113 1.546 168.069 o
-7 3 7 65.765 68.946 4.371 15.166 o
-7 3 8 21.880 20.400 2.255 67.506 o
-7 3 9 90.401 98.599 6.622 7.041 o
-7 3 10 15.793 13.292 2.535 59.876 o
-7 3 11 59.861 60.742 4.161 17.233 o
-7 4 1 31.591 33.139 5.750 12.026 o
-7 4 2 17.721 17.732 2.058 82.890 o
-7 4 3 35.732 36.768 3.031 35.055 o
-7 4 4 18.737 13.922 1.932 92.848 o
-7 4 5 11.816 12.551 1.812 112.629 o
-7 4 6 10.643 11.446 2.008 95.572 o
-7 4 7 63.545 57.954 4.047 17.649 o
-7 4 8 3.321 4.692 1.279 245.225 o
-7 4 9 18.073 21.795 2.602 54.613 o
-7 5 1 13.134 12.704 1.823 109.749 o
-7 5 2 19.972 20.782 2.353 64.004 o
-7 5 3 4.525 4.475 1.166 286.340 o
-7 5 4 40.452 44.202 3.573 25.677 o
-7 5 5 16.835 17.704 2.304 69.146 o
-7 5 6 69.788 79.817 5.738 9.790 o
-7 5 7 1.320 3.695 1.126 323.097 o
-6 -6 -2 0.041 1.522 0.863 564.719 o
-6 -6 -1 22.643 25.404 2.139 70.818 o
-6 -6 0 1.777 3.017 1.638 155.883 o
-6 -5 -6 11.280 14.712 3.890 27.262 o
-6 -5 -5 3.137 4.899 1.107 321.288 o
-6 -5 -4 3.221 2.378 0.813 577.376 o
-6 -5 -3 2.736 1.913 0.611 978.730 o
-6 -5 -2 17.595 20.816 1.815 99.592 o
-6 -5 -1 13.421 16.171 1.598 133.004 o
-6 -5 0 27.310 29.389 2.599 49.115 o
-6 -4 -7 21.407 16.662 2.901 44.906 o
-6 -4 -6 4.094 3.671 1.306 234.981 o
-6 -4 -5 0.453 1.057 0.549 1349.500 o
-6 -4 -4 3.013 6.672 1.118 311.519 o
-6 -4 -3 15.273 16.671 1.759 110.812 o
-6 -4 -2 23.417 22.399 2.017 78.040 o
-6 -4 -1 17.663 18.973 2.351 65.952 o
-6 -4 0 121.016 121.405 5.956 6.767 o
-6 -3 -9 8.495 13.901 2.768 52.951 o
-6 -3 -8 1.522 1.383 0.889 517.491 o
-6 -3 -7 7.043 8.152 1.475 175.837 o
-6 -3 -6 40.250 38.190 2.504 43.618 o
-6 -3 -5 17.040 15.246 1.598 126.788 o
-6 -3 -4 71.230 71.992 4.014 16.199 o
-6 -3 -3 265.231 269.004 6.624 2.501 o
-6 -3 -2 59.542 63.480 2.983 25.849 o
-6 -3 -1 80.038 72.016 6.647 7.618 o
-6 -3 0 245.185 263.062 12.603 1.571 o
-6 -2 -9 9.847 10.112 1.770 121.516 o
-6 -2 -8 6.474 8.501 1.305 219.629 o
-6 -2 -7 7.818 9.456 1.128 271.939 o
-6 -2 -6 76.674 74.580 2.464 24.337 o
-6 -2 -5 90.590 93.000 3.362 15.523 o
-6 -2 -4 169.042 178.446 3.207 6.616 o
-6 -2 -3 61.600 53.900 1.784 41.088 o
-6 -2 -2 33.187 33.249 1.316 98.727 o
-6 -2 -1 5.897 5.112 0.692 652.959 o
-6 -2 0 17.464 14.869 1.097 210.503 o
-6 -1 -10 21.459 21.975 2.274 66.367 o
-6 -1 -9 0.180 1.020 0.598 1159.620 o
-6 -1 -8 13.016 13.984 1.421 163.696 o
-6 -1 -7 73.549 73.662 3.135 20.688 o
-6 -1 -6 15.190 16.661 1.441 150.714 o
-6 -1 -5 40.416 40.533 2.082 53.421 o
-6 -1 -4 14.156 12.773 1.068 243.340 o
-6 -1 -3 238.549 239.539 4.763 3.413 o
-6 -1 -2 19.136 21.609 1.021 198.708 o
-6 -1 -1 39.761 42.091 1.587 68.966 o
-6 -1 0 65.719 75.116 2.930 23.529 o
-6 0 -10 0.523 0.638 0.937 479.449 o
-6 0 -8 16.180 23.684 3.972 25.457 o
-6 0 -6 14.787 14.929 3.249 37.959 o
-6 0 -4 215.143 240.560 7.305 2.977 o
-6 0 -2 158.645 164.565 6.181 4.986 o
-6 0 0 478.574 447.220 17.630 0.615 o
-6 0 2 98.569 90.097 4.281 11.856 o
-6 0 4 503.404 503.268 15.888 0.614 o
-6 0 6 463.655 416.315 11.763 0.871 o
-6 0 8 301.656 290.363 11.870 1.430 o
-6 0 10 58.331 62.820 4.253 16.761 o
-6 0 12 91.797 100.664 8.835 4.476 o
-6 1 1 99.135 100.686 3.683 13.082 o
-6 1 2 35.481 35.853 2.195 55.142 o
-6 1 3 193.693 181.725 4.910 4.768 o
-6 1 4 84.615 82.768 2.364 21.985 o
-6 1 5 258.880 263.587 6.543 2.602 o
-6 1 6 158.575 163.520 4.656 6.197 o
-6 1 7 321.083 295.113 7.023 1.919 o
-6 1 8 11.026 11.184 1.442 168.954 o
-6 1 9 117.651 108.612 4.450 9.558 o
-6 1 10 9.515 11.023 1.251 218.898 o
-6 1 11 9.425 12.513 1.690 130.755 o
-6 1 12 35.261 34.880 3.643 26.468 o
-6 1 13 24.127 22.464 4.453 20.064 o
-6 2 1 55.527 52.133 1.935 42.889 o
-6 2 2 95.728 100.645 3.575 13.759 o
-6 2 3 8.641 9.119 1.311 209.379 o
-6 2 4 37.158 35.688 2.665 41.937 o
-6 2 5 69.074 67.421 3.947 17.041 o
-6 2 6 485.035 486.290 9.734 0.842 o
-6 2 7 72.169 68.447 3.660 18.172 o
-6 2 8 96.864 90.450 4.214 12.169 o
-6 2 9 6.107 7.958 1.273 231.877 o
-6 2 10 53.983 53.267 4.419 16.677 o
-6 2 11 49.811 42.143 4.007 20.450 o
-6 2 12 14.736 17.855 2.657 54.602 o
-6 3 1 46.280 38.644 4.880 15.240 o
-6 3 2 13.918 12.475 2.828 49.670 o
-6 3 3 90.798 87.310 3.876 13.933 o
-6 3 4 22.963 25.971 1.808 89.655 o
-6 3 5 171.064 163.432 5.097 5.472 o
-6 3 6 7.251 8.373 1.798 122.100 o
-6 3 7 4.313 6.863 1.262 244.074 o
-6 3 8 23.605 23.642 2.273 64.454 o
-6 3 9 48.570 53.558 4.629 15.928 o
-6 3 10 15.999 15.665 1.986 90.522 o
-6 3 11 64.341 71.678 4.312 15.453 o
-6 4 1 158.735 165.101 5.833 5.233 o
-6 4 2 55.254 50.264 3.276 25.451 o
-6 4 3 28.194 29.867 2.912 40.640 o
-6 4 4 0.873 1.316 0.693 846.720 o
-6 4 5 15.808 12.494 2.832 49.053 o
-6 4 6 12.520 14.934 1.929 99.119 o
-6 4 7 11.198 11.055 2.470 65.182 o
-6 4 8 30.248 30.307 2.819 42.041 o
-6 4 9 48.026 53.528 3.800 21.622 o
-6 4 10 4.792 4.911 1.240 253.870 o
-6 5 1 10.190 10.104 1.692 131.058 o
-6 5 2 36.613 41.186 3.171 31.973 o
-6 5 3 16.273 12.999 1.850 103.066 o
-6 5 4 41.767 45.015 3.436 26.926 o
-6 5 5 8.002 10.434 1.697 133.355 o
-6 5 6 59.117 69.692 4.410 15.535 o
-6 5 7 3.062 4.440 1.240 261.300 o
-6 5 8 36.172 38.957 3.390 29.170 o
-6 6 1 14.016 15.370 2.087 84.976 o
-6 6 2 3.282 2.869 0.985 404.739 o
-6 6 3 50.520 52.377 3.867 20.819 o
-6 6 4 2.038 1.391 0.896 503.491 o
-6 6 5 24.698 28.740 2.974 40.426 o
-5 -6 -4 6.554 5.946 1.608 153.059 o
-5 -6 -3 13.911 15.418 1.918 98.348 o
-5 -6 -2 1.686 1.655 0.649 923.568 o
-5 -6 -1 20.860 21.778 1.904 88.172 o
-5 -6 0 9.065 7.066 1.335 205.058 o
-5 -5 -7 9.317 5.094 2.408 70.281 o
-5 -5 -6 12.455 13.733 2.103 85.739 o
-5 -5 -5 19.350 21.772 2.126 75.664 o
-5 -5 -4 51.673 50.214 3.179 27.244 o
-5 -5 -3 5.200 6.838 0.981 374.031 o
-5 -5 -2 36.288 35.283 2.224 53.891 o
-5 -5 -1 4.279 4.664 0.885 468.967 o
-5 -5 0 83.581 77.782 4.008 14.629 o
-5 -4 -8 15.240 14.955 6.344 10.422 o
-5 -4 -7 41.687 47.079 6.562 9.043 o
-5 -4 -6 12.560 13.169 1.517 149.645 o
-5 -4 -5 71.468 71.356 3.474 19.148 o
-5 -4 -4 157.218 152.592 5.072 6.066 o
-5 -4 -3 7.718 9.355 1.822 118.159 o
-5 -4 -2 6.039 6.139 0.866 452.469 o
-5 -4 -1 42.122 39.766 2.857 35.689 o
-5 -4 0 202.473 191.577 5.819 4.045 o
-5 -3 -9 13.666 18.507 3.082 41.768 o
-5 -3 -8 3.396 2.800 1.238 263.866 o
-5 -3 -7 13.420 11.597 2.033 91.064 o
-5 -3 -6 0.882 0.253 0.276 4676.090 o
-5 -3 -5 68.378 76.031 3.398 19.727 o
-5 -3 -4 388.690 358.172 6.619 1.441 o
-5 -3 -3 20.532 20.234 1.699 105.769 o
-5 -3 -2 41.894 45.060 2.471 41.978 o
-5 -3 -1 361.976 321.918 29.314 0.398 o
-5 -3 0 341.487 334.757 13.437 1.112 o
-5 -2 -10 58.341 67.253 4.684 14.394 o
-5 -2 -9 1.791 2.628 1.055 366.721 o
-5 -2 -8 20.696 24.939 2.043 77.922 o
-5 -2 -7 4.134 2.667 0.583 968.298 o
-5 -2 -6 51.075 52.726 1.583 52.347 o
-5 -2 -5 27.086 26.722 1.062 144.941 o
-5 -2 -4 66.123 64.988 2.405 29.318 o
-5 -2 -3 47.697 46.417 1.691 55.576 o
-5 -2 -2 263.057 249.162 3.123 3.305 o
-5 -2 -1 506.259 513.736 6.291 0.868 o
-5 -2 0 28.753 22.502 4.257 21.449 o
-5 -1 -11 28.772 33.513 2.924 39.635 o
-5 -1 -10 63.103 68.103 3.920 17.860 o
-5 -1 -9 2.023 1.233 0.487 1521.610 o
-5 -1 -8 73.300 73.577 3.124 20.809 o
-5 -1 -7 105.355 99.547 2.530 15.899 o
-5 -1 -6 38.228 36.896 1.687 70.091 o
-5 -1 -5 74.442 70.220 2.243 27.207 o
-5 -1 -4 34.383 36.142 1.393 89.397 o
-5 -1 -3 143.877 133.976 2.713 9.687 o
-5 -1 -2 130.222 132.678 2.128 11.659 o
-5 -1 -1 297.446 328.809 3.779 2.339 o
-5 -1 0 122.355 132.183 2.873 11.277 o
-5 0 -10 18.072 16.027 2.713 51.773 o
-5 0 -8 47.875 54.206 8.268 5.794 o
-5 0 -6 231.862 240.702 6.209 3.103 o
-5 0 -4 26.838 24.897 3.505 30.458 o
-5 0 -2 570.075 559.745 11.243 0.622 o
-5 0 0 919.121 917.240 19.165 0.234 o
-5 0 2 497.591 489.350 18.777 0.547 o
-5 0 4 889.737 945.058 19.899 0.234 o
-5 0 6 153.344 137.369 5.026 6.489 o
-5 0 8 200.570 204.898 9.305 2.660 o
-5 0 10 23.185 24.403 2.547 53.760 o
-5 0 12 97.385 92.484 7.880 5.352 o
-5 1 1 33.725 31.933 1.899 69.008 o
-5 1 2 343.152 348.184 6.202 1.717 o
-5 1 3 211.680 201.569 3.052 4.864 o
-5 1 4 209.767 192.081 4.208 4.593 o
-5 1 5 36.487 41.637 1.877 62.507 o
-5 1 6 30.990 32.855 2.002 66.836 o
-5 1 7 347.154 328.881 6.993 1.677 o
-5 1 8 20.874 22.563 1.854 91.202 o
-5 1 9 247.238 229.032 4.354 3.462 o
-5 1 10 64.160 63.664 2.343 30.836 o
-5 1 11 144.474 129.385 7.303 4.772 o
-5 1 12 36.965 30.397 3.152 33.505 o
-5 1 13 38.627 44.066 5.963 10.887 o
-5 2 1 427.186 433.953 5.464 1.208 o
-5 2 2 86.642 86.190 3.046 17.873 o
-5 2 3 51.196 45.703 2.606 35.565 o
-5 2 4 66.105 67.890 3.488 20.155 o
-5 2 5 67.478 75.175 3.549 19.007 o
-5 2 6 31.175 29.212 2.201 60.243 o
-5 2 7 79.163 86.575 3.758 15.677 o
-5 2 8 452.894 442.723 8.527 1.000 o
-5 2 9 128.635 129.084 4.528 8.283 o
-5 2 10 85.023 83.598 4.026 14.133 o
-5 2 11 9.237 13.937 2.237 78.589 o
-5 2 12 84.167 91.671 4.433 12.443 o
-5 2 13 3.414 2.422 1.753 135.371 o
-5 3 1 202.741 182.739 10.017 2.510 o
-5 3 2 195.947 205.858 10.630 2.308 o
-5 3 3 141.525 141.178 4.132 7.877 o
-5 3 4 167.022 176.778 4.632 5.728 o
-5 3 5 241.770 227.803 5.851 3.158 o
-5 3 6 44.601 46.969 3.920 21.507 o
-5 3 7 141.196 143.728 6.917 5.006 o
-5 3 8 17.547 16.782 1.523 133.365 o
-5 3 9 80.207 77.635 4.105 14.580 o
-5 3 10 50.585 52.022 3.558 23.459 o
-5 3 11 28.145 28.233 2.591 49.246 o
-5 3 12 6.162 7.351 1.390 199.057 o
-5 4 1 2.065 1.707 0.563 1169.360 o
-5 4 2 78.922 82.063 3.979 15.005 o
-5 4 3 49.069 49.828 4.469 16.958 o
-5 4 4 44.765 44.585 3.057 31.134 o
-5 4 5 79.954 77.019 4.356 13.640 o
-5 4 6 41.327 38.748 2.955 34.449 o
-5 4 7 41.153 40.968 3.101 31.921 o
-5 4 8 1.920 2.517 1.064 360.152 o
-5 4 9 24.616 25.185 2.513 54.089 o
-5 4 10 30.473 30.986 3.220 33.807 o
-5 4 11 63.823 68.856 4.301 15.687 o
-5 5 1 55.745 52.382 3.352 24.408 o
-5 5 2 27.109 27.914 2.491 52.915 o
-5 5 3 9.964 10.980 1.614 141.947 o
-5 5 4 100.041 100.538 4.927 9.805 o
-5 5 5 62.059 61.996 3.977 18.006 o
-5 5 6 79.216 95.165 4.945 11.105 o
-5 5 7 12.004 14.700 2.025 91.618 o
-5 5 8 21.254 21.088 2.423 60.198 o
-5 5 9 27.113 27.721 3.337 32.869 o
-5 6 1 19.610 20.542 2.258 68.817 o
-5 6 2 18.208 18.061 3.204 38.062 o
-5 6 3 25.775 26.739 2.665 48.385 o
-5 6 4 4.565 6.819 1.636 150.452 o
-5 6 5 31.000 33.948 3.523 28.769 o
-5 6 6 7.616 8.513 1.652 142.031 o
-5 6 7 63.913 77.025 4.876 12.864 o
-4 -7 -1 6.434 6.300 1.325 217.737 o
-4 -7 0 11.126 9.907 1.381 182.939 o
-4 -6 -5 14.133 14.378 2.272 73.452 o
-4 -6 -4 35.267 35.353 2.836 39.087 o
-4 -6 -3 13.974 16.725 1.954 94.584 o
-4 -6 -2 0.678 2.556 0.976 434.249 o
-4 -6 -1 24.195 26.502 2.009 75.782 o
-4 -6 0 3.970 6.229 1.242 253.919 o
-4 -5 -8 5.553 4.593 1.678 143.606 o
-4 -5 -7 18.176 12.504 3.541 32.008 o
-4 -5 -6 31.801 32.390 2.923 38.894 o
-4 -5 -5 6.572 7.255 1.239 242.472 o
-4 -5 -4 24.245 21.006 1.989 79.537 o
-4 -5 -3 9.137 10.293 1.141 257.144 o
-4 -5 -2 56.731 57.815 2.702 30.313 o
-4 -5 -1 36.690 37.179 2.191 54.016 o
-4 -5 0 51.535 52.504 3.158 27.248 o
-4 -4 -9 1.026 1.352 0.886 525.944 o
-4 -4 -8 20.862 23.696 3.385 33.517 o
-4 -4 -7 6.936 7.030 1.264 233.294 o
-4 -4 -6 36.911 29.559 2.119 58.852 o
-4 -4 -5 35.582 34.251 1.847 68.101 o
-4 -4 -4 30.675 32.490 1.816 75.736 o
-4 -4 -3 251.907 247.470 4.511 3.218 o
-4 -4 -2 215.069 237.552 7.197 3.027 o
-4 -4 -1 41.094 36.868 3.424 27.974 o
-4 -4 0 29.564 30.129 2.187 61.610 o
-4 -3 -10 38.321 43.464 9.950 4.162 o
-4 -3 -9 28.451 32.300 4.987 15.803 o
-4 -3 -8 31.002 30.377 3.324 32.041 o
-4 -3 -7 45.706 43.264 2.077 49.003 o
-4 -3 -6 29.812 29.554 1.543 94.370 o
-4 -3 -5 97.748 99.745 2.773 16.226 o
-4 -3 -4 37.562 34.073 1.692 72.334 o
-4 -3 -3 120.285 112.012 3.115 11.933 o
-4 -3 -2 40.091 35.270 1.998 58.145 o
-4 -3 -1 143.891 151.812 4.380 7.244 o
-4 -3 0 143.324 141.251 7.955 4.226 o
-4 -2 -11 2.189 5.560 1.450 194.851 o
-4 -2 -10 15.625 15.176 2.168 78.459 o
-4 -2 -9 14.686 21.401 2.415 63.868 o
-4 -2 -8 61.531 63.818 2.443 30.667 o
-4 -2 -7 57.921 55.814 1.973 39.892 o
-4 -2 -6 46.649 44.228 1.584 60.348 o
-4 -2 -5 147.647 146.460 2.224 9.471 o
-4 -2 -4 8.444 9.128 0.679 550.584 o
-4 -2 -3 63.406 70.100 2.068 32.770 o
-4 -2 -2 196.479 200.267 3.715 5.039 o
-4 -2 -1 998.581 1056.750 13.452 0.217 o
-4 -2 0 610.442 586.500 7.817 0.616 o
-4 -1 -11 52.351 51.089 4.090 19.027 o
-4 -1 -10 55.477 53.728 3.385 24.024 o
-4 -1 -9 8.229 9.884 1.139 264.193 o
-4 -1 -8 17.430 19.146 1.116 195.587 o
-4 -1 -7 47.336 47.862 1.348 63.881 o
-4 -1 -6 17.636 15.460 0.709 315.452 o
-4 -1 -5 63.150 61.881 1.787 37.960 o
-4 -1 -4 128.330 134.136 2.280 11.562 o
-4 -1 -3 356.010 362.228 3.077 1.811 o
-4 -1 -2 77.661 84.164 1.496 28.818 o
-4 -1 -1 23.516 26.035 0.793 197.416 o
-4 -1 0 237.448 245.198 2.962 3.806 o
-4 0 -10 44.652 48.354 4.542 16.943 o
-4 0 -8 125.381 126.698 6.571 5.859 o
-4 0 -6 403.425 391.781 6.075 1.344 o
-4 0 -4 18.620 17.145 2.355 65.753 o
-4 0 -2 353.986 324.533 5.982 1.742 o
-4 0 0 185.499 177.161 4.172 5.456 o
-4 0 2 37.306 33.441 1.797 68.714 o
-4 0 4 508.727 545.457 8.614 0.779 o
-4 0 6 543.964 540.566 8.435 0.729 o
-4 0 8 154.669 163.838 6.024 5.201 o
-4 0 10 229.481 219.100 6.583 3.156 o
-4 0 12 29.868 30.137 4.289 20.759 o
-4 1 1 312.985 319.225 4.216 2.203 o
-4 1 2 4.541 3.293 0.437 1384.390 o
-4 1 3 593.626 574.709 4.847 0.684 o
-4 1 4 237.246 263.582 3.525 3.531 o
-4 1 5 141.572 136.760 2.894 9.533 o
-4 1 6 32.755 36.565 1.583 81.972 o
-4 1 7 202.034 198.787 4.233 4.687 o
-4 1 8 5.548 6.213 0.785 535.822 o
-4 1 9 92.795 90.941 2.576 18.483 o
-4 1 10 96.441 98.810 2.702 16.739 o
-4 1 11 76.358 83.184 3.729 16.337 o
-4 1 12 33.391 31.754 4.709 17.271 o
-4 1 13 38.544 44.351 5.792 11.474 o
-4 2 1 857.813 906.838 8.730 0.305 o
-4 2 2 529.297 568.969 6.015 0.777 o
-4 2 3 124.469 134.543 3.503 9.958 o
-4 2 4 337.315 352.168 5.612 1.789 o
-4 2 5 45.877 47.843 2.132 46.240 o
-4 2 6 55.007 47.328 2.123 41.357 o
-4 2 7 53.778 58.236 3.012 27.609 o
-4 2 8 42.885 37.174 1.850 59.601 o
-4 2 9 24.801 22.166 1.399 123.872 o
-4 2 10 133.502 123.271 5.952 6.366 o
-4 2 11 17.776 15.795 1.491 138.182 o
-4 2 12 51.433 57.082 4.177 18.220 o
-4 2 13 12.915 10.623 3.085 42.573 o
-4 3 1 377.218 383.276 7.294 1.393 o
-4 3 2 165.392 177.281 5.068 5.458 o
-4 3 3 109.409 102.652 2.452 15.309 o
-4 3 4 72.218 68.476 2.194 28.609 o
-4 3 5 34.431 35.596 1.700 74.835 o
-4 3 6 380.047 361.726 10.146 1.222 o
-4 3 7 281.405 293.210 7.271 2.158 o
-4 3 8 55.220 53.039 2.825 30.043 o
-4 3 9 102.790 96.191 4.379 11.064 o
-4 3 10 134.826 140.257 5.383 6.699 o
-4 3 11 16.082 19.408 1.801 103.770 o
-4 3 12 2.029 2.558 0.771 657.182 o
-4 4 1 74.447 67.850 3.450 19.103 o
-4 4 2 106.265 95.417 4.065 11.637 o
-4 4 3 15.974 14.220 1.620 127.110 o
-4 4 4 100.456 104.194 3.050 14.662 o
-4 4 5 84.045 81.254 2.553 21.264 o
-4 4 6 94.911 88.346 4.255 12.284 o
-4 4 7 133.884 148.523 6.842 5.167 o
-4 4 8 52.736 53.016 3.427 24.208 o
-4 4 9 15.199 15.209 1.910 97.769 o
-4 4 10 71.041 77.746 5.311 10.966 o
-4 4 11 47.111 52.367 3.663 23.035 o
-4 5 1 92.312 92.978 4.275 12.248 o
-4 5 2 5.162 3.240 0.911 443.565 o
-4 5 3 48.769 43.517 3.087 29.848 o
-4 5 4 11.316 16.074 2.497 62.842 o
-4 5 5 19.377 22.534 2.301 66.272 o
-4 5 6 34.173 40.925 3.152 32.896 o
-4 5 7 1.025 1.189 0.628 1018.990 o
-4 5 8 37.711 35.876 3.069 33.990 o
-4 5 9 22.883 22.893 2.499 55.966 o
-4 5 10 7.254 9.419 1.658 140.971 o
-4 6 1 11.273 13.318 1.957 98.634 o
-4 6 2 6.606 3.262 1.214 259.946 o
-4 6 3 61.706 57.987 3.946 18.480 o
-4 6 4 0.147 0.178 0.584 1237.790 o
-4 6 5 17.031 14.714 2.081 83.257 o
-4 6 6 4.640 5.582 1.287 236.485 o
-4 6 7 54.593 60.395 4.220 17.450 o
-4 7 1 1.198 0.700 0.610 1079.690 o
-4 7 2 6.428 5.906 1.563 161.411 o
-3 -7 -3 1.188 2.091 0.835 582.875 o
-3 -7 -2 23.573 31.434 2.832 43.785 o
-3 -7 -1 9.716 8.779 1.495 165.024 o
-3 -7 0 32.021 32.661 2.387 52.329 o
-3 -6 -6 1.907 0.766 0.743 725.344 o
-3 -6 -5 10.362 9.008 1.427 176.667 o
-3 -6 -4 8.604 8.362 1.371 195.178 o
-3 -6 -3 36.839 42.470 3.110 32.698 o
-3 -6 -2 1.890 1.504 0.885 516.532 o
-3 -6 -1 1.538 1.003 0.588 1128.660 o
-3 -6 0 39.024 40.431 2.955 34.882 o
-3 -5 -8 13.809 14.275 2.250 75.003 o
-3 -5 -7 11.770 12.964 2.034 91.798 o
-3 -5 -6 33.903 38.287 2.607 44.067 o
-3 -5 -5 9.692 9.638 1.332 199.444 o
-3 -5 -4 169.669 165.232 4.235 6.119 o
-3 -5 -3 55.446 52.675 2.914 28.983 o
-3 -5 -2 6.306 6.332 0.867 447.437 o
-3 -5 -1 15.306 15.637 1.376 162.436 o
-3 -5 0 227.654 232.541 7.768 2.756 o
-3 -4 -10 19.642 24.961 3.726 28.231 o
-3 -4 -9 26.730 24.359 2.828 44.012 o
-3 -4 -8 45.281 50.866 3.520 24.841 o
-3 -4 -7 16.352 15.890 1.313 169.608 o
-3 -4 -6 64.777 61.068 2.916 25.486 o
-3 -4 -5 14.357 13.313 0.904 294.096 o
-3 -4 -4 185.288 181.504 3.501 5.773 o
-3 -4 -3 126.889 118.880 2.941 11.348 o
-3 -4 -2 5.970 5.923 0.683 652.734 o
-3 -4 -1 232.656 224.308 5.490 3.411 o
-3 -4 0 68.524 63.631 3.295 21.436 o
-3 -3 -11 17.109 15.431 2.901 46.217 o
-3 -3 -10 22.740 24.659 3.551 30.404 o
-3 -3 -9 119.521 126.474 5.416 7.456 o
-3 -3 -8 48.541 49.180 3.198 27.864 o
-3 -3 -7 104.728 98.725 2.692 15.557 o
-3 -3 -6 101.604 101.967 2.509 16.343 o
-3 -3 -5 199.956 207.414 3.507 4.934 o
-3 -3 -4 19.789 20.451 1.199 167.417 o
-3 -3 -3 172.564 164.637 3.507 6.550 o
-3 -3 -2 161.704 156.670 3.446 7.240 o
-3 -3 -1 102.297 98.106 2.858 15.418 o
-3 -3 0 74.797 91.438 2.844 20.507 o
-3 -2 -12 10.717 10.774 2.469 65.475 o
-3 -2 -11 13.773 13.711 2.740 52.539 o
-3 -2 -10 2.225 1.645 0.873 524.806 o
-3 -2 -9 37.346 35.609 2.348 49.613 o
-3 -2 -8 56.245 55.317 2.178 37.859 o
-3 -2 -7 121.769 120.561 2.054 13.369 o
-3 -2 -6 59.510 60.482 1.470 44.715 o
-3 -2 -5 96.350 91.016 1.570 21.625 o
-3 -2 -4 463.556 454.498 6.121 1.044 o
-3 -2 -3 1079.000 1062.310 7.104 0.209 o
-3 -2 -2 11.115 12.591 0.796 383.787 o
-3 -2 -1 52.454 60.534 2.083 39.878 o
-3 -2 0 1570.470 1556.650 10.660 0.099 o
-3 -1 -12 20.005 21.513 2.720 49.908 o
-3 -1 -11 13.080 12.566 2.024 91.643 o
-3 -1 -10 34.138 35.130 3.132 33.951 o
-3 -1 -9 0.304 0.881 0.293 4393.980 o
-3 -1 -8 8.093 8.677 0.936 364.558 o
-3 -1 -7 107.726 107.977 2.122 16.030 o
-3 -1 -6 340.377 366.910 2.834 1.910 o
-3 -1 -5 28.585 33.684 0.907 140.678 o
-3 -1 -4 40.114 45.404 1.042 85.841 o
-3 -1 -3 613.452 600.407 6.334 0.623 o
-3 -1 -2 298.245 280.288 2.871 2.666 o
-3 -1 -1 1079.040 1076.780 5.198 0.210 o
-3 -1 0 1289.940 1324.090 7.743 0.143 o
-3 0 -12 107.465 103.507 7.210 5.811 o
-3 0 -10 233.931 213.656 9.332 2.372 o
-3 0 -8 26.883 30.309 3.101 36.949 o
-3 0 -6 631.376 663.579 10.691 0.514 o
-3 0 -4 550.831 577.979 8.232 0.695 o
-3 0 -2 770.271 761.196 10.397 0.378 o
-3 0 0 448.589 466.768 5.891 1.076 o
-3 0 2 731.742 650.507 7.045 0.468 o
-3 0 4 497.111 492.024 5.612 0.927 o
-3 0 6 538.572 638.827 5.517 0.711 o
-3 0 8 303.025 309.461 6.863 2.010 o
-3 0 10 391.486 382.968 7.862 1.303 o
-3 0 12 102.436 104.561 7.509 5.564 o
-3 1 1 394.411 382.210 5.372 1.437 o
-3 1 2 711.383 761.218 5.754 0.448 o
-3 1 3 696.619 696.118 4.676 0.494 o
-3 1 4 730.487 727.890 7.031 0.439 o
-3 1 5 466.495 473.751 4.397 1.056 o
-3 1 6 126.601 131.343 2.814 11.037 o
-3 1 7 275.190 272.737 3.927 2.852 o
-3 1 8 4.203 4.120 0.460 1290.090 o
-3 1 9 192.270 180.202 2.788 5.910 o
-3 1 10 63.379 61.422 1.802 37.782 o
-3 1 11 18.236 18.763 1.388 147.238 o
-3 1 12 74.929 71.973 6.897 7.302 o
-3 1 13 16.130 9.953 2.693 54.102 o
-3 2 1 284.881 292.007 4.661 2.532 o
-3 2 2 283.079 283.222 3.305 2.778 o
-3 2 3 124.736 137.929 2.392 11.563 o
-3 2 4 1335.400 1376.520 9.910 0.132 o
-3 2 5 41.914 42.856 1.677 63.186 o
-3 2 6 66.233 64.086 1.970 33.868 o
-3 2 7 41.754 37.304 1.632 67.862 o
-3 2 8 137.313 134.898 2.404 10.547 o
-3 2 9 101.349 102.398 2.502 16.372 o
-3 2 10 12.999 12.348 1.026 265.887 o
-3 2 11 45.449 42.851 2.369 42.889 o
-3 2 12 42.131 40.254 4.182 20.029 o
-3 2 13 9.035 13.387 3.334 37.032 o
-3 3 1 376.634 390.338 5.858 1.471 o
-3 3 2 68.360 67.914 2.451 27.717 o
-3 3 3 276.398 291.234 5.130 2.552 o
-3 3 4 46.969 43.328 1.655 58.566 o
-3 3 5 61.948 56.187 1.944 38.087 o
-3 3 6 314.628 326.661 6.967 1.868 o
-3 3 7 13.654 12.694 0.882 312.557 o
-3 3 8 167.735 156.168 2.930 7.374 o
-3 3 9 139.466 139.272 5.067 6.908 o
-3 3 10 140.340 153.942 6.380 5.364 o
-3 3 11 75.993 79.937 3.765 16.406 o
-3 3 12 22.668 26.610 3.367 33.280 o
-3 4 1 323.992 328.428 7.076 1.796 o
-3 4 2 238.649 224.576 5.980 3.183 o
-3 4 3 193.365 202.490 4.714 4.630 o
-3 4 4 54.334 55.579 2.471 34.458 o
-3 4 5 90.741 87.603 3.065 17.056 o
-3 4 6 391.240 372.548 5.369 1.473 o
-3 4 7 100.116 111.535 4.735 9.914 o
-3 4 8 1.143 0.531 0.633 1012.420 o
-3 4 9 56.609 61.612 3.683 20.724 o
-3 4 10 176.564 168.566 6.217 4.545 o
-3 4 11 10.030 8.999 1.350 194.895 o
-3 5 1 160.936 166.840 5.525 5.386 o
-3 5 2 19.236 15.081 1.731 108.869 o
-3 5 3 39.538 38.566 2.785 38.060 o
-3 5 4 21.529 19.385 2.571 54.788 o
-3 5 5 47.660 55.554 3.499 24.215 o
-3 5 6 3.698 4.887 1.089 327.862 o
-3 5 7 36.891 40.406 3.106 33.005 o
-3 5 8 42.782 41.614 3.251 29.356 o
-3 5 9 6.152 4.758 1.124 296.586 o
-3 5 10 15.134 13.688 2.192 77.855 o
-3 6 1 8.655 9.863 1.506 164.034 o
-3 6 2 8.622 6.566 1.264 227.552 o
-3 6 3 24.429 27.559 2.951 41.215 o
-3 6 4 10.288 10.184 1.868 109.808 o
-3 6 5 68.417 69.810 4.287 15.280 o
-3 6 6 0.979 4.074 1.156 308.092 o
-3 6 7 23.956 23.535 2.607 51.597 o
-3 6 8 4.255 4.349 1.200 273.283 o
-3 7 1 6.443 7.796 2.212 83.365 o
-3 7 2 16.065 20.116 2.411 63.704 o
-3 7 3 8.373 8.563 1.610 147.461 o
-3 7 4 6.382 7.610 1.731 132.555 o
-2 -7 -4 17.270 16.581 3.758 28.494 o
-2 -7 -3 7.875 10.042 2.009 98.204 o
-2 -7 -2 36.156 41.048 3.160 32.269 o
-2 -7 -1 3.493 4.198 1.072 340.573 o
-2 -7 0 12.070 13.118 1.468 159.020 o
-2 -6 -7 21.754 24.094 3.022 40.730 o
-2 -6 -6 3.736 4.399 1.363 216.958 o
-2 -6 -5 27.829 29.126 2.709 45.883 o
-2 -6 -4 3.270 2.936 0.830 551.461 o
-2 -6 -3 59.349 60.578 3.500 21.765 o
-2 -6 -2 12.814 12.723 1.335 182.761 o
-2 -6 -1 137.222 137.298 4.325 7.941 o
-2 -6 0 13.913 14.905 1.779 111.861 o
-2 -5 -9 3.214 4.242 1.245 259.075 o
-2 -5 -8 23.659 25.182 3.406 32.549 o
-2 -5 -7 4.135 5.060 1.267 246.072 o
-2 -5 -6 14.665 11.245 1.404 165.975 o
-2 -5 -5 11.520 12.320 1.459 163.043 o
-2 -5 -4 300.857 296.012 5.343 2.275 o
-2 -5 -3 9.118 11.144 1.084 275.703 o
-2 -5 -2 130.784 116.036 10.329 3.130 o
-2 -5 -1 115.411 104.552 3.386 12.139 o
-2 -5 0 27.630 29.020 2.207 62.607 o
-2 -4 -10 2.446 2.279 0.956 437.673 o
-2 -4 -9 6.522 7.523 1.494 173.557 o
-2 -4 -8 24.844 30.016 2.812 44.119 o
-2 -4 -7 85.133 79.282 2.871 19.565 o
-2 -4 -6 127.676 119.692 3.923 9.547 o
-2 -4 -5 40.227 37.790 1.241 84.803 o
-2 -4 -4 97.739 94.287 2.346 18.181 o
-2 -4 -3 41.399 38.736 1.588 68.999 o
-2 -4 -2 190.460 200.407 6.475 3.878 o
-2 -4 -1 119.608 112.617 3.710 10.746 o
-2 -4 0 32.628 33.664 2.107 60.979 o
-2 -3 -11 29.040 34.066 3.158 34.884 o
-2 -3 -10 31.145 30.695 2.808 41.920 o
-2 -3 -9 75.065 68.731 4.019 15.939 o
-2 -3 -8 33.059 33.495 1.775 74.343 o
-2 -3 -7 106.134 104.911 2.590 15.230 o
-2 -3 -6 91.748 88.669 3.255 16.066 o
-2 -3 -5 4.299 4.369 0.306 1958.130 o
-2 -3 -4 107.680 113.263 2.187 15.473 o
-2 -3 -3 121.742 112.019 2.888 12.260 o
-2 -3 -2 31.020 32.641 1.311 104.322 o
-2 -3 -1 74.947 85.989 2.518 22.995 o
-2 -3 0 186.074 171.663 3.285 6.038 o
-2 -2 -12 7.860 6.763 4.075 25.318 o
-2 -2 -11 25.956 24.488 2.508 53.761 o
-2 -2 -10 49.500 52.562 5.042 13.837 o
-2 -2 -9 154.007 150.358 5.571 5.761 o
-2 -2 -8 0.542 1.041 0.310 3810.610 o
-2 -2 -7 29.688 28.259 1.070 132.360 o
-2 -2 -6 14.783 14.637 0.698 363.803 o
-2 -2 -5 64.339 71.494 1.498 37.896 o
-2 -2 -4 495.155 487.139 7.537 0.888 o
-2 -2 -3 540.921 569.580 6.517 0.748 o
-2 -2 -2 870.792 890.826 5.592 0.313 o
-2 -2 -1 157.231 148.708 2.571 8.443 o
-2 -2 0 1198.480 1145.160 9.464 0.171 o
-2 -1 -13 18.808 24.562 2.976 42.558 o
-2 -1 -12 28.077 29.843 3.115 36.428 o
-2 -1 -11 13.222 14.991 1.661 126.339 o
-2 -1 -10 44.202 46.539 2.710 36.310 o
-2 -1 -9 3.829 3.213 0.499 1221.650 o
-2 -1 -8 45.667 44.181 1.561 62.003 o
-2 -1 -7 101.930 100.049 2.087 17.769 o
-2 -1 -6 231.548 245.977 2.797 3.948 o
-2 -1 -5 782.481 830.168 5.498 0.376 o
-2 -1 -4 52.362 52.361 0.947 63.779 o
-2 -1 -3 484.352 507.046 3.445 0.981 o
-2 -1 -2 216.016 220.581 2.140 4.747 o
-2 -1 -1 6650.780 6554.200 11.560 0.006 o
-2 -1 0 7078.850 6739.160 18.878 0.005 o
-2 0 -12 103.792 104.169 7.074 6.041 o
-2 0 -10 740.098 759.299 11.761 0.387 o
-2 0 -8 38.419 36.448 1.844 64.305 o
-2 0 -6 284.219 291.628 4.694 2.536 o
-2 0 -4 294.237 289.818 2.979 2.647 o
-2 0 -2 781.726 801.433 8.581 0.371 o
-2 0 0 86.923 86.071 2.097 22.407 o
-2 0 2 103.267 118.301 3.087 13.407 o
-2 0 4 2342.470 2446.030 13.784 0.043 o
-2 0 6 72.454 72.499 1.990 29.506 o
-2 0 8 410.848 428.806 6.281 1.239 o
-2 0 10 327.854 316.197 11.627 1.330 o
-2 0 12 72.078 66.494 5.742 9.955 o
-2 1 1 1153.440 1149.810 8.302 0.181 o
-2 1 2 239.691 251.978 2.267 3.822 o
-2 1 3 556.044 550.745 3.706 0.777 o
-2 1 4 248.875 244.765 2.451 3.688 o
-2 1 5 259.262 257.902 2.532 3.384 o
-2 1 6 234.996 274.732 2.930 3.588 o
-2 1 7 144.981 140.798 2.046 10.064 o
-2 1 8 87.475 87.344 2.586 19.768 o
-2 1 9 15.456 15.713 0.847 292.133 o
-2 1 10 76.090 74.634 2.865 21.810 o
-2 1 11 95.888 89.309 4.618 11.148 o
-2 1 12 8.242 9.355 2.465 66.841 o
-2 1 13 11.878 14.142 3.071 42.816 o
-2 2 1 138.945 146.758 2.615 9.695 o
-2 2 2 500.338 496.999 8.477 0.841 o
-2 2 3 272.420 293.793 3.114 2.866 o
-2 2 4 170.599 164.529 2.468 7.340 o
-2 2 5 304.191 311.491 3.702 2.364 o
-2 2 6 123.935 121.384 2.075 13.026 o
-2 2 7 196.786 204.583 2.870 5.317 o
-2 2 8 205.915 195.397 2.840 5.190 o
-2 2 9 156.352 147.286 2.423 8.669 o
-2 2 10 80.842 80.379 2.494 22.408 o
-2 2 11 205.930 208.415 5.821 3.839 o
-2 2 12 25.756 20.612 2.784 46.157 o
-2 2 13 9.029 8.778 2.771 53.310 o
-2 3 1 52.309 58.515 1.920 43.152 o
-2 3 2 606.918 680.682 11.353 0.519 o
-2 3 3 326.323 344.042 3.874 2.030 o
-2 3 4 8.656 7.095 0.573 693.693 o
-2 3 5 582.235 580.230 6.842 0.671 o
-2 3 6 115.649 126.348 3.264 11.403 o
-2 3 7 287.177 284.274 4.368 2.589 o
-2 3 8 93.487 88.567 3.807 13.842 o
-2 3 9 73.041 67.067 3.409 19.630 o
-2 3 10 49.865 54.559 2.800 31.732 o
-2 3 11 80.957 78.566 3.965 15.034 o
-2 3 12 38.865 34.373 4.054 21.766 o
-2 4 1 179.147 164.437 5.295 5.111 o
-2 4 2 226.278 221.787 5.243 3.604 o
-2 4 3 265.301 273.145 5.208 2.750 o
-2 4 4 31.006 34.818 1.636 82.973 o
-2 4 5 10.969 10.290 0.857 367.349 o
-2 4 6 102.948 99.598 2.886 15.144 o
-2 4 7 171.604 179.883 5.836 4.763 o
-2 4 8 120.820 126.161 5.027 7.977 o
-2 4 9 51.777 49.093 3.210 27.012 o
-2 4 10 2.308 1.863 1.831 125.326 o
-2 4 11 37.501 38.072 3.072 33.706 o
-2 5 1 21.423 24.096 2.076 75.722 o
-2 5 2 51.909 52.167 3.102 27.822 o
-2 5 3 86.506 80.196 3.954 14.428 o
-2 5 4 95.284 108.482 4.664 10.455 o
-2 5 5 11.100 10.602 1.527 154.092 o
-2 5 6 16.174 15.892 1.906 96.662 o
-2 5 7 27.210 25.108 2.430 55.651 o
-2 5 8 82.854 89.149 4.656 11.925 o
-2 5 9 2.080 1.797 0.859 542.021 o
-2 5 10 41.090 41.845 4.020 21.392 o
-2 6 1 14.536 16.352 1.909 97.964 o
-2 6 2 57.536 58.429 3.638 21.157 o
-2 6 3 10.653 11.636 1.686 130.074 o
-2 6 4 10.658 12.844 1.845 110.340 o
-2 6 5 43.772 45.430 3.549 25.268 o
-2 6 6 13.350 12.587 1.922 100.042 o
-2 6 7 38.730 43.538 3.521 26.624 o
-2 6 8 0.932 0.839 1.981 108.269 o
-2 7 1 16.552 17.282 2.147 78.314 o
-2 7 2 14.428 19.811 3.475 33.170 o
-2 7 3 17.679 15.020 2.994 43.534 o
-2 7 4 15.797 15.540 2.161 78.686 o
-2 7 5 13.299 15.133 2.634 56.437 o
-1 -7 -4 20.706 21.610 2.916 44.000 o
-1 -7 -3 12.191 11.226 2.125 85.237 o
-1 -7 -2 44.733 42.344 3.842 22.476 o
-1 -7 -1 16.997 16.584 2.515 59.536 o
-1 -7 0 58.633 54.999 3.337 23.733 o
-1 -6 -8 7.631 11.409 1.877 110.967 o
-1 -6 -7 43.866 35.126 4.275 19.398 o
-1 -6 -6 13.288 27.605 15.977 1.667 o
-1 -6 -5 41.469 40.099 3.715 24.328 o
-1 -6 -4 2.796 2.435 1.082 344.330 o
-1 -6 -3 62.844 57.919 4.429 15.631 o
-1 -6 -2 45.527 44.194 2.410 41.697 o
-1 -6 -1 105.622 108.416 3.775 11.896 o
-1 -6 0 20.545 22.701 2.037 79.409 o
-1 -5 -10 34.152 27.184 3.815 25.173 o
-1 -5 -9 10.747 12.090 1.943 100.962 o
-1 -5 -8 62.736 57.580 3.180 24.030 o
-1 -5 -7 21.803 22.233 4.973 16.408 o
-1 -5 -6 31.711 32.693 3.188 33.881 o
-1 -5 -5 19.220 18.416 2.328 66.308 o
-1 -5 -4 25.867 27.541 1.571 101.053 o
-1 -5 -3 22.296 22.002 1.619 108.477 o
-1 -5 -2 126.870 127.480 3.631 9.828 o
-1 -5 -1 23.247 26.578 1.670 98.800 o
-1 -5 0 103.351 90.800 3.856 12.644 o
-1 -4 -11 16.653 13.479 2.086 83.716 o
-1 -4 -10 11.652 15.119 2.101 85.901 o
-1 -4 -9 6.657 7.151 1.404 194.309 o
-1 -4 -8 49.902 50.345 2.694 33.878 o
-1 -4 -7 59.571 60.914 3.790 19.593 o
-1 -4 -6 85.162 86.452 4.509 12.320 o
-1 -4 -5 102.795 99.774 2.725 15.655 o
-1 -4 -4 149.737 143.459 3.009 8.644 o
-1 -4 -3 172.184 163.843 3.927 6.279 o
-1 -4 -2 25.447 24.114 1.382 121.599 o
-1 -4 -1 19.733 19.210 1.247 162.628 o
-1 -4 0 43.146 39.943 2.254 47.422 o
-1 -3 -12 3.456 1.464 1.343 227.505 o
-1 -3 -11 10.208 17.242 2.229 77.535 o
-1 -3 -10 12.679 14.898 1.974 95.042 o
-1 -3 -9 5.325 3.529 0.989 381.808 o
-1 -3 -8 107.563 97.672 4.514 10.375 o
-1 -3 -7 39.177 38.154 2.015 57.189 o
-1 -3 -6 51.342 50.575 1.748 49.634 o
-1 -3 -5 16.771 15.524 2.067 84.038 o
-1 -3 -4 234.336 225.869 2.954 4.063 o
-1 -3 -3 26.014 25.744 1.155 140.627 o
-1 -3 -2 97.833 103.048 3.366 14.059 o
-1 -3 -1 94.375 96.181 2.122 19.478 o
-1 -3 0 151.941 149.150 2.658 8.680 o
-1 -2 -13 0.045 1.496 1.292 253.875 o
-1 -2 -12 15.054 13.682 2.001 91.267 o
-1 -2 -11 8.690 10.783 1.677 134.891 o
-1 -2 -10 92.892 92.329 4.647 11.165 o
-1 -2 -9 72.168 71.619 3.876 16.806 o
-1 -2 -8 87.486 93.463 4.162 12.981 o
-1 -2 -7 185.603 188.109 5.514 4.558 o
-1 -2 -6 281.433 302.014 3.059 2.715 o
-1 -2 -5 397.401 441.063 3.701 1.369 o
-1 -2 -4 64.673 67.677 1.563 38.101 o
-1 -2 -3 21.750 21.629 0.639 254.528 o
-1 -2 -2 212.811 209.421 2.640 4.856 o
-1 -2 -1 751.863 778.600 9.581 0.390 o
-1 -2 0 632.547 630.927 5.519 0.589 o
-1 -1 -13 8.329 8.181 1.676 137.580 o
-1 -1 -12 4.691 4.118 0.935 425.076 o
-1 -1 -11 257.245 258.616 6.824 2.582 o
-1 -1 -10 34.649 34.502 2.389 50.282 o
-1 -1 -9 69.517 65.617 2.502 27.269 o
-1 -1 -8 25.928 25.882 1.002 157.884 o
-1 -1 -7 232.376 224.434 3.342 4.024 o
-1 -1 -6 291.980 295.148 3.008 2.639 o
-1 -1 -5 480.162 512.939 4.941 0.957 o
-1 -1 -4 165.363 170.194 1.682 7.914 o
-1 -1 -3 3466.690 3485.170 11.386 0.021 o
-1 -1 -2 2155.920 2067.480 6.980 0.055 o
-1 -1 -1 2089.080 2027.200 11.151 0.057 o
-1 -1 0 1748.940 1645.830 10.196 0.083 o
-1 0 -12 118.682 123.469 7.292 5.309 o
-1 0 -10 101.739 99.202 5.152 9.269 o
-1 0 -8 49.716 46.446 1.828 50.740 o
-1 0 -6 92.560 99.816 2.193 19.209 o
-1 0 -4 392.884 366.997 4.565 1.520 o
-1 0 -2 7372.610 6963.020 20.348 0.005 o
-1 0 2 1864.190 1670.300 11.773 0.075 o
-1 0 4 1619.600 1610.080 6.916 0.094 o
-1 0 6 1185.440 1226.700 7.550 0.168 o
-1 0 8 315.045 331.217 7.157 1.831 o
-1 0 10 210.599 207.538 3.789 4.554 o
-1 0 12 9.985 14.085 2.650 57.025 o
-1 1 1 1306.970 1279.220 5.072 0.146 o
-1 1 2 614.393 592.674 4.188 0.648 o
-1 1 3 273.133 257.984 2.560 3.166 o
-1 1 4 481.196 493.201 2.947 1.015 o
-1 1 5 76.365 75.158 1.148 33.395 o
-1 1 6 39.744 40.021 0.947 95.819 o
-1 1 7 457.310 472.233 3.798 1.098 o
-1 1 8 71.540 77.186 1.693 31.316 o
-1 1 9 83.931 83.902 1.863 24.707 o
-1 1 10 195.480 186.048 4.091 5.086 o
-1 1 11 5.964 5.863 1.123 294.936 o
-1 1 12 15.846 12.582 2.836 48.918 o
-1 1 13 30.227 28.669 4.318 20.544 o
-1 2 1 63.358 63.509 1.434 41.566 o
-1 2 2 506.065 510.843 6.325 0.871 o
-1 2 3 794.711 827.843 4.457 0.373 o
-1 2 4 251.326 261.408 2.324 3.515 o
-1 2 5 270.631 288.892 2.855 2.951 o
-1 2 6 153.696 154.738 3.568 7.557 o
-1 2 7 393.213 402.367 4.685 1.432 o
-1 2 8 45.969 43.657 1.673 58.889 o
-1 2 9 61.170 58.967 1.596 42.396 o
-1 2 10 277.562 284.372 7.312 2.212 o
-1 2 11 61.824 58.076 4.544 15.139 o
-1 2 12 6.863 8.785 2.622 59.876 o
-1 2 13 14.703 13.116 3.377 35.430 o
-1 3 1 620.346 645.517 5.545 0.594 o
-1 3 2 187.033 199.786 3.027 5.643 o
-1 3 3 31.483 30.915 1.036 125.053 o
-1 3 4 677.081 704.420 4.787 0.508 o
-1 3 5 307.563 288.189 4.158 2.394 o
-1 3 6 19.697 20.620 1.060 191.057 o
-1 3 7 155.274 167.482 4.570 6.316 o
-1 3 8 160.299 155.251 4.277 6.610 o
-1 3 9 72.057 72.871 3.708 17.630 o
-1 3 10 3.520 3.230 0.875 496.993 o
-1 3 11 40.742 39.893 3.042 33.063 o
-1 3 12 15.226 10.494 2.208 77.849 o
-1 4 1 55.657 54.519 2.289 36.693 o
-1 4 2 152.015 152.695 4.177 7.088 o
-1 4 3 85.359 78.088 2.384 22.246 o
-1 4 4 62.894 64.596 2.097 33.817 o
-1 4 5 37.103 32.095 1.846 67.672 o
-1 4 6 6.180 4.696 0.718 616.870 o
-1 4 7 149.137 145.228 5.206 6.322 o
-1 4 8 2.690 3.261 1.038 370.481 o
-1 4 9 66.439 64.698 4.373 15.285 o
-1 4 10 11.859 13.831 1.783 114.998 o
-1 4 11 20.497 24.508 2.434 59.247 o
-1 5 1 26.890 30.571 2.315 58.416 o
-1 5 2 117.813 110.015 4.481 9.449 o
-1 5 3 49.052 53.954 2.574 35.307 o
-1 5 4 94.067 83.630 4.108 13.012 o
-1 5 5 27.835 30.196 2.514 51.246 o
-1 5 6 126.608 132.762 5.395 7.105 o
-1 5 7 32.926 34.094 3.375 30.498 o
-1 5 8 5.439 6.828 1.949 107.203 o
-1 5 9 4.715 3.732 1.446 192.447 o
-1 5 10 94.841 88.550 4.967 10.332 o
-1 6 1 268.289 257.972 7.442 2.363 o
-1 6 2 9.391 10.345 1.572 150.277 o
-1 6 3 31.174 34.367 2.852 40.283 o
-1 6 4 23.203 25.904 3.292 34.596 o
-1 6 5 3.117 3.448 1.282 246.692 o
-1 6 6 32.069 32.298 3.540 28.501 o
-1 6 7 9.256 8.621 1.881 110.338 o
-1 6 8 0.385 1.543 1.300 249.958 o
-1 7 1 17.652 19.857 2.032 83.734 o
-1 7 2 6.706 10.377 3.965 26.690 o
-1 7 3 4.362 5.178 2.971 47.639 o
-1 7 4 14.375 13.709 2.488 62.484 o
-1 7 5 25.248 23.914 3.262 34.941 o
0 -7 -5 4.395 5.068 1.586 161.010 o
0 -7 -4 28.819 31.623 3.523 29.330 o
0 -7 -3 26.933 24.656 3.019 39.373 o
0 -7 -2 25.166 26.003 2.955 41.126 o
0 -7 -1 2.424 3.394 0.892 491.802 o
0 -6 -8 3.315 2.352 0.814 575.619 o
0 -6 -7 15.885 16.383 2.560 58.201 o
0 -6 -6 30.942 32.263 3.449 29.971 o
0 -6 -5 48.885 53.952 4.959 14.216 o
0 -6 -4 12.005 13.049 2.016 93.016 o
0 -6 -3 159.693 157.474 5.000 5.972 o
0 -6 -2 32.181 32.706 2.320 54.328 o
0 -6 -1 54.852 56.616 3.025 27.400 o
0 -5 -10 10.027 8.927 1.737 126.140 o
0 -5 -9 29.175 37.892 3.303 31.976 o
0 -5 -8 43.772 39.230 2.644 39.026 o
0 -5 -7 37.812 39.087 3.717 24.930 o
0 -5 -6 194.275 197.110 7.658 3.340 o
0 -5 -5 51.471 45.645 3.002 29.954 o
0 -5 -4 85.511 77.849 3.012 18.902 o
0 -5 -3 42.157 37.121 3.277 29.654 o
0 -5 -2 92.856 88.820 3.705 14.246 o
0 -5 -1 111.743 111.670 3.759 11.294 o
0 -4 -11 42.074 50.282 5.887 10.938 o
0 -4 -10 2.005 1.957 0.850 552.724 o
0 -4 -9 58.703 56.038 4.913 13.740 o
0 -4 -8 82.170 83.545 3.509 16.595 o
0 -4 -7 119.732 112.739 3.937 10.282 o
0 -4 -6 31.809 32.176 3.641 27.234 o
0 -4 -5 56.885 55.931 2.547 32.452 o
0 -4 -4 201.678 202.358 8.316 2.986 o
0 -4 -3 206.856 216.813 4.492 4.269 o
0 -4 -2 31.573 33.525 1.615 84.238 o
0 -4 -1 3.287 3.902 0.843 529.277 o
0 -3 -12 17.139 19.191 3.306 36.023 o
0 -3 -11 6.594 6.057 1.374 203.833 o
0 -3 -10 3.758 1.692 1.084 339.700 o
0 -3 -9 20.115 20.266 2.186 72.303 o
0 -3 -8 80.531 81.340 4.106 14.364 o
0 -3 -7 21.721 22.810 1.603 110.175 o
0 -3 -6 31.808 33.920 1.876 70.918 o
0 -3 -5 89.225 83.965 2.680 19.313 o
0 -3 -4 259.697 260.611 6.457 2.627 o
0 -3 -3 611.750 641.870 5.649 0.606 o
0 -3 -2 71.379 76.069 1.760 31.089 o
0 -3 -1 530.881 532.212 4.356 0.834 o
0 -2 -13 2.113 2.504 0.959 437.458 o
0 -2 -12 39.749 43.635 3.695 24.527 o
0 -2 -11 72.174 61.840 4.054 16.446 o
0 -2 -10 170.420 183.562 6.605 4.292 o
0 -2 -9 116.614 117.986 5.638 7.404 o
0 -2 -8 99.612 99.163 4.285 11.428 o
0 -2 -7 29.287 29.163 2.192 61.982 o
0 -2 -6 563.851 611.874 13.050 0.565 o
0 -2 -5 310.714 321.800 4.361 2.197 o
0 -2 -4 325.153 334.082 4.151 2.054 o
0 -2 -3 328.390 329.425 3.365 2.107 o
0 -2 -2 85.997 83.014 1.633 25.398 o
0 -2 -1 589.778 558.527 3.616 0.714 o
0 -1 -13 39.575 42.881 4.117 20.680 o
0 -1 -12 97.983 93.722 4.988 9.965 o
0 -1 -11 175.415 173.659 5.634 4.873 o
0 -1 -10 248.486 245.934 4.706 3.234 o
0 -1 -9 704.910 722.667 9.007 0.446 o
0 -1 -8 29.420 29.778 1.221 118.171 o
0 -1 -7 62.451 54.672 1.536 43.775 o
0 -1 -6 80.922 74.632 1.660 28.386 o
0 -1 -5 305.007 313.266 4.013 2.318 o
0 -1 -4 267.478 270.497 2.663 3.145 o
0 -1 -3 155.679 143.975 1.772 9.347 o
0 -1 -2 1136.420 1152.770 10.406 0.181 o
0 -1 -1 384.637 367.409 2.382 1.651 o
0 0 -12 16.231 22.778 2.816 47.973 o
0 0 -10 139.147 133.307 3.976 8.396 o
0 0 -8 30.525 31.108 1.775 78.786 o
0 0 -6 23.829 26.201 1.931 80.689 o
0 0 -4 1265.810 1168.310 5.879 0.161 o
0 0 -2 1554.270 1633.910 13.021 0.096 o
0 0 2 1581.410 1626.440 10.146 0.095 o
0 0 4 1269.760 1174.350 11.824 0.154 o
0 0 6 21.285 24.199 0.959 190.519 o
0 0 8 31.376 31.099 3.142 34.965 o
0 0 10 133.945 130.352 7.039 5.179 o
0 0 12 16.555 15.631 2.750 51.064 o
0 1 1 382.937 366.172 2.321 1.666 o
0 1 2 1138.610 1171.460 6.717 0.184 o
0 1 3 149.184 139.012 1.680 10.118 o
0 1 4 270.248 277.837 2.112 3.112 o
0 1 5 313.924 317.979 2.565 2.335 o
0 1 6 79.394 76.906 1.231 31.110 o
0 1 7 62.657 54.477 1.004 50.729 o
0 1 8 29.543 29.474 1.152 123.870 o
0 1 9 699.047 727.865 7.637 0.459 o
0 1 10 247.594 252.174 4.242 3.306 o
0 1 11 177.583 173.349 5.752 4.755 o
0 1 12 98.540 93.382 7.381 5.886 o
0 1 13 38.188 40.439 5.101 14.502 o
0 2 0 21.219 23.752 0.852 210.522 o
0 2 1 593.235 567.854 5.309 0.684 o
0 2 2 82.608 78.140 1.713 26.860 o
0 2 3 329.783 329.047 3.193 2.109 o
0 2 4 315.668 323.672 3.014 2.262 o
0 2 5 305.779 320.988 4.431 2.235 o
0 2 6 562.774 601.168 6.050 0.695 o
0 2 7 29.820 29.983 1.359 106.529 o
0 2 8 101.779 103.993 2.491 16.220 o
0 2 9 118.249 116.096 3.933 10.277 o
0 2 10 170.302 185.816 5.088 5.197 o
0 2 11 73.299 61.834 6.384 8.460 o
0 2 12 40.727 51.276 5.992 10.624 o
0 2 13 2.281 2.978 1.596 163.492 o
0 3 0 69.471 70.187 1.815 32.650 o
0 3 1 528.639 528.684 4.918 0.834 o
0 3 2 73.911 76.603 1.835 29.416 o
0 3 3 614.830 655.008 5.124 0.599 o
0 3 4 263.078 265.783 3.927 3.051 o
0 3 5 85.904 79.954 2.280 22.462 o
0 3 6 33.255 37.545 1.486 85.331 o
0 3 7 22.282 24.188 1.614 106.952 o
0 3 8 82.283 81.435 2.755 20.515 o
0 3 9 20.667 17.479 1.758 102.491 o
0 3 10 4.073 4.766 0.951 415.040 o
0 3 11 6.687 3.363 1.226 254.864 o
0 3 12 16.894 17.116 2.823 48.386 o
0 4 0 27.549 33.373 1.776 81.055 o
0 4 1 2.572 2.355 0.503 1346.630 o
0 4 2 29.673 30.597 1.721 83.114 o
0 4 3 206.327 208.588 3.864 4.616 o
0 4 4 205.202 214.344 5.533 3.916 o
0 4 5 59.467 58.103 2.780 28.590 o
0 4 6 33.689 33.014 2.048 62.604 o
0 4 7 118.379 108.254 5.412 7.862 o
0 4 8 84.423 84.601 4.858 11.360 o
0 4 9 57.817 55.619 3.481 22.590 o
0 4 10 1.828 0.612 0.539 1315.370 o
0 4 11 42.297 47.532 5.201 13.640 o
0 5 0 193.350 192.878 6.783 3.752 o
0 5 1 109.203 122.610 10.039 3.409 o
0 5 2 91.454 85.279 5.226 9.962 o
0 5 3 41.396 38.944 2.414 44.926 o
0 5 4 83.831 81.451 4.868 11.466 o
0 5 5 51.059 45.754 3.753 22.140 o
0 5 6 190.549 197.818 13.106 1.784 o
0 5 7 37.838 38.546 3.590 26.391 o
0 5 8 44.980 42.709 3.878 22.102 o
0 5 9 30.080 33.998 3.027 37.073 o
0 5 10 9.262 11.302 1.837 113.713 o
0 6 0 0.278 2.198 0.697 841.317 o
0 6 1 52.775 48.532 3.924 20.337 o
0 6 2 32.506 32.973 3.319 31.540 o
0 6 3 161.551 163.045 7.887 3.865 o
0 6 4 11.589 9.994 1.914 103.894 o
0 6 5 49.797 60.194 4.749 14.964 o
0 6 6 30.853 25.901 4.542 18.802 o
0 6 7 16.476 18.169 3.862 27.072 o
0 6 8 3.205 3.765 1.396 209.062 o
0 7 0 102.074 99.870 4.422 10.882 o
0 7 1 2.454 1.859 0.898 494.026 o
0 7 2 26.024 34.072 4.421 19.800 o
0 7 3 27.081 31.401 3.624 28.210 o
0 7 4 29.188 32.924 3.753 26.168 o
0 7 5 4.365 8.810 2.033 98.872 o
1 -7 -5 25.360 24.543 3.219 35.660 o
1 -7 -4 14.773 15.483 2.459 63.250 o
1 -7 -3 4.357 5.328 1.512 176.063 o
1 -7 -2 6.904 8.966 1.751 128.332 o
1 -7 -1 17.679 15.863 1.786 105.340 o
1 -6 -8 0.338 0.335 0.663 954.420 o
1 -6 -7 10.163 8.998 1.953 101.981 o
1 -6 -6 31.706 30.877 3.371 31.115 o
1 -6 -5 2.856 1.580 0.626 939.712 o
1 -6 -4 23.535 23.750 2.057 75.058 o
1 -6 -3 30.283 30.451 2.262 58.198 o
1 -6 -2 9.265 7.929 1.197 243.220 o
1 -6 -1 267.132 264.786 6.490 2.529 o
1 -5 -10 95.963 94.401 5.428 9.076 o
1 -5 -9 4.466 5.015 1.202 269.906 o
1 -5 -8 6.271 4.132 0.901 434.220 o
1 -5 -7 32.552 30.979 2.566 47.329 o
1 -5 -6 126.754 124.013 4.280 8.891 o
1 -5 -5 27.866 25.350 1.902 78.445 o
1 -5 -4 94.845 86.296 4.763 10.921 o
1 -5 -3 48.691 47.829 2.505 37.752 o
1 -5 -2 117.092 111.573 3.803 10.785 o
1 -5 -1 27.497 28.325 1.880 78.394 o
1 -4 -11 20.151 25.916 2.887 44.300 o
1 -4 -10 11.477 13.697 2.022 92.689 o
1 -4 -9 64.617 60.266 3.941 18.023 o
1 -4 -8 2.205 2.120 0.844 557.022 o
1 -4 -7 152.195 145.283 3.300 8.145 o
1 -4 -6 5.428 4.937 0.698 659.123 o
1 -4 -5 39.527 38.236 3.113 32.504 o
1 -4 -4 60.021 61.849 2.634 29.434 o
1 -4 -3 85.593 81.048 2.840 19.478 o
1 -4 -2 152.428 150.876 4.854 6.452 o
1 -4 -1 56.538 58.002 2.339 34.887 o
1 -3 -12 15.154 15.083 2.197 77.041 o
1 -3 -11 41.628 46.046 3.640 24.622 o
1 -3 -10 3.585 1.843 0.962 425.066 o
1 -3 -9 71.902 76.458 4.193 15.063 o
1 -3 -8 156.244 160.201 7.015 4.498 o
1 -3 -7 151.851 122.747 5.831 5.971 o
1 -3 -6 21.414 22.388 1.123 168.553 o
1 -3 -5 307.392 290.617 4.405 2.356 o
1 -3 -4 669.291 719.684 10.010 0.465 o
1 -3 -3 28.868 25.041 2.590 49.666 o
1 -3 -2 191.492 199.841 4.189 4.960 o
1 -3 -1 612.763 647.019 5.182 0.606 o
1 -2 -13 15.017 11.786 2.245 75.320 o
1 -2 -12 6.038 6.254 1.426 191.595 o
1 -2 -11 63.093 65.346 4.866 13.343 o
1 -2 -10 277.941 287.514 8.243 2.045 o
1 -2 -9 59.415 56.196 2.842 28.220 o
1 -2 -8 47.419 44.502 3.758 22.716 o
1 -2 -7 391.219 399.293 8.045 1.264 o
1 -2 -6 151.161 144.891 4.463 6.998 o
1 -2 -5 269.134 294.344 3.744 2.821 o
1 -2 -4 253.391 264.647 3.523 3.267 o
1 -2 -3 798.964 820.612 8.495 0.356 o
1 -2 -2 518.221 527.287 4.799 0.858 o
1 -2 -1 61.008 59.354 1.309 46.192 o
1 -1 -13 30.595 33.852 3.754 25.900 o
1 -1 -12 15.625 16.681 1.985 90.487 o
1 -1 -11 6.248 5.476 1.032 340.046 o
1 -1 -10 194.263 190.829 4.546 4.830 o
1 -1 -9 81.622 74.547 3.492 17.350 o
1 -1 -8 70.539 76.270 2.325 26.837 o
1 -1 -7 467.035 481.509 5.409 1.019 o
1 -1 -6 40.473 39.978 1.356 78.013 o
1 -1 -5 69.772 71.633 1.871 31.725 o
1 -1 -4 483.088 493.868 4.495 0.983 o
1 -1 -3 278.677 260.451 2.502 3.075 o
1 -1 -2 616.690 589.409 4.239 0.646 o
1 -1 -1 1297.530 1265.480 11.224 0.143 o
1 0 -14 0.321 1.724 1.247 271.525 o
1 0 -12 10.401 14.801 4.371 21.785 o
1 0 -10 214.111 208.409 4.946 4.035 o
1 0 -8 320.344 333.595 7.001 1.810 o
1 0 -6 1189.740 1227.710 9.394 0.166 o
1 0 -4 1610.020 1627.800 17.189 0.089 o
1 0 -2 1899.800 1732.950 21.122 0.068 o
1 0 2 7406.100 7014.160 59.530 0.005 o
1 0 4 393.124 363.999 4.237 1.542 o
1 0 6 99.073 110.682 3.698 12.576 o
1 0 8 50.368 45.667 2.755 33.626 o
1 0 10 105.606 101.818 6.305 7.050 o
1 0 12 115.411 120.427 7.502 5.196 o
1 1 0 1748.070 1669.660 8.120 0.083 o
1 1 1 2118.000 2077.020 14.040 0.055 o
1 1 2 2146.520 2058.740 5.490 0.055 o
1 1 3 3445.760 3432.840 19.506 0.021 o
1 1 4 165.529 169.123 2.734 7.305 o
1 1 5 481.488 517.080 3.309 0.978 o
1 1 6 291.428 295.818 4.528 2.467 o
1 1 7 235.565 224.645 2.694 4.107 o
1 1 8 26.355 26.762 0.895 166.394 o
1 1 9 66.261 64.673 1.402 39.747 o
1 1 10 34.195 34.264 2.494 47.712 o
1 1 11 257.492 249.596 11.656 1.694 o
1 1 12 4.626 2.900 1.503 179.801 o
1 1 13 8.409 9.276 2.458 67.164 o
1 2 0 641.426 647.215 4.998 0.573 o
1 2 1 746.325 770.791 6.443 0.415 o
1 2 2 209.961 208.206 3.193 4.774 o
1 2 3 22.174 23.099 0.874 202.591 o
1 2 4 69.706 71.406 1.488 35.164 o
1 2 5 400.071 438.977 4.363 1.339 o
1 2 6 274.540 285.631 4.965 2.625 o
1 2 7 183.979 187.427 4.796 4.999 o
1 2 8 87.586 87.431 3.367 16.246 o
1 2 9 73.854 72.606 3.133 20.741 o
1 2 10 92.043 87.419 7.267 6.213 o
1 2 11 9.151 15.261 3.213 39.615 o
1 2 12 15.638 15.275 3.398 34.734 o
1 2 13 0.072 0.207 0.727 804.635 o
1 3 0 147.318 149.252 2.927 8.701 o
1 3 1 90.367 86.687 2.528 19.541 o
1 3 2 93.673 95.750 2.654 17.605 o
1 3 3 24.964 23.482 1.293 132.707 o
1 3 4 235.371 222.196 3.990 3.817 o
1 3 5 16.344 14.124 0.921 267.093 o
1 3 6 50.306 52.140 1.759 49.617 o
1 3 7 39.466 40.007 2.202 50.965 o
1 3 8 107.921 100.678 4.153 11.092 o
1 3 9 5.784 3.484 0.924 425.287 o
1 3 10 13.525 15.847 1.729 117.113 o
1 3 11 10.966 13.093 2.394 68.722 o
1 3 12 3.142 2.259 1.582 165.717 o
1 4 0 42.191 39.453 2.243 48.393 o
1 4 1 21.851 21.356 1.657 106.408 o
1 4 2 26.629 24.648 2.289 61.452 o
1 4 3 168.834 164.524 4.807 5.732 o
1 4 4 146.503 141.077 4.619 7.099 o
1 4 5 103.913 93.631 5.068 9.476 o
1 4 6 86.370 89.001 3.490 15.797 o
1 4 7 59.690 61.020 3.529 21.443 o
1 4 8 49.237 48.552 3.238 27.316 o
1 4 9 6.399 6.629 1.330 215.756 o
1 4 10 12.447 13.921 1.863 105.812 o
1 4 11 16.200 15.032 2.795 49.795 o
1 5 0 102.275 96.257 3.672 13.027 o
1 5 1 24.183 25.627 2.577 52.021 o
1 5 2 128.388 121.691 5.733 6.808 o
1 5 3 21.209 21.895 2.486 57.514 o
1 5 4 28.050 29.344 2.972 39.433 o
1 5 5 18.469 16.817 2.300 68.613 o
1 5 6 30.148 35.143 4.567 18.353 o
1 5 7 21.320 20.640 4.898 16.941 o
1 5 8 62.081 58.256 3.939 18.465 o
1 5 9 10.865 13.986 1.998 95.084 o
1 5 10 34.502 35.069 3.206 32.658 o
1 6 0 20.219 21.268 1.823 95.152 o
1 6 1 108.824 108.103 5.070 8.870 o
1 6 2 45.283 47.112 3.961 21.070 o
1 6 3 62.823 68.613 4.898 13.127 o
1 6 4 2.946 1.414 1.108 331.064 o
1 6 5 42.418 39.207 3.910 22.363 o
1 6 6 13.229 16.007 2.562 59.208 o
1 6 7 44.223 49.409 4.568 16.776 o
1 6 8 7.920 8.212 1.617 147.473 o
1 7 0 57.564 54.697 3.707 20.906 o
1 7 1 16.952 12.729 2.249 73.554 o
1 7 2 45.417 48.360 4.454 17.427 o
1 7 3 12.386 15.511 2.616 57.382 o
1 7 4 20.584 26.068 3.436 32.492 o
2 -7 -5 13.373 10.338 3.235 38.858 o
2 -7 -4 15.502 14.007 4.432 20.988 o
2 -7 -3 17.805 16.881 2.468 61.107 o
2 -7 -2 14.827 16.158 2.365 67.587 o
2 -7 -1 16.599 13.723 2.277 71.917 o
2 -6 -8 0.991 1.050 0.667 912.989 o
2 -6 -7 39.714 46.121 3.319 28.652 o
2 -6 -6 12.951 11.888 2.096 86.562 o
2 -6 -5 46.256 43.891 2.934 32.576 o
2 -6 -4 10.580 10.299 2.169 83.413 o
2 -6 -3 11.964 10.679 1.399 175.632 o
2 -6 -2 57.625 60.554 3.990 18.540 o
2 -6 -1 13.959 12.992 1.450 157.387 o
2 -5 -10 40.348 47.709 3.817 22.943 o
2 -5 -9 2.062 3.773 1.058 359.610 o
2 -5 -8 83.523 83.924 4.537 12.444 o
2 -5 -7 26.142 32.068 2.299 59.003 o
2 -5 -6 15.507 14.994 1.350 167.293 o
2 -5 -5 11.329 10.386 1.291 202.446 o
2 -5 -4 95.246 104.584 5.018 9.751 o
2 -5 -3 85.090 80.888 3.447 16.664 o
2 -5 -2 51.313 48.803 2.586 35.246 o
2 -5 -1 21.470 25.404 1.808 91.941 o
2 -4 -11 38.215 35.380 3.302 30.341 o
2 -4 -10 2.277 1.253 0.808 609.842 o
2 -4 -9 49.985 48.294 3.442 25.013 o
2 -4 -8 118.664 125.856 5.248 7.744 o
2 -4 -7 168.938 177.866 4.311 5.875 o
2 -4 -6 105.155 106.802 3.026 14.011 o
2 -4 -5 12.385 11.250 1.290 197.089 o
2 -4 -4 31.406 31.498 1.980 68.008 o
2 -4 -3 268.393 261.625 5.536 2.717 o
2 -4 -2 228.929 216.691 4.811 3.739 o
2 -4 -1 177.859 160.899 3.968 6.099 o
2 -3 -12 38.717 37.943 3.442 28.099 o
2 -3 -11 81.152 77.106 5.240 10.666 o
2 -3 -10 50.618 56.632 3.778 21.215 o
2 -3 -9 74.286 65.359 3.847 17.081 o
2 -3 -8 90.983 84.993 3.005 17.469 o
2 -3 -7 284.703 285.257 5.597 2.428 o
2 -3 -6 118.162 132.782 3.393 10.684 o
2 -3 -5 576.462 562.368 6.130 0.703 o
2 -3 -4 9.036 6.872 0.847 421.065 o
2 -3 -3 328.805 341.440 5.795 1.858 o
2 -3 -2 609.216 681.795 7.564 0.566 o
2 -3 -1 50.598 54.555 2.525 35.328 o
2 -2 -13 9.140 11.472 2.268 77.323 o
2 -2 -12 27.543 27.090 3.361 32.442 o
2 -2 -11 206.873 217.338 7.573 3.109 o
2 -2 -10 77.284 79.372 4.322 13.899 o
2 -2 -9 159.459 158.111 4.947 6.014 o
2 -2 -8 210.550 180.033 5.754 4.033 o
2 -2 -7 194.104 188.130 4.081 5.100 o
2 -2 -6 120.654 117.879 3.073 11.712 o
2 -2 -5 300.440 305.366 4.247 2.370 o
2 -2 -4 169.063 159.394 2.886 7.263 o
2 -2 -3 269.141 289.865 3.593 2.870 o
2 -2 -2 486.950 475.923 6.132 0.957 o
2 -2 -1 135.927 149.247 3.759 8.415 o
2 -1 -13 11.153 12.894 1.915 102.830 o
2 -1 -12 8.402 8.055 1.436 181.194 o
2 -1 -11 93.266 88.032 4.451 11.842 o
2 -1 -10 75.572 80.421 4.209 14.460 o
2 -1 -9 17.618 15.495 1.358 158.437 o
2 -1 -8 86.255 81.417 2.741 19.817 o
2 -1 -7 145.252 145.776 2.860 9.015 o
2 -1 -6 232.614 281.881 3.635 3.435 o
2 -1 -5 266.639 274.179 2.938 3.095 o
2 -1 -4 248.883 240.883 3.120 3.606 o
2 -1 -3 562.566 552.734 4.638 0.753 o
2 -1 -2 238.573 253.841 5.495 3.124 o
2 -1 -1 1131.440 1137.770 13.361 0.178 o
2 0 -14 32.420 45.305 6.134 10.487 o
2 0 -12 70.610 65.611 6.804 7.641 o
2 0 -10 331.330 316.411 16.041 0.957 o
2 0 -8 418.477 451.390 7.162 1.139 o
2 0 -6 79.267 83.065 2.783 20.797 o
2 0 -4 2334.740 2436.770 28.570 0.041 o
2 0 -2 101.738 111.647 2.879 14.544 o
2 0 0 83.099 86.109 2.882 19.259 o
2 0 2 774.588 809.468 7.135 0.381 o
2 0 4 297.507 290.705 3.179 2.586 o
2 0 6 283.741 294.034 4.566 2.547 o
2 0 8 38.004 35.372 1.819 66.145 o
2 0 10 741.691 726.675 10.923 0.403 o
2 1 0 7090.540 6981.490 34.533 0.005 o
2 1 1 6696.290 6592.430 21.560 0.006 o
2 1 2 213.737 216.476 3.344 4.525 o
2 1 3 498.221 523.422 3.772 0.923 o
2 1 4 52.242 51.879 1.151 60.357 o
2 1 5 780.903 812.035 5.724 0.382 o
2 1 6 229.421 244.503 3.999 3.721 o
2 1 7 103.371 100.765 2.700 15.581 o
2 1 8 46.171 40.162 1.784 57.255 o
2 1 9 3.061 2.465 1.371 218.255 o
2 1 10 44.033 49.138 5.151 13.737 o
2 1 11 12.577 15.560 3.007 44.271 o
2 1 12 28.214 31.669 4.432 19.642 o
2 2 0 1210.270 1161.230 5.608 0.172 o
2 2 1 154.417 144.912 2.778 8.544 o
2 2 2 866.700 892.429 6.059 0.313 o
2 2 3 534.670 563.121 4.952 0.789 o
2 2 4 501.479 502.498 4.957 0.919 o
2 2 5 65.912 72.549 2.199 30.051 o
2 2 6 15.310 15.359 1.176 202.100 o
2 2 7 28.741 27.208 1.656 90.732 o
2 2 8 0.587 0.915 0.453 1935.840 o
2 2 9 154.135 152.459 5.150 6.096 o
2 2 10 47.607 53.655 5.735 11.190 o
2 2 11 26.137 24.829 4.196 22.138 o
2 2 12 7.864 6.291 2.173 85.890 o
2 3 0 188.313 173.879 4.648 5.147 o
2 3 1 70.172 78.379 2.969 21.957 o
2 3 2 28.995 27.459 1.773 83.104 o
2 3 3 117.174 112.106 3.129 12.195 o
2 3 4 105.068 112.900 3.069 13.555 o
2 3 5 3.408 3.773 0.552 1063.110 o
2 3 6 90.628 91.198 3.846 13.859 o
2 3 7 106.060 104.688 5.377 8.506 o
2 3 8 32.507 30.671 2.380 52.832 o
2 3 9 76.362 78.905 3.899 15.799 o
2 3 10 31.339 26.896 3.391 31.252 o
2 3 11 29.290 32.303 5.158 14.814 o
2 4 0 33.418 32.413 1.654 80.392 o
2 4 1 121.631 124.910 5.221 7.683 o
2 4 2 187.685 184.259 6.501 4.043 o
2 4 3 40.426 34.827 3.901 22.983 o
2 4 4 96.201 94.473 3.829 13.217 o
2 4 5 39.304 33.958 1.938 61.334 o
2 4 6 126.341 123.858 5.000 7.827 o
2 4 7 84.597 77.637 4.324 13.341 o
2 4 8 24.454 25.326 2.418 57.537 o
2 4 9 7.037 6.840 1.331 213.059 o
2 4 10 2.278 1.566 1.428 204.156 o
2 5 0 28.313 30.546 1.899 75.302 o
2 5 1 113.750 109.297 5.496 7.892 o
2 5 2 127.053 121.611 5.901 6.645 o
2 5 3 9.753 9.554 1.835 114.367 o
2 5 4 306.364 307.898 9.760 1.627 o
2 5 5 11.567 9.822 1.808 115.066 o
2 5 6 16.011 15.861 2.419 64.427 o
2 5 7 3.860 4.950 1.232 260.398 o
2 5 8 24.668 22.485 2.484 55.729 o
2 5 9 3.360 3.379 1.053 356.021 o
2 6 0 14.216 13.413 1.432 159.286 o
2 6 1 136.912 134.559 4.354 7.985 o
2 6 2 12.424 14.140 2.262 75.132 o
2 6 3 59.880 62.371 4.813 13.885 o
2 6 4 3.457 3.870 1.219 269.423 o
2 6 5 28.067 33.733 10.153 4.057 o
2 6 6 3.538 6.563 1.794 127.438 o
2 6 7 21.914 23.959 2.759 47.630 o
2 7 0 11.971 10.304 2.114 86.535 o
2 7 1 3.476 2.917 1.275 248.910 o
2 7 2 35.978 36.323 3.955 22.910 o
2 7 3 7.792 10.621 2.151 86.350 o
2 7 4 17.313 19.142 2.976 43.628 o
3 -7 -4 6.359 7.976 1.748 130.037 o
3 -7 -3 8.428 8.151 1.815 118.930 o
3 -7 -2 15.420 19.676 2.828 48.290 o
3 -7 -1 6.368 4.720 2.540 64.364 o
3 -6 -8 4.208 4.592 1.508 177.920 o
3 -6 -7 24.477 22.247 3.070 39.183 o
3 -6 -6 0.916 4.279 1.421 206.368 o
3 -6 -5 68.959 60.800 3.531 19.980 o
3 -6 -4 10.428 10.068 1.434 173.768 o
3 -6 -3 26.269 29.416 2.343 58.097 o
3 -6 -2 8.532 7.361 1.357 200.518 o
3 -6 -1 7.758 9.196 1.459 176.370 o
3 -5 -10 15.009 18.597 2.362 66.989 o
3 -5 -9 6.623 7.947 1.443 184.139 o
3 -5 -8 41.173 42.244 3.189 30.502 o
3 -5 -7 35.648 37.509 2.258 52.596 o
3 -5 -6 3.298 4.215 0.751 643.049 o
3 -5 -5 46.756 50.344 2.940 31.411 o
3 -5 -4 20.247 19.049 1.764 101.413 o
3 -5 -3 38.860 37.884 2.401 46.792 o
3 -5 -2 20.530 18.208 1.727 104.877 o
3 -5 -1 162.263 167.129 5.051 5.706 o
3 -4 -11 10.505 10.965 2.098 88.549 o
3 -4 -10 179.025 175.434 6.857 4.076 o
3 -4 -9 59.111 61.476 4.045 17.967 o
3 -4 -8 1.049 1.055 0.594 1130.420 o
3 -4 -7 96.689 99.837 4.331 11.494 o
3 -4 -6 390.967 365.942 6.349 1.432 o
3 -4 -5 88.304 94.102 3.357 15.760 o
3 -4 -4 55.491 60.034 2.852 28.656 o
3 -4 -3 189.538 196.348 4.977 4.660 o
3 -4 -2 237.525 223.962 5.021 3.477 o
3 -4 -1 324.909 344.178 8.869 1.564 o
3 -3 -12 22.292 27.438 4.047 23.888 o
3 -3 -11 74.443 81.350 4.748 12.471 o
3 -3 -10 143.398 160.166 6.343 5.253 o
3 -3 -9 140.474 139.956 4.128 7.964 o
3 -3 -8 166.296 165.348 4.394 6.113 o
3 -3 -7 14.881 14.646 1.276 184.101 o
3 -3 -6 318.115 337.513 5.684 1.950 o
3 -3 -5 60.657 52.524 2.397 33.586 o
3 -3 -4 48.572 45.735 2.036 47.253 o
3 -3 -3 275.169 289.148 5.460 2.521 o
3 -3 -2 71.295 69.398 2.706 24.606 o
3 -3 -1 384.079 391.597 5.144 1.474 o
3 -2 -13 9.362 10.416 2.261 77.891 o
3 -2 -12 42.968 42.886 4.223 19.498 o
3 -2 -11 44.624 46.732 4.207 19.254 o
3 -2 -10 13.562 14.437 3.188 39.574 o
3 -2 -9 100.168 103.360 6.116 7.483 o
3 -2 -8 133.604 134.097 3.050 10.003 o
3 -2 -7 41.961 39.605 2.002 54.855 o
3 -2 -6 67.208 65.015 2.412 28.890 o
3 -2 -5 40.086 39.247 1.746 64.642 o
3 -2 -4 1330.870 1367.330 10.194 0.133 o
3 -2 -3 126.477 141.176 2.457 11.152 o
3 -2 -2 271.671 271.385 3.370 2.987 o
3 -2 -1 290.055 299.398 6.609 2.172 o
3 -1 -13 16.917 19.055 6.822 8.999 o
3 -1 -12 75.724 67.952 4.137 15.357 o
3 -1 -11 16.721 17.541 2.171 76.635 o
3 -1 -10 64.094 59.693 3.557 20.642 o
3 -1 -9 192.223 191.878 6.049 4.119 o
3 -1 -8 4.514 3.861 0.721 663.798 o
3 -1 -7 281.743 284.143 4.697 2.599 o
3 -1 -6 126.761 136.264 3.080 10.398 o
3 -1 -5 469.471 483.608 5.465 1.008 o
3 -1 -4 727.808 741.744 6.920 0.436 o
3 -1 -3 706.762 701.774 6.257 0.473 o
3 -1 -2 707.713 756.444 6.104 0.451 o
3 -1 -1 377.830 365.156 4.623 1.597 o
3 0 -14 119.017 121.667 10.388 3.163 o
3 0 -12 98.535 99.388 8.856 4.393 o
3 0 -10 386.416 355.465 13.248 1.005 o
3 0 -8 297.673 310.483 16.878 0.956 o
3 0 -6 556.371 632.912 12.012 0.582 o
3 0 -4 486.657 477.317 7.961 0.904 o
3 0 -2 754.665 679.624 23.533 0.289 o
3 0 0 435.132 461.408 5.895 1.123 o
3 0 2 780.643 762.205 12.489 0.357 o
3 0 4 555.199 576.995 8.039 0.693 o
3 0 6 636.339 685.188 12.960 0.470 o
3 0 8 26.777 27.173 2.800 44.239 o
3 0 10 229.907 220.991 8.307 2.640 o
3 1 0 1286.780 1302.130 17.229 0.135 o
3 1 1 1055.440 1056.000 9.136 0.213 o
3 1 2 300.701 292.291 3.619 2.500 o
3 1 3 624.988 617.061 7.424 0.586 o
3 1 4 40.927 46.549 1.287 74.920 o
3 1 5 29.445 36.575 1.308 103.644 o
3 1 6 340.446 366.835 5.213 1.760 o
3 1 7 109.869 112.040 3.806 11.322 o
3 1 8 8.012 7.787 0.777 484.123 o
3 1 9 0.262 0.189 0.247 6467.660 o
3 1 10 34.517 26.345 2.512 48.990 o
3 1 11 13.886 9.751 1.863 106.584 o
3 2 0 1566.660 1533.190 10.739 0.100 o
3 2 1 54.775 66.082 1.832 40.833 o
3 2 2 13.099 15.280 0.744 363.278 o
3 2 3 1074.880 1052.450 6.331 0.213 o
3 2 4 466.677 449.842 5.226 1.068 o
3 2 5 95.533 90.398 2.058 20.084 o
3 2 6 59.843 62.152 2.449 31.486 o
3 2 7 120.343 107.807 4.701 8.969 o
3 2 8 58.678 47.813 5.194 12.812 o
3 2 9 36.764 26.390 4.040 22.562 o
3 2 10 1.853 3.170 1.482 189.414 o
3 2 11 13.646 11.984 3.049 43.254 o
3 2 12 10.665 13.009 3.313 37.308 o
3 3 0 76.241 90.412 1.847 26.153 o
3 3 1 107.763 106.213 2.640 14.784 o
3 3 2 156.639 149.760 2.595 8.427 o
3 3 3 172.123 167.585 3.229 6.700 o
3 3 4 18.278 17.680 1.168 184.997 o
3 3 5 198.553 204.774 4.800 4.448 o
3 3 6 98.664 108.307 6.070 7.526 o
3 3 7 102.512 104.082 4.472 10.592 o
3 3 8 48.735 48.768 3.131 28.659 o
3 3 9 118.670 135.311 5.287 7.500 o
3 3 10 22.518 26.304 4.560 19.177 o
3 3 11 17.300 20.875 4.253 22.389 o
3 4 0 68.342 66.069 3.470 20.062 o
3 4 1 231.229 233.523 4.559 3.632 o
3 4 2 5.110 6.261 0.973 382.523 o
3 4 3 128.248 121.262 3.831 9.613 o
3 4 4 181.129 175.326 4.497 5.417 o
3 4 5 15.592 13.836 1.374 164.566 o
3 4 6 63.761 58.506 3.581 20.614 o
3 4 7 16.589 15.941 1.908 95.967 o
3 4 8 45.077 49.770 3.525 24.920 o
3 4 9 27.028 28.118 2.692 46.857 o
3 4 10 20.178 22.078 3.413 33.273 o
3 5 0 231.222 221.523 6.157 3.248 o
3 5 1 15.030 14.443 1.189 202.542 o
3 5 2 7.367 7.953 1.620 147.977 o
3 5 3 55.407 52.556 4.166 18.107 o
3 5 4 168.722 159.560 7.326 4.105 o
3 5 5 9.813 11.846 1.758 121.916 o
3 5 6 35.210 40.769 3.312 30.270 o
3 5 7 12.126 12.683 1.918 101.664 o
3 5 8 14.130 17.089 2.254 73.668 o
3 6 0 39.646 43.791 4.855 15.626 o
3 6 1 1.222 1.274 1.168 306.199 o
3 6 2 1.822 0.171 0.544 1309.880 o
3 6 3 35.868 41.267 11.072 3.394 o
3 6 4 8.692 11.097 3.455 34.721 o
3 6 5 9.839 12.178 1.950 101.088 o
3 6 6 1.840 1.472 0.771 670.492 o
3 7 0 31.605 31.402 7.007 8.295 o
3 7 1 9.718 10.371 2.129 86.864 o
3 7 2 24.288 25.939 3.429 31.999 o
3 7 3 1.191 1.531 1.138 322.062 o
4 -7 -2 6.860 8.582 2.045 96.222 o
4 -7 -1 1.165 0.806 0.725 775.631 o
4 -6 -7 55.032 60.602 7.794 6.326 o
4 -6 -6 4.584 5.191 1.364 213.354 o
4 -6 -5 16.115 17.363 3.220 38.154 o
4 -6 -4 0.176 -0.443 0.737 782.867 o
4 -6 -3 61.792 57.599 4.612 14.832 o
4 -6 -2 6.361 8.338 1.785 124.776 o
4 -6 -1 10.349 15.167 2.399 68.277 o
4 -5 -10 6.907 7.378 1.947 106.003 o
4 -5 -9 23.596 23.516 3.229 35.953 o
4 -5 -8 37.554 31.499 3.566 27.315 o
4 -5 -7 1.072 2.447 0.701 809.089 o
4 -5 -6 35.188 38.598 2.210 53.971 o
4 -5 -5 19.366 23.523 1.799 96.698 o
4 -5 -4 10.768 14.053 1.209 218.307 o
4 -5 -3 47.620 41.012 2.480 40.114 o
4 -5 -2 4.438 4.788 0.800 551.950 o
4 -5 -1 93.850 91.446 3.050 16.382 o
4 -4 -11 46.714 57.395 4.874 14.652 o
4 -4 -10 71.456 73.150 4.371 14.477 o
4 -4 -9 15.397 12.837 1.751 114.250 o
4 -4 -8 54.843 56.834 2.846 29.352 o
4 -4 -7 135.460 145.285 4.220 7.965 o
4 -4 -6 93.140 89.445 3.141 16.272 o
4 -4 -5 83.126 75.955 2.898 20.098 o
4 -4 -4 100.950 102.225 3.161 14.382 o
4 -4 -3 15.156 14.252 1.328 173.727 o
4 -4 -2 105.747 95.293 3.077 14.476 o
4 -4 -1 73.160 68.278 4.185 15.374 o
4 -3 -12 1.714 1.929 1.014 397.962 o
4 -3 -11 16.919 21.659 2.910 45.202 o
4 -3 -10 137.367 144.239 7.021 4.991 o
4 -3 -9 99.911 88.903 3.920 12.852 o
4 -3 -8 55.818 52.767 2.892 29.131 o
4 -3 -7 285.759 290.887 5.722 2.374 o
4 -3 -6 378.520 376.672 6.076 1.480 o
4 -3 -5 37.324 35.639 1.743 69.635 o
4 -3 -4 71.001 70.404 2.485 26.288 o
4 -3 -3 112.412 108.915 2.827 13.562 o
4 -3 -2 163.677 168.939 8.072 3.701 o
4 -3 -1 374.914 373.454 4.395 1.603 o
4 -2 -13 13.130 12.423 2.426 66.248 o
4 -2 -12 52.048 55.793 4.764 14.887 o
4 -2 -11 18.537 17.411 2.579 56.145 o
4 -2 -10 134.309 139.181 7.823 4.465 o
4 -2 -9 25.172 23.270 1.750 92.509 o
4 -2 -8 41.358 39.871 2.199 49.885 o
4 -2 -7 53.229 50.461 2.630 33.613 o
4 -2 -6 53.504 42.397 2.246 41.279 o
4 -2 -5 47.069 49.223 1.471 60.294 o
4 -2 -4 336.726 351.907 7.031 1.668 o
4 -2 -3 125.015 134.003 3.537 9.884 o
4 -2 -2 539.476 586.061 8.585 0.699 o
4 -2 -1 860.966 898.755 12.038 0.291 o
4 -1 -13 39.228 38.441 4.186 20.384 o
4 -1 -12 33.354 28.019 4.100 22.251 o
4 -1 -11 76.699 78.685 5.579 9.933 o
4 -1 -10 97.699 95.351 5.846 8.169 o
4 -1 -9 89.970 92.823 5.561 9.089 o
4 -1 -8 5.644 5.081 1.367 209.640 o
4 -1 -7 201.739 198.575 5.667 4.062 o
4 -1 -6 31.820 34.240 2.280 55.370 o
4 -1 -5 135.068 128.004 3.572 9.356 o
4 -1 -4 237.586 259.539 4.379 3.370 o
4 -1 -3 597.869 571.521 6.690 0.658 o
4 -1 -2 4.784 3.533 0.479 1201.190 o
4 -1 -1 302.912 308.961 4.783 2.271 o
4 0 -12 27.746 23.112 4.446 19.862 o
4 0 -10 224.094 212.648 12.404 1.769 o
4 0 -8 150.715 163.924 6.825 4.695 o
4 0 -6 544.355 536.580 8.728 0.726 o
4 0 -4 523.775 569.619 10.252 0.697 o
4 0 -2 37.027 33.761 6.241 10.184 o
4 0 0 191.399 189.215 8.845 2.958 o
4 0 2 349.436 327.711 9.504 1.436 o
4 0 4 18.895 17.953 1.484 133.897 o
4 0 6 402.663 387.401 10.922 1.074 o
4 0 8 129.551 128.357 6.562 5.749 o
4 1 0 236.454 246.771 4.561 3.441 o
4 1 1 21.150 24.873 1.363 133.786 o
4 1 2 76.640 84.431 3.490 17.368 o
4 1 3 347.033 364.286 6.095 1.662 o
4 1 4 128.194 129.979 2.410 11.585 o
4 1 5 65.480 63.916 1.822 35.856 o
4 1 6 17.878 17.338 1.128 195.366 o
4 1 7 48.533 48.362 3.108 29.031 o
4 1 8 17.168 17.654 1.696 113.527 o
4 1 9 8.202 10.580 2.216 81.478 o
4 1 10 55.795 49.402 4.809 14.628 o
4 2 0 599.733 579.808 8.203 0.628 o
4 2 1 1008.460 1053.380 7.678 0.229 o
4 2 2 202.355 198.039 4.230 4.690 o
4 2 3 61.306 66.355 1.820 37.359 o
4 2 4 8.281 8.998 0.761 482.340 o
4 2 5 147.343 142.677 3.405 8.378 o
4 2 6 47.365 51.468 2.029 46.349 o
4 2 7 56.825 56.462 2.487 33.136 o
4 2 8 61.211 62.385 4.167 16.971 o
4 2 9 14.377 13.781 2.030 89.540 o
4 2 10 16.313 16.167 2.297 70.289 o
4 2 11 2.132 4.282 1.703 143.551 o
4 3 0 147.056 136.352 3.023 9.021 o
4 3 1 146.601 146.608 3.517 8.185 o
4 3 2 39.914 41.810 2.011 55.334 o
4 3 3 119.824 109.650 2.973 12.393 o
4 3 4 37.170 31.924 1.575 79.392 o
4 3 5 98.622 101.546 3.345 14.120 o
4 3 6 28.474 25.456 1.796 83.696 o
4 3 7 45.654 43.524 4.165 19.626 o
4 3 8 30.510 27.807 4.510 19.003 o
4 3 9 27.461 31.206 4.937 16.174 o
4 3 10 38.462 38.296 3.757 24.467 o
4 4 0 29.667 29.743 1.833 77.651 o
4 4 1 43.546 46.996 2.451 41.158 o
4 4 2 215.238 214.907 4.558 4.093 o
4 4 3 250.269 237.839 4.104 3.404 o
4 4 4 32.140 37.941 2.899 38.417 o
4 4 5 37.197 29.340 2.625 44.156 o
4 4 6 35.763 32.118 2.809 40.035 o
4 4 7 7.214 8.373 1.501 169.759 o
4 4 8 20.842 25.732 2.638 51.445 o
4 4 9 1.159 2.567 1.367 223.697 o
4 5 0 50.752 53.723 4.677 15.497 o
4 5 1 37.895 36.167 2.765 39.452 o
4 5 2 57.531 52.587 4.261 17.298 o
4 5 3 9.397 9.167 1.500 164.397 o
4 5 4 23.953 22.311 2.437 57.889 o
4 5 5 6.427 9.415 1.732 131.256 o
4 5 6 31.177 33.778 3.433 30.026 o
4 5 7 17.678 17.848 2.363 65.702 o
4 5 8 5.567 4.414 1.254 246.752 o
4 6 0 4.058 4.737 1.515 176.560 o
4 6 1 23.758 27.620 2.614 50.595 o
4 6 2 0.710 0.801 2.091 97.274 o
4 6 3 13.895 15.638 2.170 79.443 o
4 6 4 35.181 33.468 3.214 32.557 o
4 6 5 14.887 15.178 2.244 74.367 o
4 7 0 10.278 13.612 2.503 63.453 o
4 7 1 6.303 2.533 1.177 277.820 o
5 -6 -7 62.732 71.902 8.656 5.100 o
5 -6 -6 7.659 10.635 3.997 26.213 o
5 -6 -5 30.526 42.584 4.403 19.266 o
5 -6 -4 4.676 6.277 2.194 85.854 o
5 -6 -3 25.345 26.881 4.424 20.074 o
5 -6 -2 18.036 19.827 2.884 45.866 o
5 -6 -1 19.498 18.017 2.708 51.100 o
5 -5 -9 27.721 27.736 5.486 13.342 o
5 -5 -8 20.870 13.765 3.904 26.318 o
5 -5 -7 12.657 12.830 2.156 82.164 o
5 -5 -6 80.494 83.009 5.294 10.402 o
5 -5 -5 63.224 58.882 4.431 15.544 o
5 -5 -4 100.701 97.864 7.702 5.444 o
5 -5 -3 9.796 8.763 2.394 70.162 o
5 -5 -2 26.379 34.775 4.624 18.202 o
5 -5 -1 55.163 51.333 4.210 17.915 o
5 -4 -11 62.901 67.969 8.713 5.058 o
5 -4 -10 29.797 28.769 5.514 13.130 o
5 -4 -9 25.666 28.007 5.244 14.594 o
5 -4 -8 2.351 3.439 2.504 67.322 o
5 -4 -7 39.938 43.626 8.460 5.666 o
5 -4 -6 39.364 41.526 2.338 47.097 o
5 -4 -5 81.850 75.319 2.829 20.791 o
5 -4 -4 44.028 47.587 1.809 55.252 o
5 -4 -3 49.860 47.321 3.375 25.814 o
5 -4 -2 78.966 80.375 4.510 13.015 o
5 -4 -1 1.891 1.208 0.260 3947.020 o
5 -3 -12 5.902 6.243 1.653 146.017 o
5 -3 -11 29.782 26.444 3.119 36.362 o
5 -3 -10 49.262 46.417 3.465 25.088 o
5 -3 -9 83.096 84.338 3.920 14.696 o
5 -3 -8 18.885 17.665 2.090 79.879 o
5 -3 -7 137.676 136.641 4.386 7.857 o
5 -3 -6 42.342 37.254 1.877 59.213 o
5 -3 -5 244.279 226.240 5.254 3.296 o
5 -3 -4 166.304 161.853 4.650 5.973 o
5 -3 -3 142.032 141.285 4.569 7.337 o
5 -3 -2 192.176 200.603 5.385 4.356 o
5 -3 -1 202.651 197.516 7.353 3.356 o
5 -2 -13 3.166 6.006 2.764 55.032 o
5 -2 -12 83.003 80.964 9.134 4.413 o
5 -2 -11 9.685 13.146 2.946 46.860 o
5 -2 -10 85.706 85.776 4.381 12.720 o
5 -2 -9 130.724 128.140 5.234 7.245 o
5 -2 -8 454.784 462.435 9.555 0.933 o
5 -2 -7 81.479 88.809 6.316 7.951 o
5 -2 -6 34.301 39.903 3.217 31.964 o
5 -2 -5 69.561 76.647 4.255 14.998 o
5 -2 -4 63.575 66.559 3.875 18.162 o
5 -2 -3 50.592 50.726 3.257 26.577 o
5 -2 -2 92.461 96.280 3.666 14.031 o
5 -2 -1 423.005 432.970 7.487 1.138 o
5 -1 -13 38.891 35.503 4.176 20.644 o
5 -1 -12 36.473 38.801 4.219 20.365 o
5 -1 -11 142.616 131.982 7.441 4.675 o
5 -1 -10 64.471 57.140 4.743 14.051 o
5 -1 -9 244.262 244.581 9.358 2.193 o
5 -1 -8 21.160 23.022 2.139 72.969 o
5 -1 -7 343.420 333.068 10.326 1.373 o
5 -1 -6 31.661 35.890 2.477 49.015 o
5 -1 -5 32.817 35.122 2.495 48.151 o
5 -1 -4 207.653 196.572 4.559 4.443 o
5 -1 -3 210.642 196.631 4.372 4.453 o
5 -1 -2 345.892 345.042 5.878 1.738 o
5 -1 -1 33.716 32.856 1.951 66.406 o
5 0 -12 101.634 81.748 8.614 4.660 o
5 0 -10 21.042 23.112 4.332 21.311 o
5 0 -8 198.377 208.309 11.741 2.018 o
5 0 -6 153.942 140.789 5.978 5.539 o
5 0 -4 888.581 941.934 14.194 0.263 o
5 0 -2 498.960 494.018 9.161 0.827 o
5 0 0 907.017 875.381 17.213 0.253 o
5 0 2 559.475 524.271 13.608 0.603 o
5 0 4 28.866 29.532 3.292 33.096 o
5 0 6 225.724 227.581 9.369 2.372 o
5 0 8 49.824 53.442 4.659 15.671 o
5 1 0 123.533 127.583 3.666 9.996 o
5 1 1 296.123 325.143 5.776 2.141 o
5 1 2 131.784 129.668 3.515 9.603 o
5 1 3 146.919 131.171 2.879 9.373 o
5 1 4 33.971 35.860 3.812 24.663 o
5 1 5 74.171 69.160 3.617 18.091 o
5 1 6 38.384 32.528 2.503 45.868 o
5 1 7 106.896 108.007 6.804 6.259 o
5 1 8 72.929 71.652 3.784 17.189 o
5 1 9 1.809 2.016 1.176 298.957 o
5 1 10 63.030 57.895 5.536 11.127 o
5 2 0 30.199 25.087 1.745 84.731 o
5 2 1 507.016 514.133 10.223 0.765 o
5 2 2 257.491 240.607 6.899 2.649 o
5 2 3 49.081 45.324 3.046 30.063 o
5 2 4 66.480 69.519 2.438 28.170 o
5 2 5 26.813 27.046 1.354 117.170 o
5 2 6 50.719 56.831 3.341 25.055 o
5 2 7 3.846 4.123 0.937 432.099 o
5 2 8 20.514 25.756 3.826 26.753 o
5 2 9 1.809 1.810 0.990 416.518 o
5 2 10 58.299 73.597 6.754 7.932 o
5 3 0 345.106 343.671 9.202 1.449 o
5 3 1 363.228 347.827 6.432 1.595 o
5 3 2 43.108 43.846 2.461 41.887 o
5 3 3 18.954 15.234 1.540 129.908 o
5 3 4 392.924 372.559 5.695 1.447 o
5 3 5 66.919 75.028 5.012 12.241 o
5 3 6 1.080 2.358 1.176 301.089 o
5 3 7 13.977 13.088 2.821 49.808 o
5 3 8 3.477 2.700 1.354 222.488 o
5 3 9 14.289 13.152 3.014 43.970 o
5 4 0 206.702 195.176 4.323 4.580 o
5 4 1 44.321 43.902 2.373 43.096 o
5 4 2 6.754 7.189 2.800 52.916 o
5 4 3 6.821 10.239 3.605 32.163 o
5 4 4 159.468 158.298 7.503 4.151 o
5 4 5 70.796 65.938 5.201 11.636 o
5 4 6 13.314 11.682 1.786 114.065 o
5 4 7 40.852 41.458 3.451 27.258 o
5 4 8 14.994 17.893 2.734 51.753 o
5 5 0 81.379 79.678 4.364 13.377 o
5 5 1 4.534 4.567 1.194 274.151 o
5 5 2 34.438 32.846 2.881 38.853 o
5 5 3 5.097 5.735 1.245 249.353 o
5 5 4 50.844 47.763 3.623 23.168 o
5 5 5 19.292 20.456 2.105 77.419 o
5 5 6 12.188 14.456 1.866 105.508 o
5 5 7 9.119 10.873 1.960 101.461 o
5 6 0 8.913 7.253 1.845 115.331 o
5 6 1 20.877 27.624 2.845 44.926 o
5 6 2 1.753 2.477 0.822 589.116 o
5 6 3 14.017 10.689 2.308 72.496 o
5 6 4 6.480 5.708 1.406 196.275 o
6 -6 -5 24.479 26.932 3.477 31.110 o
6 -6 -4 2.139 2.560 1.246 265.139 o
6 -6 -3 50.440 50.317 4.400 17.234 o
6 -6 -2 3.248 5.269 1.558 168.334 o
6 -6 -1 14.174 14.153 4.403 21.314 o
6 -5 -8 35.457 23.326 5.023 15.478 o
6 -5 -7 3.336 2.412 1.582 165.353 o
6 -5 -6 59.474 61.604 4.872 13.684 o
6 -5 -5 8.128 6.971 1.668 139.910 o
6 -5 -4 41.402 41.286 3.059 32.446 o
6 -5 -3 17.007 15.458 2.340 67.847 o
6 -5 -2 37.094 36.807 3.601 26.526 o
6 -5 -1 9.745 12.341 2.150 84.690 o
6 -4 -10 4.317 3.997 2.323 77.419 o
6 -4 -9 48.463 45.482 4.184 19.091 o
6 -4 -8 31.218 35.242 7.399 7.458 o
6 -4 -7 12.374 14.514 2.289 73.453 o
6 -4 -6 13.118 15.438 2.330 70.497 o
6 -4 -5 15.751 18.445 1.824 102.711 o
6 -4 -4 0.771 1.109 0.573 1223.450 o
6 -4 -3 29.586 31.987 2.867 40.873 o
6 -4 -2 54.047 46.834 3.048 28.574 o
6 -4 -1 157.179 170.183 7.955 3.839 o
6 -3 -11 64.365 66.729 8.528 5.248 o
6 -3 -10 16.024 19.127 3.605 30.810 o
6 -3 -9 49.800 50.086 4.266 18.161 o
6 -3 -8 22.279 22.377 2.837 45.537 o
6 -3 -7 4.866 3.391 1.104 317.240 o
6 -3 -6 7.912 10.767 1.884 110.182 o
6 -3 -5 166.619 163.704 7.016 4.288 o
6 -3 -4 23.437 23.546 2.597 52.154 o
6 -3 -3 89.257 85.271 3.734 14.716 o
6 -3 -2 13.745 11.865 2.065 88.235 o
6 -3 -1 45.265 43.944 2.748 35.768 o
6 -2 -12 13.734 14.036 3.933 26.537 o
6 -2 -11 49.286 54.091 5.072 13.669 o
6 -2 -10 54.889 52.842 3.664 21.784 o
6 -2 -9 6.683 7.470 1.343 209.819 o
6 -2 -8 94.267 91.090 4.505 11.507 o
6 -2 -7 70.031 73.115 3.872 16.994 o
6 -2 -6 492.964 489.615 12.001 0.753 o
6 -2 -5 68.987 69.269 4.407 14.701 o
6 -2 -4 34.612 34.829 3.876 23.965 o
6 -2 -3 8.763 9.292 1.663 138.040 o
6 -2 -2 98.441 101.997 5.221 9.217 o
6 -2 -1 53.741 48.859 2.730 32.342 o
6 -1 -13 23.997 32.107 4.068 23.286 o
6 -1 -12 34.965 35.240 4.131 21.445 o
6 -1 -11 9.379 9.827 2.176 83.838 o
6 -1 -10 9.603 11.070 2.178 83.174 o
6 -1 -9 117.018 111.349 5.101 8.357 o
6 -1 -8 11.179 11.127 1.765 119.754 o
6 -1 -7 321.806 313.313 8.019 1.745 o
6 -1 -6 160.219 162.447 4.842 6.007 o
6 -1 -5 259.371 256.734 6.387 2.664 o
6 -1 -4 85.581 84.167 3.198 17.496 o
6 -1 -3 198.814 198.290 4.695 4.562 o
6 -1 -2 34.860 37.638 1.935 63.783 o
6 -1 -1 103.483 107.036 3.820 12.021 o
6 0 -12 94.211 100.044 9.811 3.743 o
6 0 -10 62.313 58.350 6.961 7.610 o
6 0 -8 296.536 282.173 16.682 0.994 o
6 0 -6 456.197 421.821 10.973 0.914 o
6 0 -4 494.754 492.203 12.115 0.745 o
6 0 -2 97.782 94.475 4.330 11.615 o
6 0 0 478.645 455.284 8.222 0.937 o
6 0 2 154.908 155.017 8.243 3.805 o
6 0 4 216.483 230.054 10.096 2.248 o
6 0 6 15.714 15.218 2.679 53.898 o
6 0 8 16.460 17.448 2.950 44.753 o
6 1 0 66.856 67.604 2.905 24.317 o
6 1 1 37.849 40.435 2.148 53.389 o
6 1 2 19.625 22.644 1.462 129.141 o
6 1 3 235.550 238.481 3.898 3.691 o
6 1 4 13.781 12.176 1.692 123.870 o
6 1 5 38.849 39.819 3.055 33.391 o
6 1 6 15.148 13.297 1.837 105.513 o
6 1 7 73.320 76.148 4.285 14.546 o
6 1 8 12.960 12.910 2.786 51.298 o
6 1 9 0.280 0.171 0.492 1728.690 o
6 2 0 16.319 15.871 1.517 138.029 o
6 2 1 5.962 6.617 0.968 376.042 o
6 2 2 32.982 33.021 2.041 63.440 o
6 2 3 61.972 57.319 2.593 29.970 o
6 2 4 165.816 175.024 6.548 4.488 o
6 2 5 91.773 89.077 4.677 11.263 o
6 2 6 76.328 77.577 4.322 14.061 o
6 2 7 8.135 13.964 2.942 47.193 o
6 2 8 6.672 8.728 2.408 70.585 o
6 2 9 9.875 10.801 2.736 54.184 o
6 3 0 245.589 258.177 8.627 2.293 o
6 3 1 80.776 78.851 4.928 11.555 o
6 3 2 61.027 50.984 4.506 15.688 o
6 3 3 269.863 301.328 13.508 1.324 o
6 3 4 71.269 65.838 6.441 8.340 o
6 3 5 17.320 12.546 3.049 42.453 o
6 3 6 41.463 33.621 4.766 16.344 o
6 3 7 6.930 8.215 2.508 65.292 o
6 3 8 1.459 1.318 1.204 287.829 o
6 3 9 8.568 14.128 3.370 36.291 o
6 4 0 122.339 117.775 7.370 5.219 o
6 4 1 17.900 18.036 2.482 60.179 o
6 4 2 24.655 23.464 2.965 41.392 o
6 4 3 14.642 16.114 2.582 57.857 o
6 4 4 3.044 4.315 1.436 198.037 o
6 4 5 0.348 0.996 0.680 898.793 o
6 4 6 4.369 5.963 2.159 88.838 o
6 4 7 20.998 23.803 4.346 21.160 o
6 5 0 26.537 27.331 3.263 34.297 o
6 5 1 13.329 18.742 2.772 50.842 o
6 5 2 17.546 15.814 2.599 56.114 o
6 5 3 2.507 1.744 1.124 323.165 o
6 5 4 3.137 4.136 2.504 67.066 o
6 5 5 3.209 3.374 3.430 36.012 o
6 5 6 11.313 12.080 3.733 29.623 o
6 6 0 1.749 6.484 1.745 136.158 o
6 6 1 22.063 23.589 4.848 17.176 o
6 6 2 0.059 -0.317 0.611 1141.700 o
7 -5 -7 1.295 2.724 1.251 265.632 o
7 -5 -6 68.906 70.443 5.935 9.504 o
7 -5 -5 16.311 14.496 3.491 32.984 o
7 -5 -4 40.905 37.638 5.600 12.228 o
7 -5 -3 4.284 5.341 1.212 266.141 o
7 -5 -2 20.316 19.576 2.272 68.012 o
7 -5 -1 13.281 10.297 2.201 79.549 o
7 -4 -9 17.765 18.004 2.815 48.240 o
7 -4 -8 3.302 4.443 2.209 85.736 o
7 -4 -7 63.733 61.533 4.942 13.119 o
7 -4 -6 11.073 9.688 1.956 100.532 o
7 -4 -5 11.498 12.771 2.303 73.572 o
7 -4 -4 19.957 17.428 2.534 57.294 o
7 -4 -3 36.721 40.056 2.955 35.629 o
7 -4 -2 16.698 15.801 2.187 76.354 o
7 -4 -1 30.517 27.288 2.481 51.651 o
7 -3 -11 58.569 65.888 8.756 5.063 o
7 -3 -10 15.962 18.805 4.642 19.065 o
7 -3 -9 90.130 97.444 11.610 2.821 o
7 -3 -8 23.039 21.014 3.740 27.865 o
7 -3 -7 65.984 64.667 4.901 13.037 o
7 -3 -6 4.434 5.005 1.763 131.581 o
7 -3 -5 0.150 0.782 0.806 649.885 o
7 -3 -4 13.247 14.479 2.186 79.209 o
7 -3 -3 29.210 27.366 2.970 39.427 o
7 -3 -2 3.473 1.162 1.532 176.671 o
7 -3 -1 4.749 5.679 1.366 211.584 o
7 -2 -12 14.427 17.997 4.603 19.466 o
7 -2 -11 62.533 64.686 5.161 12.264 o
7 -2 -10 29.669 31.659 2.979 38.490 o
7 -2 -9 116.074 114.604 5.509 7.677 o
7 -2 -8 4.838 6.167 1.290 233.857 o
7 -2 -7 2.486 2.044 0.791 623.255 o
7 -2 -6 197.003 188.863 7.944 3.243 o
7 -2 -5 132.343 132.192 6.466 5.732 o
7 -2 -4 120.424 110.237 4.790 8.748 o
7 -2 -3 23.170 20.162 2.005 80.088 o
7 -2 -2 197.831 194.732 6.004 4.016 o
7 -2 -1 6.576 6.920 1.141 280.519 o
7 -1 -12 15.837 11.040 3.366 35.630 o
7 -1 -11 18.742 23.983 4.250 22.220 o
7 -1 -10 32.988 31.815 2.939 38.296 o
7 -1 -9 1.006 1.000 0.594 1136.950 o
7 -1 -8 13.964 16.109 2.010 90.425 o
7 -1 -7 222.387 234.928 6.356 3.215 o
7 -1 -6 1.810 1.627 0.536 1294.770 o
7 -1 -5 61.242 56.414 2.917 26.933 o
7 -1 -4 38.079 39.923 2.362 47.636 o
7 -1 -3 382.448 387.526 10.556 1.150 o
7 -1 -2 12.582 13.715 1.270 196.048 o
7 -1 -1 101.002 98.454 6.665 6.706 o
7 0 -12 82.784 86.051 9.333 4.231 o
7 0 -10 90.288 83.180 8.564 4.830 o
7 0 -8 155.117 163.582 7.696 4.061 o
7 0 -6 220.629 203.699 8.094 2.867 o
7 0 -4 495.240 468.002 30.016 0.325 o
7 0 -2 48.176 45.311 3.201 28.347 o
7 0 0 5.151 5.396 1.550 166.778 o
7 0 2 80.802 69.515 6.035 8.860 o
7 0 4 80.092 87.091 6.868 7.055 o
7 0 6 47.109 47.436 5.137 13.684 o
7 0 8 64.997 64.934 6.127 9.255 o
7 1 0 129.982 140.912 4.566 7.883 o
7 1 1 74.950 71.304 3.083 20.974 o
7 1 2 26.958 24.067 1.611 99.209 o
7 1 3 125.446 110.350 8.208 4.510 o
7 1 4 10.298 10.080 1.725 126.556 o
7 1 5 39.527 45.509 3.576 25.698 o
7 1 6 7.905 8.453 1.618 147.032 o
7 1 7 63.829 73.015 4.561 14.294 o
7 1 8 6.871 6.348 2.066 95.117 o
7 1 9 5.390 4.524 1.838 120.869 o
7 2 0 57.650 57.675 3.115 25.712 o
7 2 1 18.466 19.907 1.771 102.785 o
7 2 2 95.217 94.314 3.704 13.722 o
7 2 3 24.018 21.704 1.678 100.769 o
7 2 4 19.505 14.628 2.836 47.605 o
7 2 5 38.560 38.134 3.355 29.246 o
7 2 6 66.645 72.381 4.603 13.920 o
7 2 7 6.601 4.930 2.038 98.294 o
7 2 8 4.995 8.450 2.536 64.407 o
7 3 0 122.858 109.862 5.430 7.627 o
7 3 1 10.615 7.597 1.389 186.304 o
7 3 2 15.871 14.059 1.578 132.755 o
7 3 3 31.939 28.986 2.187 60.320 o
7 3 4 11.130 11.076 1.910 104.179 o
7 3 5 81.725 71.574 7.317 6.500 o
7 3 6 9.402 11.798 3.113 42.318 o
7 3 7 1.688 -1.674 1.339 234.555 o
7 4 0 108.683 100.686 4.762 9.679 o
7 4 1 107.116 101.933 6.343 6.950 o
7 4 2 14.872 15.855 4.905 17.229 o
7 4 3 29.007 34.091 5.222 14.455 o
7 4 4 20.887 24.081 4.396 20.711 o
7 4 5 25.188 27.985 4.902 16.581 o
7 4 6 4.032 7.502 2.679 58.223 o
7 5 0 13.887 12.412 2.561 59.688 o
7 5 1 6.879 7.093 2.259 80.074 o
7 5 2 7.625 9.430 2.176 84.961 o
7 5 3 0.040 -0.770 1.104 349.952 o
7 5 4 7.026 10.404 2.380 71.746 o
8 -5 -5 3.016 3.218 1.312 236.805 o
8 -5 -4 27.733 34.109 3.960 23.934 o
8 -5 -3 7.176 11.242 2.337 73.992 o
8 -5 -2 34.714 33.809 3.827 24.533 o
8 -5 -1 18.127 19.444 2.361 65.100 o
8 -4 -8 44.347 48.964 4.792 15.504 o
8 -4 -7 30.806 38.243 4.148 21.553 o
8 -4 -6 7.490 10.811 2.235 80.469 o
8 -4 -5 52.227 52.271 4.685 15.399 o
8 -4 -4 39.954 45.095 4.311 19.029 o
8 -4 -3 35.355 34.883 3.718 25.578 o
8 -4 -2 0.407 0.387 1.432 207.306 o
8 -4 -1 11.268 12.657 2.169 82.252 o
8 -3 -10 49.514 64.123 5.531 11.602 o
8 -3 -9 32.212 38.201 4.190 21.049 o
8 -3 -8 68.424 68.406 8.589 5.131 o
8 -3 -7 20.746 19.356 3.381 33.981 o
8 -3 -6 12.902 18.213 2.783 50.658 o
8 -3 -5 14.211 16.302 2.521 60.511 o
8 -3 -4 24.164 19.526 2.670 50.327 o
8 -3 -3 0.909 0.709 0.579 1203.300 o
8 -3 -2 16.034 10.144 1.884 101.967 o
8 -3 -1 42.815 41.142 3.642 24.802 o
8 -2 -11 36.478 36.919 4.813 16.275 o
8 -2 -10 25.539 27.608 2.923 41.529 o
8 -2 -9 42.977 42.136 3.498 26.257 o
8 -2 -8 32.365 32.801 3.812 25.076 o
8 -2 -7 48.220 50.501 6.868 8.162 o
8 -2 -6 27.979 31.955 4.029 23.300 o
8 -2 -5 30.425 32.007 3.395 30.883 o
8 -2 -4 153.650 146.072 5.842 5.595 o
8 -2 -3 29.266 25.255 2.389 55.915 o
8 -2 -2 53.864 50.444 3.257 25.913 o
8 -2 -1 7.347 8.793 1.410 188.981 o
8 -1 -11 64.101 61.210 5.563 10.921 o
8 -1 -10 1.688 0.275 0.489 1595.840 o
8 -1 -9 0.735 1.606 0.587 1159.950 o
8 -1 -8 10.953 11.882 1.815 113.795 o
8 -1 -7 124.278 125.239 5.485 7.208 o
8 -1 -6 215.957 209.132 6.088 3.573 o
8 -1 -5 124.070 126.745 4.603 8.455 o
8 -1 -4 29.871 26.533 2.047 68.669 o
8 -1 -3 133.128 129.599 4.305 8.363 o
8 -1 -2 30.904 33.003 2.072 63.984 o
8 -1 -1 99.550 97.776 4.221 11.654 o
8 0 -10 11.300 14.121 3.726 29.646 o
8 0 -8 51.659 51.282 4.556 16.177 o
8 0 -6 208.385 198.396 13.127 1.719 o
8 0 -4 140.386 151.200 6.793 5.047 o
8 0 -2 206.866 196.267 7.066 3.421 o
8 0 0 25.704 22.689 2.075 72.659 o
8 0 2 30.398 30.914 4.439 19.452 o
8 0 4 116.739 121.532 8.827 4.092 o
8 0 6 56.148 60.338 6.255 9.280 o
8 1 0 11.290 12.159 1.481 159.826 o
8 1 1 32.386 30.722 2.108 62.297 o
8 1 2 15.302 16.351 2.347 68.185 o
8 1 3 32.747 30.589 3.180 34.025 o
8 1 4 31.242 34.165 5.614 12.566 o
8 1 5 24.890 24.741 2.879 43.245 o
8 1 6 19.363 14.969 2.284 69.468 o
8 1 7 17.546 15.318 3.484 32.896 o
8 2 0 79.761 78.034 3.856 15.662 o
8 2 1 32.462 30.385 2.332 54.473 o
8 2 2 25.892 27.396 3.066 38.280 o
8 2 3 26.709 23.922 2.881 42.746 o
8 2 4 74.507 78.279 5.218 11.048 o
8 2 5 6.763 10.541 1.930 106.608 o
8 2 6 8.711 11.378 3.092 43.025 o
8 2 7 4.152 1.240 0.926 452.640 o
8 3 0 54.675 57.021 9.080 4.804 o
8 3 1 6.296 8.017 1.668 141.859 o
8 3 2 11.053 11.842 1.530 152.397 o
8 3 3 22.208 22.596 2.896 43.951 o
8 3 4 22.950 21.377 6.444 9.961 o
8 3 5 58.467 67.570 7.467 6.722 o
8 3 6 1.318 0.299 0.720 790.096 o
8 4 0 44.920 52.612 6.832 8.283 o
8 4 1 21.687 19.648 3.669 29.114 o
8 4 2 16.587 19.514 4.097 24.143 o
8 4 3 7.887 10.259 3.163 41.369 o
8 4 4 1.080 7.801 2.857 51.740 o
8 5 0 48.459 50.319 4.561 16.444 o
8 5 1 23.902 27.816 3.380 32.727 o
9 -4 -6 32.075 33.870 4.071 22.361 o
9 -4 -5 14.717 18.207 2.942 45.298 o
9 -4 -4 6.048 3.653 2.041 98.699 o
9 -4 -3 16.146 14.301 2.516 60.374 o
9 -4 -2 10.266 10.939 2.133 86.049 o
9 -4 -1 8.424 7.378 1.772 124.654 o
9 -3 -8 39.070 39.002 4.361 19.015 o
9 -3 -7 29.905 34.743 4.360 19.969 o
9 -3 -6 49.539 53.041 4.866 14.648 o
9 -3 -5 34.618 36.180 3.985 22.789 o
9 -3 -4 25.247 21.660 2.987 40.966 o
9 -3 -3 4.647 10.837 3.056 44.651 o
9 -3 -2 9.950 9.780 2.722 54.838 o
9 -3 -1 41.668 47.916 4.139 20.017 o
9 -2 -9 21.095 19.554 3.111 39.379 o
9 -2 -8 16.668 22.432 3.272 36.513 o
9 -2 -7 24.706 24.511 3.346 33.457 o
9 -2 -6 26.765 28.415 3.473 30.675 o
9 -2 -5 43.494 47.401 3.620 24.417 o
9 -2 -4 15.520 17.296 2.359 67.220 o
9 -2 -3 6.043 5.097 1.621 152.092 o
9 -2 -2 45.129 43.387 3.220 29.024 o
9 -2 -1 24.452 23.444 2.307 62.511 o
9 -1 -10 6.895 8.817 1.709 134.367 o
9 -1 -9 29.188 25.616 2.798 43.718 o
9 -1 -8 9.318 8.527 1.973 101.022 o
9 -1 -7 16.685 15.972 1.856 100.274 o
9 -1 -6 2.524 3.215 0.880 504.140 o
9 -1 -5 66.709 61.295 3.373 21.398 o
9 -1 -4 96.722 101.715 4.170 11.858 o
9 -1 -3 93.454 90.046 4.035 13.020 o
9 -1 -2 2.073 0.398 0.729 752.812 o
9 -1 -1 45.708 45.532 3.071 30.579 o
9 0 -10 71.998 73.205 8.507 5.153 o
9 0 -8 49.240 44.998 4.475 17.111 o
9 0 -6 39.430 39.828 9.529 4.527 o
9 0 -4 2.128 2.271 0.975 424.860 o
9 0 -2 151.063 158.679 6.668 4.853 o
9 0 0 84.867 82.047 4.094 13.966 o
9 0 2 4.024 7.467 2.479 67.734 o
9 0 4 7.641 5.963 2.223 82.451 o
9 0 6 24.307 25.991 4.517 19.416 o
9 1 0 9.714 9.087 1.323 202.493 o
9 1 1 6.000 7.988 1.800 123.392 o
9 1 2 1.102 0.840 0.665 915.672 o
9 1 3 17.873 13.744 2.299 69.982 o
9 1 4 7.739 7.684 1.783 123.912 o
9 1 5 2.804 0.829 0.930 464.964 o
9 1 6 3.972 2.973 2.120 92.958 o
9 2 0 24.750 23.154 2.225 66.001 o
9 2 1 17.674 14.843 3.691 29.536 o
9 2 2 11.877 10.621 3.726 29.746 o
9 2 3 7.239 7.317 1.799 122.595 o
9 2 4 38.046 38.180 5.098 14.584 o
9 2 5 23.241 23.212 4.574 19.113 o
9 3 0 7.809 11.680 1.754 125.137 o
9 3 1 27.380 29.776 3.544 29.405 o
9 3 2 5.971 7.829 1.897 111.979 o
9 3 3 13.250 11.244 3.712 29.821 o
9 3 4 2.571 2.380 1.553 172.391 o
9 4 0 6.034 6.502 1.581 158.211 o
9 4 1 21.955 18.895 4.396 20.808 o
9 4 2 11.353 11.065 3.470 34.168 o
10 -3 -6 13.316 15.714 3.306 36.901 o
10 -3 -5 29.227 31.723 4.809 16.868 o
10 -3 -4 14.751 16.276 2.775 50.674 o
10 -3 -3 44.494 44.507 9.390 4.616 o
10 -3 -2 8.320 8.330 1.969 102.265 o
10 -3 -1 8.222 11.734 3.313 37.694 o
10 -2 -8 25.119 30.750 4.039 23.542 o
10 -2 -7 33.157 31.457 4.048 22.600 o
10 -2 -6 5.762 5.505 1.674 143.253 o
10 -2 -5 21.101 18.184 2.422 61.102 o
10 -2 -4 16.750 15.421 2.179 76.903 o
10 -2 -3 56.607 54.689 3.930 19.423 o
10 -2 -2 2.840 1.875 0.742 693.158 o
10 -2 -1 19.285 23.403 5.301 14.588 o
10 -1 -8 24.269 29.832 2.836 43.725 o
10 -1 -7 25.834 31.224 2.908 41.246 o
10 -1 -6 23.087 25.519 2.338 61.424 o
10 -1 -5 5.262 6.105 1.136 292.267 o
10 -1 -4 13.745 13.794 1.575 137.827 o
10 -1 -3 21.000 23.896 2.472 57.680 o
10 -1 -2 1.083 2.168 0.844 571.721 o
10 -1 -1 34.521 34.757 4.118 21.628 o
10 0 -8 1.786 3.131 1.410 208.790 o
10 0 -6 175.972 182.212 8.789 3.160 o
10 0 -4 10.338 10.922 2.101 88.380 o
10 0 -2 60.480 68.672 4.619 14.470 o
10 0 0 45.462 58.422 7.103 7.659 o
10 0 2 23.759 23.732 4.610 18.793 o
10 0 4 13.357 12.639 3.391 35.358 o
10 1 0 4.951 4.929 1.530 171.678 o
10 1 1 11.516 11.494 2.276 75.520 o
10 1 2 2.336 2.478 1.197 285.713 o
10 1 3 19.568 17.716 3.395 34.038 o
10 1 4 18.320 24.192 3.347 34.609 o
10 2 0 30.274 31.137 5.664 12.437 o
10 2 1 15.568 15.117 3.064 42.185 o
10 2 2 0.435 -0.378 1.108 346.078 o
10 2 3 1.636 3.648 1.348 227.553 o
10 3 0 7.872 7.722 2.205 83.160 o
10 3 1 25.729 26.486 8.870 5.311 o
11 -2 -4 9.191 11.060 1.981 99.322 o
11 -2 -3 15.855 11.730 2.550 59.539 o
11 -2 -2 2.730 1.757 2.009 104.189 o
11 -2 -1 3.643 5.718 1.801 126.818 o
11 -1 -6 16.029 17.568 2.015 87.493 o
11 -1 -5 20.969 18.530 2.456 59.645 o
11 -1 -4 8.841 7.415 1.579 152.938 o
11 -1 -3 12.114 10.379 3.548 32.686 o
11 -1 -2 17.347 16.996 2.969 44.064 o
11 -1 -1 30.218 32.678 4.116 22.178 o
11 0 -6 34.835 33.462 3.897 23.798 o
11 0 -4 85.431 93.038 11.321 2.981 o
11 0 -2 4.084 5.443 2.394 72.825 o
11 0 0 7.825 8.884 3.099 43.153 o
11 1 0 2.739 4.972 1.649 151.670 o
;
_olex2_submission_special_instructions 'No special instructions were received'
_oxdiff_exptl_absorpt_empirical_details
;
Empirical correction (ABSPACK) includes:
- Absorption correction using spherical harmonics
- Frame scaling
;
_oxdiff_exptl_absorpt_empirical_full_max 1.288
_oxdiff_exptl_absorpt_empirical_full_min 0.593
loop_
_space_group_symop_id
_space_group_symop_operation_xyz
1 x,y,z
2 x,-y,z+1/2
loop_
_atom_site_label
_atom_site_type_symbol
_atom_site_fract_x
_atom_site_fract_y
_atom_site_fract_z
_atom_site_U_iso_or_equiv
_atom_site_adp_type
_atom_site_occupancy
_atom_site_refinement_flags_posn
S7 S 0.54690(6) 0.21502(8) 0.42063(5) 0.04582(16) Uani 1.000000 .
N11 N 0.38922(19) 0.4811(3) 0.66256(14) 0.0403(4) Uani 1.000000 .
N12 N 0.32424(17) 0.6032(3) 0.57120(12) 0.0377(4) Uani 1.000000 .
C15 C 0.2404(2) 0.7792(3) 0.58649(16) 0.0358(5) Uani 1.000000 .
C8 C 0.4628(2) 0.3645(3) 0.50993(17) 0.0368(4) Uani 1.000000 .
C13 C 0.3673(2) 0.5311(3) 0.47210(15) 0.0355(5) Uani 1.000000 .
C20 C 0.2218(2) 0.9398(4) 0.50603(18) 0.0453(5) Uani 1.000000 .
C6 C 0.6924(2) 0.3768(4) 0.40306(17) 0.0434(5) Uani 1.000000 .
C17 C 0.0971(3) 0.9649(4) 0.6953(2) 0.0613(7) Uani 1.000000 .
C16 C 0.1775(3) 0.7923(4) 0.68189(18) 0.0500(6) Uani 1.000000 .
C9 C 0.4697(2) 0.3377(3) 0.62618(17) 0.0393(5) Uani 1.000000 .
C18 C 0.0763(3) 1.1244(4) 0.6152(2) 0.0596(7) Uani 1.000000 .
C19 C 0.1390(3) 1.1102(4) 0.5213(2) 0.0551(6) Uani 1.000000 .
C1 C 0.7394(3) 0.5448(5) 0.4727(2) 0.0623(7) Uani 1.000000 .
C3 C 0.9231(3) 0.6045(5) 0.3669(2) 0.0705(8) Uani 1.000000 .
C10 C 0.5473(3) 0.1785(4) 0.70566(19) 0.0587(7) Uani 1.000000 .
C2 C 0.8560(3) 0.6563(6) 0.4532(2) 0.0814(10) Uani 1.000000 .
C5 C 0.7606(3) 0.3245(4) 0.3151(2) 0.0613(7) Uani 1.000000 .
C4 C 0.8741(3) 0.4404(5) 0.2965(2) 0.0712(8) Uani 1.000000 .
O14 O 0.32297(17) 0.6053(3) 0.37358(11) 0.0498(4) Uani 1.000000 .
H5 H 0.7297(3) 0.2100(4) 0.2680(2) 0.0735(9) Uiso 1.000000 R
H4 H 0.9176(3) 0.4065(5) 0.2354(2) 0.0855(9) Uiso 1.000000 R
H3 H 1.0017(3) 0.6802(5) 0.3558(2) 0.0846(10) Uiso 1.000000 R
H2 H 0.8888(3) 0.7695(6) 0.5007(2) 0.0977(12) Uiso 1.000000 R
H16 H 0.1897(3) 0.6850(4) 0.73631(18) 0.0601(7) Uiso 1.000000 R
H19 H 0.1256(3) 1.2174(4) 0.4668(2) 0.0661(8) Uiso 1.000000 R
H20 H 0.2647(2) 0.9329(4) 0.44235(18) 0.0544(6) Uiso 1.000000 R
H10a H 0.5573(17) 0.2273(14) 0.7835(2) 0.0881(10) Uiso 1.000000 GR
H10b H 0.4959(10) 0.0483(10) 0.6971(12) 0.0881(10) Uiso 1.000000 GR
H10c H 0.6389(8) 0.157(2) 0.6879(10) 0.0881(10) Uiso 1.000000 GR
H18 H 0.019(3) 1.240(4) 0.630(2) 0.063(8) Uiso 1.000000 .
H11 H 0.367(2) 0.481(4) 0.721(2) 0.042(7) Uiso 1.000000 .
H1 H 0.6940(3) 0.5833(5) 0.5320(2) 0.0748(9) Uiso 1.000000 R
H17 H 0.054(4) 0.969(5) 0.756(3) 0.091(10) Uiso 1.000000 .
loop_
_atom_site_aniso_label
_atom_site_aniso_U_11
_atom_site_aniso_U_22
_atom_site_aniso_U_33
_atom_site_aniso_U_12
_atom_site_aniso_U_13
_atom_site_aniso_U_23
S7 0.0549(3) 0.0424(3) 0.0458(3) -0.0073(3) 0.0235(2) -0.0129(3)
N11 0.0556(12) 0.0493(11) 0.0183(9) 0.0036(9) 0.0126(8) 0.0028(8)
N12 0.0474(10) 0.0473(10) 0.0193(8) 0.0045(8) 0.0091(7) -0.0008(7)
C15 0.0360(11) 0.0453(12) 0.0257(10) -0.0036(9) 0.0047(8) -0.0046(8)
C8 0.0456(12) 0.0386(11) 0.0292(10) -0.0042(10) 0.0151(8) -0.0035(8)
C13 0.0409(11) 0.0438(12) 0.0237(10) -0.0057(9) 0.0113(8) -0.0035(8)
C20 0.0552(13) 0.0464(12) 0.0356(11) -0.0040(11) 0.0119(10) -0.0001(9)
C6 0.0431(12) 0.0481(13) 0.0401(13) -0.0030(10) 0.0110(9) 0.0002(10)
C17 0.0749(18) 0.0738(17) 0.0389(14) 0.0168(15) 0.0200(13) -0.0095(13)
C16 0.0628(16) 0.0592(15) 0.0301(11) 0.0083(12) 0.0138(11) 0.0029(10)
C9 0.0461(12) 0.0403(11) 0.0318(10) -0.0015(10) 0.0087(9) 0.0012(9)
C18 0.0691(17) 0.0519(15) 0.0565(15) 0.0110(14) 0.0094(13) -0.0137(12)
C19 0.0721(17) 0.0430(13) 0.0480(14) 0.0024(12) 0.0064(12) 0.0036(10)
C1 0.0684(17) 0.0788(18) 0.0422(13) -0.0274(15) 0.0167(12) -0.0159(12)
C3 0.0511(15) 0.098(2) 0.0609(16) -0.0231(15) 0.0076(13) 0.0177(17)
C10 0.0782(18) 0.0564(15) 0.0406(14) 0.0103(14) 0.0091(12) 0.0079(11)
C2 0.082(2) 0.100(2) 0.0594(18) -0.0471(19) 0.0058(16) -0.0145(16)
C5 0.0654(17) 0.0623(16) 0.0655(17) -0.0110(14) 0.0360(14) -0.0150(13)
C4 0.0591(16) 0.093(2) 0.0699(18) -0.0094(16) 0.0320(14) -0.0018(17)
O14 0.0675(10) 0.0639(10) 0.0191(7) 0.0104(9) 0.0116(7) 0.0022(7)
loop_
_atom_type_symbol
_atom_type_scat_dispersion_real
_atom_type_scat_dispersion_imag
_atom_type_scat_Cromer_Mann_a1
_atom_type_scat_Cromer_Mann_a2
_atom_type_scat_Cromer_Mann_a3
_atom_type_scat_Cromer_Mann_a4
_atom_type_scat_Cromer_Mann_b1
_atom_type_scat_Cromer_Mann_b2
_atom_type_scat_Cromer_Mann_b3
_atom_type_scat_Cromer_Mann_b4
_atom_type_scat_Cromer_Mann_c
_atom_type_scat_source
_atom_type_scat_dispersion_source
H 0.00000 0.00000 0.49300 0.32291 0.14019 0.04081 10.51090 26.12570 3.14236
57.79970 0.0030380000826
'International Tables Volume C Table 6.1.1.4 (pp. 500-502)'
'Henke, Gullikson and Davis, At. Data and Nucl. Data Tables, 1993, 54, 2'
C 0.00347 0.00161 2.31000 1.02000 1.58860 0.86500 20.84390 10.20750 0.56870
51.65120 0.215599998832
'International Tables Volume C Table 6.1.1.4 (pp. 500-502)'
'Henke, Gullikson and Davis, At. Data and Nucl. Data Tables, 1993, 54, 2'
S 0.12424 0.12443 6.90530 5.20340 1.43790 1.58630 1.46790 22.21510 0.25360
56.17200 0.866900026798
'International Tables Volume C Table 6.1.1.4 (pp. 500-502)'
'Henke, Gullikson and Davis, At. Data and Nucl. Data Tables, 1993, 54, 2'
O 0.01158 0.00611 3.04850 2.28680 1.54630 0.86700 13.27710 5.70110 0.32390
32.90890 0.250800013542
'International Tables Volume C Table 6.1.1.4 (pp. 500-502)'
'Henke, Gullikson and Davis, At. Data and Nucl. Data Tables, 1993, 54, 2'
N 0.00653 0.00323 12.21260 3.13220 2.01250 1.16630 0.00570 9.89330 28.99750
0.58260 -11.5290002823
'International Tables Volume C Table 6.1.1.4 (pp. 500-502)'
'Henke, Gullikson and Davis, At. Data and Nucl. Data Tables, 1993, 54, 2'
loop_
_geom_angle_atom_site_label_1
_geom_angle_atom_site_label_2
_geom_angle_atom_site_label_3
_geom_angle
_geom_angle_site_symmetry_1
_geom_angle_site_symmetry_3
_geom_angle_publ_flag
C6 S7 C8 103.25(10) . . ?
C9 N11 N12 109.80(17) . . ?
H11 N11 N12 123.3(18) . . ?
H11 N11 C9 125.4(18) . . ?
C15 N12 N11 121.97(15) . . ?
C13 N12 N11 108.05(16) . . ?
C13 N12 C15 129.75(16) . . ?
C20 C15 N12 119.72(18) . . ?
C16 C15 N12 120.38(19) . . ?
C16 C15 C20 119.9(2) . . ?
C13 C8 S7 124.67(14) . . ?
C9 C8 S7 127.18(16) . . ?
C9 C8 C13 108.07(18) . . ?
C8 C13 N12 105.16(15) . . ?
O14 C13 N12 123.69(19) . . ?
O14 C13 C8 131.13(18) . . ?
C19 C20 C15 119.3(2) . . ?
H20 C20 C15 120.36(13) . . ?
H20 C20 C19 120.36(14) . . ?
C1 C6 S7 123.61(18) . . ?
C5 C6 S7 116.94(18) . . ?
C5 C6 C1 119.4(2) . . ?
C18 C17 C16 121.3(3) . . ?
H17 C17 C16 118(2) . . ?
H17 C17 C18 120(2) . . ?
C17 C16 C15 119.4(2) . . ?
H16 C16 C15 120.29(13) . . ?
H16 C16 C17 120.29(15) . . ?
C8 C9 N11 108.87(18) . . ?
C10 C9 N11 121.32(19) . . ?
C10 C9 C8 129.8(2) . . ?
C19 C18 C17 118.9(2) . . ?
H18 C18 C17 116.8(16) . . ?
H18 C18 C19 124.4(16) . . ?
C18 C19 C20 121.2(2) . . ?
H19 C19 C20 119.38(14) . . ?
H19 C19 C18 119.38(15) . . ?
C2 C1 C6 118.8(2) . . ?
H1 C1 C6 120.61(14) . . ?
H1 C1 C2 120.61(17) . . ?
C4 C3 C2 119.2(3) . . ?
H3 C3 C2 120.41(17) . . ?
H3 C3 C4 120.41(17) . . ?
H10a C10 C9 109.5 . . ?
H10b C10 C9 109.5 . . ?
H10b C10 H10a 109.5 . . ?
H10c C10 C9 109.5 . . ?
H10c C10 H10a 109.5 . . ?
H10c C10 H10b 109.5 . . ?
C3 C2 C1 121.7(3) . . ?
H2 C2 C1 119.14(17) . . ?
H2 C2 C3 119.14(17) . . ?
C4 C5 C6 120.5(2) . . ?
H5 C5 C6 119.77(15) . . ?
H5 C5 C4 119.77(16) . . ?
C5 C4 C3 120.4(3) . . ?
H4 C4 C3 119.82(17) . . ?
H4 C4 C5 119.82(16) . . ?
loop_
_geom_bond_atom_site_label_1
_geom_bond_atom_site_label_2
_geom_bond_distance
_geom_bond_site_symmetry_2
_geom_bond_publ_flag
S7 C8 1.738(2) . ?
S7 C6 1.788(2) . ?
N11 N12 1.380(2) . ?
N11 C9 1.324(3) . ?
N11 H11 0.76(3) . ?
N12 C15 1.414(3) . ?
N12 C13 1.397(2) . ?
C15 C20 1.384(3) . ?
C15 C16 1.386(3) . ?
C8 C13 1.419(3) . ?
C8 C9 1.376(3) . ?
C13 O14 1.254(2) . ?
C20 C19 1.379(3) . ?
C20 H20 0.9300 . ?
C6 C1 1.371(3) . ?
C6 C5 1.378(3) . ?
C17 C16 1.371(3) . ?
C17 C18 1.376(4) . ?
C17 H17 0.90(3) . ?
C16 H16 0.9300 . ?
C9 C10 1.482(3) . ?
C18 C19 1.370(4) . ?
C18 H18 0.95(3) . ?
C19 H19 0.9300 . ?
C1 C2 1.389(4) . ?
C1 H1 0.9300 . ?
C3 C2 1.355(4) . ?
C3 C4 1.361(4) . ?
C3 H3 0.9300 . ?
C10 H10a 0.9600 . ?
C10 H10b 0.9600 . ?
C10 H10c 0.9600 . ?
C2 H2 0.9300 . ?
C5 C4 1.375(4) . ?
C5 H5 0.9300 . ?
C4 H4 0.9300 . ?
