#------------------------------------------------------------------------------
#$Date: 2021-01-07 06:46:42 +0200 (Thu, 07 Jan 2021) $
#$Revision: 260660 $
#$URL: file:///home/coder/svn-repositories/cod/cif/7/12/71/7127147.cif $
#------------------------------------------------------------------------------
#
# This file is available in the Crystallography Open Database (COD),
# http://www.crystallography.net/
#
# All data on this site have been placed in the public domain by the
# contributors.
#
data_7127147
loop_
_publ_author_name
'Wu, Ting'
'Jiang, Shenlong'
'Samanta, Pabitra Narayan'
'Xie, Yangbin'
'Li, Jipeng'
'Wang, Xiaoling'
'Devashis, Majumdar'
'Gu, Xiangwei'
'Wang, Yusong'
'Huang, Wei'
'Zhang, Qun'
'Leszczynski, Jerzy'
'Wu, Dayu'
_publ_section_title
;
 Negative thermal quenching of photoluminescence in a copper-organic
 framework emitter.
;
_journal_issue                   80
_journal_name_full
'Chemical communications (Cambridge, England)'
_journal_page_first              12057
_journal_page_last               12060
_journal_paper_doi               10.1039/d0cc04788k
_journal_volume                  56
_journal_year                    2020
_chemical_formula_sum            'C5 H6 Cu2 I2 N2'
_chemical_formula_weight         475.00
_space_group_crystal_system      monoclinic
_space_group_IT_number           14
_space_group_name_Hall           '-P 2yn'
_space_group_name_H-M_alt        'P 1 21/n 1'
_atom_sites_solution_hydrogens   geom
_audit_creation_method           SHELXL-2014/6
_audit_update_record
;
2020-05-09 deposited with the CCDC.	2020-09-01 downloaded from the CCDC.
;
_cell_angle_alpha                90
_cell_angle_beta                 90.441(3)
_cell_angle_gamma                90
_cell_formula_units_Z            4
_cell_length_a                   11.4617(4)
_cell_length_b                   4.22060(10)
_cell_length_c                   19.5436(6)
_cell_measurement_reflns_used    4683
_cell_measurement_temperature    80(2)
_cell_measurement_theta_max      29.8980
_cell_measurement_theta_min      2.0690
_cell_volume                     945.40(5)
_computing_cell_refinement       'Bruker XSCANS'
_computing_data_collection       'Bruker XSCANS'
_computing_data_reduction        'Bruker SHELXTL'
_computing_molecular_graphics    'Bruker SHELXTL'
_computing_publication_material  'Bruker SHELXTL'
_computing_structure_refinement  'SHELXL-2014/6 (Sheldrick, 2014)'
_computing_structure_solution    'Bruker SHELXTL'
_diffrn_ambient_temperature      80(2)
_diffrn_measured_fraction_theta_full 0.974
_diffrn_measured_fraction_theta_max 1.000
_diffrn_measurement_device_type  HyPix
_diffrn_radiation_type           MoK\a
_diffrn_radiation_wavelength     0.71073
_diffrn_reflns_av_R_equivalents  0.0378
_diffrn_reflns_av_unetI/netI     0.0347
_diffrn_reflns_Laue_measured_fraction_full 0.974
_diffrn_reflns_Laue_measured_fraction_max 1.000
_diffrn_reflns_limit_h_max       13
_diffrn_reflns_limit_h_min       -13
_diffrn_reflns_limit_k_max       4
_diffrn_reflns_limit_k_min       -5
_diffrn_reflns_limit_l_max       21
_diffrn_reflns_limit_l_min       -23
_diffrn_reflns_number            6599
_diffrn_reflns_point_group_measured_fraction_full 0.974
_diffrn_reflns_point_group_measured_fraction_max 1.000
_diffrn_reflns_theta_full        25.242
_diffrn_reflns_theta_max         24.996
_diffrn_reflns_theta_min         2.053
_diffrn_source                   'Rotating-anode X-ray tube'
_exptl_absorpt_coefficient_mu    10.967
_exptl_absorpt_correction_T_max  1.00000
_exptl_absorpt_correction_T_min  0.04500
_exptl_absorpt_correction_type   multi-scan
_exptl_absorpt_process_details
;
CrysAlisPro 1.171.40.14a (Rigaku Oxford Diffraction, 2018)
Empirical absorption correction using spherical harmonics,
 implemented in SCALE3 ABSPACK scaling algorithm.
;
_exptl_crystal_colour            brown
_exptl_crystal_density_diffrn    3.337
_exptl_crystal_description       needle
_exptl_crystal_F_000             856
_exptl_crystal_size_max          0.32
_exptl_crystal_size_mid          0.15
_exptl_crystal_size_min          0.12
_refine_diff_density_max         1.157
_refine_diff_density_min         -1.116
_refine_diff_density_rms         0.234
_refine_ls_extinction_method     none
_refine_ls_goodness_of_fit_ref   1.049
_refine_ls_hydrogen_treatment    constr
_refine_ls_matrix_type           full
_refine_ls_number_parameters     100
_refine_ls_number_reflns         1656
_refine_ls_number_restraints     0
_refine_ls_restrained_S_all      1.049
_refine_ls_R_factor_all          0.0311
_refine_ls_R_factor_gt           0.0286
_refine_ls_shift/su_max          0.001
_refine_ls_shift/su_mean         0.000
_refine_ls_structure_factor_coef Fsqd
_refine_ls_weighting_details
'w=1/[\s^2^(Fo^2^)+(0.0425P)^2^+1.0616P] where P=(Fo^2^+2Fc^2^)/3'
_refine_ls_weighting_scheme      calc
_refine_ls_wR_factor_gt          0.0737
_refine_ls_wR_factor_ref         0.0750
_reflns_Friedel_coverage         0.000
_reflns_number_gt                1505
_reflns_number_total             1656
_reflns_threshold_expression     'I > 2\s(I)'
_cod_data_source_file            d0cc04788k3.cif
_cod_data_source_block           80k
_cod_depositor_comments
'Adding full bibliography for 7127147--7127150.cif.'
_cod_original_sg_symbol_H-M      'P 21/n'
_cod_database_code               7127147
_shelx_space_group_comment
;
The symmetry employed for this shelxl refinement is uniquely defined
by the following loop, which should always be used as a source of
symmetry information in preference to the above space-group names.
They are only intended as comments.
;
_shelxl_version_number           2014/6
_shelx_res_file
;
TITL 1 in P2(1)/n
CELL 0.71073  11.4617   4.2206  19.5436  90.000  90.441  90.000
ZERR    4.00   0.0004   0.0001   0.0006   0.000   0.003   0.000
LATT  1
SYMM 0.5-X, 0.5+Y, 0.5-Z
SFAC C H N CU I
UNIT 20 24 8 8 8

L.S. 124
acta
BOND $h
omit 0 50
FMAP 2
PLAN 20

WGHT    0.042500    1.061600
FVAR       0.10315
CU1   4    0.672935    0.140464    0.208074    11.00000    0.02051    0.02137 =
         0.01827   -0.00084    0.00526   -0.00068
CU2   4    0.547121   -0.349329    0.140099    11.00000    0.01200    0.01679 =
         0.02167   -0.00204    0.00192   -0.00312
I1    5    0.637641    0.141904    0.077390    11.00000    0.01476    0.01082 =
         0.01492   -0.00148    0.00393   -0.00155
I2    5    0.592174   -0.359771    0.276543    11.00000    0.01230    0.01143 =
         0.01375   -0.00051    0.00346   -0.00060
C3    1    0.180924   -0.372875    0.147712    11.00000    0.01534    0.01151 =
         0.01648   -0.00016    0.00371    0.00321
AFIX  43
H3A   2    0.108089   -0.322222    0.165280    11.00000   -1.20000
AFIX   0
C2    1    0.286102   -0.269933    0.171033    11.00000    0.01585    0.01093 =
         0.01456   -0.00255    0.00339   -0.00022
AFIX  43
H2A   2    0.297376   -0.131525    0.207516    11.00000   -1.20000
AFIX   0
C1    1    0.320334   -0.577630    0.085941    11.00000    0.01263    0.01450 =
         0.01419   -0.00134    0.00337    0.00006
AFIX  43
H1A   2    0.358236   -0.694623    0.052467    11.00000   -1.20000
AFIX   0
C4    1    0.117501   -0.737846    0.051039    11.00000    0.00558    0.01400 =
         0.02169   -0.00400   -0.00096   -0.00278
AFIX  23
H4A   2    0.059988   -0.832498    0.080912    11.00000   -1.20000
H4B   2    0.156247   -0.907898    0.026752    11.00000   -1.20000
AFIX   0
C5    1    0.056033   -0.526693   -0.000112    11.00000    0.01710    0.01376 =
         0.01161   -0.00392    0.00027   -0.00567
AFIX  43
H5A   2    0.100576   -0.429237   -0.033661    11.00000   -1.20000
AFIX   0
N1    3    0.374769   -0.403526    0.131899    11.00000    0.01634    0.01597 =
         0.01312    0.00198    0.00496    0.00061
N2    3    0.203661   -0.567740    0.092717    11.00000    0.01012    0.00841 =
         0.01281   -0.00101   -0.00336   -0.00037

HKLF 4

REM  1 in P2(1)/n
REM R1 =  0.0286 for    1505 Fo > 4sig(Fo)  and  0.0311 for all    1656 data
REM    100 parameters refined using      0 restraints

END

WGHT      0.0423      0.8093

REM Highest difference peak  1.157,  deepest hole -1.116,  1-sigma level  0.234
Q1    1   0.7292  0.1310  0.0886  11.00000  0.05    1.16
Q2    1   0.6498  0.1579  0.1400  11.00000  0.05    0.83
Q3    1   0.5272 -0.5470  0.1752  11.00000  0.05    0.82
Q4    1   0.6293 -0.3544  0.3432  11.00000  0.05    0.82
Q5    1   0.5091 -0.3270  0.2680  11.00000  0.05    0.80
Q6    1   0.5560 -0.3489  0.2106  11.00000  0.05    0.80
Q7    1   0.6846 -0.3763  0.2808  11.00000  0.05    0.80
Q8    1   0.5338 -0.5755  0.1596  11.00000  0.05    0.77
Q9    1   0.6500 -0.4617  0.1339  11.00000  0.05    0.71
Q10   1   0.5430 -0.3524  0.0822  11.00000  0.05    0.71
Q11   1   0.6031  0.1543  0.0161  11.00000  0.05    0.69
Q12   1   0.5408  0.1399  0.0802  11.00000  0.05    0.67
Q13   1   0.4634 -0.3432  0.1270  11.00000  0.05    0.66
Q14   1   0.4431 -0.8518  0.1609  11.00000  0.05    0.64
Q15   1   0.5636  0.0388  0.2193  11.00000  0.05    0.64
Q16   1   0.5804  0.3490  0.0558  11.00000  0.05    0.63
Q17   1   0.6636  0.1576  0.2780  11.00000  0.05    0.63
Q18   1   0.6100 -0.5258  0.2986  11.00000  0.05    0.62
Q19   1   0.7459  0.1599  0.2444  11.00000  0.05    0.61
Q20   1   0.5836 -0.0363  0.0581  11.00000  0.05    0.59
;
_shelx_res_checksum              23090
_shelx_hkl_file
;
   0   0   2  248.11   10.31
   0   0   2  259.05   10.55
   0   0  -2  257.00   10.32
   0   0  -2  245.70   10.52
   0   0   3    0.14    0.19
   0   0   3    0.19    0.11
   0   0   4    1.77    0.27
   0   0   4    2.59    0.52
   0   0   5    0.13    0.14
   0   0  -5   -0.01    0.07
   0   0   5   -0.08    0.33
   0   0  -6  445.32   18.04
   0   0   6  458.41   19.06
   0   0   6  433.07   18.33
   0   0   7    0.14    0.15
   0   0  -7    0.14    0.11
   0   0   7   -0.11    0.41
   0   0   8   35.25    2.59
   0   0  -8   33.60    1.64
   0   0   8   33.39    1.95
   0   0  -9    0.05    0.11
   0   0   9    0.47    0.20
   0   0  10   16.09    1.31
   0   0 -10   17.86    1.05
   0   0 -10   17.82    1.81
   0   0  11    0.28    0.18
   0   0 -11   -0.15    0.38
   0   0 -11    0.04    0.14
   0   0 -12    3.72    0.44
   0   0  12    3.42    0.60
   0   0 -12    2.77    0.82
   0   0 -13    0.17    0.54
   0   0 -13    0.09    0.16
   0   0  13    0.65    0.31
   0   0  14  993.24   40.00
   0   0 -14  956.23   39.40
   0   0 -14  949.60   41.22
   0   0  15    1.49    0.41
   0   0 -15    0.16    0.27
   0   0 -15    1.16    0.66
   0   0 -16  137.38    6.35
   0   0 -16  144.41    8.00
   0   0  16  142.71    6.87
   0   0  17    0.42    0.36
   0   0 -17    0.21    0.53
   0   0 -17    0.13    0.25
   0   0  18    6.17    0.96
   0   0 -18    6.59    0.80
   0   0 -18    7.75    1.49
   0   0 -19   -0.22    0.56
   0   0 -19   -0.08    0.29
   0   0  19    0.58    0.38
   0   0  20  155.20    7.58
   0   0 -20  141.41    8.50
   0   0 -20  150.64    7.08
   0   0 -21    0.63    0.45
   0   0 -21    0.46    0.71
   0   0 -22   38.79    3.60
   0   0 -22   34.19    2.39
   0   0 -23    0.24    0.70
   0   0 -23    0.10    0.43
   0   0 -24    3.01    0.72
   0   0 -24    3.64    1.20
   0   0 -25    0.24    0.83
   0   0 -26   13.06    2.09
   0  -1   0    0.05    0.14
   0  -1   1    8.18    0.59
   0  -1  -1    7.81    0.62
   0  -1  -2  136.64    5.68
   0   1   2  129.98    5.39
   0  -1   2  128.41    5.38
   0  -1   2  131.15    5.55
   0  -1  -3    4.82    0.50
   0  -1   3    5.24    0.44
   0  -1   3    5.53    0.40
   0   1   3    5.07    0.39
   0  -1   4   52.87    2.38
   0   1   4   52.27    2.41
   0  -1   4   50.85    2.40
   0  -1   5  105.13    4.60
   0  -1   5   95.11    4.28
   0  -1   5   95.08    4.37
   0   1   5  103.68    4.40
   0   1   6  905.92   36.33
   0  -1   6  861.59   36.31
   0  -1   6  920.76   36.60
   0  -1   7  973.86   40.20
   0   1   7  997.53   39.84
   0  -1   7  953.93   39.82
   0  -1  -7  984.82   39.87
   0  -1   8  969.19   42.23
   0  -1  -8 1070.73   42.28
   0   1   8 1062.19   42.27
   0  -1  -8  991.47   43.93
   0   1  -8 1050.01   42.56
   0  -1   8 1059.25   42.74
   0  -1  -9   85.56    4.00
   0  -1   9   87.79    4.52
   0  -1   9   78.40    3.97
   0   1  -9   78.76    4.23
   0  -1  -9   83.32    5.39
   0   1   9   80.91    3.99
   0   1 -10    1.09    0.40
   0  -1 -10    1.28    0.33
   0  -1  10    1.62    0.38
   0  -1  10    1.71    0.60
   0   1  10    1.23    0.35
   0   1  11    2.69    0.50
   0  -1  11    3.20    0.54
   0  -1 -11    3.39    0.54
   0   1 -11    2.24    0.58
   0  -1  11    3.23    0.78
   0  -1 -12   62.36    3.30
   0   1  12   63.29    3.36
   0  -1  12   58.10    3.31
   0  -1  12   66.33    4.25
   0   1 -12   61.97    3.73
   0   1  13   94.03    4.77
   0  -1  13   93.82    4.78
   0  -1 -13   96.32    4.74
   0   1 -13   91.11    5.16
   0  -1  13   99.38    5.85
   0  -1  14   92.30    4.78
   0   1  14   89.30    4.74
   0  -1  14  107.61    6.12
   0   1 -14   90.85    5.22
   0  -1 -14   93.88    4.71
   0   1 -15    1.53    0.63
   0  -1 -15    1.17    0.44
   0  -1  15    2.12    0.87
   0  -1 -15    0.99    0.68
   0  -1  15    1.29    0.44
   0   1  15    1.81    0.52
   0  -1  16   10.02    1.16
   0  -1 -16   11.85    1.19
   0   1 -16   12.13    1.51
   0  -1 -16   11.29    1.94
   0   1  16   12.15    1.25
   0  -1  17    1.45    0.44
   0   1 -17    0.31    0.42
   0   1  17    1.22    0.48
   0  -1 -17    0.57    0.39
   0  -1 -17    0.79    0.77
   0   1 -18    3.26    0.88
   0  -1  18    3.74    0.74
   0   1  18    3.45    0.71
   0  -1 -18    2.42    1.08
   0  -1 -18    3.60    0.70
   0   1 -19    2.20    0.78
   0  -1 -19    2.76    1.06
   0  -1  19    1.38    0.57
   0   1  19    1.59    0.59
   0  -1 -19    1.58    0.59
   0  -1 -20   19.78    2.68
   0  -1 -20   16.98    1.65
   0   1 -20   18.80    2.10
   0  -1 -21   94.08    5.13
   0   1 -21   97.85    5.84
   0  -1 -21   87.99    6.53
   0   1 -22   91.84    5.85
   0  -1 -22   88.21    6.64
   0  -1 -22  105.02    5.41
   0   1 -23    5.74    1.28
   0  -1 -23    9.26    1.34
   0  -1 -23    6.39    1.69
   0  -1 -24    2.92    1.21
   0  -1 -24    3.97    0.94
   0   1 -24    2.16    0.86
   0   1 -25    2.21    0.88
   0  -1 -25    2.72    0.81
   0   1 -26    1.43    0.76
   0  -2   0   91.61    4.45
   0  -2  -1 1398.77   56.45
   0  -2   1 1372.34   56.41
   0  -2   2   19.55    1.41
   0  -2  -2   20.90    1.48
   0  -2   3    0.76    0.28
   0  -2   3    1.02    0.13
   0  -2  -3    1.46    0.36
   0   2   4    0.17    0.10
   0  -2   4    0.06    0.20
   0  -2  -4    0.07    0.25
   0  -2   4    0.24    0.10
   0  -2   5   96.62    4.39
   0  -2   5  108.77    4.83
   0   2   5  101.05    4.40
   0  -2  -5  105.54    4.99
   0  -2  -6    4.25    0.66
   0  -2   6    5.04    0.63
   0  -2   6    4.58    0.45
   0   2   6    4.78    0.46
   0  -2   7   47.20    2.61
   0  -2   7   49.27    2.73
   0  -2   7   45.38    2.35
   0   2   7   48.39    2.37
   0  -2   8    7.38    0.87
   0   2   8    9.57    0.77
   0  -2   8    8.80    0.74
   0  -2   8    7.37    0.90
   0  -2   9   43.29    2.73
   0  -2   9   38.55    2.21
   0  -2   9   41.39    2.61
   0   2   9   41.26    2.22
   0   2  10    6.82    0.72
   0  -2  10    7.01    0.73
   0  -2 -10    6.24    1.50
   0  -2 -10    6.41    0.88
   0  -2  10    8.17    1.03
   0  -2  11    7.15    1.04
   0  -2 -11    5.81    0.86
   0  -2 -11    4.98    1.34
   0  -2  11    5.64    0.71
   0   2  11    5.94    0.71
   0  -2 -12    1.92    0.98
   0  -2 -12    3.72    0.73
   0  -2  12    3.15    0.78
   0   2  12    2.77    0.53
   0  -2  12    3.16    0.55
   0  -2 -13  302.66   12.93
   0  -2  13  291.74   12.54
   0   2  13  281.31   12.46
   0  -2  13  304.20   13.41
   0  -2 -14   18.95    2.68
   0  -2  14   19.24    2.07
   0  -2 -14   18.72    1.75
   0  -2  14   21.98    1.65
   0   2  14   19.07    1.54
   0  -2  15  466.70   20.14
   0   2  15  481.06   20.11
   0  -2  15  492.66   21.41
   0  -2 -15  503.93   20.61
   0  -2 -16    1.38    0.67
   0  -2  16    2.80    1.01
   0  -2  16    4.95    0.82
   0   2  16    3.44    0.67
   0   2  17    1.73    0.55
   0  -2  17    3.60    1.09
   0  -2  17    3.55    0.71
   0  -2 -17    2.39    0.77
   0  -2  18    0.21    0.38
   0  -2  18    0.22    0.61
   0  -2 -18   -0.14    0.40
   0   2  18    0.30    0.38
   0  -2 -19   39.63    2.95
   0   2  19   35.79    2.53
   0  -2  19   35.24    2.59
   0  -2 -20    9.13    1.38
   0  -2 -20    7.29    1.82
   0  -2 -21   81.68    6.70
   0  -2 -21  108.86    5.91
   0  -2 -22    0.32    0.66
   0  -2 -22   -0.17    0.58
   0  -2 -23    0.88    0.65
   0  -2 -24    0.37    0.73
   0  -2 -25    9.41    1.65
   0  -3   0    0.53    0.37
   0  -3   1   91.11    4.92
   0  -3  -1   91.79    4.96
   0  -3  -2   43.98    2.92
   0  -3   2   44.54    2.90
   0  -3  -3    1.10    0.52
   0  -3   3    0.73    0.44
   0  -3   4    0.31    0.33
   0   3   4    0.14    0.05
   0  -3  -4    0.11    0.37
   0  -3   5   45.08    2.02
   0  -3   5   46.31    2.94
   0  -3  -5   45.19    3.03
   0  -3   6   93.65    4.09
   0   3   6   90.52    4.07
   0  -3  -6  108.84    5.33
   0  -3   6  105.99    5.14
   0  -3  -7  848.08   33.67
   0  -3   7  783.57   33.35
   0  -3   7  790.31   32.37
   0   3   7  794.75   32.36
   0   3   8  186.00    7.74
   0  -3   8  169.87    8.58
   0  -3   8  174.71    7.73
   0  -3   9   98.49    5.33
   0   3   9  117.25    4.94
   0  -3   9  107.80    5.82
   0  -3   9  107.43    4.91
   0  -3  10    1.43    0.52
   0  -3  10    2.24    0.80
   0   3  10    1.46    0.34
   0  -3  10    0.95    0.30
   0  -3 -11   -0.31    0.72
   0   3  11    2.01    0.39
   0  -3  11    1.79    0.37
   0  -3  11    1.43    0.48
   0  -3  11    1.44    0.97
   0  -3  12    7.74    0.80
   0  -3  12    7.94    1.07
   0   3  12    7.96    0.80
   0  -3 -12    8.45    1.23
   0  -3  13  142.35    7.38
   0  -3 -13  157.95    7.89
   0   3  13  155.90    6.90
   0  -3  13  161.45    6.98
   0  -3  14   42.66    2.96
   0  -3  14   44.47    2.59
   0   3  14   47.48    2.59
   0  -3 -14   48.05    3.35
   0  -3 -15    0.63    0.61
   0   3  15    1.26    0.45
   0  -3  15    0.64    0.46
   0  -3 -15    0.35    0.81
   0  -3  15    0.71    0.37
   0  -3 -16    2.86    1.39
   0  -3 -16    3.27    1.00
   0   3  16    5.02    0.73
   0  -3  16    4.84    0.73
   0  -3  16    3.33    0.85
   0  -3 -17    1.44    1.05
   0  -3  17    0.36    0.37
   0   3  17    0.09    0.50
   0  -3  17    0.45    0.55
   0  -3 -17    0.17    0.55
   0  -3 -18    0.18    0.61
   0   3  18    0.36    0.52
   0  -3 -18    0.72    0.90
   0  -3  18    0.29    0.50
   0  -3 -19    2.14    1.04
   0  -3 -19    3.92    1.08
   0  -3 -20    0.72    0.83
   0  -3 -20    2.36    0.88
   0  -3 -21   96.29    6.12
   0  -3 -22   39.24    3.57
   0  -3 -23   19.59    2.53
   0  -4   0  672.94   29.22
   0  -4   1   97.49    5.85
   0  -4  -1  101.77    5.92
   0  -4   2   70.09    4.60
   0  -4  -2   72.19    4.68
   0  -4  -3    3.42    0.97
   0  -4   3    3.28    0.98
   0  -4  -4    0.69    0.61
   0  -4   4    0.16    0.50
   0  -4  -5    9.91    1.49
   0  -4   5    7.86    1.34
   0  -4  -6  144.43    7.60
   0  -4   6  126.55    7.24
   0  -4   7    8.39    1.41
   0  -4  -7    8.10    1.39
   0  -4   8    6.96    0.48
   0   4   8    7.05    0.47
   0  -4  -8    6.44    1.27
   0  -4   8    5.40    1.23
   0  -4   9   10.05    0.68
   0  -4   9   10.05    1.66
   0  -4  -9   10.48    1.63
   0  -4   9    6.26    0.88
   0  -4  10    4.21    1.28
   0  -4  10    3.02    0.61
   0  -4  10    4.39    0.50
   0  -4 -10    4.23    1.11
   0   4  10    4.60    0.49
   0  -4  11    3.40    0.46
   0   4  11    2.39    0.39
   0  -4  11    3.48    1.63
   0  -4 -11    2.14    1.27
   0  -4  11    1.46    0.46
   0  -4 -12   -0.37    1.00
   0   4  12    0.64    0.30
   0  -4  12    1.85    2.46
   0  -4 -13    9.67    1.63
   0   4  13    9.04    0.85
   0  -4 -13    6.39    1.89
   0  -4 -14  242.59   12.05
   0   4  14  256.37   10.39
   0  -4 -15   47.58    3.82
   0   4  15   49.84    2.67
   0   4  16   53.14    2.82
   0  -4 -16   53.69    4.12
   0  -5   0    0.24    0.83
   0  -5  -1    4.40    1.34
   0  -5   1    3.41    1.21
   0  -5   2   33.28    3.36
   0  -5  -2   32.49    3.35
   0  -5   3    0.24    0.87
   0  -5  -3    0.50    0.81
   0  -5  -4    0.25    0.77
   0  -5   4    0.74    0.76
   0  -5   5    7.77    1.68
   0  -5  -5    4.01    1.38
   0  -5   6  145.31    8.91
   0  -5  -6  158.42    9.05
   0  -5  -7   20.04    2.64
   0  -5   7   19.33    2.76
   0  -5  -8  228.09   12.08
   0  -5   8  217.57   12.34
   0  -5  -9    2.31    1.43
   0  -5 -10    1.57    1.34
   0  -5 -11   -0.40    0.92
   1   0 -26   -0.26    0.66
   1   0 -25    9.92    1.94
   1   0 -24    0.26    0.60
   1   0 -24    0.33    0.47
   1   0 -23   40.19    3.92
   1   0 -23   46.31    2.73
   1   0 -22   -0.50    0.78
   1   0 -22   -0.07    0.30
   1   0 -21   32.85    2.10
   1   0 -21   36.15    3.50
   1   0 -20   -0.24    0.61
   1   0 -20   -0.06    0.29
   1   0 -19    6.60    0.74
   1   0 -19    7.75    1.61
  -1   0  19    6.34    0.95
  -1   0  18    0.73    0.37
   1   0 -18    0.23    0.52
   1   0 -17   94.75    6.03
   1   0 -17   90.39    4.29
  -1   0  17   90.18    4.83
  -1   0  16    1.13    0.42
   1   0 -16    0.21    0.64
   1   0 -16    0.19    0.22
   1   0 -15 1028.51   43.47
  -1   0  15 1011.67   41.98
   1   0 -15 1015.77   41.37
  -1   0  14    0.58    0.28
   1   0 -14    0.37    0.54
  -1   0  14    0.67    0.61
   1   0 -14    0.04    0.19
   1   0 -13  124.93    7.32
  -1   0  13  131.44    6.35
   1   0 -13  136.18    5.88
  -1   0  13  145.92    7.96
  -1   0  12    0.57    0.55
   1   0 -12    0.03    0.12
   1   0 -12    0.16    0.58
  -1   0  11   83.22    4.25
   1   0 -11   88.86    5.19
  -1   0  11   93.71    5.51
  -1   0  10    0.23    0.22
  -1   0  10    0.16    0.48
   1   0 -10   -0.22    0.30
  -1   0   9  741.00   31.53
   1   0  -9  762.40   30.51
  -1   0   9  718.21   30.34
  -1   0   8    0.14    0.16
   1   0  -8   -0.05    0.21
  -1   0   8    0.24    0.37
  -1   0   7    4.60    0.78
   1   0  -7    4.27    0.52
  -1   0   7    4.61    0.51
   1   0  -6    0.08    0.13
  -1   0   6    0.09    0.37
  -1   0   6    0.03    0.12
  -1   0   5   18.28    1.03
   1   0  -5   16.17    1.01
  -1   0   5   16.74    1.37
  -1   0   4    0.34    0.28
   1   0  -4   -0.02    0.10
   1   0  -4    0.22    0.23
  -1   0   4    0.02    0.10
   1   0  -3  231.87    9.42
  -1   0   3  225.16    9.41
  -1   0   3  228.63    9.77
   1   0  -3  229.36    9.75
   1   0  -2    0.03    0.13
  -1   0   2    0.13    0.17
   1   0  -2    0.08    0.07
  -1   0   2    0.10    0.07
  -1   0   1 1183.77   48.38
   1   0  -1 1222.02   48.39
  -1   0   1 1202.15   48.56
   1   0   0   -0.07    0.08
   1   0   1   68.54    3.48
   1   0   2   -0.05    0.22
   1   0   3    2.20    0.34
   1   0   4    0.07    0.13
   1   0   5 1456.50   58.78
  -1   0  -5 1457.60   58.99
   1   0   6    0.16    0.12
  -1   0  -6    1.93    0.33
   1   0   7  148.74    6.47
  -1   0  -7  164.61    7.67
  -1   0  -7  160.17    6.73
  -1   0  -8    0.09    0.17
  -1   0  -8   -0.13    0.43
  -1   0  -9    1.08    0.29
  -1   0  -9    1.63    0.61
   1   0   9    1.70    0.41
   1   0  10    0.61    0.33
  -1   0 -10    0.81    0.28
  -1   0 -10    0.29    0.45
  -1   0 -11   56.85    2.93
  -1   0 -11   59.62    3.93
   1   0  11   54.04    3.17
  -1   0 -12    0.16    0.41
  -1   0 -12    0.42    0.25
   1   0  12    0.17    0.25
  -1   0 -13  145.64    6.61
   1   0  13  147.76    6.95
  -1   0 -13  131.59    7.61
  -1   0 -14    0.07    0.21
  -1   0 -14    0.54    0.55
   1   0  14    1.35    0.41
  -1   0 -15    0.19    0.47
  -1   0 -15   -0.15    0.36
   1   0  15    0.10    0.53
   1   0  16    0.43    0.31
  -1   0 -16    0.08    0.30
  -1   0 -16   -0.19    0.53
   1   0  17  174.99    8.30
  -1   0 -17  167.73    8.01
  -1   0 -17  171.88    9.25
   1   0  18   -0.12    0.34
  -1   0 -18    0.29    0.38
  -1   0 -18    0.42    0.56
   1   0  19  160.81    7.55
  -1   0 -19  142.05    8.34
  -1   0 -19  142.85    7.20
  -1   0 -20   -0.22    0.49
  -1   0 -20   -0.11    0.42
  -1   0 -21   25.28    2.77
  -1   0 -21   27.57    2.22
  -1   0 -22   -0.12    0.60
  -1   0 -22   -0.66    0.72
  -1   0 -23    5.59    1.36
  -1   0 -23    6.09    1.11
  -1   0 -24   -0.23    0.58
  -1   0 -25   69.17    5.11
  -1   0 -26    0.23    0.68
   1  -1 -25    0.89    0.49
   1   1 -24   28.44    2.96
   1  -1 -24   25.00    3.30
   1  -1 -24   33.48    2.51
   1   1 -23  167.01    9.28
   1  -1 -23  181.62    8.39
   1  -1 -23  153.89   10.00
   1  -1 -22  161.30    7.54
   1  -1 -22  141.86    9.23
   1   1 -22  142.46    8.29
   1  -1 -21  120.60    8.29
   1  -1 -21  137.30    6.63
   1   1 -21  128.76    7.45
   1   1 -20    5.82    1.29
   1  -1 -20    6.78    1.71
   1  -1 -20    9.15    1.12
  -1  -1  19    0.55    0.36
   1   1 -19    0.73    0.53
  -1   1  19    0.75    0.35
   1  -1 -19    1.15    0.50
   1  -1 -19    1.16    0.89
   1   1 -18   24.17    2.42
   1  -1 -18   19.02    2.72
   1  -1 -18   26.61    1.89
  -1  -1  18   26.14    3.11
  -1   1  18   22.31    1.85
  -1  -1  18   19.94    1.80
   1   1 -17  117.16    6.85
  -1   1  17  118.37    6.16
   1  -1 -17  110.94    7.70
  -1  -1  17  125.91    6.24
   1  -1 -17  132.45    6.11
  -1  -1  16  124.82    7.32
   1  -1 -16  120.16    5.53
  -1  -1  16  103.58    5.56
  -1   1  16  109.87    5.60
   1   1 -16  105.83    6.24
   1   1 -15   13.40    1.66
  -1  -1  15   14.99    1.37
   1  -1 -15   17.31    1.36
  -1   1  15   17.19    1.45
  -1  -1  15   15.93    2.14
   1  -1 -14   16.72    1.31
  -1  -1  14   14.65    2.00
   1   1 -14   15.59    1.72
  -1   1  14   18.18    1.45
  -1  -1  14   15.94    1.37
   1   1 -13    7.39    1.15
   1  -1 -13    7.54    0.80
  -1  -1  13    9.35    1.48
  -1  -1  13    7.01    0.84
  -1   1  13    8.23    0.89
  -1   1  12    6.04    0.73
  -1  -1  12    7.09    1.20
  -1  -1  12    5.22    0.69
   1   1 -12    6.24    1.03
   1  -1 -12    6.00    0.71
  -1   1  11    9.73    0.93
  -1  -1  11    9.85    1.36
  -1  -1  11    9.72    0.92
   1  -1 -11    8.86    0.86
   1   1 -11    9.63    1.18
   1  -1 -11   12.21    1.80
   1   1 -10   27.09    2.14
  -1   1  10   31.12    1.85
  -1  -1  10   30.85    2.37
  -1  -1  10   29.83    1.83
   1  -1 -10   33.80    2.97
   1  -1 -10   27.98    1.74
  -1  -1   9  502.43   21.37
   1   1  -9  517.36   20.95
  -1   1   9  516.53   21.39
  -1  -1   9  533.21   22.16
   1  -1  -9  515.26   21.54
   1  -1  -9  501.24   23.11
   1   1  -9  521.71   21.56
   1  -1  -8  751.75   31.55
  -1  -1   8  702.36   29.66
   1  -1  -8  735.20   29.82
  -1  -1   8  770.09   30.37
  -1   1   8  707.57   29.67
   1   1  -8  727.90   29.82
   1  -1  -7  542.91   23.72
  -1  -1   7  537.34   22.06
   1   1  -7  543.97   22.16
  -1   1   7  528.34   22.05
   1  -1  -7  535.86   22.14
  -1  -1   7  534.95   22.62
   1  -1  -6   61.44    3.95
  -1   1   6   55.47    2.71
   1   1  -6   57.22    2.79
   1  -1  -6   57.77    2.79
  -1  -1   6   60.50    3.17
  -1  -1   6   56.62    2.71
   1  -1  -5    2.18    0.31
  -1  -1   5    2.26    0.45
   1   1  -5    1.99    0.30
   1   1  -5    2.31    0.32
  -1   1   5    2.20    0.28
  -1  -1   5    2.10    0.68
  -1  -1   5    2.28    0.29
   1   1  -4    0.20    0.13
   1   1  -4    0.03    0.13
   1  -1  -4   -0.24    0.42
  -1   1   4    0.13    0.10
   1  -1  -4    0.10    0.10
  -1  -1   4    0.06    0.10
  -1  -1   4    0.46    0.40
  -1  -1   3  478.05   19.21
   1   1  -3  471.63   19.41
   1   1  -3  461.38   19.23
   1  -1  -3  484.26   19.24
  -1  -1   3  476.24   19.79
   1  -1  -3  485.72   20.38
  -1   1   3  466.01   19.21
   1   1  -2  849.18   34.68
  -1   1   2  888.41   34.69
  -1  -1   2  886.44   34.69
  -1  -1   2  916.41   35.24
   1  -1  -2  801.87   34.68
  -1   1   1  500.93   20.24
  -1  -1   1  509.45   20.75
   1   1  -1  491.38   20.23
  -1  -1   1  509.37   20.25
   1  -1  -1  501.43   20.24
   1  -1   0   20.63    1.04
   1  -1   0   20.55    0.94
  -1  -1   0   18.99    1.15
  -1  -1   0   20.50    1.32
   1   1   1    0.52    0.20
   1  -1   1    0.34    0.18
   1   1   1    0.49    0.20
   1   1   2    7.71    0.67
  -1  -1  -2    7.53    0.72
   1   1   3    2.39    0.37
  -1  -1  -3    3.31    0.47
   1   1   4    4.89    0.54
   1  -1   4    6.75    0.48
   1   1   5  134.09    6.12
   1  -1   5  142.10    6.02
   1  -1   6  181.29    8.03
   1   1   6  188.52    8.04
   1   1   7  271.82   11.60
   1  -1   7  275.85   11.82
  -1  -1  -7  277.04   11.81
  -1   1  -7  269.56   11.60
  -1  -1  -8   40.51    2.33
   1  -1   8   38.09    2.27
  -1   1  -8   37.64    2.21
   1  -1   8   37.50    2.43
   1   1   8   38.21    2.25
   1   1   9   94.24    4.82
  -1   1  -9   99.89    4.87
   1  -1   9  106.50    5.29
   1  -1   9  103.39    4.91
  -1  -1  -9   98.49    4.89
  -1   1 -10   53.77    3.17
   1  -1  10   63.86    3.69
   1  -1  10   58.21    3.20
  -1  -1 -10   56.94    3.17
   1   1  10   56.67    3.15
  -1  -1 -11   27.59    1.88
  -1   1 -11   25.71    1.93
   1   1  11   24.77    1.82
   1  -1  11   27.88    2.32
   1  -1  11   25.37    1.84
   1   1  12  193.80    8.74
  -1  -1 -12  204.35    8.77
  -1   1 -12  175.89    8.83
   1  -1  12  186.08    8.73
   1   1  13  306.71   13.04
  -1  -1 -13  308.79   13.05
   1  -1  13  302.41   13.06
  -1   1 -13  276.33   13.15
  -1  -1 -14   49.51    3.00
  -1  -1 -14   47.26    4.13
  -1   1 -14   49.02    3.23
   1  -1  14   49.13    3.04
   1   1  14   48.89    3.00
  -1  -1 -15    0.49    0.39
  -1   1 -15    0.38    0.35
   1   1  15    1.57    0.48
  -1  -1 -15    0.25    0.63
   1  -1  15    0.60    0.34
  -1  -1 -16    1.97    0.56
   1  -1  16    1.27    0.46
   1   1  16    1.65    0.47
  -1  -1 -16    0.76    0.69
  -1   1 -16    1.76    0.62
  -1  -1 -17   27.74    2.08
   1   1  17   22.04    1.88
  -1  -1 -17   17.09    2.45
  -1   1 -17   22.04    2.13
   1  -1  17   24.94    2.01
   1  -1  18   25.05    2.04
  -1  -1 -18   18.16    2.57
  -1   1 -18   22.85    2.18
  -1  -1 -18   22.29    1.92
   1   1  18   23.30    1.98
   1  -1  19   23.78    2.08
  -1  -1 -19   24.27    2.07
   1   1  19   24.62    2.07
  -1   1 -19   24.25    2.32
  -1  -1 -19   18.84    2.59
  -1  -1 -20    2.07    0.70
  -1  -1 -20    2.41    1.07
  -1   1 -20    2.14    0.82
  -1  -1 -21   10.37    1.40
  -1   1 -21    8.20    1.40
  -1  -1 -21    9.24    1.85
  -1   1 -22   -0.18    0.51
  -1  -1 -22    0.28    0.75
  -1  -1 -22    0.86    0.63
  -1  -1 -23   54.13    3.63
  -1  -1 -23   40.96    4.20
  -1   1 -23   48.49    3.71
  -1   1 -24   31.37    2.92
  -1  -1 -24   33.26    2.82
  -1  -1 -24   29.80    3.45
  -1   1 -25    8.66    1.50
  -1  -1 -25    7.34    1.77
  -1  -1 -25    8.75    1.45
  -1   1 -26    3.46    1.02
  -1   1 -27   27.44    2.82
   1  -2 -25    0.35    0.70
   1  -2 -24   74.12    4.78
   1  -2 -23    1.63    0.73
   1  -2 -22    2.48    0.81
   1  -2 -22    0.67    1.09
  -1  -2  21    1.88    1.03
   1  -2 -21    1.33    0.63
  -1  -2  20   10.15    1.91
   1  -2 -20    9.27    1.35
  -1  -2  19    1.00    0.89
  -1   2  19    1.10    0.45
   1  -2 -19    1.32    0.64
  -1  -2  19    1.36    0.49
   1  -2 -18    4.00    0.86
  -1   2  18    3.25    0.68
  -1  -2  18    4.76    1.28
  -1  -2  18    4.07    0.78
  -1  -2  17    0.38    0.35
   1  -2 -17   -0.31    0.71
   1  -2 -17    0.35    0.43
  -1   2  17    0.54    0.37
  -1  -2  17    1.53    0.84
  -1   2  16  471.57   19.95
  -1  -2  16  518.84   21.56
   1  -2 -16  417.34   22.21
   1  -2 -16  478.25   20.27
  -1  -2  16  452.46   19.94
  -1  -2  15   53.44    3.07
   1  -2 -15   42.51    4.33
  -1   2  15   53.54    3.04
  -1  -2  15   57.26    3.98
   1  -2 -15   52.66    3.26
   1  -2 -14  387.84   20.67
  -1   2  14  439.90   18.45
  -1  -2  14  467.23   19.70
   1  -2 -14  437.32   18.73
  -1  -2  14  426.19   18.45
  -1  -2  13    1.05    0.66
   1  -2 -13    0.36    0.35
  -1  -2  13    0.63    0.32
   1  -2 -13    0.86    0.78
  -1   2  13    0.20    0.25
   1  -2 -12    0.28    0.71
   1  -2 -12    0.17    0.24
  -1  -2  12    0.81    0.46
  -1  -2  12    0.19    0.18
  -1   2  12    0.50    0.27
   1  -2 -11    6.49    1.55
  -1  -2  11    7.29    0.76
  -1   2  11    6.83    0.74
  -1  -2  11    8.14    1.18
   1  -2 -11    7.34    0.90
  -1   2  10  390.38   16.07
  -1  -2  10  368.56   16.04
   1  -2 -10  344.98   18.32
  -1  -2  10  390.72   16.88
   1  -2 -10  402.38   16.47
  -1  -2   9   14.33    1.46
   1  -2  -9   18.71    2.38
  -1  -2   9   16.55    1.94
  -1   2   9   15.83    1.09
  -1  -2   9   14.46    1.05
  -1   2   8  207.97    9.05
  -1  -2   8  213.34    9.06
   1  -2  -8  206.65   11.21
  -1  -2   8  218.99    9.76
  -1  -2   8  221.98   10.54
  -1  -2   7    0.07    0.14
  -1   2   7    0.48    0.18
  -1  -2   7    0.12    0.40
   1  -2  -7    0.86    0.66
   1  -2  -6   29.44    1.88
  -1  -2   6   27.45    2.10
   1   2  -6   28.07    1.52
  -1  -2   6   27.42    1.49
  -1   2   6   29.10    1.50
  -1   2   5    0.19    0.12
  -1  -2   5    0.12    0.11
   1  -2  -5    0.26    0.20
  -1  -2   5    0.18    0.30
   1   2  -5    0.14    0.15
   1  -2  -4   40.03    2.26
  -1   2   4   39.14    1.79
  -1  -2   4   36.84    1.78
  -1  -2   4   39.19    2.45
   1   2  -4   38.15    2.01
  -1  -2   3    0.90    0.13
   1   2  -3    0.90    0.25
  -1   2   3    0.90    0.14
   1   2  -3    1.14    0.19
   1  -2  -3    1.01    0.18
   1  -2  -3    0.84    0.33
  -1  -2   3    0.73    0.33
   1   2  -2  391.32   16.13
   1  -2  -2  428.87   16.78
   1   2  -2  381.50   16.55
   1  -2  -2  395.03   16.13
  -1  -2   2  411.38   17.05
  -1  -2   2  404.24   16.28
  -1  -2   1   67.54    3.51
   1  -2  -1   64.59    3.21
   1   2  -1   57.90    3.07
  -1  -2   0  852.49   34.47
   1  -2   0  878.78   34.12
   1   2   0  777.30   34.01
  -1  -2  -1    0.65    0.42
   1  -2   1    0.88    0.31
   1  -2   2   52.43    2.64
   1  -2   2   53.60    2.23
  -1  -2  -2   51.35    2.98
   1   2   2   47.13    2.33
   1  -2   2   45.07    2.42
   1   2   3    3.50    0.32
  -1  -2  -3    2.89    0.60
   1  -2   3    3.77    0.35
   1  -2   3    4.04    0.50
   1  -2   4  235.37    9.78
  -1  -2  -4  230.55   10.32
   1  -2   4  226.65    9.55
   1   2   4  225.14    9.52
   1  -2   5   18.90    1.17
  -1  -2  -5   20.57    1.64
   1   2   5   18.41    1.14
   1  -2   5   20.11    1.24
   1   2   6  728.51   29.17
   1  -2   6  707.89   29.19
   1  -2   6  699.64   29.26
   1  -2   6  714.48   29.18
   1  -2   7   38.43    2.18
   1  -2   7   37.60    2.00
   1   2   7   37.01    2.06
   1  -2   7   40.10    2.13
   1  -2   8    2.84    0.46
   1   2   8    3.29    0.48
   1  -2   8    1.98    0.43
   1  -2   8    2.40    0.36
   1   2   9    2.76    0.46
  -1  -2  -9    3.21    0.66
   1  -2   9    2.59    0.37
   1  -2   9    2.28    0.51
   1  -2   9    2.20    0.43
   1   2  10   22.01    1.53
  -1  -2 -10   21.80    1.88
   1  -2  10   23.84    1.81
   1  -2  10   21.37    1.56
   1  -2  11    4.00    0.62
   1   2  11    3.90    0.62
  -1  -2 -11    4.55    0.81
   1  -2  11    2.18    0.63
   1   2  12    3.04    0.59
   1  -2  12    2.76    0.58
  -1  -2 -12    2.37    0.65
   1  -2  12    3.08    0.78
  -1  -2 -13    5.84    1.52
   1  -2  13   10.16    1.06
  -1  -2 -13    9.52    1.23
   1   2  13    7.63    0.89
   1  -2  13    7.75    1.25
   1  -2  14   85.50    4.81
  -1  -2 -14   99.21    5.34
   1  -2  14  101.18    5.63
   1   2  14   96.61    4.85
  -1  -2 -15    0.54    0.52
   1   2  15    0.81    0.40
   1  -2  15    0.51    0.68
   1  -2  15    0.38    0.42
  -1  -2 -16   76.86    4.60
   1   2  16   70.24    4.07
   1  -2  16   77.67    4.25
  -1  -2 -17    9.86    1.38
   1  -2  17    8.73    1.14
   1   2  17    7.75    1.06
  -1  -2 -18    0.78    0.58
   1  -2  18    0.91    0.47
   1   2  18    1.61    0.55
  -1  -2 -19    0.33    0.48
   1  -2  19    1.31    0.55
  -1  -2 -19    0.94    0.79
   1   2  19    0.23    0.40
  -1  -2 -20  103.60    7.79
  -1  -2 -20  137.08    7.11
  -1  -2 -21    3.59    0.99
  -1  -2 -21    4.10    1.34
  -1  -2 -22   -0.19    0.67
  -1  -2 -22    0.32    0.73
  -1  -2 -23    0.39    0.75
  -1  -2 -24    5.07    1.23
  -1  -2 -25    1.47    0.97
   1  -3 -22  222.29   11.31
   1  -3 -21   26.12    2.66
   1  -3 -20    3.94    1.49
   1  -3 -20    8.55    1.43
   1  -3 -19    0.35    0.81
   1  -3 -19    0.51    0.58
  -1  -3  18   22.56    1.86
   1  -3 -18   25.64    2.39
  -1  -3  18   18.59    2.18
  -1   3  18   27.02    1.93
   1  -3 -18   19.65    3.08
   1  -3 -17   21.53    3.14
  -1  -3  17   28.85    2.01
  -1  -3  17   22.20    2.28
   1  -3 -17   28.22    2.47
  -1   3  17   25.60    1.90
   1  -3 -16   90.51    5.22
  -1  -3  16   89.28    4.55
  -1  -3  16   79.36    5.04
  -1   3  16   92.74    4.52
  -1  -3  15   10.83    1.07
   1  -3 -15    8.28    1.95
  -1   3  15    9.79    1.04
  -1  -3  15    8.88    1.35
   1  -3 -15    9.98    1.35
  -1  -3  14    5.74    0.75
   1  -3 -14    3.45    1.39
  -1   3  14    5.96    0.73
  -1  -3  14    4.24    0.92
   1  -3 -14    4.03    0.87
  -1   3  13    1.45    0.38
  -1  -3  13    1.36    0.60
   1  -3 -13    2.45    0.75
  -1  -3  13    1.51    0.41
   1  -3 -13    0.67    0.78
   1  -3 -12    0.33    0.75
  -1   3  12    1.19    0.37
   1  -3 -12    1.00    0.56
  -1  -3  12    0.94    0.45
  -1  -3  12    0.47    0.26
  -1  -3  11    0.60    0.97
  -1  -3  11    0.32    0.22
  -1   3  11    0.30    0.22
   1  -3 -11    0.63    0.97
  -1  -3  11    0.22    0.30
  -1  -3  10   13.81    2.17
   1  -3 -10   12.74    2.27
  -1  -3  10   12.14    1.37
  -1  -3  10   14.83    1.04
  -1   3  10   13.50    0.99
  -1  -3   9   74.69    4.93
  -1  -3   9   66.31    3.98
  -1  -3   9   70.24    3.36
  -1   3   9   75.28    3.38
   1  -3  -9   61.68    5.35
   1  -3  -8  621.21   26.20
  -1  -3   8  600.43   26.80
  -1  -3   8  611.79   25.17
  -1   3   8  620.26   25.16
  -1  -3   7  101.95    5.64
   1  -3  -7  100.75    5.21
  -1  -3   7   97.30    4.29
  -1   3   7   95.24    4.28
   1  -3  -6   47.31    2.98
  -1   3   6   43.64    2.10
  -1  -3   6   47.04    2.13
  -1  -3   6   42.65    3.17
  -1  -3   5    0.39    0.47
  -1  -3   5    0.27    0.12
   1  -3  -5    0.31    0.35
  -1   3   4   13.10    0.76
   1  -3  -4   13.31    1.35
  -1  -3   4   13.05    1.51
  -1  -3   4   13.09    0.85
   1  -3  -3   71.85    4.06
  -1  -3   3   74.45    4.38
  -1  -3   2  448.62   19.98
   1  -3  -2  464.57   19.67
   1  -3  -1   54.35    3.29
  -1  -3   1   58.10    3.64
   1  -3   0   35.28    2.41
  -1  -3   0   37.27    2.73
   1  -3   1    1.00    0.41
  -1  -3  -1    0.13    0.35
   1  -3   2    0.45    0.30
  -1  -3  -2    0.13    0.57
  -1  -3  -3   16.34    1.71
   1  -3   3   16.09    1.43
   1   3   4   12.34    0.77
   1  -3   4   13.97    0.68
  -1  -3  -4   13.79    1.58
   1  -3   4   11.99    0.91
   1   3   4   13.52    0.67
   1  -3   4   14.17    1.31
   1  -3   5   13.57    0.78
  -1  -3  -5   15.57    1.64
   1  -3   5   17.37    1.43
   1   3   6  273.39   11.33
  -1  -3  -6  295.62   12.84
   1  -3   6  288.04   12.15
   1  -3   6  266.00   11.34
   1   3   7   34.37    1.81
   1  -3   7   34.02    1.84
  -1  -3  -7   40.34    2.91
   1  -3   7   40.87    2.41
   1  -3   8    1.46    0.43
   1  -3   8    2.75    0.59
   1   3   8    3.46    0.45
  -1  -3  -8    1.41    0.69
   1  -3   9    8.68    0.91
   1  -3   9    8.33    0.98
   1   3   9    7.93    0.76
   1  -3   9    9.42    0.82
   1  -3  10   31.82    1.87
   1  -3  10   29.29    1.98
   1  -3  10   29.22    2.12
   1   3  10   30.59    1.80
   1  -3  11   29.45    2.36
   1  -3  11   34.23    2.04
   1   3  11   33.68    1.98
   1  -3  11   32.33    2.17
  -1  -3 -11   35.19    2.81
   1   3  12  195.61    8.53
   1  -3  12  192.41    8.58
   1  -3  12  174.12    8.73
  -1  -3 -12  186.19    9.57
  -1  -3 -13   44.66    3.35
   1  -3  13   36.48    2.62
   1  -3  13   44.59    2.58
   1   3  13   43.78    2.51
  -1  -3 -14   55.07    3.81
   1  -3  14   47.98    3.12
   1   3  14   55.63    2.92
   1  -3  14   53.73    2.97
   1  -3  15    1.52    0.58
  -1  -3 -15    2.47    0.89
   1  -3  15    1.92    0.54
  -1  -3 -15    2.09    1.13
   1   3  15    1.78    0.48
   1   3  16    0.34    0.32
   1  -3  16    0.37    0.38
  -1  -3 -16   -0.72    0.97
   1  -3  16    0.24    0.35
  -1  -3 -16    1.29    0.71
   1   3  17    4.64    0.77
   1  -3  17    3.80    0.74
  -1  -3 -17    4.21    1.12
   1  -3  18   58.16    3.40
   1   3  18   56.07    3.29
  -1  -3 -18   62.26    4.33
  -1  -3 -19    4.48    1.60
  -1  -3 -19    7.76    1.50
  -1  -3 -20    0.87    0.71
  -1  -3 -20    0.37    0.76
  -1  -3 -21    1.37    0.88
  -1  -3 -22    2.39    1.21
  -1   4  16   26.91    1.79
   1  -4 -16   29.02    2.82
   1  -4 -15  296.53   13.74
  -1   4  15  289.98   12.08
   1  -4 -14   41.07    3.35
  -1   4  14   40.26    2.23
   1  -4 -13   13.97    2.69
  -1   4  13   17.21    1.23
  -1  -4  12    0.39    0.38
  -1  -4  12    0.95    2.94
  -1   4  12    0.59    0.23
   1  -4 -12    1.11    1.20
  -1  -4  11   13.03    1.49
  -1  -4  11   23.23    1.35
  -1   4  11   21.25    1.27
   1  -4 -11   16.89    2.85
  -1  -4  10   11.75    2.34
  -1  -4  10   12.70    0.89
  -1  -4  10    9.95    1.25
   1  -4 -10   13.22    1.79
  -1   4  10   12.63    0.87
  -1  -4   9  207.75   11.31
  -1  -4   9  211.48    8.57
  -1   4   9  200.89    8.51
   1  -4  -9  203.94   10.23
   1  -4  -8   12.84    1.69
  -1  -4   8   13.48    2.04
   1  -4  -8    9.46    2.01
  -1   4   8   11.51    0.84
  -1  -4   7    0.85    0.85
   1  -4  -7    1.30    0.71
  -1  -4   7    1.39    0.30
   1  -4  -6   -0.16    0.55
  -1  -4   6   -0.81    0.78
   1  -4  -5    1.74    0.75
  -1  -4   5    0.79    0.81
   1  -4  -4    4.41    0.98
  -1  -4   4    3.08    0.96
   1  -4  -3    0.93    0.57
  -1  -4   3   -0.19    0.59
  -1  -4   2   30.19    2.92
   1  -4  -2   37.64    2.88
   1  -4  -1  404.74   17.70
  -1  -4   1  372.39   18.00
  -1  -4   0   37.27    3.30
   1  -4   0   42.85    3.16
   1  -4   1   20.71    2.12
  -1  -4  -1   22.77    2.42
   1  -4   2    6.49    1.16
  -1  -4  -2    6.06    1.32
  -1  -4  -3    0.57    0.55
   1  -4   3    0.29    0.54
  -1  -4  -4   15.30    1.97
   1  -4   4   13.59    1.64
   1  -4   5  291.29   13.44
  -1  -4  -5  286.46   14.00
   1  -4   6   31.85    2.59
  -1  -4  -6   30.10    2.89
   1  -4   7   19.81    1.98
   1  -4   7   17.94    1.12
  -1  -4  -7   21.46    2.37
   1  -4   8    0.44    0.54
   1   4   8    0.22    0.12
  -1  -4  -8    0.79    0.70
   1  -4   8    0.37    0.40
   1   4   8    0.27    0.22
   1  -4   8    0.53    0.16
   1  -4   9    0.15    0.15
   1  -4   9    0.18    0.26
   1  -4   9   -0.31    0.59
   1   4   9    0.08    0.13
   1   4   9   -0.13    0.27
  -1  -4  -9    0.40    0.71
  -1  -4 -10   14.25    1.95
   1   4  10   13.28    0.88
   1  -4  10   17.35    1.98
   1  -4  10   14.10    0.93
   1   4  11   45.86    2.45
   1  -4  11   53.12    4.15
   1  -4  11   52.74    2.56
   1   4  12    2.76    0.45
   1  -4  12    3.16    1.46
  -1  -4 -13   20.82    2.48
   1   4  13   24.13    1.51
  -1  -4 -14    6.73    1.45
  -1  -4 -14    6.20    1.94
   1   4  14   10.09    0.95
  -1  -4 -15   -0.39    1.07
  -1  -4 -15    1.11    0.82
   1   4  15    0.86    0.36
   1   4  16   17.32    1.40
  -1  -4 -16   17.91    2.39
   1  -5 -11    5.93    1.96
   1  -5 -10   -0.78    0.98
   1  -5  -9   86.34    7.08
   1  -5  -8   17.06    2.97
  -1  -5   8   25.14    3.72
  -1  -5   7  189.21   10.99
   1  -5  -7  209.37   10.34
  -1  -5   6    0.61    1.13
   1  -5  -6    0.71    1.21
   1  -5  -6    0.71    1.00
   1  -5  -5    1.04    0.94
   1  -5  -5    4.89    1.42
  -1  -5   5    4.39    1.57
  -1  -5   4    3.43    1.41
   1  -5  -4    1.84    1.03
  -1  -5   3   94.49    6.73
   1  -5  -3   96.16    6.30
  -1  -5   2   19.25    2.70
   1  -5  -2   22.94    2.63
  -1  -5   1  122.28    7.88
   1  -5  -1  123.01    7.46
  -1  -5   0    0.55    0.98
   1  -5   0    1.75    0.93
   1  -5   1    4.79    1.26
  -1  -5  -1    2.46    1.20
  -1  -5  -2    3.83    1.32
   1  -5   2    0.43    0.71
  -1  -5  -3   38.17    3.84
   1  -5   3   39.36    3.50
  -1  -5  -4    6.27    1.55
   1  -5   4    5.60    1.37
  -1  -5  -5    7.38    1.67
   1  -5   5    7.80    1.56
   1  -5   6    1.76    1.02
  -1  -5  -6    2.46    1.09
  -1  -5  -7   94.13    6.64
   1  -5   7   96.07    6.30
   1  -5   8    3.94    1.37
   2   0 -25   -0.28    0.76
   2   0 -24  188.17   11.37
   2   0 -24  212.12    9.24
   2   0 -23   -0.27    0.80
   2   0 -23   -0.07    0.28
   2   0 -22   14.86    1.21
   2   0 -22   13.46    2.22
   2   0 -21    0.24    0.25
   2   0 -21    0.26    0.66
   2   0 -20   22.97    1.54
   2   0 -20   25.44    2.95
   2   0 -19   -0.25    0.62
  -2   0  19    0.10    0.39
   2   0 -19    0.27    0.24
   2   0 -18    2.15    0.89
   2   0 -18    2.61    0.44
  -2   0  18    1.98    0.54
   2   0 -17    0.05    0.19
   2   0 -17    0.46    0.66
  -2   0  17    0.09    0.26
   2   0 -16  437.96   18.11
  -2   0  16  465.48   21.09
   2   0 -16  421.49   20.24
  -2   0  16  428.56   18.65
  -2   0  15    1.50    0.40
  -2   0  15   -0.25    0.80
   2   0 -15    0.21    0.52
   2   0 -14    1.14    0.48
  -2   0  14    0.85    0.33
   2   0 -14    1.74    0.75
  -2   0  14    2.07    0.98
  -2   0  13    0.07    0.20
   2   0 -13    0.38    0.27
   2   0 -13    0.72    0.59
  -2   0  13    0.21    0.57
   2   0 -12    4.05    0.68
  -2   0  12    2.51    0.91
  -2   0  12    4.57    0.63
   2   0 -11    0.23    0.24
  -2   0  11    0.35    0.47
  -2   0  11    0.06    0.23
  -2   0  10  932.33   39.79
   2   0 -10 1016.80   40.01
  -2   0  10  997.18   41.16
  -2   0   9    0.13    0.37
   2   0  -9    0.94    0.30
  -2   0   9    0.15    0.18
   2   0  -8  210.71    8.85
  -2   0   8  194.20    8.71
  -2   0   8  211.47    9.71
   2   0  -7    0.04    0.15
  -2   0   7    0.10    0.35
  -2   0   7    0.04    0.15
  -2   0   6    0.07    0.14
   2   0  -6    0.12    0.15
   2   0  -6    0.09    0.27
  -2   0   6    0.18    0.30
   2   0  -5    0.03    0.14
  -2   0   5    0.03    0.11
  -2   0   5   -0.08    0.29
   2   0  -5    0.38    0.29
  -2   0   4  433.85   17.60
   2   0  -4  432.64   17.62
   2   0  -4  417.85   18.09
  -2   0   4  423.52   18.11
   2   0  -3    0.05    0.08
  -2   0   3    0.07    0.11
   2   0  -3    0.05    0.22
  -2   0   3   -0.11    0.26
  -2   0   2  289.75   11.97
  -2   0   2  272.23   12.29
   2   0  -2  303.69   12.00
  -2   0   1    0.39    0.20
   2   0  -1    0.15    0.09
  -2   0   0    7.27    0.73
   2   0   0    8.48    0.74
   2   0   1   -0.24    0.25
  -2   0  -1    0.25    0.29
   2   0   2  549.27   23.68
   2   0   3    0.22    0.46
   2   0   4  377.63   16.28
  -2   0  -5    3.57    0.76
   2   0   5    0.46    0.32
   2   0   6   82.02    4.07
  -2   0  -6   94.51    4.71
   2   0   7    0.14    0.20
  -2   0  -7    0.48    0.43
   2   0   8  121.25    5.49
  -2   0  -8  128.97    6.15
   2   0   9    0.08    0.16
  -2   0  -9    0.65    0.40
  -2   0  -9    0.14    0.44
  -2   0 -10  182.83    8.17
  -2   0 -10  179.48    8.78
   2   0  10  166.65    7.37
  -2   0 -11    0.10    0.28
   2   0  11   -0.07    0.13
  -2   0 -11   -0.16    0.47
  -2   0 -12   31.48    2.70
  -2   0 -12   31.03    2.22
   2   0  12   26.28    2.07
  -2   0 -13   -0.11    0.31
   2   0  13    0.21    0.30
  -2   0 -13   -0.17    0.49
  -2   0 -14   87.34    4.81
   2   0  14   85.42    4.78
  -2   0 -14   93.60    5.54
  -2   0 -15    0.12    0.34
  -2   0 -15   -0.18    0.53
   2   0  15    0.68    0.39
  -2   0 -16  415.34   18.47
   2   0  16  438.49   18.48
  -2   0 -16  402.52   19.19
   2   0  17    0.12    0.31
  -2   0 -17    0.19    0.52
  -2   0 -17    0.76    0.65
  -2   0 -18    9.73    1.33
   2   0  18   10.20    1.31
  -2   0 -18   11.30    1.71
  -2   0 -19   -0.14    0.56
   2   0  19    0.91    0.50
  -2   0 -19    0.41    0.72
  -2   0 -20    0.41    0.64
  -2   0 -20    0.57    0.50
  -2   0 -21    0.14    0.59
  -2   0 -21    0.42    0.61
  -2   0 -22   61.47    4.55
  -2   0 -23    0.21    0.66
  -2   0 -24   10.16    1.73
  -2   0 -25   -0.22    0.55
  -2   0 -26   15.78    2.21
   2  -1 -25    0.47    0.48
   2  -1 -24   72.22    4.14
   2  -1 -24   64.84    5.69
   2  -1 -23   92.95    4.89
   2  -1 -23   77.26    6.43
   2  -1 -22   70.28    3.99
   2  -1 -22   66.23    5.64
   2  -1 -21    0.89    0.51
  -2  -1  21    1.34    0.97
   2  -1 -21    1.87    1.01
   2  -1 -20    3.73    0.73
   2  -1 -20    2.14    1.14
   2   1 -20    2.64    0.92
  -2  -1  20    3.50    1.43
   2  -1 -19   11.71    1.22
  -2   1  19   13.06    1.38
   2   1 -19   11.78    1.75
  -2  -1  19   12.13    1.36
  -2  -1  19   13.75    2.35
   2  -1 -19   15.93    2.45
   2   1 -18  144.71    8.04
  -2  -1  18  161.27    9.23
   2  -1 -18  153.15    6.91
  -2  -1  18  135.31    6.99
  -2   1  18  141.87    7.03
   2  -1 -18  147.76    9.05
   2  -1 -17  184.89    8.24
   2   1 -17  182.52    9.44
  -2  -1  17  176.56    8.41
  -2   1  17  173.90    8.38
  -2  -1  17  193.00   10.37
  -2  -1  16  225.06   11.23
   2   1 -16  198.65    8.68
   2   1 -16  229.70   10.50
   2  -1 -16  228.90    9.21
   2   1 -16  194.68    8.34
  -2   1  16  220.60    9.37
  -2  -1  16  212.12    9.33
   2   1 -15   27.14    1.30
  -2   1  15   25.96    1.89
   2   1 -15   30.96    2.66
  -2  -1  15   27.94    1.94
   2  -1 -15   31.03    1.90
   2   1 -15   25.89    1.69
  -2  -1  15   33.24    3.08
   2   1 -14    3.56    0.88
  -2  -1  14    3.59    0.61
  -2  -1  14    4.02    1.05
  -2   1  14    4.43    0.66
  -2  -1  13   10.44    1.03
   2  -1 -13   12.13    1.24
  -2   1  13   10.72    1.04
   2   1 -13   12.81    1.25
  -2  -1  13   10.59    1.61
   2  -1 -13   11.93    1.92
  -2  -1  12   74.28    4.56
   2  -1 -12   75.83    5.16
  -2   1  12   66.73    3.51
   2   1 -12   70.58    3.77
   2  -1 -12   68.48    3.74
  -2  -1  12   64.54    3.48
  -2  -1  11   13.36    1.09
  -2  -1  11   11.83    1.55
   2  -1 -11   14.68    1.25
   2   1 -11   14.38    1.23
  -2   1  11   13.31    1.10
  -2  -1  10   36.19    2.71
   2   1 -10   37.32    2.20
   2  -1 -10   35.60    2.18
   2  -1 -10   40.91    3.27
   2   1 -10   38.54    2.44
  -2  -1  10   33.26    2.02
  -2   1  10   36.37    2.07
   2   1  -9  147.51    6.50
   2  -1  -9  150.77    7.88
  -2   1   9  139.88    6.34
  -2  -1   9  139.41    6.34
   2  -1  -9  142.91    6.48
   2   1  -9  137.19    6.81
  -2  -1   9  149.24    7.20
  -2  -1   8  224.98   10.04
   2  -1  -8  232.44   10.79
  -2  -1   8  209.26    9.23
   2  -1  -8  212.06    9.33
   2   1  -8  216.79    9.84
   2   1  -8  216.72    9.34
  -2   1   8  217.29    9.25
   2   1  -7    8.99    1.04
  -2  -1   7    9.16    1.09
  -2  -1   7    7.66    0.69
   2  -1  -7    9.24    0.76
   2   1  -7    8.42    0.73
   2  -1  -7    8.24    1.24
  -2   1   7    7.88    0.69
   2   1  -6  175.92    7.60
   2   1  -6  173.77    8.15
   2  -1  -6  180.56    7.62
  -2   1   6  179.30    7.56
  -2  -1   6  174.75    7.55
  -2  -1   6  172.76    8.15
   2  -1  -6  181.42    8.74
  -2  -1   5   10.85    0.75
  -2   1   5   10.27    0.74
   2   1  -5   11.60    0.79
   2   1  -5   13.71    1.22
   2  -1  -5   11.80    0.80
   2  -1  -5   11.55    1.32
  -2   1   4   33.28    1.68
  -2  -1   4   40.23    3.11
  -2  -1   4   33.78    1.68
   2   1  -4   34.98    1.71
   2  -1  -4   33.15    1.69
   2   1  -4   34.54    2.23
   2  -1  -4   35.65    2.42
  -2  -1   3  352.82   15.32
   2   1  -3  332.42   14.31
   2  -1  -3  332.15   14.41
   2   1  -3  332.52   13.62
  -2   1   3  324.05   13.59
   2  -1  -3  335.75   13.63
  -2  -1   3  331.44   13.60
  -2   1   2  597.84   24.16
   2   1  -2  603.51   24.18
   2  -1  -2  550.57   24.77
  -2  -1   2  605.27   25.54
   2  -1  -2  607.29   24.18
  -2  -1   2  586.66   24.17
  -2  -1   1   38.77    2.04
   2  -1  -1   34.28    2.08
  -2  -1   1   37.16    2.56
   2  -1  -1   38.71    1.76
   2   1  -1   39.17    1.75
  -2   1   1   36.40    1.99
  -2   1   0   32.84    1.91
   2   1   0   33.39    1.77
   2  -1   0   30.84    1.74
   2  -1   0   34.13    1.81
  -2  -1   0   29.79    2.20
  -2  -1   0   33.58    1.97
   2  -1   1    2.41    0.29
  -2  -1  -1    2.76    0.59
   2  -1   1    2.69    0.47
   2   1   1    2.45    0.42
   2   1   1    1.78    0.44
   2   1   2   75.91    3.66
  -2  -1  -2   78.32    3.92
   2   1   3  198.31    8.98
  -2  -1  -3  213.20    9.31
   2   1   4   84.55    4.15
   2   1   5   27.87    1.76
   2   1   6    7.53    0.80
  -2   1  -7   51.13    2.49
   2   1   7   46.29    2.65
  -2  -1  -7   51.74    3.00
  -2   1  -8  340.99   14.26
   2   1   8  320.82   14.34
  -2  -1  -8  352.34   14.83
   2  -1   8  347.55   14.59
  -2  -1  -9  235.43   10.42
  -2   1  -9  243.66   10.00
   2   1   9  230.18    9.96
   2  -1   9  219.27    9.50
  -2   1 -10   59.77    3.27
  -2  -1 -10   66.37    3.64
   2   1  10   59.30    3.18
  -2   1 -11   16.43    1.40
  -2  -1 -11   17.22    1.56
   2  -1  12   79.50    4.32
  -2  -1 -12   76.26    4.36
   2   1  12   79.98    4.28
  -2   1 -12   75.00    4.15
   2  -1  13    2.06    0.58
  -2  -1 -13    3.12    0.70
   2   1  13    2.32    0.61
  -2   1 -13    1.30    0.49
  -2  -1 -13    2.72    0.94
   2   1  14   39.41    2.60
  -2  -1 -14   39.40    2.71
   2  -1  14   35.53    2.55
  -2  -1 -14   35.33    3.44
  -2   1 -14   32.01    2.47
  -2   1 -15   58.94    3.66
  -2  -1 -15   62.47    3.78
   2  -1  15   62.83    3.70
   2   1  15   62.61    3.68
  -2  -1 -16    2.84    0.76
   2   1  16    4.22    0.82
  -2  -1 -16    4.35    1.32
  -2   1 -16    4.13    0.85
   2  -1  16    4.31    0.88
  -2  -1 -17   54.85    3.44
  -2   1 -17   43.91    3.17
   2   1  17   49.27    3.20
   2  -1  17   48.93    3.22
  -2  -1 -18   39.58    3.93
  -2  -1 -18   50.02    3.40
   2  -1  18   48.65    3.28
   2   1  18   50.81    3.31
  -2   1 -18   46.24    3.32
  -2  -1 -19    9.06    1.35
  -2   1 -19    8.93    1.35
   2  -1  19    7.36    1.23
   2   1  19   10.52    1.33
  -2  -1 -19    6.72    1.56
  -2  -1 -20    3.40    1.13
  -2   1 -20    7.48    1.26
  -2  -1 -20    6.25    1.21
  -2  -1 -21    4.10    1.08
  -2  -1 -21    5.55    1.48
  -2   1 -21    4.44    1.02
  -2   1 -22   76.51    4.83
  -2  -1 -22   70.48    5.52
  -2  -1 -22   76.44    4.87
  -2  -1 -23   77.92    6.06
  -2   1 -23   85.45    5.40
  -2  -1 -24   71.50    5.67
  -2   1 -24   86.07    5.19
  -2  -1 -24   75.39    5.09
  -2   1 -25   11.08    1.69
  -2  -1 -25   11.78    2.08
  -2   1 -26   -0.18    0.46
  -2   1 -27   -0.19    0.47
   2  -2 -25  120.83    6.79
   2  -2 -24    9.69    1.48
   2  -2 -23   94.38    5.51
   2  -2 -22    0.58    0.47
   2  -2 -21    3.14    0.80
  -2  -2  21    0.85    0.93
  -2  -2  20    0.55    0.94
   2  -2 -20    1.27    0.57
  -2  -2  19   47.21    4.20
   2  -2 -19   45.94    3.10
  -2   2  19   48.47    2.99
   2  -2 -19   45.33    4.54
  -2  -2  19   42.90    2.92
  -2  -2  18    0.29    0.36
   2  -2 -18    1.01    0.52
   2  -2 -18    1.61    1.00
  -2  -2  18    1.42    0.88
  -2   2  18    0.94    0.44
  -2   2  17   97.18    4.85
   2  -2 -17   92.99    4.99
   2  -2 -17   82.31    6.55
  -2  -2  17   88.37    4.79
  -2  -2  17  106.48    6.30
  -2  -2  16   13.76    1.86
   2  -2 -16    8.99    1.12
  -2   2  16    9.82    1.06
  -2  -2  16    8.63    1.02
   2  -2 -16    9.82    2.03
  -2  -2  15  139.68    6.73
  -2  -2  15  155.95    8.08
  -2   2  15  139.23    6.70
   2  -2 -15  135.07    8.81
   2  -2 -15  147.77    6.96
   2  -2 -14    0.63    0.45
  -2   2  14    0.72    0.36
   2  -2 -14    0.57    0.72
  -2  -2  14    0.85    0.58
  -2  -2  14    1.09    0.39
  -2  -2  13   29.50    2.64
   2  -2 -13   29.66    3.34
  -2   2  13   33.92    2.06
   2  -2 -13   32.71    2.20
  -2  -2  13   31.58    2.03
  -2   2  12    5.21    0.67
   2  -2 -12    4.56    0.71
  -2  -2  12    4.87    1.00
   2  -2 -12    3.71    1.26
  -2  -2  12    4.71    0.63
  -2  -2  11  200.60    8.93
  -2  -2  11  212.33    9.92
   2  -2 -11  203.73    9.21
  -2   2  11  204.83    8.94
   2  -2 -11  195.63   11.05
  -2  -2  10   23.25    1.43
   2   2 -10   21.00    1.54
  -2  -2  10   20.26    1.92
  -2   2  10   23.08    1.43
   2  -2 -10   18.53    1.48
   2  -2 -10   24.34    2.77
   2   2 -10   20.19    1.17
   2   2  -9  432.47   18.03
   2  -2  -9  429.03   20.24
   2  -2  -9  429.11   18.01
   2   2  -9  430.98   17.65
  -2  -2   9  424.60   18.69
  -2   2   9  428.10   17.81
  -2  -2   9  422.83   17.79
   2  -2  -8    7.17    0.73
   2   2  -8    7.86    0.67
  -2  -2   8    5.42    0.92
  -2  -2   8    7.23    0.65
  -2  -2   8    6.88    1.52
  -2   2   8    7.40    0.66
   2   2  -8    7.50    0.74
   2  -2  -7    0.60    0.23
  -2  -2   7    0.43    0.17
   2   2  -7    0.48    0.22
  -2   2   7    0.54    0.20
   2   2  -7    1.05    0.27
   2  -2  -7    0.64    0.49
   2   2  -6    5.81    0.58
   2   2  -6    5.97    0.65
   2  -2  -6    7.44    0.64
  -2   2   6    7.35    0.58
   2  -2  -6    5.61    1.23
  -2  -2   6    6.95    0.57
   2   2  -5  139.28    6.14
   2   2  -5  134.50    5.87
   2  -2  -5  138.71    7.64
  -2  -2   5  133.14    5.81
   2  -2  -5  136.38    5.88
  -2  -2   5  138.26    7.23
  -2   2   5  136.24    5.82
  -2   2   4    2.78    0.30
   2   2  -4    2.86    0.32
   2   2  -4    2.15    0.42
  -2  -2   4    3.07    0.32
   2  -2  -4    2.84    0.32
   2  -2  -4    3.02    0.84
  -2  -2   4    2.93    0.80
   2  -2  -3    0.11    0.10
   2   2  -3    0.24    0.11
   2   2  -3    0.23    0.25
  -2  -2   3    0.37    0.46
   2  -2  -3    0.15    0.39
  -2  -2   3    0.04    0.09
   2   2  -2   14.23    1.15
  -2   2   2   13.64    1.00
   2   2  -2   15.21    0.79
   2  -2  -2   14.09    0.78
  -2  -2   2   13.97    1.51
   2  -2  -2   12.78    1.53
  -2  -2   2   14.76    1.06
  -2   2   1   75.13    3.85
   2  -2  -1   80.83    3.50
   2   2  -1   81.30    4.07
  -2  -2   1   86.88    4.03
   2   2  -1   84.29    3.50
  -2  -2   1   88.10    4.72
   2   2   0    3.28    0.55
   2   2   0    2.98    0.26
   2  -2   0    2.96    0.27
   2  -2   1  411.76   16.95
  -2  -2  -1  403.98   17.88
   2  -2   2   23.29    1.58
   2   2   2   27.13    1.57
  -2  -2  -2   25.23    2.04
  -2  -2  -3   -0.11    0.34
   2   2   3    0.23    0.26
   2  -2   3    0.49    0.31
   2   2   4   40.14    2.47
  -2  -2  -4   46.52    2.95
   2  -2   5  323.23   13.34
   2   2   5  309.97   13.94
  -2  -2  -5  351.41   14.58
   2  -2   6    1.72    0.27
   2   2   6    1.80    0.48
   2   2   7   71.54    3.90
   2  -2   7   76.86    3.47
   2   2   8    1.56    0.46
   2  -2   8    1.57    0.33
   2  -2   8    1.68    0.28
  -2  -2  -9   24.19    2.08
   2  -2   9   24.83    1.62
   2   2   9   21.91    1.61
   2  -2   9   19.87    1.61
   2  -2   9   22.43    1.23
   2  -2  10    2.46    0.29
  -2  -2 -10    3.13    0.76
   2  -2  10    2.06    0.50
   2  -2  10    1.38    0.42
   2   2  10    3.36    0.58
  -2  -2 -11  146.90    7.39
   2   2  11  140.05    6.71
   2  -2  11  140.26    6.78
   2   2  12    0.09    0.28
  -2  -2 -12    0.14    0.35
   2  -2  12    0.18    0.33
  -2  -2 -13   -0.15    0.43
   2  -2  13    1.07    0.44
   2   2  13    0.09    0.36
   2   2  14   10.51    1.18
   2  -2  14    8.87    1.15
  -2  -2 -14    8.37    1.32
   2  -2  15  273.79   12.78
  -2  -2 -15  284.03   13.43
   2   2  15  294.15   12.76
  -2  -2 -16   30.39    2.69
   2  -2  16   28.21    2.23
   2   2  16   30.04    2.23
  -2  -2 -17  170.43    8.92
   2  -2  17  172.60    8.33
   2   2  17  191.62    8.37
   2  -2  18    2.05    0.65
  -2  -2 -18    1.26    0.65
  -2  -2 -18    0.64    0.81
   2   2  18    2.05    0.63
  -2  -2 -19   25.16    2.50
  -2  -2 -19   17.12    2.73
   2  -2  19   23.54    2.07
   2   2  19   23.96    2.04
  -2  -2 -20    0.78    0.70
  -2  -2 -20    0.64    0.81
  -2  -2 -21   27.87    3.61
  -2  -2 -21   51.10    3.79
  -2  -2 -22    3.36    1.21
  -2  -2 -22    3.48    1.31
  -2  -2 -23   14.27    2.06
  -2  -2 -24    0.22    0.73
  -2  -2 -25   45.96    4.02
   2  -3 -22   16.03    2.08
   2  -3 -21    3.60    1.02
   2  -3 -20    0.16    0.53
   2  -3 -19    5.90    1.14
   2  -3 -19    3.56    1.48
   2  -3 -18   33.87    4.11
  -2  -3  18   48.17    2.86
   2  -3 -18   46.93    3.32
  -2  -3  18   37.98    3.33
  -2   3  18   44.32    2.72
  -2   3  17  256.56   10.89
   2  -3 -17  254.62   11.64
  -2  -3  17  248.86   10.94
  -2  -3  17  225.39   11.74
   2  -3 -16   34.51    2.62
  -2  -3  16   28.60    2.64
   2  -3 -16   25.31    3.47
  -2  -3  16   32.32    2.11
  -2   3  16   30.52    2.05
   2  -3 -15   19.53    1.89
  -2  -3  15   19.34    2.06
   2  -3 -15   17.37    2.82
  -2  -3  15   21.18    1.56
  -2   3  15   20.94    1.53
  -2   3  14    0.92    0.33
   2  -3 -14    0.98    1.01
  -2  -3  14    0.82    0.32
   2  -3 -14    0.87    0.48
  -2  -3  14    0.73    0.52
  -2   3  13   23.88    1.58
  -2  -3  13   19.79    2.02
   2  -3 -13   19.84    2.95
  -2  -3  13   24.36    1.62
   2  -3 -13   23.63    2.02
  -2  -3  12   26.53    1.65
  -2  -3  12   21.54    2.07
  -2   3  12   26.31    1.63
   2  -3 -12   24.07    2.06
   2  -3 -12   21.50    2.99
  -2  -3  11   24.30    1.54
  -2  -3  11   19.43    1.96
   2  -3 -11   23.37    3.14
  -2   3  11   25.09    1.53
  -2  -3  10    1.00    0.28
  -2  -3  10    2.14    1.56
  -2   3  10    1.06    0.29
   2  -3 -10    1.22    0.83
  -2  -3  10    0.63    0.52
  -2  -3   9  141.95    6.45
   2  -3  -9  132.12    8.90
  -2   3   9  151.89    6.47
  -2  -3   8   18.90    1.19
  -2   3   8   19.55    1.19
   2  -3  -8   19.20    2.66
  -2  -3   8   18.29    2.48
   2  -3  -8   20.86    1.81
  -2  -3   7   -0.21    0.56
   2  -3  -7    0.53    0.51
  -2  -3   7    0.29    0.22
  -2   3   7    0.60    0.24
   2  -3  -6   13.89    2.16
  -2   3   6   16.10    0.95
  -2  -3   6   16.10    0.96
   2  -3  -6   15.19    1.49
  -2  -3   6   15.06    1.96
  -2  -3   5   67.35    4.55
   2  -3  -5   69.87    3.91
  -2  -3   5   66.31    3.34
   2  -3  -5   62.21    4.93
  -2   3   5   68.12    3.28
   2  -3  -4   11.27    1.25
  -2  -3   4   12.89    1.00
  -2  -3   4   13.23    1.71
   2  -3  -4    9.21    1.76
   2   3  -3  312.11   13.56
  -2  -3   3  321.82   14.83
  -2  -3   3  296.00   13.27
   2   3  -2   86.84    4.55
  -2  -3   2   93.32    5.54
   2  -3  -2  103.36    5.00
  -2  -3   1   49.72    3.59
   2   3  -1   48.15    2.82
   2  -3  -1   52.18    3.07
   2  -3   0    2.53    0.57
  -2  -3   0    1.40    0.67
  -2  -3  -1    0.93    0.51
   2  -3   1    1.14    0.42
   2  -3   2    7.77    0.95
  -2  -3  -2    6.99    1.22
   2   3   3  106.14    4.60
   2  -3   3  109.69    4.60
   2  -3   3  108.96    4.64
  -2  -3  -3  113.89    6.28
   2  -3   3  119.00    5.51
   2   3   3  112.63    4.59
   2  -3   4   26.17    1.75
   2   3   4   29.88    1.65
   2  -3   4   30.69    1.51
  -2  -3  -4   32.32    2.69
   2  -3   4   31.95    2.08
   2   3   5    0.44    0.18
   2  -3   5    0.61    0.31
   2  -3   5    0.23    0.18
  -2  -3  -5    0.31    0.49
   2   3   5    0.16    0.20
   2  -3   5    0.23    0.22
   2  -3   6    1.33    0.44
   2   3   6    1.59    0.46
   2  -3   6    2.37    0.38
   2   3   6    2.03    0.35
  -2  -3  -6    2.40    0.79
   2  -3   7   28.47    1.85
   2  -3   7   30.00    1.64
   2  -3   7   23.15    1.49
   2   3   7   25.97    1.52
  -2  -3  -7   23.54    2.36
  -2  -3  -8   20.89    2.21
   2  -3   8   20.51    1.34
   2  -3   8   22.69    1.48
   2   3   8   23.59    1.45
   2  -3   8   24.26    1.67
   2  -3   9  304.91   12.96
   2  -3   9  287.16   12.63
   2  -3   9  301.00   12.84
   2   3   9  311.35   12.77
   2  -3  10   37.18    2.21
   2   3  10   37.50    2.15
   2  -3  10   35.41    2.03
   2  -3  10   36.64    2.22
   2  -3  11   24.77    1.65
   2  -3  11   28.72    1.83
  -2  -3 -11   31.03    2.72
   2   3  11   28.28    1.77
   2  -3  12    7.22    0.94
  -2  -3 -12   10.61    1.61
   2  -3  12    7.01    0.82
   2  -3  12    7.53    0.92
   2   3  12    8.25    0.91
  -2  -3 -13    8.31    1.49
   2   3  13    6.87    0.86
   2  -3  13    5.28    0.80
  -2  -3 -14    3.71    1.13
   2   3  14    4.18    0.73
   2  -3  14    3.54    0.72
  -2  -3 -15   47.60    3.85
   2  -3  15   48.37    2.98
   2   3  15   48.18    2.90
   2   3  16   -0.09    0.30
   2  -3  16    0.30    0.37
  -2  -3 -16    0.36    0.91
  -2  -3 -16    0.84    0.71
  -2  -3 -17   28.16    2.94
   2  -3  17   30.69    2.25
   2   3  17   30.97    2.18
  -2  -3 -18   22.30    2.62
   2   3  18   22.03    1.83
   2  -3  18   20.03    1.80
  -2  -3 -19   24.71    2.88
  -2  -3 -20    0.50    0.85
  -2  -3 -21   11.36    2.07
  -2  -3 -22    8.85    1.96
  -2   4  16  110.33    5.09
   2  -4 -16  111.20    6.40
  -2   4  15   19.87    1.47
   2  -4 -15   22.41    2.36
  -2   4  14    0.97    0.40
   2  -4 -14    0.18    0.65
   2  -4 -14    0.74    1.00
  -2   4  13   10.64    0.91
   2  -4 -13    5.83    1.94
  -2  -4  13    7.10    1.12
   2  -4 -12    0.36    0.83
  -2  -4  12    0.12    0.44
  -2   4  12   -0.05    0.24
  -2   4  11   10.90    0.84
   2  -4 -11    8.53    2.17
  -2  -4  11   10.78    0.88
  -2  -4  11    7.09    1.20
  -2  -4  10  323.73   16.82
   2  -4 -10  265.89   12.50
   2  -4 -10  195.61   13.60
  -2   4  10  259.62   10.90
  -2  -4  10  222.72   11.92
  -2  -4  10  276.83   11.00
  -2   4   9   41.25    2.39
  -2  -4   9   49.68    5.00
   2  -4  -9   44.67    3.32
   2  -4  -9   38.97    4.33
  -2  -4   8   21.97    3.03
   2  -4  -8   16.03    2.79
  -2  -4   8   23.48    1.64
   2  -4  -8   20.91    2.16
   2  -4  -7    0.31    0.50
  -2   4   7    0.60    0.22
  -2  -4   7    0.60    0.34
  -2  -4   7    0.81    0.92
   2  -4  -7    0.63    0.72
  -2  -4   6    5.84    1.56
   2  -4  -6    5.63    1.10
   2  -4  -6    5.08    1.52
   2  -4  -5    9.16    1.34
  -2  -4   5    5.30    1.43
   2  -4  -5    7.74    1.72
   2  -4  -4   74.90    4.50
   2  -4  -4   60.51    5.14
  -2  -4   4   69.09    5.10
  -2  -4   3    0.46    0.63
   2  -4  -3    0.29    0.52
  -2  -4   2   18.62    2.43
   2  -4  -2   21.25    2.03
   2  -4  -1    9.93    1.40
  -2  -4   1   11.23    1.88
   2  -4   0    6.60    1.17
  -2  -4   0    4.00    1.23
  -2  -4  -1   42.48    3.71
   2  -4   1   42.76    3.08
  -2  -4  -2  116.09    7.42
   2  -4   2  137.24    6.85
   2  -4   3    2.36    0.71
  -2  -4  -3    1.75    0.87
   2  -4   4   86.95    4.93
  -2  -4  -4   83.04    5.69
  -2  -4  -5   43.62    3.72
   2  -4   5   42.90    3.03
   2  -4   6   22.40    2.02
  -2  -4  -6   21.20    2.51
   2  -4   7    0.38    0.17
  -2  -4  -7    1.32    0.88
   2  -4   7    0.63    0.58
   2   4   7    0.50    0.14
   2   4   7    0.34    0.18
   2  -4   7    0.53    0.28
   2  -4   8    9.15    1.25
   2   4   8    7.46    0.75
  -2  -4  -8    8.64    1.64
   2  -4   8    8.98    0.63
   2  -4   8    5.81    0.63
   2  -4   8    8.76    1.08
   2  -4   9    1.15    0.56
   2  -4   9    1.09    0.73
   2   4   9    0.83    0.39
   2  -4   9    1.24    0.27
  -2  -4  -9    0.89    0.80
   2   4   9    0.73    0.21
   2  -4   9    0.45    0.20
   2   4  10   67.11    3.68
   2  -4  10   81.06    4.28
   2  -4  10   77.33    3.14
   2   4  10   70.90    3.05
  -2  -4 -10   70.07    4.92
   2  -4  11    7.57    1.32
   2  -4  11    7.42    0.75
   2   4  11    8.85    0.77
   2  -4  12   10.09    1.74
   2   4  12   13.22    1.02
  -2  -4 -13    0.71    0.88
   2   4  13    1.03    0.38
   2   4  14    3.96    0.66
  -2  -4 -14    5.85    1.47
   2   4  15   28.03    1.84
  -2  -4 -15   28.77    3.12
   2   4  16  170.30    7.80
  -2  -4 -16  172.45    9.86
   2  -5 -11    1.88    1.60
   2  -5 -10    4.51    1.65
   2  -5  -9    1.11    1.01
   2  -5  -8   23.86    3.47
  -2  -5   8   35.75    4.67
   2  -5  -7   -0.23    0.93
   2  -5  -7    0.35    0.95
  -2  -5   7    1.95    1.55
  -2  -5   6   42.59    4.73
   2  -5  -6   38.40    4.36
   2  -5  -5   -0.22    0.84
  -2  -5   5   -0.34    1.17
   2  -5  -5    0.33    1.01
  -2  -5   4   19.28    3.00
   2  -5  -4   16.50    2.71
  -2  -5   3   14.63    2.53
   2  -5  -3   14.16    2.05
   2  -5  -3   10.96    2.20
  -2  -5   2  113.53    7.92
   2  -5  -2  128.01    7.09
   2  -5  -1    1.06    1.12
   2  -5  -1    1.62    0.96
  -2  -5   1    0.32    1.04
  -2  -5   0   -0.32    0.92
   2  -5   0    0.81    0.83
   2  -5   0   -0.25    0.88
  -2  -5  -1    1.26    1.07
   2  -5   1    0.79    0.67
   2  -5   1   -0.45    0.74
   2  -5   2   19.80    2.50
  -2  -5  -2   28.71    3.48
   2  -5   2   30.15    2.82
  -2  -5  -3   13.01    2.38
   2  -5   3   13.79    1.91
   2  -5   4   21.21    2.39
  -2  -5  -4   23.07    3.11
  -2  -5  -5   -0.31    0.94
   2  -5   5   -0.19    0.71
  -2  -5  -6    3.96    1.37
   2  -5   6    3.66    1.08
   2  -5   7    0.20    0.81
  -2  -5  -7    0.91    1.08
   3   0 -25  191.61   11.14
   3   0 -24   -0.07    0.30
   3   0 -24    0.89    0.80
   3   0 -23    9.67    1.98
   3   0 -23    4.48    0.66
   3   0 -22    0.12    0.23
   3   0 -22    0.29    0.72
   3   0 -21    4.54    0.63
   3   0 -21    5.34    1.49
   3   0 -20    0.22    0.22
   3   0 -20   -0.27    0.79
   3   0 -19  116.39    5.27
  -3   0  19  117.41    8.03
   3   0 -19  114.81    7.39
  -3   0  19  105.43    5.75
   3   0 -18   -0.05    0.19
  -3   0  18    0.93    0.95
  -3   0  18    0.10    0.32
   3   0 -18   -0.25    0.58
  -3   0  17    7.69    1.00
   3   0 -17    9.22    1.28
   3   0 -17    5.98    1.43
   3   0 -16   -0.23    0.62
  -3   0  16    0.26    0.36
   3   0 -16   -0.12    0.41
  -3   0  16    0.82    0.93
  -3   0  15   74.79    5.49
  -3   0  15   68.86    3.82
   3   0 -15   73.04    4.15
   3   0 -15   73.12    5.08
   3   0 -14    0.20    0.27
   3   0 -14   -0.20    0.58
  -3   0  14    0.23    0.64
  -3   0  14   -0.08    0.25
  -3   0  13  180.04    8.26
  -3   0  13  175.41    9.76
   3   0 -13  188.29    8.52
  -3   0  12    0.57    0.70
   3   0 -12    0.08    0.21
  -3   0  12    0.07    0.18
  -3   0  11  315.93   13.36
  -3   0  11  324.39   14.78
   3   0 -11  301.71   13.47
   3   0 -10   -0.07    0.24
  -3   0  10   -0.16    0.45
  -3   0  10    0.06    0.22
   3   0  -9    3.68    0.56
  -3   0   9    5.85    1.07
  -3   0   9    6.12    0.65
  -3   0   8    0.05    0.16
   3   0  -8    0.16    0.17
  -3   0   8    0.13    0.39
   3   0  -8    0.12    0.33
  -3   0   7  214.67    9.24
  -3   0   7  215.35   10.10
   3   0  -7  212.13   10.02
   3   0  -7  219.48    9.31
   3   0  -6    0.58    0.39
   3   0  -6    0.04    0.14
  -3   0   6   -0.20    0.40
  -3   0   6   -0.04    0.14
   3   0  -5  120.74    5.30
  -3   0   5  122.06    5.25
   3   0  -5  118.90    5.86
  -3   0   5  109.77    5.80
  -3   0   4    0.03    0.12
   3   0  -4    0.10    0.15
  -3   0   4    0.16    0.28
   3   0  -3   15.48    0.95
  -3   0   3   13.70    0.88
  -3   0   2    0.17    0.13
   3   0  -2    0.03    0.11
   3   0  -1  273.17   11.32
  -3   0   1  269.59   11.74
   3   0   0    0.07    0.25
  -3   0   0    0.38    0.37
   3   0   1 1616.66   63.59
  -3   0  -1 1489.84   63.71
   3   0   2    0.09    0.31
   3   0   3    1.29    0.78
   3   0   4   -0.17    0.72
   3   0   5   56.88    3.74
  -3   0  -6    0.95    0.73
   3   0   6    0.91    0.57
  -3   0  -7 1035.94   42.00
   3   0   7  966.81   41.02
   3   0   8    0.23    0.28
  -3   0  -8    1.41    0.76
   3   0   9    2.78    0.50
  -3   0  -9    1.38    0.70
  -3   0 -10   -0.15    0.44
   3   0  10    0.06    0.17
  -3   0 -11   53.09    3.79
   3   0  11   56.12    2.94
  -3   0 -11   62.00    3.97
  -3   0 -12    0.46    0.50
  -3   0 -12    0.16    0.38
   3   0  12    0.05    0.16
   3   0  13    5.30    0.59
  -3   0 -13    5.09    1.06
  -3   0 -13    4.01    1.02
  -3   0 -14   -0.47    0.56
   3   0  14    0.14    0.17
  -3   0 -15  537.99   23.77
  -3   0 -15  524.93   23.44
   3   0  15  534.24   23.05
   3   0  16   -0.13    0.41
  -3   0 -16   -0.18    0.50
  -3   0 -17   55.81    4.16
  -3   0 -17   56.86    4.04
   3   0  17   63.31    3.91
   3   0  18    0.14    0.38
  -3   0 -18    0.66    0.65
  -3   0 -18    0.19    0.44
  -3   0 -19   12.07    1.79
   3   0  19   13.19    1.60
  -3   0 -19   12.48    1.71
  -3   0 -20   -0.40    0.58
  -3   0 -21  361.43   17.03
  -3   0 -22   -0.21    0.52
  -3   0 -23   26.34    2.73
  -3   0 -24    0.21    0.57
  -3   0 -25    9.63    1.68
  -3   0 -26   -0.21    0.62
  -3   0 -27    2.37    0.97
   3  -1 -25    0.67    0.48
   3  -1 -24    5.12    0.91
   3  -1 -23    7.52    1.07
   3  -1 -23    7.15    1.84
   3  -1 -22    5.35    0.88
   3  -1 -22    5.07    1.64
   3  -1 -21   50.94    3.07
   3  -1 -21   50.49    4.87
   3   1 -20    4.00    0.31
  -3  -1  20    7.80    1.96
   3   1 -20    3.99    0.42
   3  -1 -20    5.99    0.84
   3  -1 -20    6.08    1.68
   3   1 -19   36.36    1.78
  -3  -1  19   39.98    4.15
   3  -1 -19   40.85    2.49
  -3   1  19   41.22    2.71
  -3  -1  19   38.85    2.65
   3   1 -19   40.58    2.30
  -3  -1  18  105.78    5.43
  -3   1  18  107.10    5.45
   3  -1 -18  111.27    5.22
   3   1 -18  100.51    4.49
  -3  -1  17  106.41    5.52
  -3   1  17  106.15    5.52
  -3  -1  16    1.62    0.98
   3   1 -16    1.25    0.67
  -3   1  16    0.26    0.37
  -3  -1  16    0.61    0.38
   3   1 -16    0.70    0.47
   3  -1 -16    0.36    0.39
  -3  -1  15   25.98    1.91
  -3   1  15   26.34    1.92
   3   1 -15   26.96    2.13
   3   1 -15   30.05    2.58
  -3  -1  15   29.28    2.88
   3  -1 -15   28.02    2.16
  -3   1  14    7.41    0.87
   3   1 -14    5.83    1.22
   3   1 -14    5.90    0.86
   3  -1 -14    4.89    0.81
  -3  -1  14    5.43    1.24
   3  -1 -14    7.34    1.59
  -3  -1  14    6.26    0.80
   3  -1 -13   20.27    1.68
  -3   1  13   21.28    1.58
  -3  -1  13   21.06    2.27
   3  -1 -13   18.64    2.44
   3   1 -13   20.24    1.67
   3   1 -13   26.04    2.41
  -3  -1  13   22.82    1.60
  -3   1  12   71.57    3.74
   3   1 -12   73.04    4.78
   3  -1 -12   82.30    5.32
  -3  -1  12   78.71    4.84
  -3  -1  12   70.47    3.72
   3  -1 -12   75.95    3.95
  -3   1  12   81.55    5.56
   3   1 -12   70.78    3.89
   3  -1 -11   33.32    3.06
   3  -1 -11   31.89    2.07
  -3   1  11   32.00    1.95
  -3  -1  11   30.69    1.92
  -3   1  11   34.82    3.26
  -3  -1  11   34.23    2.73
   3   1 -11   31.70    2.81
   3   1 -11   30.68    2.03
  -3   1  10    0.77    0.27
  -3  -1  10    0.41    0.37
   3  -1 -10    0.79    0.28
   3   1 -10    0.52    0.27
   3  -1 -10    0.91    0.53
   3   1 -10    1.37    0.71
  -3  -1  10    0.65    0.25
  -3  -1   9    1.18    0.29
  -3   1   9    1.73    0.35
   3   1  -9    2.34    0.41
   3   1  -9    1.02    0.76
   3  -1  -9    1.31    0.35
   3  -1  -9    1.00    0.55
  -3  -1   9    1.52    0.60
  -3   1   8   31.34    1.83
   3  -1  -8   34.72    2.75
   3  -1  -8   33.92    1.94
  -3  -1   8   35.81    2.53
  -3  -1   8   31.08    1.82
   3   1  -8   32.15    1.90
   3   1  -8   35.53    2.90
   3   1  -7  488.84   19.70
  -3  -1   7  459.85   19.62
  -3  -1   7  471.97   20.47
   3  -1  -7  469.66   20.82
   3   1  -7  464.80   21.15
   3  -1  -7  489.07   19.71
  -3   1   7  470.61   19.63
  -3   1   6  320.30   12.93
   3   1  -6  309.49   14.40
  -3  -1   6  316.69   13.73
   3  -1  -6  297.28   13.89
   3   1  -6  293.91   12.93
   3  -1  -6  310.15   12.96
  -3  -1   6  311.77   12.92
  -3  -1   5   39.08    2.01
   3  -1  -5   38.82    2.03
  -3   1   5   39.87    2.01
   3  -1  -5   37.95    2.65
   3   1  -5   41.47    2.05
   3   1  -5   35.68    2.93
   3  -1  -4   27.08    1.46
   3   1  -4   25.97    1.44
   3  -1  -4   25.04    1.92
  -3   1   4   27.56    2.14
  -3   1   4   25.91    1.42
  -3  -1   4   26.05    1.42
   3   1  -4   27.74    2.40
   3   1  -3  109.19    4.61
  -3   1   3  107.82    5.39
   3  -1  -3   93.49    5.06
   3   1  -3  103.05    5.74
  -3   1   3  102.27    4.56
  -3  -1   3  103.38    4.58
  -3  -1   3  117.80    6.82
   3  -1  -3  105.15    4.61
  -3  -1   2    9.93    0.92
   3  -1  -2    8.25    0.88
   3  -1  -2   10.04    0.69
  -3   1   2   10.41    1.07
   3   1  -2    9.44    0.67
  -3   1   2    9.85    0.90
  -3  -1   2    7.50    1.54
  -3  -1   1  288.33   12.08
  -3   1   1  278.91   12.01
   3  -1  -1  255.93   11.82
   3  -1  -1  281.47   11.53
  -3   1   1  277.79   12.01
   3   1  -1  282.45   11.52
  -3  -1   1  274.41   13.54
  -3  -1   0  276.27   12.24
   3  -1   0  269.77   11.69
  -3   1   0  281.48   12.18
  -3   1   0  280.42   11.82
   3   1   0  291.30   11.96
   3  -1   0  275.05   11.98
  -3  -1   0  264.79   13.17
  -3   1  -1  110.16    4.80
   3  -1   1  107.21    5.30
   3   1   1  106.38    5.20
   3   1   1  103.72    5.58
  -3  -1  -1  107.28    6.08
   3   1   2    6.28    0.84
  -3   1  -2    7.37    0.53
  -3  -1  -2    7.91    1.26
   3  -1   2    7.17    0.94
   3   1   2    5.90    0.93
   3   1   3   93.30    4.84
   3   1   3   81.36    4.61
   3   1   4   41.05    2.61
   3   1   5    0.94    0.41
   3   1   6   29.90    2.07
   3   1   7  318.84   14.30
  -3  -1  -7  350.84   15.05
   3   1   8  377.80   16.64
  -3  -1  -8  389.44   17.35
  -3   1  -8  393.57   16.27
   3  -1   8  399.82   17.73
   3  -1   9  356.44   15.69
  -3   1  -9  345.50   14.84
   3   1   9  343.32   15.07
  -3  -1  -9  370.51   15.89
  -3   1 -10   27.79    1.79
   3   1  10   26.10    1.81
   3  -1  10   24.71    1.77
  -3  -1 -10   26.72    2.32
   3   1  11    1.15    0.39
   3  -1  11    1.16    0.30
  -3   1 -11    1.23    0.39
  -3  -1 -12   26.25    2.27
   3  -1  12   23.21    1.25
  -3   1 -12   22.39    1.75
   3   1  12   24.36    1.70
   3  -1  13  250.93   10.32
   3   1  13  246.81   11.02
  -3   1 -13  251.19   11.30
  -3  -1 -13  265.08   12.04
   3   1  14  209.69    9.92
  -3   1 -14  205.09    9.69
  -3  -1 -14  217.01   10.38
  -3  -1 -15  184.48   11.02
  -3  -1 -15  222.56   10.56
  -3   1 -15  212.55    9.87
   3  -1  15  208.12   10.10
   3   1  15  222.31   10.17
  -3  -1 -16   10.54    1.53
   3   1  16    8.57    1.26
  -3   1 -16    9.98    1.24
  -3  -1 -16    8.51    1.73
   3  -1  16   10.23    1.33
  -3  -1 -17   34.17    2.79
  -3  -1 -17   19.22    2.66
   3   1  17   27.57    2.33
  -3   1 -17   24.90    2.16
   3  -1  17   28.55    2.38
  -3  -1 -18    4.06    1.05
   3  -1  18    5.94    1.07
   3   1  18    7.56    1.16
  -3   1 -18    6.91    1.10
   3   1  19   -0.28    0.59
  -3  -1 -19   -0.18    0.56
  -3  -1 -19   -0.26    0.71
  -3   1 -19    1.10    0.55
   3  -1  19   -0.14    0.46
  -3  -1 -20    0.75    0.61
  -3  -1 -20    0.78    0.76
  -3   1 -20    0.14    0.42
  -3   1 -21   18.36    1.98
  -3  -1 -21   16.92    2.50
  -3  -1 -22   49.64    4.47
  -3   1 -22   59.94    3.92
  -3  -1 -22   53.80    4.19
  -3  -1 -23   59.78    5.10
  -3  -1 -23   70.93    4.96
  -3   1 -23   73.05    4.58
  -3  -1 -24    9.80    1.70
  -3  -1 -24    4.78    1.37
  -3   1 -24    7.65    1.31
  -3  -1 -25    0.54    0.62
  -3   1 -25   -0.17    0.47
  -3   1 -26    2.10    0.86
   3  -2 -25    6.33    1.24
   3  -2 -24   85.08    5.10
   3  -2 -23   -0.14    0.50
   3  -2 -22    1.60    0.68
   3  -2 -21   -0.12    0.42
   3  -2 -21    0.35    0.89
   3  -2 -20   66.30    3.83
   3  -2 -20   51.28    5.15
  -3  -2  20   58.84    5.01
  -3  -2  19    4.80    1.42
   3  -2 -19    3.39    1.23
   3  -2 -19    6.91    1.00
  -3   2  18   15.92    1.48
  -3  -2  18   18.58    2.44
   3  -2 -18   16.36    1.57
  -3  -2  18   20.09    1.64
  -3  -2  17    1.76    0.82
  -3  -2  17    1.67    0.50
   3  -2 -17    2.90    0.64
  -3   2  17    1.22    0.43
   3  -2 -17    2.26    1.15
  -3  -2  16    3.21    0.67
   3  -2 -16    2.41    0.62
   3  -2 -16    3.74    1.29
  -3   2  16    3.03    0.61
   3   2 -15    6.51    0.42
  -3  -2  15    7.13    0.89
   3  -2 -15    6.88    1.68
  -3  -2  15    5.58    1.25
   3  -2 -15    6.82    0.96
  -3   2  15    7.28    0.90
  -3   2  14  226.88    9.66
   3  -2 -14  216.76    9.95
   3   2 -14  213.70    9.92
   3  -2 -14  217.42   12.07
  -3  -2  14  224.19   10.92
  -3  -2  14  204.60    9.57
  -3   2  13    7.62    0.82
  -3  -2  13    7.13    0.80
   3   2 -13    7.24    0.95
  -3  -2  13    7.91    1.36
   3  -2 -13    6.90    0.94
   3  -2 -13    9.01    1.80
   3   2 -12    1.23    0.30
  -3   2  12    0.98    0.33
   3  -2 -12    0.78    0.71
   3   2 -12    2.29    0.49
  -3  -2  12    1.40    0.37
  -3  -2  12    1.55    0.66
   3  -2 -12    1.25    0.40
  -3   2  11   15.70    1.21
   3  -2 -11   18.72    2.44
   3   2 -11   17.45    1.37
   3  -2 -11   14.83    1.30
  -3  -2  11   13.78    1.67
   3   2 -11   17.04    1.17
  -3  -2  11   16.28    1.22
   3   2 -10  168.11    7.40
  -3   2  10  166.70    7.37
   3  -2 -10  171.37    9.44
   3   2 -10  170.64    7.55
   3  -2 -10  157.39    7.49
  -3  -2  10  161.74    8.34
  -3  -2  10  167.84    7.36
   3   2  -9    3.17    0.51
   3  -2  -9    3.04    0.50
  -3  -2   9    2.95    0.80
   3   2  -9    4.81    0.62
   3  -2  -9    2.38    0.95
  -3  -2   9    2.83    0.45
  -3   2   9    3.13    0.46
   3   2  -8  141.38    6.53
  -3  -2   8  142.67    6.27
  -3   2   8  148.14    6.29
   3  -2  -8  139.16    7.97
   3   2  -8  135.12    6.34
   3  -2  -8  141.94    6.38
  -3   2   7   12.42    0.88
  -3  -2   7   11.73    0.86
   3  -2  -7   11.87    1.70
   3   2  -7   11.50    0.90
   3  -2  -7   10.10    0.88
  -3  -2   7   13.66    2.26
   3   2  -7   12.17    1.10
   3   2  -6    0.52    0.31
  -3  -2   6    0.60    0.18
  -3  -2   6    0.54    0.78
   3   2  -6    0.74    0.24
  -3   2   6    0.84    0.22
   3  -2  -6    1.04    0.62
   3  -2  -6    1.05    0.25
  -3  -2   5    0.47    0.72
   3   2  -5    1.00    0.38
   3   2  -5    0.14    0.13
   3  -2  -5    0.36    0.18
   3  -2  -5    0.32    0.57
  -3   2   5    0.32    0.16
  -3  -2   5    0.23    0.15
   3   2  -4  142.16    6.64
   3  -2  -4  135.79    6.03
  -3  -2   4  143.00    6.05
   3   2  -4  140.32    6.03
   3  -2  -4  139.85    7.35
  -3  -2   4  147.81    8.17
  -3   2   4  139.33    6.02
  -3  -2   3    0.85    0.33
   3  -2  -3    0.95    0.21
   3   2  -3    1.06    0.39
   3   2  -3    0.60    0.17
   3  -2  -3    1.55    0.55
  -3  -2   3    0.55    0.63
  -3   2   3    0.54    0.28
   3  -2  -2    2.70    0.31
   3   2  -2    2.24    0.28
  -3  -2   2    1.20    0.62
  -3  -2   2    1.66    0.44
  -3   2   2    1.35    0.39
   3   2  -2    1.76    0.47
   3  -2  -2    1.13    0.51
  -3   2   1   13.47    1.30
   3   2  -1   18.26    0.99
   3   2  -1   15.55    1.42
   3  -2  -1   18.49    1.59
  -3  -2   1   17.22    1.47
  -3  -2   1   17.35    1.98
   3  -2  -1   17.94    1.00
   3   2   0  583.34   26.25
  -3  -2   0  620.49   27.24
   3  -2   0  618.96   26.22
   3   2   0  631.57   25.47
   3  -2   0  638.64   25.51
  -3  -2  -1   30.17    2.68
   3  -2   1   32.33    2.03
   3   2   1   33.25    1.93
   3  -2   1   34.94    2.02
   3  -2   2  312.20   13.61
   3   2   2  333.08   13.85
   3  -2   2  324.50   14.00
  -3  -2  -2  339.79   14.95
   3  -2   3    2.16    0.31
   3   2   3    1.82    0.47
  -3  -2  -3    1.80    0.64
   3  -2   3    2.24    0.57
   3   2   4   14.98    1.38
   3  -2   4   13.86    1.39
  -3  -2  -4   18.30    1.86
   3   2   4   14.49    1.34
   3   2   5    0.53    0.32
  -3  -2  -5    1.05    0.64
   3   2   6  349.47   15.21
   3   2   7   31.80    2.18
   3   2   8  219.74    9.97
   3   2   9    0.18    0.25
  -3  -2  -9    0.95    0.59
  -3  -2 -10   61.71    4.14
   3   2  10   58.95    3.45
  -3  -2 -11    4.84    1.09
   3   2  11    3.33    0.68
   3  -2  11    4.41    0.38
   3  -2  12    1.82    0.35
   3   2  12    3.80    0.66
  -3  -2 -12    3.44    0.97
   3  -2  12    3.51    0.69
   3  -2  12    2.12    0.22
   3  -2  13    1.93    0.54
   3   2  13    1.38    0.51
  -3  -2 -13    0.71    0.58
  -3  -2 -14  176.48    9.21
   3  -2  14  166.98    8.41
   3   2  14  178.87    8.40
   3  -2  15    7.85    1.15
  -3  -2 -15   10.02    1.63
   3   2  15    8.05    1.16
  -3  -2 -16  242.66   11.56
   3   2  16  255.25   10.68
   3  -2  16  230.81   10.63
   3  -2  17   -0.13    0.46
   3   2  17    0.24    0.43
  -3  -2 -17    0.31    0.72
  -3  -2 -17   -0.20    0.62
   3   2  18    2.01    0.64
  -3  -2 -18    1.25    0.71
   3  -2  18    1.33    0.58
  -3  -2 -18    1.92    1.09
  -3  -2 -19    1.29    0.89
  -3  -2 -19    0.99    0.83
  -3  -2 -20   90.04    7.43
  -3  -2 -20  142.22    7.54
  -3  -2 -21   10.27    2.21
  -3  -2 -21   19.97    2.45
  -3  -2 -22  162.89    8.70
  -3  -2 -22  120.25    8.76
  -3  -2 -23   -0.24    0.92
  -3  -2 -24    3.18    1.05
  -3  -2 -25   -0.25    0.77
   3  -3 -21    9.26    1.47
   3  -3 -20    8.26    1.34
   3  -3 -19    4.81    1.02
   3  -3 -19    4.75    1.61
  -3   3  18  126.44    5.73
  -3  -3  18  121.60    5.75
  -3  -3  18   90.44    6.31
   3  -3 -18   95.18    7.74
   3  -3 -18  107.10    6.08
   3  -3 -17   15.83    1.71
  -3   3  17   12.17    1.27
   3  -3 -17   11.19    2.36
  -3  -3  17   14.95    1.95
  -3  -3  17   13.36    1.33
  -3   3  16    7.13    0.89
   3  -3 -16    5.82    1.71
   3  -3 -16    6.79    1.12
  -3  -3  16    6.09    0.85
  -3  -3  16    5.46    1.21
  -3   3  15    2.05    0.49
   3  -3 -15    3.00    1.29
   3  -3 -15    2.12    0.68
  -3  -3  15    1.74    0.49
  -3  -3  15    1.51    0.76
  -3  -3  14    5.75    0.75
  -3   3  14    6.80    0.80
   3  -3 -14    7.73    1.13
   3  -3 -14    4.86    1.58
  -3  -3  14    4.20    0.96
  -3  -3  13   14.19    1.14
  -3   3  13   12.20    1.06
   3  -3 -13    9.46    2.05
   3  -3 -13    9.96    1.30
  -3  -3  13   10.99    1.54
   3  -3 -12   81.14    4.55
  -3  -3  12   79.65    3.92
  -3   3  12   80.26    3.90
   3  -3 -12   72.13    5.91
  -3  -3  12   75.43    4.76
  -3   3  11   21.52    1.38
  -3  -3  11   18.14    1.32
  -3  -3  11   19.69    2.01
   3  -3 -11   19.95    2.75
  -3  -3  10    0.05    0.20
   3  -3 -10   -0.28    0.71
   3   3 -10    0.34    0.25
  -3   3  10    0.05    0.21
  -3  -3  10   -0.15    0.43
   3   3  -9    1.68    0.38
  -3   3   9    2.71    0.41
  -3  -3   9    3.15    1.57
  -3  -3   9    2.06    0.38
   3  -3  -9    2.74    1.13
   3  -3  -9    1.99    0.48
   3   3  -8   69.43    3.72
  -3  -3   8   78.15    6.33
   3  -3  -8   74.31    5.60
  -3   3   8   80.13    3.57
  -3  -3   8   74.52    3.55
   3   3  -8   76.45    3.76
   3  -3  -8   78.02    3.82
   3   3  -7   56.33    3.22
   3  -3  -7   60.38    4.87
  -3  -3   7   58.09    5.10
   3   3  -7   66.56    3.16
   3  -3  -7   63.30    3.19
  -3   3   7   64.13    2.99
  -3  -3   7   63.61    3.00
   3   3  -6  278.33   12.52
   3  -3  -6  295.53   14.66
  -3   3   6  295.55   12.52
   3   3  -6  291.32   12.21
   3  -3  -6  297.51   12.26
  -3  -3   6  283.60   14.78
  -3  -3   6  282.74   12.58
  -3  -3   5   10.34    1.06
   3   3  -5    9.78    1.00
  -3  -3   5    8.11    1.62
  -3   3   5   11.69    1.02
   3   3  -5   10.02    0.77
   3  -3  -5    9.84    0.78
   3  -3  -5   11.15    1.81
  -3   3   4   39.87    2.28
   3   3  -4   39.55    2.40
  -3  -3   4   43.91    2.53
   3  -3  -4   36.45    3.34
   3   3  -4   38.26    1.92
   3  -3  -4   37.53    1.94
  -3  -3   4   37.78    3.51
  -3  -3   3    5.27    0.79
   3   3  -3    5.05    0.78
  -3  -3   3    6.74    1.46
  -3   3   3    4.04    0.62
   3   3  -3    6.07    0.47
   3  -3  -3    6.28    1.34
   3  -3  -3    4.85    0.45
  -3  -3   2    2.93    1.04
   3   3  -2    1.85    0.27
   3  -3  -2    1.98    0.80
   3   3  -2    2.31    0.55
   3  -3  -1   73.38    3.16
  -3  -3   1   78.75    5.15
   3  -3  -1   74.65    4.71
   3   3  -1   71.77    3.92
   3   3  -1   71.08    3.14
  -3  -3   0  243.58   12.63
   3   3   0  256.67   10.44
   3   3   0  242.67   11.32
   3  -3   0  260.15   12.14
   3  -3   0  254.79   10.46
   3   3   1    1.55    0.49
  -3  -3  -1    1.39    0.76
   3  -3   1    1.84    0.23
   3   3   1    1.83    0.22
   3  -3   1    1.54    0.62
  -3  -3  -2   26.88    2.73
   3  -3   2   30.54    1.45
   3  -3   2   28.02    2.23
   3   3   2   29.15    1.41
   3   3   2   24.99    2.01
   3  -3   3   36.64    2.39
   3   3   3   32.41    2.34
  -3  -3  -3   33.51    3.10
   3  -3   3   35.62    2.03
   3   3   4   14.49    1.12
   3  -3   4   14.41    1.23
  -3  -3  -4   15.58    1.97
   3  -3   4   14.26    1.23
   3   3   5    1.02    0.36
   3  -3   5    1.00    0.33
   3  -3   5    0.82    0.41
  -3  -3  -6   49.91    3.85
   3   3   6   41.81    2.75
   3  -3   6   41.36    2.94
   3   3   6   49.15    3.04
  -3  -3  -7   83.23    5.44
   3   3   7   70.56    4.39
   3   3   7   80.17    4.54
   3   3   7   89.67    4.12
   3  -3   7   92.78    4.29
   3  -3   7   81.97    4.15
   3  -3   8  431.65   17.74
   3  -3   8  395.04   17.75
   3   3   8  432.05   17.71
   3  -3   9   73.09    3.64
   3  -3   9   68.79    3.75
   3   3   9   73.06    3.72
   3  -3  10   15.44    1.18
   3  -3  10   13.17    1.27
   3   3  10   15.87    1.30
   3  -3  11    0.42    0.29
   3   3  11    0.70    0.27
   3  -3  11    0.29    0.27
  -3  -3 -11    0.42    0.65
  -3  -3 -12   16.03    2.14
   3  -3  12   16.53    1.47
   3   3  12   15.67    1.37
   3  -3  12   15.75    1.19
  -3  -3 -13   35.67    3.34
   3   3  13   39.96    2.35
   3  -3  13   33.78    2.30
  -3  -3 -14  356.73   16.87
   3  -3  14  328.60   15.13
   3   3  14  359.00   15.13
  -3  -3 -15   43.83    3.80
   3  -3  15   39.86    2.75
   3   3  15   42.21    2.73
  -3  -3 -16    1.72    0.98
   3   3  16    4.15    0.77
   3  -3  16    2.35    0.68
   3  -3  17    2.55    0.67
   3   3  17    2.22    0.61
  -3  -3 -17    1.78    1.01
  -3  -3 -18   11.79    2.08
   3  -3  18   10.39    1.31
   3   3  18   11.34    1.34
  -3  -3 -19   -0.27    1.04
  -3  -3 -20   -1.12    1.04
  -3  -3 -21    2.02    1.23
  -3  -3 -22   66.92    5.61
   3  -4 -16   -0.37    0.94
   3  -4 -15   17.49    2.07
   3  -4 -15   16.76    2.88
  -3   4  15   19.35    1.43
  -3   4  14   22.83    1.51
   3  -4 -14   16.85    2.91
   3  -4 -14   18.82    2.20
   3  -4 -13   59.52    5.49
  -3   4  13   70.82    3.20
  -3   4  12   -0.15    0.30
  -3  -4  12   -0.16    0.51
   3  -4 -12    0.34    0.86
   3  -4 -11   56.45    5.17
  -3  -4  11   51.02    3.80
  -3   4  11   54.51    2.76
  -3  -4  10   37.83    5.71
   3  -4 -10   30.80    2.62
   3  -4 -10   19.38    3.04
  -3   4  10   25.25    1.89
  -3  -4   9    0.48    0.51
   3  -4  -9    0.79    0.73
   3  -4  -9    0.63    0.97
  -3   4   9    0.08    0.44
  -3  -4   9   -0.49    1.58
  -3   4   8    9.84    1.02
  -3  -4   8   10.65    1.24
  -3  -4   8    8.76    2.35
   3  -4  -8   12.66    1.60
   3  -4  -8    6.14    1.72
   3  -4  -7   42.72    4.35
   3  -4  -7   50.32    3.57
  -3  -4   7   52.85    3.09
  -3  -4   7   48.05    4.85
  -3  -4   6    0.31    0.79
   3  -4  -6    0.15    0.47
  -3  -4   6    0.22    0.38
   3  -4  -6   -0.29    0.72
   3  -4  -5  106.09    5.70
  -3  -4   5   85.88    6.62
   3  -4  -5   89.55    6.49
   3  -4  -4    2.89    0.85
  -3  -4   4    2.60    1.23
   3  -4  -4    2.30    0.99
   3  -4  -3    7.32    1.19
  -3  -4   3    8.15    1.85
   3  -4  -3    6.46    1.48
  -3  -4   2    1.10    0.98
   3  -4  -2    0.41    0.47
   3  -4  -2    0.89    0.65
   3  -4  -1   41.92    2.95
   3  -4  -1   32.62    3.21
  -3  -4   1   42.12    3.98
   3  -4   0   66.32    4.05
  -3  -4   0   65.98    5.19
   3  -4   0   60.59    4.37
  -3  -4  -1  308.01   15.78
   3  -4   1  292.68   14.55
   3  -4   1  334.01   14.29
  -3  -4  -2   14.39    2.32
   3  -4   2   10.16    1.47
   3  -4   2   13.56    1.50
  -3  -4  -3    0.52    0.76
   3  -4   3    0.12    0.42
   3  -4   3    0.12    0.38
   3  -4   4   12.61    1.41
  -3  -4  -4   12.39    2.14
   3  -4   4    9.83    1.22
   3  -4   5   14.18    1.49
   3  -4   5   11.05    1.13
  -3  -4  -5   14.91    2.28
   3  -4   6   51.24    3.19
   3  -4   6   51.16    2.18
   3  -4   6   49.49    2.18
   3   4   6   47.50    2.12
  -3  -4  -6   44.38    4.11
   3   4   6   47.40    2.13
  -3  -4  -7  240.14   12.83
   3  -4   7  254.03   11.29
   3  -4   7  246.59   10.76
   3  -4   7  250.55   10.21
   3   4   7  231.19   10.38
   3  -4   8   15.17    1.52
   3  -4   8   14.22    1.50
   3   4   8   11.82    1.09
  -3  -4  -8   15.76    2.28
   3  -4   8   14.96    0.99
   3   4   8   13.93    0.93
   3  -4   9    2.48    0.80
   3   4   9    1.77    0.50
   3  -4   9    2.83    0.70
   3  -4   9    2.74    0.45
   3   4   9    2.23    0.38
   3  -4  10    8.22    1.67
  -3  -4 -10    7.35    1.65
   3   4  10    6.68    0.99
   3  -4  10    7.50    0.77
   3  -4  10    8.43    1.15
   3   4  10    8.06    0.77
   3  -4  11   11.40    1.42
   3   4  11   10.60    0.94
   3   4  11    9.79    1.36
   3   4  12    0.06    0.34
  -3  -4 -13    8.79    1.86
   3   4  13    7.47    0.85
  -3  -4 -14   10.95    2.09
   3   4  14   11.32    1.12
  -3  -4 -15  167.24   10.19
   3   4  15  175.50    7.97
   3  -5 -11   21.50    3.21
   3  -5 -10    1.03    0.94
   3  -5  -9   -0.33    0.97
   3  -5  -8    0.64    0.88
  -3  -5   8    0.56    1.74
   3  -5  -7  101.12    7.46
  -3  -5   7  121.52    9.33
  -3  -5   6    5.99    2.12
   3  -5  -6    4.89    1.34
   3  -5  -6    4.51    1.53
   3  -5  -5   27.73    2.83
   3  -5  -5   20.23    2.88
  -3  -5   5   24.88    3.66
   3  -5  -4    0.20    0.69
  -3  -5   4    0.39    1.13
   3  -5  -4    1.07    0.83
   3  -5  -3   44.24    3.54
   3  -5  -3   33.13    3.52
  -3  -5   3   40.76    4.60
  -3  -5   2    1.50    1.49
   3  -5  -2    2.66    1.11
   3  -5  -2    2.32    1.04
   3  -5  -1   98.56    5.63
  -3  -5   1   90.30    7.05
  -3  -5   0    4.00    1.72
   3  -5   0    3.24    1.07
  -3  -5  -1    5.76    1.87
   3  -5   1    7.84    1.41
  -3  -5  -2    3.57    1.52
   3  -5   2    4.69    1.11
   3  -5   3   43.16    3.43
  -3  -5  -3   50.69    4.98
  -3  -5  -4    2.11    1.25
   3  -5   4    1.19    0.77
  -3  -5  -5    4.17    1.68
   3  -5   5    1.54    0.83
  -3  -5  -6    0.34    1.12
   3  -5   6    0.51    0.68
   3  -5   7  111.12    6.44
   4   0 -24    7.18    1.84
   4   0 -23    0.06    0.28
   4   0 -23   -0.62    0.84
   4   0 -22   37.68    2.21
   4   0 -22   33.21    3.73
   4   0 -21    0.29    0.74
   4   0 -21    0.12    0.22
   4   0 -20   44.27    4.19
  -4   0  19    0.33    1.03
   4   0 -19    0.30    0.53
   4   0 -19    0.27    0.74
  -4   0  18    1.37    0.51
   4   0 -18    1.05    0.81
  -4   0  18    0.95    1.03
   4   0 -18    2.54    0.70
  -4   0  17   -0.60    0.97
  -4   0  17   -0.09    0.29
   4   0 -17    0.25    0.73
   4   0 -17    0.13    0.35
  -4   0  16   32.15    2.23
  -4   0  16   38.34    3.80
   4   0 -16   34.16    3.30
   4   0 -16   33.76    2.53
   4   0 -15    0.11    0.30
  -4   0  15    0.08    0.25
  -4   0  15    0.76    0.90
  -4   0  14  474.62   21.99
   4   0 -14  505.66   20.46
  -4   0  14  452.66   20.00
   4   0 -13   -0.18    0.28
  -4   0  13   -0.07    0.23
  -4   0  13    0.21    0.57
  -4   0  12    3.24    0.53
   4   0 -12    3.01    0.56
  -4   0  12    1.74    0.78
   4   0 -11    0.08    0.21
  -4   0  11    0.06    0.21
  -4   0  11   -0.18    0.52
  -4   0  10  141.75    7.65
   4   0 -10  126.03    7.37
  -4   0  10  144.46    6.49
   4   0 -10  148.40    6.65
  -4   0   9    0.06    0.19
   4   0  -9   -0.06    0.24
  -4   0   9    0.30    0.46
   4   0  -9    0.42    0.43
  -4   0   8 1264.44   52.24
  -4   0   8 1333.37   53.35
   4   0  -8 1275.21   53.19
   4   0  -8 1289.44   52.33
   4   0  -7    0.12    0.35
  -4   0   7    0.24    0.16
   4   0  -7   -0.05    0.12
  -4   0   7   -0.12    0.40
   4   0  -6    3.65    0.49
  -4   0   6    3.32    0.44
  -4   0   6    2.92    0.69
   4   0  -5    0.09    0.11
  -4   0   5   -0.04    0.13
   4   0  -4    0.09    0.13
  -4   0   4    0.42    0.17
  -4   0   3    0.35    0.19
   4   0  -3    0.12    0.15
  -4   0   2    4.41    0.68
   4   0  -2    4.31    0.47
  -4   0   1    4.76    0.71
   4   0  -1   -0.04    0.15
   4   0   0  969.13   39.76
  -4   0   0  951.58   39.98
   4   0   1    0.20    0.33
  -4   0  -1   -0.12    0.31
   4   0   2   47.28    3.09
   4   0   3    0.70    0.86
   4   0   3    0.12    0.35
   4   0   4  195.80   10.63
   4   0   5    2.60    1.00
   4   0   6 1841.06   76.40
   4   0   7   -0.16    0.54
   4   0   8  170.39    8.46
   4   0   9   -0.11    0.33
   4   0  10    1.81    0.55
   4   0  11    0.34    0.31
   4   0  12   49.92    2.83
  -4   0 -12   45.41    3.72
   4   0  13    0.07    0.27
  -4   0 -13   -0.17    0.49
   4   0  14   61.01    3.15
  -4   0 -14   54.78    4.07
   4   0  15   -0.06    0.23
  -4   0 -15    0.18    0.66
   4   0  16   25.46    1.61
  -4   0 -16   21.70    2.41
  -4   0 -17   -0.19    0.51
   4   0  17   -0.15    0.60
   4   0  18    5.20    1.03
  -4   0 -18    3.94    1.00
  -4   0 -19   -0.19    0.52
  -4   0 -20  267.85   13.14
  -4   0 -21   -0.20    0.57
  -4   0 -22   35.39    3.24
  -4   0 -23    0.40    0.55
  -4   0 -24    4.89    1.18
  -4   0 -25   -0.21    0.56
  -4   0 -26   47.61    3.89
  -4   0 -27    0.62    0.60
   4  -1 -24   -0.21    0.39
   4  -1 -23   10.59    1.25
   4  -1 -23   14.37    2.60
   4  -1 -22   95.19    6.81
   4  -1 -22   98.29    4.34
   4   1 -22   71.38    3.44
   4  -1 -21   67.13    5.72
   4   1 -21   62.31    2.91
   4   1 -21   65.87    3.65
   4  -1 -21   72.10    3.76
   4  -1 -20   18.33    1.55
   4   1 -20   18.21    1.07
  -4  -1  19    3.01    1.24
   4   1 -19    2.78    0.97
  -4  -1  18    5.05    0.82
  -4   1  18    6.71    0.93
   4   1 -18    6.12    1.34
   4  -1 -18    6.98    1.16
   4   1 -18    6.82    1.10
  -4  -1  18    6.30    1.61
  -4  -1  17   15.33    1.42
   4   1 -17   14.49    1.61
   4  -1 -17   15.71    1.64
  -4   1  17   17.80    1.51
  -4  -1  17   15.96    2.39
   4   1 -17   18.83    2.38
  -4   1  16  167.90    7.77
   4   1 -16  181.75    9.46
  -4  -1  16  167.56    9.43
   4   1 -16  170.00    8.16
   4  -1 -16  159.45    8.09
   4  -1 -16  173.38    9.89
  -4  -1  16  159.17    7.72
  -4  -1  15  107.95    5.51
  -4   1  15  128.19    7.95
  -4  -1  15  118.63    7.09
   4   1 -15  111.79    5.83
   4  -1 -15  118.34    5.91
  -4   1  15  110.12    5.53
   4   1 -15  116.43    7.11
   4  -1 -15  112.82    7.30
  -4   1  14   37.62    2.30
  -4   1  14   40.76    3.90
  -4  -1  14   34.58    2.24
  -4  -1  14   39.44    3.37
   4  -1 -14   34.11    3.41
   4  -1 -14   32.87    2.39
   4   1 -14   35.75    2.45
   4   1 -14   37.27    3.52
  -4  -1  13    6.44    0.77
  -4   1  13    4.65    0.68
   4   1 -13    5.97    1.53
   4  -1 -13    6.55    0.87
  -4   1  13    6.02    1.59
   4   1 -13    6.32    0.88
  -4  -1  13    4.89    1.17
   4  -1 -13    7.19    1.50
   4   1 -12   25.91    2.90
  -4  -1  12   23.13    2.37
   4  -1 -12   23.25    2.52
  -4   1  12   24.09    1.65
  -4  -1  12   22.32    1.61
   4   1 -12   22.90    1.74
   4  -1 -12   24.76    1.79
   4   1 -11    2.64    1.11
   4  -1 -11    2.07    0.44
   4   1 -11    1.12    0.37
  -4   1  11    2.71    0.47
  -4  -1  11    0.96    0.62
   4  -1 -11    1.15    0.60
  -4  -1  11    1.68    0.36
  -4  -1  10   11.69    1.00
  -4   1  10   10.70    0.98
   4   1 -10   12.00    1.98
   4  -1 -10    9.87    1.55
  -4  -1  10   14.59    1.71
   4   1 -10   12.05    1.08
   4  -1 -10   12.48    1.10
  -4  -1   9    9.34    1.29
  -4  -1   9    7.95    0.76
  -4   1   9    5.84    0.68
   4   1  -9    9.56    1.83
   4   1  -9    6.13    0.74
   4  -1  -9    7.12    0.79
   4  -1  -9    8.98    1.33
   4  -1  -8  178.29    9.20
  -4  -1   8  184.74    8.12
  -4   1   8  191.11    8.13
  -4  -1   8  177.66    9.03
   4   1  -8  184.92    8.19
   4   1  -8  179.97   10.19
   4  -1  -8  188.45    8.22
   4   1  -7  311.25   14.93
  -4   1   7  290.30   12.54
  -4  -1   7  295.50   12.55
   4  -1  -7  278.23   13.52
  -4  -1   7  326.94   13.67
   4   1  -7  298.13   12.61
   4  -1  -7  298.62   12.63
   4   1  -6  261.42   10.77
  -4   1   6  256.06   11.91
   4  -1  -6  241.66   11.58
  -4  -1   6  245.09   10.66
  -4   1   6  246.38   10.65
   4   1  -6  252.40   12.91
   4  -1  -6  257.37   10.77
   4   1  -5   17.73    1.19
  -4   1   5   19.54    1.20
  -4   1   5   21.09    1.87
   4  -1  -5   16.91    1.63
   4   1  -5   19.48    2.39
  -4  -1   5   18.54    1.19
   4  -1  -5   18.10    1.21
  -4   1   4    0.68    0.18
  -4  -1   4    1.04    0.24
   4   1  -4    0.87    0.23
   4  -1  -4    0.56    0.19
  -4   1   4    0.22    0.36
   4  -1  -4    0.19    0.31
  -4   1   3   90.14    4.85
   4  -1  -3   96.02    4.27
   4  -1  -3   85.67    4.71
  -4  -1   3   94.77    4.72
   4   1  -3   98.86    6.05
  -4   1   3   86.33    4.62
   4   1  -3   97.06    4.26
  -4  -1   2  948.99   39.22
  -4   1   2  951.23   39.15
   4  -1  -2  950.00   38.56
   4  -1  -2  910.52   39.01
   4   1  -2  954.36   38.53
  -4   1   2  965.87   39.16
   4  -1  -1  749.18   32.40
  -4   1   1  789.47   32.79
  -4  -1   1  785.16   35.12
  -4   1   1  770.26   32.51
   4   1  -1  817.33   32.07
   4  -1  -1  789.19   32.08
  -4  -1   1  779.03   32.86
   4  -1   0  743.77   29.75
  -4  -1   0  704.64   31.95
  -4  -1   0  705.24   30.07
  -4   1   0  676.96   29.93
  -4   1   0  706.39   29.35
   4   1   0  726.84   29.67
   4   1   1   44.15    2.67
  -4   1  -1   37.00    2.75
  -4  -1  -1   39.86    2.91
   4  -1   1   42.59    2.71
  -4   1  -1   41.94    2.22
  -4  -1  -1   45.47    3.90
   4   1   1   38.55    3.18
   4   1   2    7.70    1.25
   4   1   2    5.65    0.86
  -4   1  -2    6.62    0.59
   4  -1   2    7.35    1.01
  -4  -1  -2    6.49    1.44
  -4  -1  -3    1.26    0.75
   4   1   3    0.86    0.54
   4  -1   3    1.21    0.48
   4   1   3    2.37    0.63
  -4   1  -3    1.05    0.23
   4   1   4   33.39    2.50
   4  -1   4   32.61    2.55
   4   1   5   24.33    2.10
   4   1   6   44.15    2.98
   4   1   7  153.14    7.45
  -4  -1  -7  148.71    8.27
   4   1   8  148.06    7.48
  -4   1  -8  157.43    6.97
  -4  -1  -8  161.15    8.52
   4  -1   8  152.68    8.64
   4   1   9   31.94    2.29
   4  -1   9   33.93    3.09
  -4   1  -9   31.16    1.95
  -4  -1  -9   30.87    2.85
  -4  -1 -10    1.11    0.69
   4   1  10    0.38    0.36
   4  -1  10    0.46    0.59
  -4   1 -10   -0.07    0.25
  -4   1 -11    9.04    0.96
   4  -1  11    8.53    1.16
   4   1  11    7.76    1.00
  -4  -1 -11    8.60    1.45
   4   1  12  252.70   11.17
  -4   1 -12  261.95   11.15
  -4  -1 -12  258.53   12.46
   4  -1  12  233.56   10.96
   4   1  13  322.87   13.98
  -4   1 -13  336.28   14.08
   4  -1  13  299.02   13.51
   4  -1  14  274.77   12.25
   4   1  14  308.28   12.93
  -4  -1 -14  316.99   14.43
  -4   1 -14  313.16   13.11
   4  -1  15   46.52    2.24
  -4   1 -15   46.79    3.01
   4   1  15   45.83    2.81
  -4  -1 -15   52.32    3.94
  -4  -1 -16   -0.21    0.48
  -4  -1 -16    0.50    0.63
  -4   1 -16    0.44    0.39
  -4  -1 -17    1.28    0.79
   4   1  17    1.93    0.70
  -4  -1 -17    0.51    0.70
   4  -1  17    1.39    0.66
  -4   1 -17    2.00    0.62
   4   1  18   13.15    1.69
  -4  -1 -18   13.34    1.97
   4  -1  18   12.28    1.67
  -4   1 -18   12.85    1.46
  -4  -1 -18   12.22    2.05
  -4   1 -19   28.78    2.31
  -4  -1 -19   24.59    3.01
  -4  -1 -19   27.37    2.91
  -4  -1 -20   25.44    2.78
  -4   1 -20   20.82    2.00
  -4  -1 -20   18.58    2.60
  -4  -1 -21   -0.26    0.72
  -4   1 -21    0.14    0.44
  -4  -1 -21    0.94    0.84
  -4  -1 -22   12.09    2.01
  -4   1 -22   10.87    1.50
  -4  -1 -22   10.28    1.89
  -4  -1 -23    3.72    1.26
  -4  -1 -23    4.47    1.36
  -4   1 -23    4.57    0.98
  -4  -1 -24   -0.25    0.78
  -4  -1 -24    0.26    0.67
  -4   1 -24    0.63    0.56
  -4   1 -25    1.14    0.63
   4  -2 -25   14.88    1.81
   4  -2 -24    0.43    0.64
   4  -2 -23   60.61    3.88
   4  -2 -22    1.75    0.66
   4  -2 -21    1.29    0.53
   4  -2 -21    2.53    1.29
   4  -2 -20   -0.23    0.42
   4  -2 -20   -0.35    0.89
  -4  -2  19   20.98    2.67
   4  -2 -19   22.31    3.21
   4  -2 -19   20.77    1.83
   4  -2 -18    0.31    0.39
  -4  -2  18    0.56    0.37
  -4   2  18    0.09    0.33
  -4  -2  18    0.24    0.70
   4  -2 -18    0.34    0.97
  -4   2  17    4.17    0.70
  -4  -2  17    3.29    0.65
   4   2 -17    2.83    0.33
  -4  -2  17    2.52    1.00
   4  -2 -17    1.29    1.16
  -4  -2  16    0.59    0.32
  -4   2  16    1.09    0.37
   4   2 -16    0.46    0.41
   4  -2 -16    1.06    0.52
  -4  -2  16    0.65    0.70
   4  -2 -16    0.93    0.96
   4   2 -15  222.51    9.62
  -4  -2  15  224.29   10.00
  -4   2  15  234.74   10.04
   4  -2 -15  226.16   12.43
   4   2 -15  224.55   10.34
  -4  -2  15  215.40   11.34
   4  -2 -15  211.84   10.28
   4   2 -14   11.26    1.00
  -4   2  14   10.48    1.06
   4   2 -14    9.61    1.15
   4  -2 -14   10.82    1.21
  -4  -2  14   10.35    1.05
   4  -2 -14   11.90    2.08
  -4  -2  14   11.02    1.67
  -4  -2  13  122.07    5.90
  -4   2  13  127.84    5.94
   4   2 -13  129.78    5.94
   4  -2 -13  116.19    7.76
  -4  -2  13  125.97    7.07
   4   2 -13  124.46    6.13
   4  -2 -13  127.07    6.18
   4  -2 -12    0.83    0.42
   4   2 -12    0.76    0.38
  -4  -2  12    0.06    0.24
  -4   2  12    0.32    0.24
   4  -2 -12    0.76    0.78
   4   2 -12    0.48    0.35
  -4  -2  12    0.17    0.46
   4   2 -11    1.24    0.38
   4  -2 -11    1.05    0.36
   4   2 -11    0.66    0.41
  -4  -2  11    1.02    0.34
  -4   2  11    0.72    0.33
   4  -2 -11    0.95    0.69
  -4  -2  11    0.96    0.61
   4   2 -10    3.71    0.58
   4   2 -10    4.62    0.76
  -4   2  10    4.73    0.62
   4  -2 -10    3.55    1.13
  -4  -2  10    3.66    0.56
  -4  -2  10    3.19    0.94
   4  -2 -10    4.29    0.64
   4   2  -9  572.66   23.69
  -4   2   9  573.58   23.11
  -4  -2   9  536.91   23.09
   4  -2  -9  562.59   25.11
  -4  -2   9  563.05   24.34
   4   2  -9  547.37   23.20
   4  -2  -9  563.61   23.25
   4   2  -8   55.85    3.33
  -4   2   8   55.13    2.77
  -4  -2   8   56.85    2.80
   4  -2  -8   57.66    4.16
   4   2  -8   54.93    2.87
   4  -2  -8   50.78    2.86
   4   2  -7  264.28   11.87
   4  -2  -7  260.36   12.73
  -4   2   7  273.72   11.13
  -4  -2   7  256.25   11.12
   4   2  -7  263.73   11.21
   4  -2  -7  255.38   11.23
   4   2  -6    0.11    0.33
  -4   2   6    0.04    0.16
  -4  -2   6    0.29    0.20
   4   2  -6    0.87    0.26
   4  -2  -6    0.52    0.23
   4  -2  -6    0.64    0.52
  -4  -2   5   11.60    2.23
   4   2  -5   10.93    1.24
   4   2  -5   10.23    0.81
   4  -2  -5    7.70    1.26
  -4   2   5   10.02    0.79
  -4  -2   5   10.42    0.81
   4  -2  -5   10.42    0.82
   4  -2  -4    3.92    0.46
  -4  -2   4    2.58    0.57
  -4   2   4    1.79    0.48
   4   2  -4    2.86    0.68
  -4  -2   4    4.45    1.59
   4  -2  -4    4.30    0.90
   4   2  -4    3.57    0.43
   4   2  -3   33.09    2.48
  -4  -2   3   34.55    2.30
  -4   2   3   33.34    2.21
   4  -2  -3   34.11    1.81
   4  -2  -3   34.46    2.54
   4   2  -3   33.36    1.78
  -4  -2   3   31.08    3.43
   4   2  -2    0.11    0.33
  -4  -2   2   -0.10    0.36
  -4   2   2    0.09    0.24
   4   2  -2    0.07    0.16
   4  -2  -2    0.11    0.15
   4  -2  -2    0.20    0.29
  -4  -2   2    0.50    0.72
   4   2  -1  158.46    8.02
  -4   2   1  160.10    7.87
  -4  -2   1  172.31    8.15
   4  -2  -1  165.90    7.13
   4   2  -1  169.67    7.10
  -4  -2   1  164.68    9.36
   4  -2  -1  160.90    7.72
   4  -2   0   19.16    1.50
   4   2   0   20.25    1.84
   4  -2   0   21.12    1.26
   4   2   0   21.78    1.24
  -4  -2   0   21.38    2.50
  -4  -2   0   25.14    2.01
   4  -2   1  425.65   17.84
   4   2   1  416.26   17.71
   4  -2   1  418.49   17.51
  -4  -2  -1  397.04   19.37
   4   2   2    5.77    0.79
  -4  -2  -2    4.33    1.20
   4  -2   2    6.19    0.57
   4  -2   2    5.15    0.81
   4   2   3    1.62    0.50
   4   2   3    1.01    0.52
   4  -2   3    1.08    0.49
  -4  -2  -3    1.22    0.72
   4   2   4    8.11    1.11
   4   2   4    9.59    1.12
   4  -2   4    8.73    1.17
  -4  -2  -4   11.22    1.73
   4   2   5  687.60   29.37
   4   2   5  711.09   29.35
  -4  -2  -5  738.73   30.67
   4  -2   5  656.31   29.46
   4   2   6   74.45    4.25
   4   2   7  709.55   29.95
   4   2   8    2.58    0.65
  -4  -2  -9    1.20    0.69
   4   2   9    1.58    0.50
  -4  -2 -10    0.20    0.51
   4   2  10    0.31    0.37
   4   2  11   30.12    2.28
  -4  -2 -11   37.31    3.24
   4   2  12    2.95    0.68
  -4  -2 -12    1.68    0.84
   4  -2  12    3.05    0.91
   4  -2  13    6.42    0.86
  -4  -2 -13    8.15    1.54
   4   2  13    8.50    1.10
  -4  -2 -14    1.54    0.88
   4   2  14    1.89    0.60
  -4  -2 -15   96.39    6.38
   4   2  15  111.02    5.72
   4  -2  15   93.01    5.58
   4  -2  16    0.58    0.49
  -4  -2 -16    0.46    0.67
   4   2  16    1.33    0.58
   4   2  17    1.09    0.64
  -4  -2 -17    0.71    0.65
   4  -2  17    0.88    0.58
   4  -2  18    0.30    0.60
  -4  -2 -18    0.24    0.71
   4   2  18   -0.14    0.63
  -4  -2 -18    0.33    0.89
  -4  -2 -19   88.23    5.62
  -4  -2 -19   49.00    5.09
  -4  -2 -20    7.03    1.57
  -4  -2 -20    5.81    1.81
  -4  -2 -21  144.99   10.01
  -4  -2 -21  182.39    9.79
  -4  -2 -22    2.08    1.14
  -4  -2 -22    1.03    1.12
  -4  -2 -23    0.80    0.95
  -4  -2 -24    0.27    0.79
   4  -3 -21  100.00    5.76
   4  -3 -20    3.77    0.93
   4  -3 -19    8.96    1.32
   4  -3 -19    7.39    2.00
   4  -3 -18    1.82    1.30
   4  -3 -18    1.22    0.64
  -4  -3  18    1.67    0.91
  -4  -3  17   18.84    1.63
  -4   3  17   22.62    1.68
  -4  -3  17   17.01    2.26
   4  -3 -17   22.26    2.05
   4  -3 -16   45.68    3.14
  -4  -3  16   39.80    3.50
  -4  -3  16   42.17    2.66
  -4   3  16   47.72    2.71
   4  -3 -16   39.48    4.37
  -4   3  15  148.01    6.64
  -4  -3  15  142.34    6.65
   4  -3 -15  131.63    9.04
  -4  -3  15  123.44    7.57
   4  -3 -15  143.52    7.25
   4   3 -14    0.53    0.23
   4  -3 -14    0.50    0.52
   4  -3 -14    0.32    0.66
  -4  -3  14    0.54    0.53
  -4   3  14    0.76    0.36
  -4  -3  14    0.72    0.35
   4  -3 -13   12.42    1.44
   4  -3 -13    9.10    1.12
  -4   3  13    8.83    0.91
  -4  -3  13    8.44    0.90
   4  -3 -13   11.78    2.22
  -4  -3  13    9.76    1.52
   4   3 -13   10.02    0.83
  -4   3  12    0.36    0.27
   4   3 -12    1.20    0.32
  -4  -3  12    0.61    0.29
   4  -3 -12    1.48    0.91
   4  -3 -12    0.93    0.43
  -4  -3  12    0.18    0.48
   4   3 -12    1.39    0.47
   4  -3 -11   -0.08    0.34
   4   3 -11    0.06    0.25
  -4   3  11    0.06    0.21
  -4  -3  11   -0.11    0.22
   4  -3 -11   -0.28    0.71
   4   3 -11    0.16    0.29
  -4  -3  11    0.87    0.71
   4   3 -10    3.19    0.57
   4  -3 -10    4.15    0.65
  -4   3  10    4.07    0.52
  -4  -3  10    4.06    0.53
   4  -3 -10    4.57    1.31
   4   3 -10    3.64    0.58
  -4  -3  10    4.73    1.06
   4   3  -9    7.80    0.85
   4  -3  -9    8.52    0.89
  -4   3   9    8.51    0.77
  -4  -3   9    8.03    0.77
   4  -3  -9    7.64    1.60
   4   3  -9    7.15    0.87
   4   3  -8   46.58    2.77
   4   3  -8   45.80    2.57
   4  -3  -8   48.20    2.63
  -4   3   8   49.68    2.48
  -4  -3   8   55.68    5.62
  -4  -3   8   47.35    2.49
   4  -3  -8   49.80    4.16
   4   3  -7  279.14   12.46
   4  -3  -7  269.93   14.10
  -4  -3   7  294.00   12.66
   4   3  -7  285.26   12.08
   4  -3  -7  283.82   12.12
  -4  -3   7  316.30   16.42
  -4   3   7  279.25   12.51
  -4  -3   6   75.49    4.10
  -4  -3   6   66.42    5.93
   4   3  -6   71.02    3.93
   4  -3  -6   78.49    5.23
  -4   3   6   77.56    3.99
   4   3  -6   72.41    3.50
   4  -3  -6   72.18    3.53
   4   3  -5    7.58    0.95
  -4  -3   5    6.39    1.82
  -4  -3   5    7.10    0.98
  -4   3   5    5.85    0.84
   4  -3  -5    6.62    0.64
   4   3  -5    6.24    0.61
   4  -3  -5    5.46    1.23
  -4  -3   4    1.94    0.66
  -4   3   4    1.54    0.47
   4   3  -4    1.88    0.53
   4   3  -4    1.37    0.27
   4  -3  -4    2.23    0.34
  -4  -3   4    2.68    1.19
   4  -3  -4    1.62    0.79
   4   3  -3   78.75    4.38
   4  -3  -3   82.29    5.08
  -4   3   3   78.93    4.27
   4   3  -3   82.49    3.69
   4  -3  -3   81.35    3.71
  -4  -3   3   82.25    4.61
  -4  -3   3   84.50    6.12
   4   3  -2   80.77    4.45
   4  -3  -2   90.24    5.04
   4  -3  -2   81.73    3.70
  -4  -3   2   80.40    5.94
   4   3  -2   80.46    3.67
   4   3  -1  703.97   30.48
   4  -3  -1  710.35   29.54
   4  -3  -1  748.98   30.89
   4   3  -1  739.97   29.51
  -4  -3   1  743.19   32.67
   4   3   0   75.14    4.26
   4  -3   0   77.70    3.49
   4   3   0   75.69    3.44
   4  -3   0   76.68    4.34
  -4  -3   0   82.69    5.82
   4   3   1   32.75    2.37
  -4  -3  -1   29.51    3.23
   4  -3   1   31.71    1.67
   4   3   1   33.09    1.65
   4  -3   1   32.92    2.25
   4   3   2    0.86    0.44
   4   3   2    0.37    0.18
  -4  -3  -2    1.24    0.76
   4  -3   2    0.58    0.33
   4  -3   2    0.26    0.18
  -4  -3  -3    1.71    0.91
   4  -3   3    1.60    0.43
   4  -3   3    0.89    0.30
   4   3   4    9.21    0.96
   4  -3   4    9.81    1.07
  -4  -3  -4    9.71    1.78
   4  -3   4    8.72    0.58
   4  -3   5   18.68    1.71
   4   3   5   21.10    1.61
  -4  -3  -5   21.29    2.60
   4   3   6    1.03    0.49
  -4  -3  -6    1.45    0.93
   4  -3   6    0.61    0.40
   4   3   6    0.28    0.35
   4   3   7  116.97    5.99
   4  -3   7  112.03    6.26
   4   3   7  113.49    6.02
  -4  -3  -7  124.86    7.49
   4  -3   8   55.76    3.86
   4   3   8   59.24    3.75
   4   3   8   54.07    3.51
   4   3   9   19.87    1.84
   4  -3  10    1.79    0.40
   4   3  10    1.07    0.49
  -4  -3 -11   19.03    2.51
   4  -3  11   19.24    1.34
   4  -3  11   17.72    1.61
   4   3  11   20.45    1.67
  -4  -3 -12   43.94    4.13
   4  -3  12   48.07    2.54
   4  -3  12   44.57    3.00
   4   3  12   51.43    3.06
   4  -3  13  397.03   16.62
   4  -3  13  369.68   17.35
  -4  -3 -13  401.07   19.35
   4   3  13  433.23   17.45
  -4  -3 -14   83.79    5.99
   4  -3  14   73.90    4.42
   4   3  14   84.04    4.49
   4  -3  15   39.02    2.84
   4   3  15   44.84    2.91
  -4  -3 -15   44.67    4.12
   4  -3  16   -0.12    0.48
   4   3  16   -0.11    0.50
  -4  -3 -16    0.28    0.87
   4  -3  17    1.35    0.61
   4   3  17    1.07    0.61
  -4  -3 -17    1.74    1.03
  -4  -3 -18    6.26    1.64
  -4  -3 -19   50.36    4.44
  -4  -3 -19   21.00    3.51
  -4  -3 -20    3.15    1.46
  -4  -3 -21   -0.32    1.24
   4  -4 -16   11.20    2.35
  -4   4  15   26.57    1.75
   4  -4 -15   19.98    3.24
   4  -4 -14  180.86    8.91
  -4   4  14  167.73    7.50
  -4   4  13    2.91    0.56
   4  -4 -13    2.40    1.17
  -4  -4  13    1.85    0.86
  -4  -4  12    0.19    0.66
   4  -4 -12   -0.33    0.90
  -4   4  12    0.39    0.31
  -4   4  11    0.31    0.50
   4  -4 -11    1.19    0.78
   4  -4 -11    0.32    0.80
  -4  -4  11    2.30    0.94
  -4   4  10   40.09    2.72
   4  -4 -10   47.90    3.47
   4  -4 -10   33.23    3.84
  -4  -4  10   48.48    6.63
  -4   4   9   52.62    3.21
   4  -4  -9   53.17    3.85
  -4  -4   9   56.15    3.55
   4  -4  -9   56.56    4.87
  -4  -4   9   52.08    6.54
  -4   4   8  238.82   11.14
   4  -4  -8  286.73   12.33
  -4  -4   8  248.62   15.61
   4  -4  -8  208.73   12.87
  -4  -4   8  262.94   11.69
  -4   4   7   30.21    2.08
  -4  -4   7   30.49    2.50
   4  -4  -7   33.97    2.76
   4  -4  -7   25.15    3.08
  -4  -4   7   31.52    4.37
  -4  -4   6    1.59    1.29
   4  -4  -6    0.47    0.56
  -4  -4   6    0.24    0.48
   4  -4  -6    0.75    0.81
  -4  -4   5    7.41    2.09
   4  -4  -5    6.29    1.51
   4  -4  -4    2.20    0.76
   4   4  -4    1.72    0.56
  -4  -4   4    1.40    1.02
   4  -4  -4    0.43    0.54
   4  -4  -3    0.99    0.52
   4   4  -3    0.10    0.34
  -4  -4   3    0.34    0.85
   4  -4  -3    0.39    0.70
  -4  -4   2    1.32    1.08
   4  -4  -2    0.95    0.59
   4   4  -2    0.93    0.44
   4  -4  -2    1.24    0.63
   4   4  -1    8.14    1.10
   4  -4  -1    9.61    1.43
  -4  -4   1    6.91    1.86
   4   4   0  184.56    9.17
   4  -4   0  218.16    9.55
  -4  -4   0  200.93   11.58
   4  -4   0  183.12    9.40
   4  -4   1    9.13    1.22
   4   4   1    8.10    1.13
  -4  -4  -1    8.60    2.02
   4  -4   1    6.92    1.08
  -4  -4  -2   36.08    3.86
   4  -4   2   35.14    2.50
   4  -4   2   29.31    2.17
   4  -4   3    0.15    0.13
   4  -4   3    0.04    0.11
   4   4   3   -0.06    0.10
  -4  -4  -3    0.31    1.06
   4  -4   3    0.11    0.34
   4  -4   3    0.28    0.28
   4   4   3   -0.04    0.09
   4   4   4   35.63    1.59
   4  -4   4   35.38    1.63
   4   4   4   33.75    1.62
  -4  -4  -4   39.93    4.04
   4  -4   4   35.61    1.68
   4  -4   4   36.65    2.52
   4  -4   5   59.41    3.49
   4   4   5   58.35    2.58
  -4  -4  -5   58.63    5.09
   4  -4   5   57.78    2.63
   4  -4   5   54.01    2.67
   4  -4   6  413.60   17.96
  -4  -4  -6  404.80   20.36
   4  -4   6  410.44   17.14
   4  -4   6  420.56   17.10
   4   4   6  414.03   17.00
  -4  -4  -7   56.15    5.06
   4  -4   7   59.17    3.45
   4  -4   7   59.26    3.53
   4  -4   7   57.91    2.94
   4   4   7   64.33    2.95
   4   4   7   59.29    3.16
  -4  -4  -8   29.76    3.62
   4   4   8   33.79    2.19
   4  -4   8   36.63    2.63
   4  -4   8   37.20    2.46
   4  -4   8   31.08    1.90
   4   4   8   36.47    1.95
  -4  -4  -9    1.52    0.99
   4  -4   9    1.67    0.42
   4   4   9    1.68    0.41
   4   4   9    2.11    0.59
   4  -4   9    1.91    0.74
   4  -4   9    2.41    0.65
   4  -4  10    0.61    0.48
   4  -4  10   -0.22    0.90
   4   4  10    0.10    0.50
   4   4  10    0.41    0.31
   4   4  11    3.94    0.62
   4  -4  11    4.53    0.84
   4   4  11    2.54    0.73
   4   4  12   50.77    3.67
   4   4  12   46.68    2.78
  -4  -4 -13   -0.32    1.08
   4   4  13    0.07    0.48
   4   4  13    0.19    0.92
   4  -4  13   -3.10    3.73
   4   4  14   23.68    2.78
  -4  -4 -14   20.35    3.03
   4   4  14   20.52    1.65
   4   4  15    2.56    0.60
   4  -5 -11   -0.33    1.09
   4  -5 -10    2.56    1.28
   4  -5  -9    0.31    0.77
   4  -5  -8   71.17    5.74
  -4  -5   8   83.99    8.91
  -4  -5   7   23.93    4.29
   4  -5  -7   17.25    2.62
  -4  -5   6   53.60    6.07
   4  -5  -6   44.24    4.10
   4  -5  -5    4.30    1.24
   4  -5  -5    4.03    1.21
  -4  -5   5    7.14    2.35
  -4  -5   4    0.45    1.39
   4  -5  -4   -0.19    0.58
   4  -5  -4    0.65    0.67
  -4  -5   3    1.31    1.49
   4  -5  -3    2.35    0.93
   4  -5  -2  187.62    9.55
  -4  -5   2  173.21   11.75
  -4  -5   1   11.00    2.62
   4  -5  -1   13.23    1.78
   4  -5   0  126.42    7.01
  -4  -5   0  134.16    9.61
  -4  -5  -1    0.84    1.05
   4  -5   1    0.79    0.69
  -4  -5  -2    4.55    1.87
   4  -5   2    7.73    1.28
  -4  -5  -3    1.23    1.33
   4  -5   3    2.13    0.77
   4  -5   4   16.70    1.88
  -4  -5  -4   15.69    2.94
  -4  -5  -5    3.17    1.74
   4  -5   5    4.30    1.00
   4  -5   6    1.80    0.71
   4  -5   7    9.28    1.40
   5   0 -23  326.03   17.25
   5   0 -23  333.77   14.26
   5   0 -22    0.07    0.27
   5   0 -22   -0.32    1.03
   5   0 -21    6.77    1.75
   5   0 -21    6.70    1.19
   5   0 -20    0.30    0.75
   5   0 -20   -0.33    0.51
   5   0 -19   20.10    2.69
   5   0 -19   17.41    1.88
   5   0 -18   -0.27    0.62
  -5   0  18    0.20    0.29
  -5   0  18    0.32    0.94
   5   0 -18    0.14    0.43
   5   0 -17   17.59    2.43
  -5   0  17   15.03    2.42
   5   0 -17   16.12    1.68
  -5   0  17   15.48    1.47
   5   0 -16   -0.12    0.35
  -5   0  16    0.09    0.25
  -5   0  16    0.27    0.80
  -5   0  15  126.15    6.33
  -5   0  15  134.74    8.14
   5   0 -15  138.93    6.73
   5   0 -14   -0.10    0.32
  -5   0  14    0.49    0.29
  -5   0  14   -0.23    0.64
   5   0 -13    1.34    0.42
  -5   0  13    0.61    0.26
  -5   0  13    0.22    0.55
   5   0 -12   -0.09    0.26
   5   0 -12   -0.19    0.51
  -5   0  12   -0.20    0.58
  -5   0  12    0.15    0.18
  -5   0  11  135.19    6.43
   5   0 -11  137.70    7.61
  -5   0  11  140.48    7.79
   5   0 -11  143.63    6.65
   5   0 -10    0.08    0.19
   5   0 -10    0.16    0.37
  -5   0  10   -0.17    0.47
  -5   0  10    0.32    0.20
   5   0  -9 1607.23   64.36
  -5   0   9 1560.88   64.24
  -5   0   9 1568.51   65.58
  -5   0   8    0.22    0.17
   5   0  -8    0.26    0.23
   5   0  -7  208.56    9.08
  -5   0   7  203.98    8.98
  -5   0   6    0.20    0.14
   5   0  -6    0.06    0.12
  -5   0   5   42.83    2.36
   5   0  -5   47.56    2.47
  -5   0   4   -0.10    0.18
   5   0  -4    0.10    0.15
   5   0  -3  332.98   14.06
  -5   0   3  336.96   14.73
  -5   0   2    0.31    0.32
   5   0  -2    0.09    0.14
   5   0  -1    1.50    0.32
  -5   0   1    2.80    0.67
   5   0   0    0.11    0.35
  -5   0   0   -0.13    0.43
   5   0   1    0.59    0.38
  -5   0  -1    0.30    0.34
   5   0   2    0.13    0.38
   5   0   3   18.82    1.96
   5   0   3   18.21    2.62
   5   0   4    1.73    1.22
   5   0   4   -0.15    0.43
   5   0   5 1272.37   53.90
   5   0   5 1333.36   55.73
   5   0   6    3.08    1.13
   5   0   7  159.74    9.00
   5   0   8    0.79    0.64
   5   0   9   59.22    4.09
   5   0  10   -0.29    0.47
   5   0  11  264.90   12.24
   5   0  12   -0.22    0.36
   5   0  13   53.91    3.26
  -5   0 -14    0.18    0.51
   5   0  14   -0.09    0.29
   5   0  15    0.41    0.29
  -5   0 -15    0.91    0.59
   5   0  16    0.07    0.24
  -5   0 -16    0.19    0.44
   5   0  17   49.48    2.85
  -5   0 -17   56.96    4.05
   5   0  18   -0.14    0.26
  -5   0 -18   -0.19    0.49
  -5   0 -19   55.35    4.10
  -5   0 -20   -0.19    0.52
  -5   0 -21    4.06    1.08
  -5   0 -22   -0.20    0.49
  -5   0 -23   43.93    3.66
  -5   0 -24    0.20    0.50
  -5   0 -25   24.77    2.69
  -5   0 -26    0.20    0.81
   5  -1 -24    0.31    0.37
   5  -1 -23   25.90    2.02
   5  -1 -22   48.43    2.90
   5   1 -22   43.39    2.21
   5   1 -21   17.09    2.12
   5   1 -20    0.22    0.67
   5  -1 -20    0.65    0.50
   5   1 -20    0.16    0.43
   5   1 -19    0.49    0.87
   5  -1 -19    1.06    0.44
   5   1 -19    1.47    0.61
   5   1 -18   38.27    2.81
  -5  -1  18   43.41    3.98
   5  -1 -18   32.70    2.66
   5  -1 -18   25.45    3.36
   5   1 -18   34.30    3.61
   5  -1 -17  337.13   14.95
  -5   1  17  330.94   14.49
  -5  -1  17  315.45   14.42
  -5   1  17  353.12   17.61
  -5  -1  17  323.96   16.36
   5   1 -17  322.98   14.84
   5  -1 -17  354.92   17.05
   5   1 -17  337.05   16.70
  -5  -1  16  332.96   14.79
  -5   1  16  354.06   17.70
  -5   1  16  339.99   14.83
  -5  -1  16  332.57   16.60
   5  -1 -16  335.36   16.96
   5   1 -16  337.08   15.14
   5  -1 -16  345.56   15.22
   5   1 -16  354.25   17.23
  -5   1  15  257.23   11.66
  -5  -1  15  259.41   11.66
  -5   1  15  289.27   14.47
  -5  -1  15  270.13   13.43
   5  -1 -15  261.12   13.65
   5   1 -15  257.13   11.94
   5  -1 -15  272.20   12.04
   5   1 -15  259.27   13.99
   5   1 -14   15.59    2.63
  -5   1  14   24.85    1.73
  -5  -1  14   22.72    2.54
   5  -1 -14   16.71    2.39
   5   1 -14   21.98    1.79
   5  -1 -14   20.88    1.77
  -5  -1  14   20.01    1.58
   5   1 -13    2.66    1.26
   5   1 -13    1.57    0.46
   5  -1 -13    1.90    0.50
  -5  -1  13    2.25    0.48
  -5   1  13    2.35    0.49
  -5  -1  13    1.77    0.74
   5  -1 -13    1.13    0.74
  -5  -1  12   12.66    1.12
  -5   1  12   14.39    1.17
   5   1 -12   10.11    2.13
   5   1 -12   11.32    1.16
   5  -1 -12   11.61    1.20
  -5  -1  12   10.46    1.63
   5  -1 -12    9.61    1.65
   5   1 -11   91.74    6.68
  -5   1  11   90.60    4.47
  -5  -1  11   90.22    4.46
  -5  -1  11   84.84    5.47
   5  -1 -11   92.31    5.77
   5   1 -11   95.61    4.68
   5  -1 -11   88.74    4.63
  -5   1  10   62.54    3.25
  -5  -1  10   60.22    3.23
  -5  -1  10   63.95    4.24
   5  -1 -10   62.01    4.32
   5   1 -10   58.48    5.15
   5   1 -10   60.57    3.35
   5  -1 -10   66.80    3.45
  -5   1   9    0.29    0.20
   5   1  -9    0.30    0.81
   5   1  -9    0.07    0.16
   5  -1  -9    0.70    0.30
  -5   1   9    0.39    0.49
  -5  -1   9    0.12    0.22
   5  -1  -9    0.16    0.45
  -5  -1   9    0.15    0.50
   5   1  -8   44.54    4.29
  -5   1   8   51.58    3.67
  -5   1   8   41.29    2.36
  -5  -1   8   43.78    2.41
   5  -1  -8   45.71    3.30
  -5  -1   8   41.08    3.15
   5   1  -8   42.88    2.46
   5  -1  -8   46.31    2.53
   5  -1  -7   39.48    2.25
  -5   1   7   37.20    3.02
  -5   1   7   36.75    2.10
  -5  -1   7   37.10    2.11
   5  -1  -7   37.76    2.88
  -5  -1   7   34.33    2.78
   5   1  -7   40.84    4.04
   5   1  -7   38.85    2.21
   5   1  -6    0.82    0.25
   5  -1  -6    0.62    0.22
  -5   1   6    0.63    0.21
  -5  -1   6    0.59    0.21
  -5   1   6    0.14    0.42
   5  -1  -6    0.13    0.37
   5   1  -6    0.29    0.79
   5   1  -5    0.85    0.93
   5   1  -5    0.88    0.27
   5  -1  -5    1.51    0.33
  -5   1   5    1.65    0.32
  -5  -1   5    1.11    0.27
  -5   1   5    0.78    0.49
   5  -1  -5    0.94    0.42
   5   1  -4   16.59    1.18
   5  -1  -4   17.63    1.22
  -5   1   4   17.09    1.66
   5  -1  -4   15.58    1.54
  -5  -1   4   15.47    1.49
   5   1  -4   21.56    2.73
  -5   1   4   16.60    1.52
  -5   1   3  517.63   23.14
  -5  -1   3  541.49   23.26
   5  -1  -3  537.41   22.50
  -5   1   3  564.48   23.30
   5  -1  -3  536.03   23.13
   5   1  -3  563.30   22.50
   5   1  -3  536.75   25.26
  -5  -1   2  854.24   35.47
  -5   1   2  837.45   35.36
  -5   1   2  856.42   35.21
   5  -1  -2  848.42   34.59
   5   1  -2  837.98   34.54
  -5  -1   1  729.33   31.40
  -5   1   1  715.02   31.27
  -5   1   1  726.12   30.80
   5  -1  -1  736.82   30.38
   5   1  -1  769.63   30.38
   5  -1   0  117.98    5.97
  -5   1   0  112.05    6.20
  -5   1   0  116.08    5.56
   5   1   0  122.89    5.95
  -5  -1   0  114.56    6.34
   5   1   1    4.45    1.20
  -5  -1  -1    3.23    0.88
   5   1   1    3.55    0.69
   5  -1   1    4.33    0.82
  -5   1  -1    2.51    0.73
  -5   1  -1    3.49    0.54
  -5  -1  -1    2.75    1.30
  -5  -1  -2    0.30    0.81
   5   1   2    0.21    0.49
   5   1   2    0.70    0.41
   5  -1   2    0.26    0.35
  -5   1  -2    0.57    0.26
   5   1   3   70.70    4.31
   5  -1   3   73.86    4.49
  -5  -1  -3   71.77    5.72
  -5   1  -3   77.40    3.56
   5   1   3   66.68    4.85
   5   1   4  152.55    7.72
   5  -1   4  154.15    7.88
   5   1   4  145.83    8.20
   5   1   5  194.02    9.90
   5  -1   5  189.21    9.66
   5   1   5  198.08    9.62
   5   1   6   12.12    1.58
  -5  -1  -6   11.61    2.03
   5   1   7    3.39    0.82
  -5  -1  -7    1.29    0.84
   5  -1   8    0.26    0.59
  -5  -1  -8    0.25    0.69
   5   1   8    0.28    0.35
   5   1   9   19.03    1.85
  -5   1  -9   20.18    1.50
  -5  -1  -9   21.01    2.59
   5  -1   9   19.10    2.57
  -5  -1 -10    4.48    1.32
   5   1  10    3.84    0.84
  -5   1 -10    4.92    0.72
   5  -1  10    5.20    1.37
   5  -1  11   38.30    3.24
  -5   1 -11   40.66    2.49
   5   1  11   36.35    2.69
  -5  -1 -11   42.20    3.82
   5  -1  12  128.54    7.03
   5   1  12  139.12    6.84
  -5   1 -12  134.07    6.48
  -5  -1 -12  142.28    8.34
   5   1  13  194.31    9.32
  -5   1 -13  204.03    9.16
   5  -1  13  188.98    9.26
  -5  -1 -13  223.20   11.23
   5  -1  14   11.24    1.18
   5   1  14   15.74    1.49
  -5   1 -14   15.10    1.41
  -5  -1 -14   15.63    2.30
   5  -1  15   24.01    1.68
   5   1  15   27.38    2.04
  -5  -1 -15   27.23    3.01
  -5   1 -15   26.17    2.03
   5  -1  16   14.94    1.09
   5   1  16   14.07    1.40
  -5  -1 -16   15.68    2.29
  -5   1 -16   18.23    1.64
  -5  -1 -17    0.52    0.80
   5  -1  17    0.88    0.25
   5   1  17    1.83    0.53
  -5  -1 -17    0.78    0.66
  -5   1 -17    1.35    0.53
  -5  -1 -18   39.47    3.85
  -5  -1 -18   35.12    3.64
  -5   1 -18   39.71    2.76
  -5  -1 -19   66.38    5.51
  -5   1 -19   81.72    4.57
  -5  -1 -19   79.31    5.81
  -5  -1 -20   12.02    2.20
  -5   1 -20   16.68    1.69
  -5  -1 -20   14.72    2.34
  -5  -1 -21   -0.28    0.94
  -5  -1 -21    0.55    0.81
  -5   1 -21    0.13    0.41
  -5  -1 -22    0.28    0.76
  -5  -1 -22    0.54    0.68
  -5   1 -22    0.14    0.46
  -5  -1 -23   11.94    2.17
  -5   1 -23   11.61    1.55
  -5  -1 -23   13.61    2.21
  -5  -1 -24   13.48    2.33
  -5   1 -24   18.49    1.95
  -5  -1 -24   14.17    2.25
   5  -2 -25    2.58    0.88
   5  -2 -24  202.16    9.83
   5  -2 -23   19.25    1.89
   5  -2 -22   77.89    4.55
   5  -2 -21    0.24    0.40
   5  -2 -21   -0.37    1.02
   5  -2 -20    0.45    0.40
   5  -2 -20    1.09    0.99
   5   2 -19    0.09    0.18
   5  -2 -19   -0.35    0.72
   5   2 -18   50.89    3.51
   5  -2 -18   54.35    3.62
   5  -2 -18   60.97    5.31
   5  -2 -17    0.13    0.42
   5   2 -17    0.71    0.33
   5   2 -17   -0.12    0.44
  -5  -2  17    2.10    0.56
  -5  -2  17    0.48    0.77
   5  -2 -17    0.32    0.87
   5   2 -16   25.42    1.77
  -5  -2  16   20.84    1.72
  -5   2  16   22.73    1.77
  -5  -2  16   22.69    2.65
   5  -2 -16   25.08    3.14
   5   2 -16   24.03    2.01
   5  -2 -16   25.59    2.08
   5   2 -15    5.28    0.87
  -5  -2  15    5.56    0.80
   5   2 -15    9.14    1.05
  -5   2  15    6.24    0.84
   5  -2 -15    7.76    1.06
  -5  -2  15    6.99    1.44
   5  -2 -15    6.38    1.60
   5  -2 -14   59.03    4.86
  -5  -2  14   56.43    3.20
  -5   2  14   58.05    3.22
  -5  -2  14   56.84    4.26
   5   2 -14   57.39    3.47
   5   2 -14   60.67    3.46
   5  -2 -14   57.72    3.44
   5  -2 -13    2.13    0.54
   5   2 -13    0.81    0.44
   5   2 -13    0.88    0.44
   5  -2 -13    0.78    0.80
  -5   2  13    1.64    0.43
  -5  -2  13    0.71    0.33
   5  -2 -12    2.65    0.55
   5   2 -12    2.81    0.56
  -5  -2  12    1.81    0.45
   5   2 -12    2.48    0.69
   5  -2 -12    1.70    0.87
  -5  -2  12    2.56    0.83
  -5   2  12    1.95    0.46
  -5  -2  11    3.78    0.62
   5   2 -11    5.76    1.02
   5   2 -11    3.92    0.66
   5  -2 -11    4.39    0.69
  -5   2  11    5.46    0.69
   5  -2 -11    4.79    1.27
  -5  -2  11    3.89    1.03
   5   2 -10  617.74   26.16
  -5   2  10  614.68   25.19
  -5  -2  10  584.89   25.16
   5  -2 -10  621.12   27.24
  -5  -2  10  608.94   26.67
   5   2 -10  604.28   25.36
   5  -2 -10  621.96   25.42
   5   2  -9   42.28    3.09
   5  -2  -9   43.47    3.57
  -5   2   9   44.48    2.40
  -5  -2   9   41.95    2.38
  -5  -2   9   43.91    3.39
   5   2  -9   44.05    2.52
   5  -2  -9   43.28    2.53
   5   2  -8  745.03   31.79
   5  -2  -8  743.39   32.36
  -5   2   8  756.09   30.63
  -5  -2   8  737.13   30.63
   5   2  -8  765.62   30.77
   5  -2  -8  723.76   30.78
  -5  -2   7    2.02    0.41
   5   2  -7    4.15    0.96
  -5   2   7    2.95    0.47
   5   2  -7    3.38    0.50
   5  -2  -7    2.80    0.47
   5  -2  -7    4.67    1.02
  -5   2   6   -0.19    0.35
   5   2  -6    0.15    0.47
   5  -2  -6    0.31    0.45
   5   2  -6    0.47    0.24
   5  -2  -6    0.33    0.24
  -5   2   6    0.44    0.23
  -5  -2   6    0.20    0.19
   5   2  -5    0.25    0.20
  -5  -2   5    0.41    0.35
   5   2  -5    0.15    0.43
   5  -2  -5    0.31    0.25
  -5   2   5    0.58    0.36
   5  -2  -5   -0.14    0.32
   5   2  -4  169.69    8.76
   5  -2  -4  182.61    7.69
  -5  -2   4  176.08    8.40
   5  -2  -4  163.68    8.53
   5   2  -4  171.47    7.61
  -5  -2   4  173.44   11.04
  -5   2   4  176.03    8.26
  -5  -2   3   17.99    1.74
  -5   2   3   19.07    1.68
   5   2  -3   19.60    1.25
   5  -2  -3   18.48    1.27
   5  -2  -3   17.59    1.70
   5   2  -3   18.04    1.93
  -5  -2   3   19.39    3.06
   5   2  -2   67.71    4.46
  -5  -2   2   69.44    4.32
  -5   2   2   74.48    4.26
   5  -2  -2   71.42    3.49
   5   2  -2   74.72    3.47
   5  -2  -2   71.83    4.08
  -5  -2   2   80.00    6.25
   5   2  -1    1.18    0.57
  -5  -2   1    0.31    0.72
  -5  -2   1    0.72    0.44
   5  -2  -1    1.50    0.29
  -5   2   1    1.84    0.58
   5   2  -1    0.84    0.22
   5  -2  -1    0.71    0.36
   5   2   0   33.43    2.78
  -5  -2   0   34.84    2.83
   5  -2   0   38.52    2.31
   5  -2   0   36.86    2.01
   5   2   0   36.79    1.97
  -5  -2   0   33.30    3.68
   5   2   1    1.97    0.53
   5  -2   1    1.80    0.56
   5   2   2   20.43    1.82
   5  -2   2   29.47    2.17
  -5  -2  -2   26.82    3.08
  -5  -2  -3    2.65    1.06
   5   2   3    2.19    0.59
   5  -2   3    2.47    0.73
   5   2   3    2.12    0.70
   5   2   4  284.01   13.44
   5   2   4  290.13   13.18
   5  -2   4  301.77   13.45
  -5  -2  -4  288.03   14.84
   5   2   5   25.28    2.27
   5   2   5   29.35    2.35
  -5  -2  -5   33.71    3.36
   5  -2   5   27.69    2.43
   5   2   6  604.66   26.29
   5   2   6  631.08   26.50
   5  -2   6  596.32   26.57
   5   2   7    3.43    0.81
   5   2   7    1.93    0.80
   5  -2   7    2.30    0.78
   5   2   8   13.09    1.49
  -5  -2  -9    7.47    1.62
   5   2   9    6.20    1.03
   5   2  10   32.03    2.50
  -5  -2 -10   33.59    3.38
   5   2  11    8.78    1.24
  -5  -2 -11   13.12    2.03
   5  -2  12  189.03   10.05
   5   2  12  173.17    8.87
  -5  -2 -13    1.80    1.03
   5   2  13    3.08    0.73
   5  -2  13    2.03    0.88
  -5  -2 -14    0.26    0.89
   5  -2  14    0.50    0.42
   5   2  14    0.83    0.47
   5  -2  15    0.50    0.24
   5   2  15    0.12    0.30
  -5  -2 -15   -0.26    0.77
   5   2  16   28.38    2.29
  -5  -2 -16   29.89    3.26
  -5  -2 -17    3.52    1.22
   5  -2  17    1.56    0.72
   5   2  17    3.70    0.96
  -5  -2 -18    1.38    0.94
  -5  -2 -19    5.60    1.62
  -5  -2 -19    4.83    1.56
  -5  -2 -20   40.13    4.44
  -5  -2 -20   55.30    4.67
  -5  -2 -21   -0.29    0.79
  -5  -2 -21    0.36    0.97
  -5  -2 -22   25.77    3.23
  -5  -2 -23    2.66    1.29
  -5  -2 -24    0.30    1.10
   5  -3 -20    1.45    0.70
   5  -3 -19    1.57    0.72
   5  -3 -18   51.21    3.48
   5  -3 -18   43.19    4.68
   5  -3 -17   48.69    3.36
   5  -3 -17   44.04    4.66
  -5  -3  16  350.68   15.09
   5   3 -16  338.00   14.48
   5  -3 -16  382.93   15.90
  -5   3  16  354.23   15.05
   5  -3 -16  332.12   17.95
   5   3 -15   50.26    2.64
   5   3 -15   53.54    3.32
  -5   3  15   53.47    2.97
  -5  -3  15   49.01    2.95
   5  -3 -15   57.03    3.46
   5  -3 -15   45.94    4.68
  -5  -3  15   50.82    4.05
   5   3 -14   21.00    1.44
   5   3 -14   21.19    1.80
   5  -3 -14   19.93    1.82
   5  -3 -14   21.89    3.07
  -5   3  14   19.88    1.52
  -5  -3  14   22.12    1.61
  -5  -3  14   17.49    2.27
   5   3 -13    0.20    0.27
  -5   3  13    0.13    0.28
  -5  -3  13    0.14    0.29
   5  -3 -13    0.10    0.37
   5  -3 -13    0.91    0.93
   5   3 -13   -0.09    0.43
  -5  -3  13    0.20    0.62
   5  -3 -12    7.68    1.00
   5   3 -12    7.25    0.89
   5   3 -12    6.84    0.94
  -5   3  12    9.07    0.89
  -5  -3  12    7.33    0.83
   5  -3 -12    8.44    1.82
  -5  -3  12    8.66    1.57
   5   3 -11   17.35    1.48
   5   3 -11   19.26    1.52
   5  -3 -11   18.82    1.52
  -5  -3  11   20.46    2.31
  -5   3  11   17.68    1.31
  -5  -3  11   16.50    1.29
   5  -3 -11   15.48    2.45
   5   3 -10   68.53    3.68
   5  -3 -10   58.57    4.93
   5   3 -10   61.88    3.44
   5  -3 -10   65.77    3.53
  -5   3  10   64.77    3.29
  -5  -3  10   63.45    3.31
  -5   3   9    0.11    0.19
  -5  -3   9   -0.06    0.19
   5   3  -9    0.13    0.24
   5  -3  -9   -0.07    0.28
   5   3  -9   -0.09    0.29
   5  -3  -9    0.24    0.71
  -5   3   8   40.02    2.66
   5  -3  -8   37.78    3.51
  -5  -3   8   35.48    2.63
   5   3  -8   37.50    2.55
   5   3  -8   40.64    2.25
   5  -3  -8   36.90    2.23
  -5  -3   7   10.15    1.29
  -5   3   7    9.73    1.18
   5   3  -7    9.05    1.14
  -5  -3   7   10.85    2.70
   5   3  -7    8.16    0.83
   5  -3  -7   10.02    0.91
   5  -3  -7    8.79    1.62
  -5  -3   6    0.12    0.42
  -5   3   6   -0.10    0.37
   5   3  -6    0.11    0.41
   5  -3  -6    0.27    0.22
   5   3  -6    0.15    0.18
   5  -3  -6    0.40    0.50
  -5  -3   6    0.43    1.48
  -5  -3   5    3.66    1.73
  -5  -3   5    3.06    0.76
  -5   3   5    3.21    0.70
   5   3  -5    2.67    0.71
   5   3  -5    2.99    0.46
   5  -3  -5    2.51    0.43
   5  -3  -5    2.73    0.87
   5   3  -4   27.45    2.17
  -5  -3   4   28.25    2.37
  -5   3   4   26.69    2.12
   5  -3  -4   29.58    2.62
  -5  -3   4   30.35    3.91
   5   3  -4   25.89    1.55
   5  -3  -4   26.36    1.60
   5  -3  -3   88.24    4.11
   5   3  -3   80.97    4.81
  -5  -3   3   93.85    5.29
  -5   3   3   87.50    4.83
   5  -3  -3   88.44    5.21
  -5  -3   3   93.09    7.10
   5   3  -3   87.86    4.07
   5   3  -2  680.16   29.68
   5   3  -2  711.49   28.63
   5  -3  -2  700.08   28.68
   5  -3  -2  684.64   29.87
  -5  -3   2  702.53   32.56
   5   3  -1  164.77    8.27
   5  -3  -1  169.46    7.32
   5  -3  -1  157.49    8.10
   5   3  -1  172.78    7.28
  -5  -3   1  164.56   10.36
   5   3   0   61.62    3.92
  -5  -3   0   59.12    5.34
   5   3   0   67.22    3.07
   5  -3   0   63.05    3.10
   5  -3   0   63.05    3.65
   5   3   1    0.63    0.49
   5  -3   1    0.21    0.18
   5   3   1    0.34    0.16
   5  -3   1   -0.08    0.31
  -5  -3  -1   -0.31    0.85
  -5  -3  -2    0.31    0.71
   5   3   2    0.26    0.40
   5  -3   2    0.13    0.21
   5   3   2    0.04    0.22
   5  -3   2    0.47    0.25
  -5  -3  -3   24.81    3.20
   5  -3   3   28.49    2.07
   5   3   4  221.93    9.86
   5  -3   4  210.67   10.02
  -5  -3  -4  213.93   12.20
   5   3   5   11.63    1.27
  -5  -3  -5   13.80    2.38
   5  -3   5   12.23    1.43
   5   3   6    4.70    0.80
   5  -3   6    4.75    0.93
   5   3   6    4.80    0.92
  -5  -3  -6    5.97    1.61
  -5  -3  -7    2.08    1.10
   5   3   7    1.21    0.56
   5  -3   7    1.36    0.62
   5   3   7    1.70    0.60
   5   3   8    0.52    0.45
   5   3   8    0.28    0.39
   5  -3   8    1.05    0.62
   5   3   9    6.22    1.08
   5   3   9    9.79    1.52
   5  -3   9    9.51    1.63
   5   3  10    7.74    1.21
   5   3  10   11.44    1.77
   5  -3  10   11.52    1.84
  -5  -3 -11    2.72    1.21
   5   3  11    1.61    0.62
   5   3  12  152.42    8.03
  -5  -3 -12  169.91   10.01
   5  -3  12  161.49    7.11
   5   3  13   44.84    2.96
   5  -3  13   40.86    2.24
  -5  -3 -13   39.07    4.16
   5  -3  14   14.49    1.05
  -5  -3 -14   16.09    2.62
   5  -3  14   14.47    1.62
   5   3  14   16.83    1.69
   5   3  15    1.02    0.61
  -5  -3 -15    0.32    0.93
   5  -3  15    0.79    0.51
  -5  -3 -16   20.56    3.07
   5  -3  16   23.60    2.25
   5   3  16   28.31    2.30
  -5  -3 -17    1.33    1.08
  -5  -3 -18   72.75    6.06
  -5  -3 -19   25.14    3.46
  -5  -3 -20   28.35    3.65
   5  -4 -15   32.08    3.94
   5  -4 -14    3.14    1.30
  -5   4  14    3.33    0.59
  -5   4  13    1.15    0.56
   5  -4 -13    0.34    0.85
  -5   4  12    0.25    0.51
   5  -4 -12    0.32    0.88
   5  -4 -11   23.20    3.19
  -5   4  11   28.95    2.36
  -5   4  10   49.28    3.28
   5  -4 -10   51.82    3.87
   5   4 -10   49.80    2.90
   5  -4 -10   45.76    4.43
  -5   4   9  448.58   19.65
   5   4  -9  417.05   19.16
   5  -4  -9  436.61   21.55
  -5   4   8   35.10    2.61
   5   4  -8   33.62    2.38
   5  -4  -8   36.32    2.33
  -5  -4   8   34.06    5.41
   5   4  -8   36.55    2.17
   5  -4  -8   32.11    3.51
  -5  -4   8   41.54    3.21
  -5  -4   7   44.27    3.41
   5   4  -7   44.79    2.81
  -5   4   7   40.77    2.85
  -5  -4   7   36.58    5.15
   5  -4  -7   39.49    3.81
   5   4  -7   42.19    2.38
   5  -4  -7   48.09    2.60
   5  -4  -6    0.53    0.34
  -5  -4   6   -0.48    1.31
   5   4  -6    0.30    0.40
  -5  -4   6   -0.16    0.80
  -5   4   6    1.05    0.37
   5  -4  -6    0.45    0.77
   5   4  -6    0.09    0.26
   5   4  -5    2.76    0.44
   5  -4  -5    3.60    0.54
  -5  -4   5    1.80    1.47
   5   4  -5    4.57    0.83
   5  -4  -5    3.55    1.12
   5   4  -4   10.46    1.29
  -5  -4   4   10.68    2.65
   5   4  -4   13.33    0.90
   5  -4  -4   13.39    0.99
   5  -4  -4   12.29    1.80
   5   4  -3   99.16    5.60
   5  -4  -3  100.09    6.14
  -5  -4   3  106.46    8.32
   5   4  -3  104.63    4.73
   5  -4  -3  118.94    4.89
   5   4  -2    9.02    1.20
  -5  -4   2    8.42    2.32
   5   4  -2    9.18    0.65
   5  -4  -2    9.17    0.71
   5  -4  -2    9.00    1.39
  -5  -4   1    6.63    2.02
   5   4  -1    5.87    0.99
   5   4  -1    6.06    0.51
   5  -4  -1    8.21    0.62
   5  -4  -1    5.96    1.05
  -5  -4   0    3.07    1.37
   5   4   0    2.35    0.67
   5  -4   0    2.00    0.32
   5  -4   0    3.43    0.74
   5   4   0    2.73    0.32
   5   4   1    0.38    0.45
   5   4   1    0.33    0.17
   5  -4   1    0.48    0.34
   5  -4   1    0.83    0.23
   5   4   2    2.61    0.32
   5  -4   2    3.29    0.38
   5   4   2    3.38    0.80
   5  -4   2    2.47    0.46
   5   4   3    0.41    0.18
   5  -4   3    0.97    0.23
   5  -4   3    0.53    0.20
   5  -4   4   30.02    2.26
   5  -4   4   33.31    1.75
   5   4   4   33.22    1.68
  -5  -4  -4   32.48    4.07
   5  -4   5  274.82   12.89
   5  -4   5  293.99   12.27
   5   4   5  298.05   12.18
  -5  -4  -5  292.71   16.08
   5  -4   6   28.08    2.13
   5  -4   6   30.03    1.74
   5   4   6   30.73    1.65
  -5  -4  -6   35.55    4.08
   5  -4   7   34.53    2.60
  -5  -4  -7   42.54    4.48
   5  -4   7   33.28    2.10
   5   4   7   45.09    2.33
   5  -4   7   36.00    2.44
   5   4   7   38.29    2.38
   5  -4   8    5.55    0.84
   5  -4   8    4.75    0.66
   5   4   8    4.59    0.82
  -5  -4  -8    5.75    1.78
   5  -4   8    4.42    0.93
   5   4   8    5.40    0.73
   5   4   9    1.61    0.47
  -5  -4  -9    1.08    1.04
   5   4   9    1.08    0.46
   5  -4   9    3.00    0.89
   5  -4   9    1.24    0.48
   5   4  10    3.95    0.68
   5   4  10    3.08    0.72
   5  -4  10    4.76    1.31
   5  -4  10    3.86    0.71
   5  -4  11  110.01    5.63
   5   4  11   96.48    5.89
   5   4  11  115.57    5.51
   5   4  12   23.46    2.36
   5   4  12   23.64    1.83
  -5  -4 -13   11.78    2.53
   5   4  13   13.14    1.91
   5   4  13   12.40    1.29
   5   4  14   -0.18    0.48
   5   4  14   -0.23    0.89
   5   4  15    0.27    1.04
   5   4  16    6.67    1.76
   5  -5 -11   21.13    3.04
   5  -5 -10    2.39    1.15
   5  -5  -9    2.54    1.27
   5  -5  -8    2.36    1.08
  -5  -5   7   27.08    5.11
  -5  -5   6    0.59    1.61
  -5  -5   5    9.88    2.85
  -5  -5   4   -0.52    1.52
   5  -5  -4    0.36    0.72
   5  -5  -3  142.82    7.70
  -5  -5   3  136.70   10.58
  -5  -5   2   19.97    3.71
   5  -5  -2   24.80    2.40
   5  -5  -1  190.48    9.60
  -5  -5   1  197.98   13.02
  -5  -5   0    9.14    2.73
   5  -5   0    7.24    1.31
  -5  -5  -1    0.95    1.47
   5  -5   1    1.27    0.62
  -5  -5  -2    1.88    1.81
   5  -5   2   -0.14    0.46
   5  -5   3   39.91    2.96
  -5  -5  -3   40.04    5.09
   5  -5   4    3.80    0.87
   5  -5   5   42.57    3.04
   5  -5   6    0.13    0.47
   6   0 -22   14.03    1.90
   6   0 -21   -0.35    0.74
   6   0 -20   22.96    2.28
   6   0 -19    0.76    0.55
   6   0 -18  341.57   15.52
   6   0 -17    1.60    0.58
  -6   0  17    0.69    0.42
  -6   0  17    0.90    0.93
   6   0 -16    3.96    0.81
  -6   0  16    3.88    1.38
  -6   0  16    3.83    0.72
   6   0 -15   -0.11    0.35
  -6   0  15    0.52    0.88
  -6   0  15    0.09    0.24
  -6   0  14    8.79    0.98
   6   0 -14    8.03    1.06
  -6   0  14    5.81    1.42
   6   0 -13   -0.10    0.31
  -6   0  13    0.23    0.57
  -6   0  13    0.24    0.30
   6   0 -12    0.85    0.34
  -6   0  12    0.42    0.62
  -6   0  12    0.08    0.32
  -6   0  11    0.43    0.24
   6   0 -11    0.26    0.22
  -6   0  11    0.20    0.50
  -6   0  10  683.08   28.76
  -6   0  10  693.55   30.31
   6   0 -10  707.38   28.96
  -6   0   9    0.65    0.30
   6   0  -9    0.61    0.30
   6   0  -8   37.28    2.25
  -6   0   8   34.38    2.10
  -6   0   7    0.35    0.17
   6   0  -7    0.07    0.20
   6   0  -6   51.83    2.82
  -6   0   6   50.11    2.73
  -6   0   5    0.35    0.29
   6   0  -5    0.13    0.21
  -6   0   4  791.98   34.59
   6   0  -4  824.30   33.84
  -6   0   4  854.91   34.70
  -6   0   3    0.75    0.39
   6   0  -3    0.12    0.12
  -6   0   3    0.47    0.43
  -6   0   2  138.96    7.08
   6   0  -2  134.12    6.18
   6   0  -1    0.06    0.15
  -6   0   1    0.15    0.33
   6   0   0    0.50    0.34
  -6   0   0    0.32    0.44
   6   0   1   -0.14    0.28
  -6   0  -1   -0.18    0.41
   6   0   2   77.34    4.72
   6   0   3    0.33    0.89
   6   0   3   -0.15    0.48
   6   0   4   77.51    4.83
   6   0   4   70.25    6.00
   6   0   5    0.66    1.07
   6   0   5    0.18    0.55
   6   0   6   26.66    2.67
   6   0   6   34.36    3.65
   6   0   7    0.28    0.65
   6   0   8  259.29   13.48
   6   0   9    0.45    0.61
   6   0  10  188.73    9.91
   6   0  11    0.17    0.53
   6   0  12   55.96    3.80
   6   0  13    0.13    0.34
   6   0  14   12.38    1.43
   6   0  15   -0.11    0.34
   6   0  16   42.15    2.82
  -6   0 -16   47.49    3.63
   6   0  17    0.19    0.36
  -6   0 -17   -0.20    0.64
   6   0  18   22.57    1.77
  -6   0 -18   23.77    2.52
   6   0  19    0.08    0.29
  -6   0 -19   -0.20    0.50
  -6   0 -20   28.37    2.78
  -6   0 -21    0.39    0.57
  -6   0 -22  165.95    8.98
  -6   0 -23    0.20    0.49
  -6   0 -24   -0.20    0.50
  -6   0 -25    0.20    0.54
  -6   0 -26    5.58    1.30
   6  -1 -24    8.39    1.14
   6  -1 -23    0.41    0.36
   6   1 -22    1.59    0.87
   6  -1 -22    0.92    0.73
   6   1 -21    2.38    0.84
   6  -1 -21    1.93    0.91
   6   1 -21    1.49    0.99
   6   1 -20    7.24    1.76
   6  -1 -20    7.63    1.90
   6   1 -20    5.05    1.10
   6  -1 -20    6.05    1.21
   6  -1 -19    9.01    1.36
   6   1 -19   10.82    2.15
   6   1 -19   10.32    1.40
   6  -1 -19    9.89    2.13
   6   1 -18  151.03    7.55
   6  -1 -18  143.23    7.52
   6  -1 -18  133.79    8.96
   6   1 -18  145.77    9.25
  -6  -1  17  153.07    7.49
  -6   1  17  150.88    7.47
  -6  -1  17  158.67    9.33
   6  -1 -17  161.83    9.67
   6   1 -17  165.03    7.95
   6  -1 -17  163.03    7.98
   6   1 -17  145.99    9.66
   6   1 -16  182.39   11.09
  -6  -1  16  189.21    8.66
  -6   1  16  173.83    8.58
  -6  -1  16  197.42   10.57
   6  -1 -16  182.91   10.62
   6   1 -16  192.84    9.02
   6  -1 -16  191.23    9.05
   6   1 -15   11.12    2.28
  -6   1  15   11.22    1.21
  -6  -1  15   11.19    1.20
   6   1 -15   14.85    1.46
   6  -1 -15   14.57    1.47
  -6  -1  15   14.48    2.16
   6  -1 -15   15.17    2.26
   6   1 -14    5.11    1.81
  -6   1  14    7.53    0.91
  -6  -1  14    7.54    0.91
   6   1 -14    7.81    1.01
   6  -1 -14    6.57    0.96
  -6  -1  14    5.33    1.28
   6  -1 -14    5.87    1.45
   6   1 -13    9.28    2.14
  -6   1  13    7.15    0.88
  -6  -1  13    6.86    0.87
   6   1 -13    7.34    0.97
   6  -1 -13    8.60    1.04
  -6  -1  13    5.40    1.33
   6  -1 -13    6.61    1.44
  -6   1  12  127.96    5.86
  -6  -1  12  116.31    5.78
  -6  -1  12  119.48    7.09
   6  -1 -12  113.46    7.14
   6   1 -12  125.62    6.08
   6  -1 -12  125.59    6.11
   6   1 -12  112.14    8.26
  -6   1  11  214.47   10.86
  -6   1  11  192.86    8.75
  -6  -1  11  188.06    8.73
  -6  -1  11  193.78   10.13
   6  -1 -11  183.74   10.11
   6   1 -11  197.75    8.96
   6  -1 -11  206.88    9.05
   6   1 -11  198.63   11.78
  -6   1  10  254.22   12.52
  -6   1  10  242.68   10.63
  -6  -1  10  239.59   10.62
  -6  -1  10  235.76   11.92
   6  -1 -10  236.16   12.02
   6   1 -10  255.85   10.87
   6  -1 -10  241.17   10.84
   6   1 -10  233.11   13.66
   6  -1  -9   14.73    1.28
   6   1  -9   13.63    2.51
  -6   1   9   15.99    2.03
  -6   1   9   14.19    1.17
  -6  -1   9   15.34    1.22
  -6  -1   9   16.37    1.93
   6  -1  -9   13.52    1.74
   6   1  -9   15.55    1.29
  -6   1   8    0.18    0.16
   6  -1  -8    0.07    0.20
   6   1  -8   -0.35    0.95
  -6   1   8    0.36    0.49
   6   1  -8    0.07    0.19
  -6  -1   8   -0.16    0.47
   6  -1  -8    0.16    0.37
  -6  -1   8    0.18    0.21
   6   1  -7   13.13    1.11
   6  -1  -7   13.06    1.13
   6   1  -7   15.01    2.59
  -6   1   7   12.51    1.68
   6  -1  -7    9.79    1.40
  -6  -1   7   12.56    1.59
  -6   1   7   11.31    1.00
  -6  -1   7   13.77    1.09
   6  -1  -6   55.23    2.99
   6   1  -6   55.35    2.96
  -6   1   6   52.64    3.75
   6   1  -6   56.36    5.21
   6  -1  -6   50.30    3.57
  -6   1   6   53.61    2.89
  -6  -1   6   59.84    2.98
  -6  -1   5    1.77    0.60
  -6   1   5    1.82    0.62
   6   1  -5    1.69    1.21
   6   1  -5    1.46    0.37
   6  -1  -5    1.70    0.40
  -6   1   5    1.96    0.63
  -6  -1   4   41.01    3.01
  -6   1   4   44.31    3.04
   6  -1  -4   50.48    2.59
   6   1  -4   41.66    2.45
  -6   1   4   45.87    3.14
   6   1  -4   48.68    4.72
  -6  -1   3  170.63    8.41
  -6   1   3  165.49    8.27
   6  -1  -3  167.10    7.53
   6   1  -3  174.77    7.53
  -6   1   3  167.49    8.21
   6   1  -3  154.46   10.08
  -6  -1   2  200.70   10.03
  -6   1   2  194.57    9.85
  -6   1   2  203.43    9.58
   6  -1  -2  208.06    9.03
   6   1  -2  213.96    9.03
   6  -1  -1    1.57    0.35
   6   1  -1    1.06    0.30
  -6   1   1    0.99    0.51
  -6   1   1    1.66    0.54
  -6  -1   0  118.54    7.09
  -6   1   0  127.64    7.04
   6   1   0  128.06    6.63
  -6   1   0  132.45    6.28
   6  -1   0  138.65    6.81
   6   1   1   66.16    3.96
   6  -1   1   65.57    4.03
  -6   1  -1   60.31    4.20
  -6  -1  -1   53.42    4.17
  -6   1  -1   67.93    3.48
   6   1   1   56.55    4.90
   6   1   2   31.13    2.43
   6  -1   2   25.16    2.34
  -6   1  -2   28.77    1.89
   6   1   3  282.62   12.51
   6  -1   3  273.22   12.72
   6   1   3  249.16   13.56
  -6   1  -3  261.88   11.53
   6   1   4  319.63   14.92
   6  -1   4  330.32   15.17
   6   1   4  324.74   15.94
   6  -1   5   34.63    2.95
   6   1   5   37.61    2.94
   6   1   5   30.14    3.07
   6   1   6    3.50    1.06
  -6  -1  -6    0.99    1.02
   6   1   6    2.51    0.85
   6  -1   6    2.45    0.85
  -6  -1  -7    1.63    1.01
   6   1   7    0.58    0.56
   6   1   7    0.78    0.57
   6  -1   7    2.15    0.83
   6  -1   8   11.32    2.33
  -6  -1  -8   13.88    2.41
   6   1   8    9.94    1.57
   6  -1   9   42.94    4.21
  -6  -1  -9   46.88    4.46
   6   1   9   36.34    3.08
   6   1  10   21.69    2.18
   6  -1  10   25.19    3.04
  -6  -1 -10   24.55    3.17
   6  -1  11    0.24    0.61
   6   1  11   -0.15    0.40
  -6   1 -11    0.53    0.39
  -6  -1 -11    0.31    0.85
   6  -1  12    0.20    0.58
   6   1  12   -0.14    0.45
  -6   1 -12    0.28    0.31
  -6  -1 -12    0.31    0.71
  -6  -1 -13   13.58    2.40
   6  -1  13   11.23    1.57
   6   1  13   10.19    1.37
  -6   1 -13   13.06    1.29
   6  -1  14  130.52    6.88
  -6   1 -14  133.72    6.54
   6   1  14  131.34    6.84
  -6  -1 -14  142.34    8.84
  -6  -1 -15  106.28    7.37
   6  -1  15   99.59    5.38
   6   1  15  100.71    5.55
  -6   1 -15  109.88    5.44
   6   1  16   23.95    2.04
   6  -1  16   24.60    1.84
  -6   1 -16   25.24    2.00
  -6  -1 -16   25.31    3.29
   6  -1  17    9.02    0.96
   6   1  17    9.57    1.20
  -6   1 -17    9.84    1.23
  -6  -1 -17    8.64    1.99
   6  -1  18   51.57    2.72
   6   1  18   49.39    3.21
  -6  -1 -18   50.41    4.71
  -6  -1 -18   48.20    4.38
  -6   1 -18   52.88    3.33
   6   1  19    7.66    1.12
  -6  -1 -19   10.08    2.06
  -6  -1 -19    9.18    1.91
  -6   1 -19    8.66    1.21
  -6  -1 -20    1.22    1.09
  -6  -1 -20    1.43    0.97
  -6   1 -20    1.62    0.66
  -6  -1 -21    8.61    1.82
  -6   1 -21    8.46    1.24
  -6  -1 -21    6.33    1.73
  -6  -1 -22    1.14    0.97
  -6   1 -22    0.27    0.41
  -6   1 -23   11.06    1.47
  -6  -1 -23    9.75    1.93
  -6  -1 -24   23.68    2.93
   6  -2 -24    5.06    1.02
   6  -2 -23  108.73    5.91
   6  -2 -22    0.13    0.45
   6  -2 -21    1.08    0.57
   6  -2 -20    0.80    0.72
   6  -2 -20   -0.37    1.00
   6   2 -20   -0.15    0.67
   6   2 -19  139.63    6.58
   6   2 -19  143.60    7.41
   6  -2 -19  140.13    7.43
   6  -2 -19  134.01    9.26
   6   2 -18    6.84    1.14
   6  -2 -18    6.17    1.13
   6   2 -18    5.89    0.93
   6  -2 -18    6.10    1.76
   6   2 -17   86.01    4.70
   6   2 -17   82.49    4.78
   6  -2 -17   85.36    4.87
   6  -2 -17   76.52    6.27
  -6  -2  16    3.21    0.64
   6   2 -16    3.73    0.77
   6   2 -16    4.15    0.87
   6  -2 -16    4.12    0.82
  -6   2  16    2.27    0.57
  -6  -2  16    3.30    1.06
   6  -2 -16    4.29    1.38
  -6   2  15    0.08    0.32
  -6  -2  15    0.16    0.30
   6   2 -15    0.22    0.34
   6  -2 -15    0.23    0.35
   6   2 -15   -0.14    0.47
  -6  -2  15   -0.22    0.51
   6  -2 -15    0.29    0.73
   6  -2 -14    0.42    0.41
   6   2 -14    0.10    0.36
  -6   2  14   -0.16    0.38
  -6  -2  14   -0.15    0.34
   6   2 -14   -0.15    0.46
  -6  -2  14    0.22    0.59
   6  -2 -14   -0.27    0.56
  -6   2  13   28.05    1.92
  -6  -2  13   30.34    1.97
   6  -2 -13   28.42    3.14
  -6  -2  13   28.36    2.89
   6   2 -13   27.66    2.06
   6  -2 -13   30.81    2.17
   6   2 -13   26.43    2.53
   6   2 -12    0.17    0.49
   6   2 -12   -0.09    0.37
   6  -2 -12    0.19    0.32
  -6   2  12    0.21    0.27
  -6  -2  12    0.07    0.26
   6  -2 -12    0.48    0.56
  -6  -2  12    0.20    0.58
   6  -2 -11  162.37    9.36
  -6   2  11  169.10    7.60
  -6  -2  11  163.34    7.59
  -6  -2  11  175.56    9.18
   6   2 -11  171.36    8.88
   6   2 -11  170.91    7.83
   6  -2 -11  166.49    7.85
   6  -2 -10   26.39    2.78
  -6  -2  10   30.95    2.84
  -6   2  10   26.22    1.77
  -6  -2  10   28.72    1.81
   6   2 -10   27.10    1.90
   6  -2 -10   28.05    1.97
   6   2 -10   29.56    2.72
  -6   2   9  246.15   12.94
   6  -2  -9  223.48   12.16
  -6  -2   9  278.60   12.45
  -6   2   9  245.75   10.66
  -6  -2   9  238.96   10.67
   6   2  -9  251.17   10.85
   6  -2  -9  248.53   10.89
   6   2  -9  243.55   12.13
   6   2  -8    0.19    0.67
  -6   2   8    0.35    0.25
  -6  -2   8    0.36    0.28
  -6   2   8    0.23    0.63
   6   2  -8    0.27    0.28
   6  -2  -8    0.56    0.37
   6  -2  -8    0.37    0.53
   6   2  -7   37.68    2.20
   6  -2  -7   37.95    2.25
  -6   2   7   38.07    3.42
   6  -2  -7   37.39    3.04
   6   2  -7   33.56    3.04
  -6  -2   7   32.67    2.56
  -6   2   7   34.95    2.57
   6   2  -6    1.10    0.34
  -6  -2   6    0.24    0.43
  -6   2   6    0.12    0.38
   6   2  -6    0.95    0.71
   6  -2  -6    1.23    0.35
  -6   2   6    1.60    0.82
   6  -2  -6    0.32    0.46
  -6  -2   5  131.11    7.07
   6  -2  -5  138.88    6.40
   6   2  -5  143.46    6.36
  -6   2   5  145.24    7.79
   6  -2  -5  137.43    7.35
  -6   2   5  136.26    7.01
   6   2  -5  144.44    7.88
   6   2  -4   16.67    2.07
  -6  -2   4   17.07    1.80
  -6   2   4   17.17    1.72
   6   2  -4   18.76    1.31
   6  -2  -4   16.57    1.29
  -6   2   4   19.49    2.09
   6  -2  -4   18.70    1.85
   6   2  -3  414.93   19.51
  -6  -2   3  402.77   18.95
  -6   2   3  410.99   18.76
   6   2  -3  433.81   17.88
   6  -2  -3  420.51   17.92
  -6   2   3  447.65   19.18
   6  -2  -3  457.80   18.86
   6  -2  -2    0.39    0.22
   6   2  -2    0.36    0.23
  -6  -2   2    0.39    0.99
   6   2  -2    0.19    0.55
  -6  -2   2    0.16    0.46
  -6   2   2    0.14    0.48
  -6   2   2    0.94    0.53
   6  -2  -2    0.33    0.37
  -6  -2   1    1.15    1.37
   6   2  -1   -0.19    0.64
  -6  -2   1   -0.35    0.67
  -6   2   1   -0.15    0.48
  -6   2   1    0.23    0.34
   6  -2  -1    0.17    0.22
   6   2  -1    0.05    0.20
  -6  -2   0    0.37    0.94
   6   2   0   -0.18    0.57
  -6  -2   0    0.18    0.52
   6   2   0    0.67    0.25
  -6   2   0    1.01    0.44
   6  -2   0    0.67    0.29
   6  -2   1   71.33    4.12
   6   2   1   67.58    3.93
  -6  -2  -1   57.59    5.62
   6   2   2    9.46    1.19
  -6  -2  -2    7.65    1.93
   6  -2   2   12.46    1.43
   6   2   3   -0.24    0.51
   6  -2   3    0.14    0.43
   6   2   3    0.17    0.36
  -6  -2  -3    0.34    0.69
  -6  -2  -4    7.88    1.91
   6   2   4    6.81    1.27
   6  -2   4    8.10    1.28
   6   2   4    8.70    1.21
   6   2   5   45.56    3.52
   6   2   5   50.39    3.43
   6  -2   5   50.21    3.58
  -6  -2  -5   51.50    4.77
   6   2   6    5.52    1.12
   6   2   6    7.76    1.29
   6  -2   6    6.12    1.21
   6   2   7  213.75   11.16
   6   2   7  251.01   11.66
   6  -2   7  240.13   11.72
  -6  -2  -8    7.78    1.82
   6   2   8    3.58    0.91
   6   2   8    6.87    1.38
   6  -2   8    5.43    1.24
  -6  -2  -9    3.71    1.39
   6   2   9    2.27    0.74
   6   2   9    1.57    0.90
  -6  -2 -10    8.92    1.95
   6   2  10    8.15    1.29
   6   2  11  211.43   10.39
  -6  -2 -11  220.98   12.25
   6  -2  12    2.34    1.23
  -6  -2 -12    2.46    1.14
   6   2  12    1.12    0.52
   6  -2  13    5.53    1.39
  -6  -2 -13    6.18    1.69
   6   2  13    3.95    0.88
  -6  -2 -14    3.72    1.43
   6  -2  14    1.44    0.85
   6   2  14    1.60    0.64
  -6  -2 -15    4.06    1.41
   6  -2  15    4.98    0.95
   6   2  15    3.84    0.88
  -6  -2 -16    0.94    1.07
   6  -2  16    0.73    0.38
   6   2  16    1.05    0.56
   6   2  17   59.83    3.80
  -6  -2 -17   55.57    5.03
  -6  -2 -18    0.32    0.98
  -6  -2 -19    2.23    1.23
  -6  -2 -20    0.32    0.81
  -6  -2 -20    0.36    1.06
  -6  -2 -21   76.31    6.56
  -6  -2 -21   87.82    6.60
  -6  -2 -22    6.52    1.88
  -6  -2 -23   46.83    4.72
  -6  -2 -24    0.33    0.96
   6  -3 -18   36.90    2.84
   6  -3 -18   25.98    3.69
   6   3 -17  229.75   10.80
   6  -3 -17  236.98   10.96
   6  -3 -17  201.92   12.81
   6   3 -16   39.17    2.34
   6   3 -16   43.25    2.96
   6  -3 -16   45.27    3.09
   6   3 -15    8.30    0.94
   6  -3 -15   10.90    1.33
  -6   3  15    9.03    0.97
  -6  -3  15    6.71    0.92
   6  -3 -15    5.51    1.59
   6   3 -15    7.54    1.09
   6   3 -14   -0.10    0.51
   6  -3 -14    0.11    0.49
  -6   3  14    0.37    0.29
  -6  -3  14   -0.15    0.43
   6   3 -14   -0.16    0.29
   6  -3 -14   -0.31    0.90
   6   3 -13    4.45    0.82
   6  -3 -13    3.73    0.78
   6   3 -13    3.60    0.71
  -6   3  13    3.52    0.59
  -6  -3  13    3.45    0.59
   6  -3 -13    3.25    1.33
  -6  -3  13    3.44    1.09
   6   3 -12   41.62    2.64
   6  -3 -12   39.12    3.88
  -6  -3  12   39.48    3.63
   6   3 -12   38.90    2.52
   6  -3 -12   36.87    2.53
  -6   3  12   40.67    2.34
  -6  -3  12   35.61    2.31
   6   3 -11  243.52   10.85
   6  -3 -11  207.24   12.26
  -6  -3  11  264.36   12.55
   6   3 -11  230.19   10.51
   6  -3 -11  230.60   10.59
  -6   3  11  236.07   10.32
  -6  -3  11  240.64   10.39
   6   3 -10   43.68    2.94
   6  -3 -10   42.22    3.91
   6   3 -10   42.20    2.62
   6  -3 -10   47.09    2.75
  -6  -3  10   43.86    3.14
  -6   3  10   49.38    3.18
   6   3  -9   19.86    1.83
  -6  -3   9   21.01    1.99
   6   3  -9   20.44    1.51
   6  -3  -9   18.69    1.51
  -6   3   9   17.24    1.82
   6   3  -8    1.21    0.48
  -6  -3   8    0.54    0.54
  -6   3   8    0.25    0.45
   6   3  -8    0.47    0.29
   6  -3  -8    0.94    0.37
   6  -3  -8    1.32    0.75
  -6  -3   7    4.45    0.93
  -6   3   7    3.11    0.76
   6   3  -7    3.14    0.81
   6  -3  -7    4.48    0.65
   6  -3  -7    4.29    1.14
   6   3  -7    5.15    0.65
  -6  -3   6    3.91    0.93
  -6   3   6    6.32    1.05
   6   3  -6    6.36    1.10
   6  -3  -6    6.25    1.27
   6   3  -6    7.68    0.77
   6  -3  -6    6.39    0.74
   6   3  -5   17.04    1.80
  -6  -3   5   22.24    2.21
  -6   3   5   15.12    1.70
  -6  -3   5   17.76    3.37
   6  -3  -5   18.24    2.09
   6   3  -5   19.07    1.31
   6  -3  -5   18.01    1.32
  -6  -3   4    2.74    1.69
   6   3  -4    1.10    0.59
  -6  -3   4    2.03    0.78
  -6   3   4    1.87    0.69
   6  -3  -4    3.18    0.87
   6   3  -4    2.24    0.43
   6  -3  -4    2.32    0.45
   6   3  -3  150.68    7.86
   6   3  -3  158.05    6.83
   6  -3  -3  154.49    6.88
  -6   3   3  145.89    7.77
  -6  -3   3  154.21    8.35
   6  -3  -3  147.14    7.85
  -6  -3   3  167.38   11.04
   6   3  -2   24.96    2.28
  -6  -3   2   18.50    3.43
   6   3  -2   24.67    1.53
   6  -3  -2   25.45    1.59
   6  -3  -2   23.16    2.13
  -6  -3   1   -0.41    1.10
   6   3  -1   -0.15    0.50
   6   3  -1    0.53    0.26
   6  -3  -1    1.01    0.34
   6  -3  -1    0.11    0.37
   6   3   0   13.90    1.69
  -6  -3   0   10.64    2.47
   6  -3   0   11.05    0.93
   6   3   0   10.28    0.87
   6  -3   0   11.48    1.18
   6   3   1   43.94    3.37
   6  -3   1   51.32    2.62
   6   3   1   49.12    2.54
  -6  -3  -1   46.31    5.01
  -6  -3  -2    0.38    0.95
   6   3   2    0.30    0.49
   6  -3   2    0.48    0.26
   6   3   2    0.33    0.26
   6  -3   3  191.87    8.41
  -6  -3  -3  196.40   11.89
   6  -3   3  185.69    9.03
   6  -3   4   85.41    4.80
  -6  -3  -4   85.68    6.91
   6   3   4   82.61    4.57
   6   3   5   50.91    3.28
   6  -3   5   50.78    3.46
  -6  -3  -5   60.26    5.39
  -6  -3  -6    0.35    0.96
   6   3   6    0.48    0.41
   6  -3   6   -0.15    0.46
   6   3   6    0.61    0.56
  -6  -3  -7    0.70    0.96
   6   3   7    1.46    0.63
   6  -3   7    1.46    0.69
   6   3   7    2.11    0.70
   6   3   8    2.54    0.80
   6  -3   8    1.99    0.82
   6   3   8    3.72    0.89
   6   3   9   62.96    4.26
   6   3   9   70.77    4.64
   6  -3   9   75.91    4.99
   6   3  10   10.73    1.51
   6   3  10   14.68    1.99
  -6  -3 -10   17.50    2.88
   6  -3  10   15.05    2.18
  -6  -3 -11    2.10    1.30
   6   3  11   -0.25    0.88
   6  -3  11   -0.28    1.00
  -6  -3 -12    1.06    1.09
   6   3  12    0.57    1.13
   6  -3  12    1.91    1.09
  -6  -3 -13   22.65    3.36
  -6  -3 -14   23.58    3.38
   6   3  15  151.81    7.57
  -6  -3 -15  124.56    9.15
  -6  -3 -16    5.82    1.88
  -6  -3 -17   13.62    2.62
  -6  -3 -18   10.81    2.34
  -6  -3 -19   12.07    2.65
   6  -4 -15    0.70    1.08
   6  -4 -14    3.74    1.53
  -6   4  13    3.95    0.95
   6  -4 -13    2.92    1.34
  -6   4  12    2.30    0.78
   6   4 -12    1.93    0.51
   6  -4 -12    0.62    0.96
   6   4 -11    6.43    0.91
  -6   4  11    6.49    1.19
   6  -4 -11    9.10    1.20
   6  -4 -11    8.00    1.85
   6   4 -11    7.20    0.99
  -6   4  10  156.20    7.80
   6   4 -10  135.83    7.09
   6   4 -10  150.70    7.06
   6  -4 -10  168.96    7.42
   6  -4 -10  139.30    8.99
  -6   4   9   27.98    2.45
   6   4  -9   24.22    1.98
   6  -4  -9   20.94    2.88
   6   4  -9   28.15    1.90
   6  -4  -9   31.87    2.16
   6   4  -8    3.48    0.59
   6  -4  -8    2.69    0.62
  -6   4   8    1.24    0.74
   6   4  -8    2.04    0.62
   6  -4  -8    2.93    1.15
  -6  -4   7    4.03    1.98
   6   4  -7    5.12    0.92
  -6   4   7    7.66    1.19
   6   4  -7    6.97    0.79
   6  -4  -7    7.53    0.93
   6  -4  -7    6.77    1.51
  -6  -4   6    1.10    1.88
   6   4  -6    0.38    0.31
   6  -4  -6    0.27    0.36
   6   4  -6   -0.45    0.40
  -6   4   6   -0.12    0.70
   6  -4  -6    0.21    0.60
  -6  -4   5    8.46    2.78
   6  -4  -5    5.63    0.74
   6   4  -5    6.26    1.01
   6   4  -5    6.87    0.72
   6  -4  -5    6.12    1.26
   6   4  -4  186.18    9.57
   6  -4  -4  182.03   10.01
   6   4  -4  202.18    8.78
   6  -4  -4  225.86    8.99
  -6  -4   4  193.82   13.40
   6   4  -3   29.13    2.40
   6  -4  -3   26.01    2.41
   6   4  -3   32.75    1.77
   6  -4  -3   32.47    1.87
  -6  -4   3   32.72    4.69
   6   4  -2   33.96    2.69
   6  -4  -2   31.47    2.60
   6   4  -2   40.82    2.02
   6  -4  -2   39.31    2.10
  -6  -4   2   32.32    4.63
   6   4  -1    0.13    0.38
   6   4  -1    0.07    0.22
   6  -4  -1   -0.26    0.33
   6  -4  -1    0.60    0.41
  -6  -4   0    0.46    1.25
   6  -4   0   -0.08    0.25
   6   4   0    0.19    0.21
   6  -4   0    0.09    0.30
   6   4   1    2.93    0.40
   6  -4   1    3.42    0.47
  -6  -4  -1    2.71    1.55
   6  -4   1    2.61    0.47
   6   4   2   47.77    2.34
   6  -4   2   44.97    2.38
  -6  -4  -2   40.85    5.05
  -6  -4  -3    1.75    1.35
   6   4   3    1.12    0.30
   6  -4   3    1.63    0.36
   6  -4   4   18.03    1.25
   6   4   4   20.42    1.23
   6  -4   5    4.51    0.60
   6   4   5    4.31    0.54
  -6  -4  -6    3.80    1.68
   6  -4   6    2.96    0.51
   6   4   6    2.53    0.43
  -6  -4  -7   16.28    3.10
   6   4   7   18.02    1.60
   6  -4   7   21.76    1.96
   6   4   8   84.49    4.54
   6  -4   8   91.22    5.09
   6  -4   8   78.36    4.24
  -6  -4  -8   76.03    6.89
  -6  -4  -9    0.41    1.04
   6   4   9    0.33    0.50
   6  -4   9    0.70    0.76
   6  -4   9    0.56    0.32
   6   4  10   44.69    3.25
   6  -4  10   63.91    4.50
   6  -4  10   47.84    2.93
   6   4  10   59.36    3.25
   6   4  11   14.30    1.74
   6   4  11   16.28    1.56
   6   4  12   28.44    2.67
   6   4  12   34.75    2.37
   6   4  13   -0.10    0.49
   6   4  13    0.19    0.67
   6   4  14    6.72    1.50
   6   4  15    0.26    1.15
   6   4  16   74.56    6.12
  -6  -5   7    2.12    1.93
  -6  -5   6   17.17    4.08
  -6  -5   5    0.62    1.92
  -6  -5   4    3.58    2.30
  -6  -5   3    3.47    2.06
   6  -5  -2   43.75    3.32
  -6  -5   2   39.15    5.46
  -6  -5   1    0.56    1.83
   6  -5  -1    1.18    0.71
   6  -5   0   40.55    3.00
  -6  -5   0   37.26    5.42
   6  -5   1    0.92    0.54
   6  -5   2   11.18    1.43
   6  -5   3    7.24    1.11
   6  -5   4   85.16    4.78
   6  -5   5    1.48    0.57
   6  -5   6    0.11    0.39
   7   0 -21    0.36    0.71
   7   0 -20    0.50    0.59
   7   0 -19  240.49   11.61
   7   0 -18   -0.15    0.45
   7   0 -17   21.43    2.00
  -7   0  16    0.19    0.37
   7   0 -16    0.13    0.40
  -7   0  16   -0.28    0.88
   7   0 -15    7.29    1.07
  -7   0  15    8.86    1.04
  -7   0  15    9.34    1.83
   7   0 -14   -0.23    0.35
  -7   0  14    0.75    0.86
  -7   0  13   79.11    5.71
  -7   0  13   84.26    4.38
   7   0 -13   85.14    4.65
  -7   0  12    0.08    0.22
   7   0 -12    0.40    0.31
  -7   0  12    0.22    0.57
  -7   0  11   43.43    2.61
   7   0 -11   45.21    2.83
  -7   0  10    0.15    0.24
   7   0 -10    0.09    0.20
   7   0  -9  122.93    5.98
  -7   0   9  120.69    5.77
   7   0  -8    0.72    0.31
  -7   0   8    0.83    0.28
   7   0  -7  252.47   11.39
  -7   0   7  265.77   11.35
  -7   0   6    0.27    0.40
   7   0  -6   -0.07    0.23
  -7   0   6    0.63    0.54
  -7   0   5  240.14   11.51
   7   0  -5  242.53   10.66
  -7   0   5  243.48   11.64
   7   0  -4   -0.07    0.20
  -7   0   4    0.15    0.33
  -7   0   4   -0.14    0.36
   7   0  -3   18.35    1.35
  -7   0   3   17.47    1.79
  -7   0   2    0.65    0.44
   7   0  -2    0.07    0.18
  -7   0   1  125.25    7.28
   7   0  -1  135.81    6.22
   7   0   0    0.57    0.36
  -7   0   0    0.19    0.39
   7   0   1  198.26    9.58
  -7   0  -1  180.28    9.94
   7   0   2   -0.37    1.14
   7   0   2    0.16    0.37
   7   0   3   19.11    2.04
   7   0   3   14.40    2.62
   7   0   4   -0.38    0.96
   7   0   4    0.18    0.45
   7   0   5  109.09    6.44
   7   0   5  104.96    7.92
   7   0   6   -0.71    0.89
   7   0   6   -0.20    0.51
   7   0   7  781.58   33.53
   7   0   7  728.91   34.59
   7   0   8    0.30    0.93
   7   0   8   -0.24    0.49
   7   0   9    4.65    1.33
   7   0  10   -0.25    0.67
   7   0  11    1.09    0.74
   7   0  12    0.19    0.53
   7   0  13  271.10   13.02
   7   0  14    0.31    0.48
   7   0  15   22.41    2.12
   7   0  16   -0.13    0.45
  -7   0 -17   45.59    3.67
   7   0  17   43.51    3.02
   7   0  18    0.11    0.35
  -7   0 -18    0.21    0.56
   7   0  19   10.15    1.22
  -7   0 -19    7.85    1.52
  -7   0 -20    0.81    0.69
  -7   0 -21  152.30    8.41
  -7   0 -22    0.39    0.57
  -7   0 -23   26.05    2.71
  -7   0 -24   -0.20    0.53
   7   1 -21   40.91    3.30
   7  -1 -21   42.27    3.39
   7   1 -20   21.86    3.11
   7   1 -20   19.40    2.11
   7  -1 -20   23.13    2.35
   7  -1 -20   22.71    3.26
   7   1 -19    1.95    0.73
   7  -1 -19    3.59    0.94
   7  -1 -19    2.30    1.12
   7   1 -19    1.68    1.15
   7   1 -18   24.18    3.54
   7  -1 -18   28.88    3.50
   7   1 -18   31.53    2.57
   7  -1 -18   34.27    2.69
   7   1 -17   14.73    2.70
   7  -1 -17   19.06    2.68
   7   1 -17   17.40    1.75
   7  -1 -17   15.77    1.72
   7   1 -16    3.67    1.60
   7   1 -16    2.71    0.68
   7  -1 -16    3.72    0.79
   7  -1 -16    2.77    1.31
  -7   1  15   78.61    4.03
  -7  -1  15   68.88    3.92
  -7  -1  15   71.55    5.40
   7  -1 -15   69.60    5.38
   7   1 -15   71.69    4.24
   7  -1 -15   73.45    4.30
   7   1 -15   68.29    6.19
  -7   1  14   28.14    3.38
  -7   1  14   25.20    1.84
  -7  -1  14   20.43    1.72
  -7  -1  14   26.24    2.88
   7  -1 -14   25.63    2.86
   7   1 -14   17.07    3.03
   7   1 -14   27.55    2.10
   7  -1 -14   25.87    2.08
  -7   1  13   34.50    3.60
  -7   1  13   34.26    2.26
  -7  -1  13   34.05    2.24
  -7  -1  13   32.82    3.27
   7  -1 -13   34.43    3.29
   7   1 -13   35.05    2.45
   7  -1 -13   34.10    2.46
   7   1 -13   30.72    4.03
  -7   1  12  101.38    6.82
  -7  -1  12  102.66    6.44
  -7   1  12   99.36    5.05
  -7  -1  12  100.12    5.07
   7  -1 -12  100.26    6.42
   7   1 -12  114.19    5.40
   7  -1 -12  100.47    5.30
   7   1 -12   94.75    7.60
  -7   1  11  151.99    8.53
  -7  -1  11  141.55    8.05
  -7   1  11  139.93    6.63
  -7  -1  11  145.42    6.67
   7  -1 -11  136.96    8.00
   7   1 -11  138.02    6.85
   7  -1 -11  145.97    6.96
   7   1 -11  139.49    9.72
   7   1 -10   22.46    3.41
  -7   1  10   27.01    2.82
  -7  -1  10   24.16    2.56
   7  -1 -10   24.77    2.54
  -7   1  10   25.08    1.71
  -7  -1  10   22.72    1.66
   7   1 -10   24.85    1.82
   7  -1 -10   23.58    1.83
   7   1  -9    8.60    0.99
   7  -1  -9    9.62    1.07
   7   1  -9   10.68    2.44
  -7   1   9    9.19    0.93
  -7  -1   9   10.61    0.99
  -7   1   9   10.27    1.68
  -7  -1   9    9.23    1.55
   7  -1  -9    8.67    1.47
   7   1  -8   14.01    1.25
   7  -1  -8   12.82    1.22
   7   1  -8   15.49    2.91
  -7  -1   8   11.53    1.71
  -7   1   8   11.41    1.72
  -7   1   8   13.78    1.14
  -7  -1   8   13.44    1.15
   7   1  -7   19.48    1.49
   7   1  -7   15.50    2.96
   7  -1  -7   19.44    1.51
  -7   1   7   19.42    2.13
  -7  -1   7   21.39    2.23
  -7  -1   7   19.17    1.89
  -7   1   7   16.62    1.77
   7   1  -6   70.28    3.57
   7  -1  -6   66.23    3.55
  -7   1   6   60.67    4.27
  -7  -1   6   58.85    4.03
  -7   1   6   66.48    4.11
  -7  -1   5   25.13    2.32
  -7   1   5   27.79    2.35
   7   1  -5   27.58    1.83
   7  -1  -5   26.03    1.81
  -7   1   5   27.81    2.45
   7   1  -5   27.09    3.67
   7   1  -4    2.66    1.46
  -7  -1   4    1.35    0.58
  -7   1   4    1.27    0.53
  -7   1   4    2.64    0.75
   7  -1  -4    1.90    0.45
   7   1  -4    2.10    0.42
   7   1  -3    0.37    1.01
  -7  -1   3    0.16    0.46
  -7   1   3    0.15    0.55
   7  -1  -3    0.07    0.21
   7   1  -3    0.26    0.19
  -7   1   3    0.13    0.32
  -7  -1   2   42.26    3.39
  -7   1   2   40.43    3.23
  -7   1   2   44.43    3.01
   7  -1  -2   47.76    2.61
   7   1  -2   45.61    2.55
  -7  -1   1  392.18   17.86
  -7   1   1  372.05   17.53
  -7   1   1  379.43   16.82
   7  -1  -1  388.94   16.32
   7   1  -1  383.38   16.28
  -7  -1   0  183.35   10.04
  -7   1   0  183.76    9.83
  -7   1   0  195.76    8.95
   7   1   0  189.50    9.33
   7  -1   0  195.93    9.44
   7   1   1   87.60    4.98
   7  -1   1   87.30    5.07
  -7  -1  -1   75.48    5.33
  -7   1  -1   75.95    5.21
  -7   1  -1   87.07    4.48
   7   1   1   78.45    6.35
   7   1   2    0.62    0.78
   7   1   2    1.77    0.57
   7  -1   2    2.25    0.72
  -7   1  -2    2.11    0.53
   7   1   3   75.90    4.88
   7  -1   3   83.32    5.13
  -7   1  -3   88.58    4.29
   7   1   3   68.26    5.75
   7   1   4    0.85    0.82
   7   1   4    0.98    0.56
   7  -1   4    1.26    0.64
   7   1   5   98.78    5.93
   7  -1   5  103.21    6.13
   7   1   5   95.95    6.68
   7   1   6   81.49    5.29
   7  -1   6   86.17    5.48
   7   1   6   77.87    5.71
   7   1   7   22.53    2.64
   7   1   7   20.05    2.33
   7  -1   7   14.88    2.08
   7   1   8   20.39    2.51
   7  -1   8   20.67    3.25
   7  -1   8   26.40    2.80
   7   1   8   25.86    2.83
   7   1   9   99.62    6.57
   7   1   9  127.58    7.53
   7  -1   9  126.15    7.45
  -7  -1  -9  100.44    7.81
   7  -1   9  112.16    8.00
   7   1  10   19.51    2.22
  -7  -1 -10   14.58    2.71
   7  -1  10   21.42    3.04
  -7  -1 -11    2.12    1.36
   7  -1  11    4.65    1.47
   7   1  11    2.84    0.88
   7   1  12   23.82    2.40
  -7  -1 -12   26.24    3.55
  -7   1 -12   27.63    2.04
   7  -1  12   24.19    2.88
   7   1  13  128.38    7.02
   7  -1  13  125.83    7.53
  -7  -1 -13  128.35    8.74
  -7   1 -13  129.83    6.42
   7  -1  14  121.76    6.78
   7   1  14  108.93    6.32
  -7   1 -14  118.11    5.93
  -7  -1 -14  112.81    8.08
   7  -1  15  120.06    6.69
   7   1  15  125.40    6.69
  -7   1 -15  123.76    6.23
  -7  -1 -15  127.32    8.61
   7  -1  16   12.85    1.51
   7   1  16   14.35    1.62
  -7  -1 -16   11.10    2.25
  -7   1 -16   12.15    1.35
   7  -1  17    0.54    0.46
   7   1  17    1.04    0.54
  -7   1 -17    0.33    0.36
   7   1  18    3.39    0.84
  -7   1 -18    3.97    0.80
   7   1  19   63.76    4.00
  -7  -1 -19   64.39    5.31
  -7   1 -19   68.82    4.01
  -7  -1 -20   54.33    4.83
  -7   1 -20   56.45    3.59
  -7  -1 -21   41.54    4.18
  -7   1 -21   39.27    2.89
  -7  -1 -22    1.19    0.97
  -7   1 -22    0.64    0.48
  -7  -1 -23   16.91    2.56
   7   2 -20   59.56    4.06
   7  -2 -20   62.37    4.21
   7   2 -19   14.33    1.72
   7  -2 -19   15.46    1.82
   7  -2 -19   10.32    2.29
   7   2 -18  151.43    7.94
   7   2 -18  153.93    7.87
   7  -2 -18  158.08    8.00
   7  -2 -18  155.46    9.89
   7   2 -17   -0.26    0.57
   7  -2 -17   -0.14    0.48
   7   2 -17    0.49    0.62
   7  -2 -17   -0.32    0.94
   7   2 -16    0.48    0.43
   7  -2 -16    0.76    0.45
   7   2 -16    1.25    0.73
   7  -2 -16    0.61    0.83
   7   2 -15    0.11    0.40
   7  -2 -15    0.12    0.47
   7   2 -15    0.58    0.69
  -7   2  15    0.26    0.31
  -7  -2  15   -0.09    0.37
   7  -2 -15    0.87    0.89
  -7  -2  14   53.46    4.24
   7  -2 -14   40.71    4.09
  -7   2  14   46.78    2.85
  -7  -2  14   47.86    2.87
   7   2 -14   49.19    3.11
   7  -2 -14   51.12    3.20
   7   2 -14   52.90    4.04
  -7   2  13    1.46    0.45
  -7  -2  13    1.54    0.44
   7   2 -13    0.87    0.67
   7   2 -13    0.91    0.43
   7  -2 -13    1.17    0.48
  -7  -2  13    0.45    0.61
   7  -2 -13    2.32    1.06
   7   2 -12   13.33    2.12
  -7   2  12   14.69    2.46
  -7   2  12   13.90    1.23
  -7  -2  12   14.52    1.25
   7   2 -12   14.02    1.38
   7  -2 -12   14.95    1.44
  -7  -2  12   14.07    2.05
   7  -2 -12   11.67    2.02
   7   2 -11    0.47    0.72
   7   2 -11   -0.09    0.33
   7  -2 -11    0.38    0.29
  -7   2  11   -0.58    0.94
  -7   2  11    0.07    0.22
  -7  -2  11    0.21    0.26
   7  -2 -11    0.23    0.53
  -7  -2  11    0.22    0.54
   7   2 -10   14.49    2.23
   7  -2 -10   16.43    2.18
  -7  -2  10   17.85    2.25
  -7   2  10   15.84    2.45
  -7   2  10   16.31    1.32
  -7  -2  10   15.08    1.30
   7   2 -10   17.35    1.45
   7  -2 -10   17.34    1.49
  -7   2   9    2.27    0.77
   7   2  -9    1.44    0.93
  -7   2   9    2.31    1.18
  -7   2   9    3.20    0.57
   7   2  -9    2.50    0.55
   7  -2  -9    1.75    0.52
   7  -2  -9    2.24    0.87
  -7  -2   9    2.28    0.91
  -7  -2   9    3.41    0.58
   7   2  -8  236.69   12.57
   7   2  -8  245.92   10.71
  -7   2   8  273.37   12.92
   7  -2  -8  242.09   12.09
  -7  -2   8  226.11   11.38
  -7   2   8  231.21   11.35
   7  -2  -8  246.60   10.78
  -7  -2   7   12.92    1.56
  -7   2   7   12.65    1.52
   7   2  -7   15.15    1.25
   7  -2  -7   13.27    1.23
   7   2  -7   12.59    2.08
  -7   2   7   14.71    2.07
   7  -2  -7   12.62    1.75
   7   2  -6    6.58    0.78
   7  -2  -6    7.25    0.84
  -7  -2   6    6.56    1.15
   7   2  -6    8.20    1.61
  -7   2   6    5.98    1.10
  -7   2   6    8.09    1.49
   7  -2  -6    5.21    1.15
   7  -2  -5    5.93    0.77
   7   2  -5    5.01    1.34
  -7  -2   5    5.26    1.08
  -7   2   5    6.76    1.16
   7   2  -5    4.82    0.67
  -7   2   5    4.61    1.10
   7  -2  -5    6.25    1.14
  -7  -2   4  173.88    9.31
  -7   2   4  175.51    9.12
   7   2  -4  190.85    8.30
   7  -2  -4  186.71    8.34
  -7   2   4  179.81    9.51
   7  -2  -4  197.61    9.34
   7   2  -4  177.10   10.06
   7   2  -3    3.74    1.17
  -7  -2   3    4.70    1.13
  -7   2   3    4.71    1.05
   7  -2  -3    6.02    0.75
   7   2  -3    6.75    0.75
  -7   2   3    5.91    1.15
  -7  -2   2   47.56    3.76
  -7   2   2   47.74    3.53
  -7   2   2   48.14    3.39
   7  -2  -2   49.67    2.73
   7   2  -2   47.83    2.65
   7   2  -2   44.79    3.92
   7   2  -1    0.68    0.66
  -7  -2   1    0.82    0.56
  -7   2   1    0.17    0.51
  -7   2   1    0.76    0.47
   7  -2  -1    0.78    0.31
   7   2  -1    0.72    0.30
  -7  -2   0    0.84    1.15
   7   2   0    0.67    0.79
  -7  -2   0    0.20    0.55
  -7   2   0    0.45    0.38
   7  -2   0    0.98    0.34
   7   2   0    1.87    0.39
  -7  -2  -1    0.42    0.96
   7  -2   1    0.41    0.39
   7   2   1    0.19    0.21
  -7   2  -1    0.10    0.33
   7  -2   1    0.35    0.25
  -7   2  -2  121.68    5.90
  -7  -2  -2  111.95    8.79
   7   2   2  129.64    6.58
   7  -2   2  123.19    6.65
   7   2   3    2.45    0.72
   7  -2   3    1.70    0.68
   7   2   3    1.66    0.83
  -7  -2  -3    3.68    1.57
  -7   2  -3    2.06    0.45
   7   2   4   10.37    1.40
   7  -2   4   10.23    1.47
  -7  -2  -4   10.80    2.39
   7   2   4    6.48    1.37
  -7  -2  -5    1.18    0.99
   7   2   5    2.76    0.84
   7   2   5    1.67    0.68
   7  -2   5    2.08    0.80
   7   2   6  314.05   15.47
   7   2   6  335.55   15.30
   7  -2   6  332.45   15.48
   7   2   7   27.60    2.73
   7   2   7   30.37    2.78
   7  -2   7   25.94    2.68
   7   2   8  167.79    9.54
   7   2   8  211.01   10.26
   7  -2   8  199.65   10.15
  -7  -2  -8  174.09   11.41
  -7  -2  -9    0.37    0.66
   7   2   9   -0.18    0.58
   7   2   9   -0.48    0.74
   7  -2   9   -0.24    0.84
  -7  -2 -10    9.17    2.21
   7   2  10    4.18    1.09
   7   2  10   10.45    1.98
   7  -2  10    7.95    1.71
   7  -2  11    0.62    0.84
   7   2  11    0.84    0.60
   7   2  11    0.30    0.83
   7  -2  11    1.11    0.85
  -7  -2 -11    1.09    1.12
   7   2  12   92.84    5.65
  -7  -2 -12   94.07    7.35
   7  -2  12  106.46    7.17
  -7  -2 -13    7.21    1.91
   7  -2  13    6.27    1.60
   7   2  13    5.24    1.11
   7   2  14   29.35    2.64
   7  -2  14   38.48    3.54
  -7  -2 -14   34.61    4.07
  -7  -2 -15    0.36    0.98
   7  -2  15    0.19    0.65
   7   2  15    0.15    0.46
  -7  -2 -16   49.33    4.96
  -7  -2 -17    1.44    1.05
  -7  -2 -18    4.32    1.75
  -7  -2 -19    0.36    1.05
  -7  -2 -20   43.56    4.73
  -7  -2 -21    7.93    2.12
  -7  -2 -22   70.52    6.18
  -7  -2 -23   -0.35    1.03
   7   3 -19    0.59    0.66
   7  -3 -19    0.32    0.55
   7   3 -18   26.67    2.43
   7  -3 -18   26.68    2.46
   7  -3 -17    2.30    0.82
   7  -3 -17    4.24    1.54
   7   3 -17    1.85    0.75
   7  -3 -16    4.29    1.01
   7   3 -16    3.34    0.89
   7  -3 -16    4.75    1.64
   7   3 -15   13.02    1.36
   7   3 -15   12.35    1.44
   7  -3 -15   13.90    1.55
   7  -3 -15   11.33    2.29
   7   3 -14   30.33    2.29
   7  -3 -14   34.99    3.77
   7   3 -14   35.71    2.42
   7  -3 -14   32.47    2.42
  -7   3  14   28.01    2.02
  -7  -3  14   28.66    2.08
  -7  -3  13    3.73    0.71
   7  -3 -13    4.47    0.87
   7   3 -13    3.11    0.76
   7   3 -13    4.98    0.91
   7  -3 -13    5.88    1.64
  -7   3  13    4.02    0.71
   7   3 -12  141.13    7.01
   7  -3 -12  133.70    8.55
   7   3 -12  143.72    6.69
   7  -3 -12  140.25    6.75
  -7  -3  12  120.16    7.16
  -7   3  12  130.56    7.18
   7   3 -11   17.94    1.87
   7  -3 -11   20.61    2.72
   7   3 -11   21.78    1.71
   7  -3 -11   21.56    1.76
  -7  -3  11   21.67    2.17
  -7   3  11   20.87    2.08
  -7  -3  10    9.57    1.39
  -7   3  10    8.37    1.31
   7   3 -10    9.27    1.32
   7   3 -10   11.69    1.16
   7  -3 -10    8.41    1.05
   7  -3 -10    7.00    1.59
  -7  -3  10   12.28    2.16
  -7  -3   9    2.19    0.83
  -7   3   9    3.33    0.85
   7   3  -9    3.69    0.86
   7   3  -9    3.88    0.66
   7  -3  -9    4.67    0.74
   7  -3  -9    2.11    1.03
  -7  -3   8    1.43    0.66
  -7   3   8    0.72    0.59
   7   3  -8    1.76    0.68
   7   3  -8    1.70    0.44
   7  -3  -8    1.54    0.75
   7   3  -7   20.61    2.09
  -7  -3   7   21.41    2.20
  -7   3   7   19.12    2.02
   7  -3  -7   19.53    2.32
   7   3  -7   20.17    1.51
   7  -3  -7   22.68    1.63
   7   3  -6   69.07    4.57
  -7  -3   6   73.20    4.80
  -7   3   6   73.68    4.58
   7  -3  -6   72.71    4.90
   7   3  -6   74.77    3.73
   7  -3  -6   71.38    3.75
   7   3  -5   14.20    1.80
   7   3  -5   17.23    1.30
   7  -3  -5   15.54    1.29
  -7  -3   5   15.62    2.00
  -7   3   5   14.01    1.75
   7  -3  -5   15.74    1.90
   7   3  -4   -0.06    0.23
   7  -3  -4    0.07    0.23
   7   3  -4    0.16    0.48
  -7  -3   4    0.40    0.55
  -7   3   4   -0.16    0.46
   7  -3  -4    0.16    0.43
  -7  -3   3    2.94    1.68
   7   3  -3    2.37    0.46
   7  -3  -3    1.89    0.44
   7   3  -3    2.81    0.85
  -7  -3   3    1.92    0.85
  -7   3   3    2.28    0.84
   7  -3  -3    2.10    0.71
   7   3  -2   48.90    3.67
   7   3  -2   49.34    2.69
   7  -3  -2   53.79    2.82
   7  -3  -2   48.42    3.24
  -7  -3   2   42.71    5.40
   7   3  -1   64.42    4.59
   7   3  -1   75.18    3.65
   7  -3  -1   75.22    3.72
  -7  -3   1   67.60    6.78
   7   3   0  291.39   14.12
   7  -3   0  294.47   12.79
   7   3   0  306.81   12.73
  -7  -3   0  281.44   17.08
  -7  -3  -1    4.12    2.02
   7   3   1    7.26    1.35
   7  -3   1    6.49    0.75
   7   3   1    7.09    0.72
   7   3   2   20.08    2.24
  -7  -3  -2   20.18    3.57
   7  -3   2   23.44    1.58
   7   3   2   23.81    1.53
   7  -3   3    8.75    0.92
   7   3   3   10.12    0.91
  -7  -3  -4    0.43    1.00
   7   3   4    0.24    0.49
   7  -3   4    0.69    0.53
   7   3   5   32.39    2.47
   7  -3   5   27.21    2.46
  -7  -3  -5   29.09    4.09
   7   3   6   86.30    4.85
   7  -3   6   81.88    5.03
   7   3   6   75.22    5.06
  -7  -3  -6   82.45    7.10
  -7  -3  -7    0.42    0.86
   7   3   7    0.72    0.49
   7  -3   7    0.87    0.62
   7   3   7    0.34    0.53
   7   3   8   36.45    2.94
   7  -3   8   33.42    3.06
   7   3   9   32.45    2.92
   7  -3   9   32.04    3.09
   7   3  10   34.06    3.18
   7  -3  10   30.41    3.24
  -7  -3 -10   33.70    4.24
  -7  -3 -11    0.82    0.94
   7   3  11    0.24    0.75
   7  -3  11    0.56    0.86
   7   3  12   32.36    3.53
   7  -3  12   32.36    3.78
   7   3  13   30.76    3.84
  -7  -3 -13   22.50    3.61
   7   3  14  333.55   16.64
   7  -3  14  393.02   18.14
   7   3  15   64.10    6.04
   7  -3  15   63.79    6.72
  -7  -3 -16    9.03    2.42
   7   3  16   12.26    2.83
  -7  -3 -17    0.41    1.03
  -7  -3 -18    0.82    1.34
   7  -4 -14    4.68    1.63
   7   4 -14    7.40    1.11
   7   4 -13   51.95    3.25
   7  -4 -13   46.21    4.63
   7  -4 -12    0.30    0.76
   7   4 -12   -0.10    0.56
   7   4 -11    6.47    0.95
  -7   4  11    6.24    1.26
   7   4 -11    5.45    0.87
   7  -4 -11    3.99    1.39
   7   4 -10    0.93    0.47
  -7   4  10    0.17    0.70
   7   4 -10    0.64    0.49
   7  -4 -10   -0.27    0.82
  -7   4   9    9.75    1.60
   7   4  -9    8.97    1.21
   7   4  -9    7.80    0.99
   7  -4  -9   11.20    1.22
   7  -4  -9    6.72    1.56
   7   4  -8   31.10    2.48
  -7   4   8   35.51    2.94
   7  -4  -8   27.85    3.10
   7   4  -8   33.39    2.12
   7  -4  -8   35.34    2.31
   7   4  -7   83.30    5.08
  -7   4   7   96.24    5.65
   7  -4  -7   82.57    5.80
   7   4  -7   95.58    4.61
   7  -4  -7  104.02    4.86
   7   4  -6   -0.12    0.40
   7  -4  -6   -0.23    0.45
   7   4  -6   -0.13    0.42
  -7   4   6   -0.60    0.77
   7  -4  -6    0.75    0.64
   7   4  -5   57.97    3.81
   7  -4  -5   50.82    3.92
   7   4  -5   60.24    3.11
   7  -4  -5   64.00    3.28
  -7  -4   5   56.70    6.62
  -7  -4   4   17.54    3.82
   7  -4  -4   15.32    1.85
   7   4  -4   22.92    1.47
   7  -4  -4   21.83    1.54
  -7  -4   3    0.56    1.52
   7   4  -3    1.45    0.41
   7  -4  -3    1.89    0.46
   7  -4  -3    0.37    0.42
  -7  -4   2    9.89    2.90
   7  -4  -2    7.27    1.03
   7   4  -2    9.28    0.82
   7  -4  -2    8.55    0.88
   7   4  -1   19.76    1.27
   7  -4  -1   18.39    1.31
  -7  -4   1   16.77    3.59
   7  -4  -1   14.13    1.34
   7   4   0    2.48    0.40
   7  -4   0    2.46    0.46
  -7  -4   0    2.66    1.82
   7   4   1   78.46    3.75
   7  -4   1   78.53    3.85
  -7  -4  -1   77.69    7.61
   7   4   2    5.71    0.63
   7  -4   2    4.73    0.63
   7  -4   3   11.43    1.01
   7   4   3   13.73    1.00
  -7  -4  -4   -0.51    1.28
   7  -4   4    0.06    0.29
   7   4   4   -0.05    0.26
  -7  -4  -5   26.65    4.30
   7  -4   5   28.69    1.85
   7   4   5   30.78    1.77
   7  -4   6   43.32    2.54
   7   4   6   44.72    2.39
  -7  -4  -6   49.07    5.70
  -7  -4  -7  197.23   13.25
   7  -4   7  203.96    9.93
   7  -4   8   14.74    1.86
  -7  -4  -8   16.47    3.21
   7   4   8   15.03    1.56
  -7  -4  -9   -0.96    1.21
   7   4   9    0.12    0.62
   7  -4   9    0.74    0.87
   7   4  10    5.79    1.11
   7   4  11    1.79    0.74
   7   4  12   12.97    1.79
   7   4  13   64.05    4.60
   7   4  14    5.98    1.44
   7   4  15    7.46    1.80
  -7  -5   6    7.49    3.15
  -7  -5   5   24.51    4.82
  -7  -5   4    1.96    2.02
  -7  -5   3    0.64    1.75
   7  -5   1   17.17    1.76
   7  -5   2    0.36    0.54
   7  -5   3   16.03    1.63
   7  -5   4    0.77    0.53
   7  -5   5   24.76    2.03
   8   0 -20   53.40    3.87
   8   0 -19    0.16    0.64
   8   0 -18    2.41    0.70
   8   0 -17    0.14    0.51
   8   0 -16   89.35    5.12
   8   0 -15   -0.39    0.48
  -8   0  14   41.95    4.01
  -8   0  14   41.87    2.71
   8   0 -14   47.64    3.09
   8   0 -13   -0.11    0.39
  -8   0  12   25.49    1.85
   8   0 -12   24.18    1.99
  -8   0  11    0.58    0.34
   8   0 -11    0.30    0.29
   8   0 -10   56.92    3.30
  -8   0  10   50.64    3.03
   8   0  -9    0.37    0.36
  -8   0   9    0.48    0.27
  -8   0   8  518.05   23.26
   8   0  -8  532.36   21.90
  -8   0   8  489.05   22.70
  -8   0   7    0.16    0.54
   8   0  -7   -0.09    0.25
  -8   0   7   -0.18    0.50
  -8   0   6    0.33    0.51
   8   0  -6    1.26    0.39
  -8   0   6    1.05    0.72
  -8   0   5   -0.17    0.51
   8   0  -5   -0.08    0.22
  -8   0   5    0.17    0.42
  -8   0   4  100.28    6.00
   8   0  -4  100.78    5.04
  -8   0   4  106.32    5.99
  -8   0   3    0.18    0.38
  -8   0   3    0.15    0.45
  -8   0   2  765.40   33.25
   8   0  -2  764.71   31.73
   8   0  -1    0.23    0.21
  -8   0   1    3.91    0.99
   8   0   0    6.24    1.11
  -8   0   0    5.98    1.29
  -8   0  -1    0.68    0.57
   8   0   2   27.96    2.57
   8   0   2   22.52    3.57
   8   0   3    1.29    1.33
   8   0   3   -0.18    0.26
   8   0   4   33.97    3.05
   8   0   4   32.54    4.25
   8   0   5    0.83    1.35
   8   0   5   -0.20    0.59
   8   0   6  480.15   21.42
   8   0   6  430.79   23.10
   8   0   7    0.38    1.09
   8   0   7    0.23    0.63
   8   0   8   38.25    3.65
   8   0   8   31.64    3.82
   8   0   9    1.26    0.97
   8   0   9   -0.57    0.78
   8   0  10   97.65    6.88
   8   0  10   82.63    6.27
   8   0  11   -0.26    0.80
   8   0  11   -0.66    0.96
   8   0  12  428.19   20.13
   8   0  13    0.63    0.71
   8   0  14   40.39    3.36
   8   0  15   -0.17    0.61
   8   0  16    3.94    0.94
   8   0  17    0.15    0.48
  -8   0 -17   -0.21    0.52
   8   0  18   12.38    1.54
  -8   0 -18   12.94    1.93
  -8   0 -19   -0.43    0.73
  -8   0 -20   40.34    3.57
  -8   0 -21    0.21    0.64
  -8   0 -22   10.81    1.73
  -8   0 -23    0.79    0.74
   8   1 -20   18.03    2.90
   8   1 -20   15.55    1.89
   8  -1 -20   17.47    2.05
   8   1 -19   -0.15    0.62
   8  -1 -19   -0.16    0.73
   8   1 -19    0.36    1.04
   8   1 -18    0.37    1.09
   8   1 -18    0.15    0.54
   8  -1 -18    0.15    0.60
   8   1 -17   22.39    3.56
   8   1 -17   29.89    2.45
   8  -1 -17   30.52    2.53
   8   1 -16  131.62    6.69
   8  -1 -16  128.09    6.72
   8   1 -15  106.61    5.61
   8  -1 -15  104.94    5.63
   8   1 -14   23.44    3.70
  -8   1  14   35.05    3.76
  -8  -1  14   29.33    3.19
  -8   1  14   28.78    2.10
  -8  -1  14   32.92    2.20
   8   1 -14   30.53    2.37
   8  -1 -14   32.19    2.45
   8   1 -13   12.97    2.69
  -8   1  13   14.94    1.38
  -8  -1  13   15.95    1.41
  -8   1  13   15.02    2.38
  -8  -1  13   14.92    2.19
   8   1 -13   17.38    1.62
   8  -1 -13   16.83    1.67
  -8  -1  12   18.38    2.32
  -8   1  12   16.97    1.45
  -8  -1  12   15.66    1.42
  -8   1  12   17.30    2.46
   8   1 -12   18.56    1.63
   8  -1 -12   19.53    1.69
   8   1 -11   25.84    3.98
  -8   1  11   29.33    3.14
  -8  -1  11   23.80    2.73
  -8   1  11   26.66    1.89
  -8  -1  11   29.33    1.96
   8   1 -11   24.92    1.98
   8  -1 -11   25.19    2.01
   8  -1 -10  172.23    8.00
   8   1 -10  157.33   11.06
  -8   1  10  164.17    9.38
  -8  -1  10  168.62    9.22
  -8   1  10  167.47    7.74
  -8  -1  10  162.72    7.74
   8   1 -10  173.14    7.97
   8   1  -9  127.06    6.26
   8  -1  -9  140.40    6.41
  -8   1   9  130.26    7.59
  -8  -1   9  131.56    7.49
  -8   1   9  127.66    6.12
  -8  -1   9  125.92    6.12
   8   1  -9  125.24    9.35
  -8  -1   9  122.04    6.89
  -8   1   9  113.71    6.76
   8   1  -8   47.09    2.79
   8  -1  -8   45.43    2.80
  -8   1   8   44.40    3.67
  -8  -1   8   45.84    3.70
   8   1  -8   45.94    5.19
  -8  -1   8   46.53    3.39
  -8   1   8   39.08    3.21
  -8  -1   7   14.13    1.73
  -8   1   7   11.01    1.55
   8   1  -7   15.00    2.99
   8   1  -7   12.99    1.24
   8  -1  -7   13.11    1.27
  -8   1   7   14.00    1.89
  -8  -1   7   14.28    1.91
  -8  -1   6   62.22    4.15
  -8   1   6   55.41    3.94
   8   1  -6   60.07    3.35
   8  -1  -6   60.40    3.40
  -8   1   6   59.35    4.19
   8   1  -6   59.02    5.92
   8   1  -5    6.45    2.00
  -8  -1   5    6.08    1.17
  -8   1   5    5.66    1.15
   8   1  -5    7.54    0.90
   8  -1  -5    8.13    0.94
  -8   1   5    7.71    1.32
   8   1  -4    2.96    1.51
  -8  -1   4    2.83    0.88
  -8   1   4    3.18    0.89
  -8   1   4    3.49    0.89
   8  -1  -4    4.04    0.65
   8   1  -4    2.53    0.56
   8   1  -3   10.32    2.40
  -8  -1   3   11.22    1.68
  -8   1   3    9.70    1.51
   8  -1  -3    9.76    1.04
   8   1  -3   12.21    1.11
  -8   1   3   11.11    1.45
  -8  -1   2  223.98   11.67
  -8   1   2  225.54   11.50
  -8   1   2  240.92   10.97
   8  -1  -2  229.02   10.28
   8   1  -2  231.28   10.25
  -8  -1   1  306.87   15.24
  -8   1   1  312.15   15.05
  -8   1   1  321.80   14.21
   8  -1  -1  308.98   13.59
   8   1  -1  314.16   13.56
  -8  -1   0  147.14    8.59
  -8   1   0  138.62    8.25
  -8   1   0  156.71    7.42
   8  -1   0  151.64    7.00
   8   1   0  141.50    6.89
   8   1   1    6.22    1.79
   8   1   1    7.31    1.22
   8  -1   1    8.03    1.36
  -8   1  -1   10.00    1.18
   8   1   2    0.35    0.88
   8   1   2   -0.16    0.47
   8  -1   2    0.71    0.55
   8   1   3   27.39    2.60
   8  -1   3   30.50    2.78
  -8   1  -3   30.45    2.16
   8   1   3   28.17    3.54
   8   1   4  339.26   16.27
   8  -1   4  364.34   16.64
   8   1   4  352.80   18.00
   8   1   5  369.37   16.53
   8  -1   5  352.15   16.63
   8   1   5  315.10   17.42
   8   1   6  249.59   12.01
   8  -1   6  239.32   12.04
   8   1   6  211.84   12.55
   8   1   7   13.72    1.99
   8  -1   7   12.02    2.62
   8   1   7   10.93    1.99
   8  -1   7   14.07    2.02
   8  -1   8    5.69    1.88
   8   1   8    4.88    1.37
   8   1   8    6.77    1.53
   8  -1   8    7.61    1.49
   8   1   9   18.18    2.56
   8  -1   9   17.73    3.08
   8   1   9   15.88    2.28
   8  -1   9   15.22    2.33
   8  -1  10    0.36    1.12
   8   1  10    0.22    0.61
   8   1  10    0.31    0.90
   8  -1  10    0.89    1.01
   8  -1  11    2.32    1.19
   8   1  11    3.77    1.09
   8   1  11    5.73    1.70
   8  -1  11    4.72    1.53
   8   1  12   32.46    2.96
   8  -1  12   26.28    3.27
   8   1  13   72.27    4.77
  -8   1 -13   65.37    3.92
   8  -1  13   74.37    5.40
   8   1  14   74.13    4.88
  -8   1 -14   75.00    4.29
   8  -1  14   78.94    5.37
   8  -1  15   20.89    2.36
   8   1  15   18.74    2.10
  -8   1 -15   19.39    1.79
   8  -1  16    0.66    0.56
   8   1  16    1.28    0.64
  -8   1 -16    0.65    0.45
   8   1  17    2.14    0.72
  -8   1 -17    1.65    0.57
   8   1  18   49.32    3.56
  -8   1 -18   53.54    3.32
   8   1  19   66.09    4.37
  -8   1 -19   80.36    4.36
  -8  -1 -20   81.74    6.55
  -8   1 -20  100.66    5.28
  -8  -1 -21   24.61    3.17
  -8  -1 -22    1.53    1.09
  -8  -1 -23    1.21    1.03
   8   2 -19   29.79    2.63
   8  -2 -19   33.37    2.79
   8   2 -18   -0.28    0.56
   8  -2 -18    0.45    0.62
   8   2 -18    0.20    0.73
   8  -2 -18    1.01    0.92
   8  -2 -17   80.78    6.31
   8   2 -17   78.42    4.70
   8  -2 -17   79.75    4.83
   8   2 -17   87.28    5.69
   8   2 -16    2.75    0.76
   8  -2 -16    3.47    0.85
   8   2 -16    1.41    0.88
   8  -2 -16    4.26    1.51
   8   2 -15    2.26    1.10
   8   2 -15    0.59    0.46
   8  -2 -15    0.25    0.43
   8  -2 -15    0.87    0.73
   8   2 -14    4.23    1.45
   8   2 -14    5.20    0.91
   8  -2 -14    4.47    0.90
   8  -2 -14    3.84    1.28
  -8   2  13   49.36    4.72
   8  -2 -13   39.62    3.84
  -8   2  13   40.16    2.60
  -8  -2  13   41.88    2.64
   8   2 -13   45.49    2.92
   8  -2 -13   47.29    3.02
   8   2 -13   42.84    4.14
   8   2 -12    0.28    0.82
   8   2 -12    1.02    0.47
   8  -2 -12    0.11    0.30
  -8   2  12    1.26    0.86
  -8   2  12    1.21    0.42
  -8  -2  12    1.14    0.43
  -8  -2  12    0.48    0.70
   8  -2 -12    0.25    0.72
  -8   2  11    1.46    0.43
  -8  -2  11    0.16    0.28
  -8   2  11    0.62    0.55
   8   2 -11    0.87    0.94
   8   2 -11    0.96    0.42
   8  -2 -11    0.82    0.41
  -8   2  11    0.30    0.92
  -8  -2  11    1.43    0.73
   8  -2 -11    2.11    0.93
  -8  -2  10    2.38    0.80
  -8   2  10    2.76    0.83
   8   2 -10    3.22    1.25
  -8   2  10    4.21    1.42
   8   2 -10    3.52    0.68
   8  -2 -10    4.72    0.79
  -8  -2  10    4.41    1.25
   8  -2 -10    4.24    1.13
  -8   2   9  341.13   16.29
   8  -2  -9  332.03   15.59
  -8  -2   9  360.12   16.03
   8   2  -9  328.04   16.51
   8   2  -9  315.35   13.97
   8  -2  -9  322.56   14.07
  -8  -2   9  297.04   14.77
  -8   2   9  300.66   14.72
  -8  -2   8   20.70    2.16
  -8   2   8   19.28    2.04
   8   2  -8   20.67    1.66
   8  -2  -8   20.33    1.70
  -8   2   8   22.30    2.70
   8  -2  -8   24.39    2.56
   8   2  -8   21.83    2.94
  -8  -2   7  126.04    7.02
  -8   2   7  116.24    6.79
   8   2  -7  125.57    6.11
   8  -2  -7  129.25    6.21
  -8   2   7  133.28    7.84
   8  -2  -7  143.85    7.51
   8   2  -7  122.18    8.15
   8   2  -6    3.02    0.59
   8  -2  -6    2.49    0.57
   8   2  -6    3.78    1.37
  -8  -2   6    3.05    0.89
  -8   2   6    1.73    0.76
  -8   2   6    0.87    0.81
   8   2  -5    9.11    0.96
   8  -2  -5    9.01    1.01
   8   2  -5    9.47    1.94
  -8  -2   5    7.87    1.36
  -8   2   5    6.36    1.21
  -8   2   5    8.25    1.53
   8   2  -4    2.26    1.12
  -8  -2   4    1.92    0.90
  -8   2   4    2.19    0.81
  -8   2   4    2.21    0.83
   8   2  -4    1.04    0.40
   8  -2  -4    1.59    0.50
  -8  -2   3  414.77   19.58
  -8   2   3  410.78   19.17
   8  -2  -3  425.94   18.01
   8   2  -3  424.62   17.93
  -8   2   3  435.64   19.18
   8   2  -3  408.86   20.29
  -8  -2   2   56.30    4.43
  -8   2   2   50.20    3.97
  -8   2   2   58.55    3.93
   8  -2  -2   57.16    3.20
   8   2  -2   60.46    3.19
   8   2  -2   65.55    5.03
  -8  -2   1  176.24   10.25
  -8   2   1  180.22    9.86
  -8   2   1  207.59    9.45
   8  -2  -1  187.50    8.61
   8   2  -1  195.34    8.56
   8   2  -1  180.03   10.60
   8   2   0    1.57    0.85
   8  -2   0    2.92    0.54
   8   2   0    2.70    0.49
  -8   2   0    1.83    0.63
  -8   2  -1   68.77    3.84
   8  -2   1   58.26    3.42
   8   2   1   67.11    3.45
   8   2   2    0.43    0.49
   8  -2   2   -0.32    0.49
  -8   2  -2    0.18    0.36
  -8  -2  -3    0.89    1.21
   8   2   3   -0.30    0.56
   8  -2   3    0.34    0.46
   8   2   3    0.24    0.56
  -8   2  -3    0.15    0.27
  -8  -2  -4    2.23    1.46
   8   2   4    5.34    1.08
   8  -2   4    2.64    0.84
   8   2   4    4.00    1.17
  -8   2  -4    3.23    0.54
   8   2   5  126.24    7.54
   8   2   5  131.58    6.97
   8  -2   5  134.33    7.20
  -8   2  -5  119.13    5.43
   8   2   6   12.47    1.69
   8   2   6   11.53    1.84
   8  -2   6   10.71    1.72
   8   2   7  260.52   13.92
   8   2   7  301.89   14.02
   8  -2   7  296.13   14.12
  -8  -2  -8    0.43    1.00
   8   2   8    0.84    0.71
   8   2   8    1.06    0.84
   8  -2   8    0.44    0.60
  -8  -2  -9    0.86    1.08
   8   2   9    1.83    0.78
   8   2   9    0.72    0.65
   8  -2   9    0.48    0.66
  -8  -2 -10    0.43    1.16
   8   2  10    0.59    0.57
   8   2  10    0.28    0.90
   8  -2  10   -0.27    0.72
   8   2  11  202.35   10.96
   8   2  11  295.61   13.51
   8  -2  11  268.07   12.85
   8  -2  11  183.96   12.27
  -8  -2 -11  178.98   12.82
   8   2  12   23.85    2.52
  -8  -2 -12   23.02    3.68
   8  -2  12   27.27    3.41
   8  -2  12   26.93    3.55
   8   2  13  252.05   13.36
   8  -2  13  364.90   16.49
  -8  -2 -13  230.36   15.35
   8  -2  13  257.95   14.69
  -8  -2 -14    0.82    1.12
   8  -2  14    0.27    0.89
   8   2  14    4.34    1.84
   8  -2  14    3.07    1.37
  -8  -2 -15    6.95    2.16
  -8  -2 -16   -0.41    0.93
  -8  -2 -17    1.20    1.24
  -8  -2 -18   -0.79    0.91
  -8  -2 -19   -0.78    1.27
  -8  -2 -20    0.39    0.97
  -8  -2 -21   35.35    4.42
   8   3 -18    0.86    0.70
   8  -3 -18    0.95    0.65
   8   3 -17   33.17    2.70
   8  -3 -17   37.16    2.90
   8  -3 -16   28.87    3.61
   8   3 -16   23.59    2.18
   8  -3 -16   28.41    2.40
   8   3 -15  109.01    6.04
   8  -3 -15  108.85    7.82
   8   3 -15  114.41    6.05
   8  -3 -15  121.96    6.25
   8   3 -14    5.18    0.91
   8  -3 -14    5.18    0.99
   8   3 -14    5.31    0.99
   8  -3 -14    7.13    1.76
  -8  -3  13    5.67    1.28
  -8   3  13    4.35    1.12
   8   3 -13    7.41    1.04
   8  -3 -13    8.11    1.12
   8   3 -13    6.93    1.21
   8  -3 -13    6.80    1.71
  -8  -3  12    1.93    0.83
  -8   3  12    0.83    0.74
   8   3 -12    0.61    0.50
   8   3 -12    1.92    0.62
   8  -3 -12    1.00    0.52
   8  -3 -12    1.97    1.16
  -8  -3  11    5.64    1.31
  -8   3  11    5.96    1.28
   8   3 -11    6.68    1.27
   8   3 -11    6.75    0.98
   8  -3 -11    8.44    1.12
   8  -3 -11   10.69    1.92
  -8  -3  10   17.81    2.11
   8   3 -10   16.07    2.01
  -8   3  10   19.62    2.13
   8  -3 -10   19.49    2.59
   8   3 -10   18.74    1.61
   8  -3 -10   23.53    1.82
   8   3  -9  138.08    7.73
  -8  -3   9  142.78    7.91
  -8   3   9  137.65    7.67
   8  -3  -9  151.67    8.63
   8   3  -9  142.49    6.87
   8  -3  -9  153.40    7.04
  -8  -3   8    5.33    1.27
  -8   3   8    5.15    1.16
   8   3  -8    7.96    1.39
   8   3  -8    7.01    0.88
   8  -3  -8    8.12    0.97
   8  -3  -8    5.15    1.29
   8   3  -7   15.05    1.91
  -8   3   7   12.80    1.73
  -8  -3   7    9.55    1.61
   8  -3  -7   12.85    1.92
   8   3  -7   11.13    1.12
   8  -3  -7   15.24    1.32
   8   3  -6    6.23    0.80
   8  -3  -6    6.26    0.84
   8   3  -6    4.24    1.08
  -8  -3   6    7.17    1.43
  -8   3   6    3.65    0.97
   8  -3  -6    3.81    1.04
   8   3  -5   10.45    1.01
   8  -3  -5   10.46    1.06
   8   3  -5    8.84    1.48
  -8  -3   5    9.22    1.70
  -8   3   5    8.07    1.39
   8  -3  -5    7.05    1.33
   8   3  -4    1.66    0.44
   8  -3  -4    3.51    0.64
   8   3  -4    2.28    0.81
  -8  -3   4    1.87    0.97
  -8   3   4    2.62    0.95
   8  -3  -4    2.61    0.82
   8   3  -3   33.92    3.08
  -8  -3   3   36.22    3.49
  -8   3   3   32.31    2.97
   8   3  -3   34.65    2.15
   8  -3  -3   36.28    2.24
   8   3  -2   26.02    2.68
   8   3  -2   28.94    1.88
   8  -3  -2   30.23    1.97
   8   3  -1  237.32   12.48
   8  -3  -1  257.17   11.14
   8   3  -1  257.72   11.04
  -8  -3   1  234.72   15.55
   8   3   0   43.95    3.75
   8  -3   0   50.23    2.83
   8   3   0   52.33    2.78
  -8  -3   0   48.61    5.90
  -8  -3  -1   10.33    2.80
   8   3   1   10.65    1.68
   8  -3   1   11.48    1.08
   8   3   1   12.97    1.08
  -8  -3  -2    4.64    2.06
   8   3   2    4.34    1.16
   8  -3   2    5.60    0.74
   8   3   2    4.98    0.66
   8  -3   3   23.20    1.68
   8   3   3   23.41    1.61
  -8  -3  -4   40.11    5.11
   8   3   4   38.29    2.87
   8  -3   4   40.21    3.10
   8  -3   5  366.94   16.80
  -8  -3  -5  382.61   20.70
   8   3   5  361.89   16.49
   8   3   6   33.77    2.67
   8  -3   6   32.57    2.82
  -8  -3  -7    4.34    2.06
   8   3   7    7.16    1.24
   8  -3   7    6.80    1.32
   8   3   8    1.35    0.67
   8  -3   8    1.40    0.74
   8   3   9    3.21    0.98
   8  -3   9    4.62    1.25
  -8  -3 -10    1.40    1.17
   8   3  10    0.43    0.73
   8  -3  10    0.73    0.87
  -8  -3 -11   -0.46    0.95
   8   3  11    0.24    0.94
   8  -3  11    0.83    0.86
  -8  -3 -12    4.13    1.71
   8   3  12    2.27    1.32
   8  -3  12    7.11    1.89
   8   3  13  126.62    8.06
   8  -3  13  125.21    8.47
   8   3  14   46.95    4.89
   8  -3  14   40.12    5.04
   8   3  15   26.56    4.11
   8  -3  15   33.23    4.96
  -8  -3 -16   -0.45    1.14
   8   3  16   -0.49    1.34
   8  -3  16   -2.57    1.98
   8   3  17    2.66    1.98
   8  -3  17    8.94    3.43
   8   3  18   26.54    4.76
   8  -3  18   48.01    7.61
   8   4 -14   27.94    2.32
   8   4 -13    2.22    0.72
   8  -4 -13    3.40    1.27
   8   4 -12    1.76    0.56
   8  -4 -12    3.50    1.28
   8   4 -11    0.58    0.42
   8  -4 -11    1.10    0.93
   8  -4 -10   29.30    3.28
   8   4 -10   33.43    2.27
  -8   4   9   23.32    2.47
   8  -4  -9   16.22    2.35
   8   4  -9   18.59    1.59
   8  -4  -8  142.22    8.68
   8   4  -8  158.98    7.40
  -8   4   7    8.73    1.56
   8   4  -7    8.43    0.98
   8  -4  -7    7.37    1.43
   8   4  -6    1.86    0.53
   8  -4  -6    3.17    0.68
   8  -4  -6    2.75    0.91
   8   4  -5    0.81    0.40
   8  -4  -5    0.80    0.44
   8  -4  -5    0.44    0.61
   8  -4  -4   12.24    1.46
   8   4  -4   11.31    1.07
   8  -4  -4   13.83    1.23
  -8  -4   3   19.62    4.01
   8  -4  -3   19.60    1.77
   8   4  -3   21.10    1.50
   8  -4  -3   23.72    1.66
   8   4  -2  187.11    8.27
   8  -4  -2  185.83    8.38
  -8  -4   2  169.60   13.07
   8   4  -1   19.33    1.38
   8  -4  -1   19.65    1.48
  -8  -4   1   17.43    3.79
  -8  -4   0    1.20    1.52
   8   4   0    0.75    0.35
   8  -4   0    0.40    0.35
  -8  -4  -1    0.60    1.62
   8   4   1    1.90    0.42
   8  -4   1    1.48    0.42
  -8  -4  -2    8.87    2.80
   8   4   2    7.34    0.79
   8  -4   2    7.09    0.84
   8  -4   3    1.54    0.44
   8   4   3    1.40    0.38
  -8  -4  -3    0.59    1.35
  -8  -4  -4    1.74    2.15
   8  -4   4    1.64    0.48
   8   4   4    1.30    0.36
  -8  -4  -5   21.68    4.08
   8  -4   5   18.45    1.44
   8   4   5   17.08    1.28
   8  -4   6  128.06    6.10
   8   4   6  127.98    5.89
  -8  -4  -6  130.09   10.48
  -8  -4  -7    6.67    2.30
   8   4   7    7.19    0.81
   8   4   8   24.20    2.16
   8   4   9    0.14    0.42
   8   4  10    6.76    1.23
   8   4  11   27.40    2.58
   8   4  12  210.73   10.63
   8   4  13   21.45    2.54
   8   4  14   10.95    1.89
   8  -5   4   76.30    4.30
   9   0 -19   80.15    5.03
   9   0 -18    0.47    0.58
   9   0 -17  395.33   17.81
   9   0 -16    0.57    0.49
   9   0 -15    0.27    0.42
   9   0 -14    1.40    0.47
   9   0 -13   10.66    1.30
  -9   0  12    0.19    0.32
   9   0 -12    0.11    0.33
  -9   0  11    6.68    0.92
  -9   0  11    6.01    1.46
   9   0 -11    6.48    0.96
  -9   0  10    0.18    0.49
  -9   0  10   -0.23    0.77
   9   0 -10    0.11    0.31
   9   0  -9  233.51   10.72
  -9   0   9  251.60   12.23
  -9   0   9  222.33   11.50
  -9   0   8   -0.18    0.65
   9   0  -8   -0.10    0.28
  -9   0   8    1.05    0.72
  -9   0   7   40.95    3.38
   9   0  -7   39.57    2.67
  -9   0   7   45.92    3.64
  -9   0   6    0.37    0.54
   9   0  -6    0.09    0.26
  -9   0   6    0.97    0.63
  -9   0   5   81.95    5.36
   9   0  -5   79.67    4.42
  -9   0   5   92.19    5.51
  -9   0   4    0.20    0.56
  -9   0   4    1.61    0.74
  -9   0   3 1059.05   46.29
   9   0  -3 1062.58   44.69
  -9   0   3 1149.40   45.95
   9   0  -2    0.60    0.31
  -9   0   2    0.22    0.57
  -9   0   2    1.00    0.62
  -9   0   1   74.12    5.23
   9   0  -1   66.46    3.74
  -9   0   0    0.75    0.52
   9   0   0    0.27    0.23
   9   0   1    3.81    1.63
   9   0   1    2.74    0.89
  -9   0  -1    2.47    0.85
   9   0   2   -0.48    1.21
   9   0   2    0.19    0.44
   9   0   3  161.28    8.79
   9   0   3  156.43   11.22
   9   0   4    0.47    1.28
   9   0   4   -0.20    0.55
   9   0   5    6.37    2.27
   9   0   5    9.37    1.61
   9   0   6    0.87    1.18
   9   0   6   -0.45    0.57
   9   0   7   36.97    3.52
   9   0   7   33.69    4.30
   9   0   8   -0.38    0.87
   9   0   8   -0.26    0.76
   9   0   9    0.35    0.95
   9   0  10    0.32    1.05
   9   0  10   -0.32    0.94
   9   0  11  605.16   24.62
   9   0  11  404.48   22.26
   9   0  12    0.27    0.72
   9   0  12    0.79    1.14
   9   0  13   51.43    4.50
   9   0  13   93.09    7.08
   9   0  14    0.22    0.64
   9   0  14    0.45    1.46
   9   0  15    9.35    1.61
   9   0  16   -0.37    0.46
   9   0  17   58.60    4.11
  -9   0 -18    0.43    0.63
  -9   0 -19   15.89    2.16
  -9   0 -20    0.22    0.55
  -9   0 -21    1.28    0.82
  -9   0 -22   -0.20    0.56
   9   1 -19    5.59    1.89
   9   1 -18    0.39    1.33
   9   1 -18    0.75    0.58
   9  -1 -18    0.31    0.56
   9   1 -17   58.28    3.94
   9  -1 -17   66.56    4.16
   9   1 -17   55.57    5.82
   9   1 -16   63.78    3.90
   9  -1 -16   60.79    3.90
   9   1 -15   50.60    3.39
   9  -1 -15   52.01    3.48
   9   1 -15   42.67    5.18
   9   1 -14    9.72    2.50
   9   1 -14   12.27    1.43
   9  -1 -14   13.83    1.53
   9   1 -13   -0.45    1.23
   9   1 -13    0.94    0.45
   9  -1 -13    0.61    0.36
  -9   1  12   40.21    3.85
  -9  -1  12   39.44    3.74
  -9   1  12   36.78    2.46
  -9  -1  12   38.63    2.50
   9   1 -12   36.88    2.61
   9  -1 -12   35.13    2.61
   9   1 -12   31.77    4.49
  -9   1  11  304.63   14.99
  -9  -1  11  324.42   14.97
   9   1 -11  269.95   16.71
  -9  -1  11  273.67   13.89
  -9   1  11  274.94   13.83
   9   1 -11  300.90   13.17
   9  -1 -11  295.92   13.21
   9   1 -10  253.27   11.24
   9  -1 -10  254.16   11.29
  -9   1  10  252.51   12.86
  -9  -1  10  267.25   12.86
   9   1 -10  216.77   14.59
  -9  -1  10  225.50   11.89
  -9   1  10  227.61   11.86
   9   1  -9  203.38    9.16
   9  -1  -9  202.06    9.20
  -9   1   9  200.36   10.63
   9   1  -9  168.38   12.35
  -9  -1   9  183.61    9.90
  -9   1   9  188.62    9.92
   9   1  -8   11.05    1.17
   9  -1  -8    8.61    1.08
   9   1  -8    9.15    2.56
  -9  -1   8    9.36    1.56
  -9   1   8   10.46    1.56
  -9   1   8   10.32    1.70
   9   1  -7    1.44    1.56
  -9  -1   7    2.59    0.89
  -9   1   7    1.25    0.61
   9   1  -7    2.25    0.51
   9  -1  -7    1.84    0.49
  -9   1   7    1.01    0.69
   9   1  -6    3.34    1.64
   9  -1  -6    6.33    0.88
  -9  -1   6    4.75    1.16
  -9   1   6    5.95    1.22
   9   1  -6    5.76    0.84
  -9   1   6    3.99    1.06
  -9  -1   5   34.02    3.20
  -9   1   5   40.71    3.37
   9   1  -5   38.98    2.55
   9  -1  -5   40.58    2.61
  -9   1   5   42.97    3.34
   9   1  -5   41.88    5.00
   9   1  -4    9.25    2.47
  -9  -1   4   11.76    1.82
  -9   1   4   10.38    1.68
   9  -1  -4   11.82    1.21
   9   1  -4   14.80    1.32
  -9   1   4   11.84    1.63
   9   1  -3    1.35    1.23
   9  -1  -3    1.24    0.40
   9   1  -3    0.51    0.32
  -9  -1   3   -0.22    0.75
  -9   1   3    0.47    0.53
  -9  -1   2   37.92    3.57
  -9   1   2   39.05    3.47
  -9   1   2   38.58    2.99
   9  -1  -2   40.07    2.53
   9   1  -2   39.63    2.48
  -9  -1   1   93.65    6.38
  -9   1   1   82.81    5.95
  -9   1   1   95.01    5.36
   9  -1  -1   93.01    4.83
   9   1  -1   96.10    4.79
   9   1   0    7.09    2.07
  -9  -1   0   12.88    2.09
  -9   1   0   10.26    1.84
  -9   1   0   12.59    1.48
   9  -1   0   12.06    1.20
   9   1   0   12.64    1.19
   9   1   1    1.71    0.64
   9  -1   1    0.91    0.53
   9   1   1    2.82    1.37
  -9   1  -1    1.61    0.57
  -9   1  -2   25.45    2.09
   9   1   2   25.10    3.57
   9   1   2   21.28    2.32
   9  -1   2   26.45    2.59
   9   1   3  223.48   11.60
   9  -1   3  233.66   11.85
  -9   1  -3  243.39   10.87
   9   1   3  229.93   13.51
   9   1   4  320.09   15.49
   9  -1   4  314.23   15.63
  -9   1  -4  345.84   14.58
   9   1   4  307.06   17.15
   9   1   5  379.12   17.24
   9  -1   5  376.74   17.39
   9   1   5  324.46   18.36
   9   1   6   20.56    2.41
   9  -1   6   17.76    2.27
   9   1   6   16.65    2.85
   9  -1   7    7.35    2.28
   9   1   7    5.22    1.58
   9   1   7    8.63    1.61
   9  -1   7    9.03    1.67
   9  -1   8    1.37    1.05
   9   1   8    0.58    0.79
   9   1   8    0.25    0.57
   9  -1   8    1.02    0.83
   9   1   9   18.25    2.57
   9  -1   9   19.26    2.61
   9  -1   9   14.74    3.00
   9   1   9   15.84    2.41
   9   1  10   33.60    3.65
   9   1  10   54.43    4.74
   9  -1  10   60.77    4.90
   9  -1  10   39.94    4.71
   9   1  11   59.49    4.84
   9   1  11   80.90    6.37
   9  -1  11   80.16    6.10
   9  -1  11   57.25    5.61
   9  -1  12   -0.32    0.94
   9   1  12    0.22    0.65
   9   1  12    0.40    1.28
   9  -1  12    0.74    1.00
   9  -1  13    6.90    1.75
   9   1  13    7.62    1.56
   9   1  13   13.86    2.84
   9  -1  13    8.34    2.33
   9  -1  14    0.77    0.87
   9   1  14    0.40    0.54
   9   1  14    0.46    1.43
   9  -1  14    0.42    1.07
  -9   1 -14    0.70    0.48
   9  -1  15    6.32    1.43
   9   1  15    6.46    1.33
   9  -1  15    8.99    2.46
  -9   1 -15    8.15    1.15
   9  -1  16    5.58    1.29
   9   1  16    7.43    1.43
  -9   1 -16    6.57    1.06
   9   1  17    7.59    1.38
  -9   1 -17    6.38    1.03
  -9   1 -18   47.60    3.13
  -9   1 -19   58.46    3.62
  -9  -1 -21    2.20    1.21
  -9  -1 -22    4.10    1.56
   9   2 -18  201.56    9.93
   9  -2 -18  201.36   10.03
   9   2 -17   10.92    2.15
   9   2 -17   11.45    1.50
   9  -2 -17   11.01    1.54
   9  -2 -17   11.89    2.31
   9  -2 -16   85.87    6.50
   9   2 -16   89.19    5.02
   9  -2 -16   88.02    5.09
   9   2 -16   77.75    6.16
   9   2 -15    1.20    0.93
   9   2 -15    2.14    0.65
   9  -2 -15    3.13    0.75
   9  -2 -15    1.76    1.00
   9   2 -14    2.20    1.42
   9   2 -14    3.63    0.81
   9  -2 -14    5.08    0.96
   9  -2 -14    4.48    1.39
   9   2 -13    0.33    1.16
   9   2 -13    0.12    0.46
   9  -2 -13   -0.12    0.49
   9  -2 -13    0.27    0.67
   9   2 -12   20.61    3.09
   9  -2 -12   25.26    2.91
   9   2 -12   19.11    1.79
   9  -2 -12   23.92    2.00
  -9   2  12   22.77    2.35
  -9  -2  11    0.54    0.55
  -9   2  11    0.35    0.54
   9   2 -11    0.68    1.10
   9   2 -11    1.45    0.53
   9  -2 -11    1.44    0.49
  -9   2  11    0.31    1.00
  -9  -2  10   26.94    2.65
  -9   2  10   26.37    2.60
  -9   2  10   35.15    3.68
   9   2 -10   29.96    2.17
   9  -2 -10   28.13    2.16
   9   2 -10   30.99    3.75
   9   2  -9    4.43    1.65
  -9  -2   9    2.37    0.87
  -9   2   9    4.34    1.07
  -9   2   9    1.38    1.11
   9   2  -9    3.58    0.68
   9  -2  -9    5.08    0.82
  -9  -2   9    5.55    1.47
  -9  -2   8  113.89    6.77
  -9   2   8  105.36    6.54
   9   2  -8  118.00    5.87
   9  -2  -8  119.93    5.95
  -9   2   8  130.37    7.77
   9   2  -8  122.84    8.34
   9   2  -7   -0.09    0.38
   9  -2  -7    0.09    0.34
   9   2  -7    0.34    0.98
  -9  -2   7   -0.19    0.67
  -9   2   7    0.71    0.54
  -9   2   7   -0.24    0.66
   9   2  -6    6.46    0.85
   9   2  -6    3.35    1.39
   9  -2  -6    5.79    0.84
  -9  -2   6    4.72    1.15
  -9   2   6    3.82    1.08
  -9   2   6    6.10    1.35
   9   2  -5   10.22    2.20
   9   2  -5   12.21    1.18
   9  -2  -5    8.34    1.05
  -9  -2   5    9.76    1.69
  -9   2   5    9.36    1.62
  -9   2   5    8.20    1.59
  -9  -2   4  409.03   20.26
  -9   2   4  428.86   20.01
   9   2  -4  451.26   18.73
   9  -2  -4  446.64   18.80
  -9   2   4  451.57   20.10
   9   2  -4  400.08   21.29
  -9  -2   3   17.85    2.42
  -9   2   3   19.07    2.25
   9   2  -3   15.84    2.65
   9  -2  -3   19.27    1.57
   9   2  -3   20.13    1.56
  -9   2   3   14.61    1.93
  -9  -2   2  335.92   17.72
  -9   2   2  337.35   17.32
  -9   2   2  392.87   17.01
   9  -2  -2  368.92   15.94
   9   2  -2  390.48   15.93
   9   2  -2  342.96   18.37
   9   2  -1    2.72    1.32
  -9  -2   1    2.81    1.06
  -9   2   1    4.53    1.12
  -9   2   1    2.78    0.83
   9  -2  -1    2.72    0.61
   9   2  -1    3.71    0.63
   9   2   0   -0.30    0.86
   9  -2   0    0.50    0.32
   9   2   0    0.31    0.27
  -9   2   0    1.18    0.56
   9  -2   1    1.37    0.42
   9   2   1    1.57    0.45
  -9   2  -1    1.40    0.55
  -9   2  -2   68.18    3.82
   9  -2   2   62.07    3.61
   9   2   2   64.21    3.56
   9  -2   2   67.06    4.46
   9   2   3    5.88    1.14
   9  -2   3    7.10    1.36
   9   2   3    5.76    1.49
  -9   2  -3    6.22    0.90
   9   2   4   10.73    1.53
   9  -2   4   11.05    1.68
   9   2   4    9.06    1.82
  -9   2  -4   10.25    1.06
   9   2   5    0.18    0.61
   9  -2   5    0.20    0.57
   9   2   5    0.26    0.53
  -9   2  -5    0.06    0.24
   9   2   6   45.21    3.98
   9   2   6   47.05    3.61
   9  -2   6   38.33    3.44
  -9   2  -6   43.94    2.23
   9   2   7    0.97    0.75
   9   2   7    0.60    0.80
   9  -2   7    1.08    0.74
   9   2   8    2.83    1.09
   9   2   8    3.77    1.21
   9  -2   8    3.24    1.17
  -9  -2  -9    3.23    1.71
   9   2   9    0.46    0.74
   9   2   9    0.73    0.75
   9  -2   9    2.22    1.02
   9  -2  10  120.38    7.59
   9  -2  10   99.04    8.26
  -9  -2 -10  101.26    8.68
   9   2  11   29.36    3.38
   9  -2  11   26.71    3.21
  -9  -2 -11   14.55    3.21
   9  -2  11   15.03    3.04
  -9  -2 -12  191.33   14.08
   9  -2  12  219.30   13.85
  -9  -2 -13   -0.45    1.30
   9  -2  13    0.34    1.10
   9   2  13    1.66    1.70
   9  -2  13    0.37    1.14
  -9  -2 -14    5.28    2.04
   9   2  14    6.04    2.15
   9  -2  14    9.88    2.41
  -9  -2 -15    1.30    1.34
   9   2  15    4.56    2.27
   9  -2  15    2.71    1.61
   9   2  16   25.35    4.23
   9  -2  16   26.25    4.13
   9   2  17   13.42    3.57
   9  -2  17    7.76    2.84
   9   2  18  104.54    9.51
   9   3 -17    7.67    1.25
   9   3 -16  101.76    5.64
   9  -3 -16  100.38    5.75
   9   3 -15   23.50    2.13
   9  -3 -15   26.08    2.29
   9  -3 -15   19.42    2.96
   9   3 -14    0.59    0.60
   9  -3 -14    0.39    0.71
   9   3 -14    1.83    0.75
   9  -3 -14    1.24    0.84
   9   3 -13    0.18    0.51
   9   3 -13   -0.11    0.65
   9  -3 -13    0.63    0.62
   9  -3 -13    0.30    0.91
   9   3 -12   40.50    3.55
   9  -3 -12   50.45    4.48
   9   3 -12   48.54    3.10
   9  -3 -12   49.24    3.22
   9   3 -11   65.79    4.70
  -9   3  11   63.18    4.56
   9  -3 -11   68.68    5.37
   9   3 -11   68.48    3.92
   9  -3 -11   70.28    4.05
   9   3 -10  308.62   15.06
  -9  -3  10  299.93   15.02
  -9   3  10  294.54   14.79
   9  -3 -10  327.75   15.90
   9   3 -10  310.13   13.85
   9  -3 -10  335.88   14.09
   9   3  -9   34.93    3.29
  -9  -3   9   36.07    3.33
  -9   3   9   38.13    3.28
   9  -3  -9   41.88    3.79
   9   3  -9   39.96    2.58
   9  -3  -9   43.63    2.76
   9   3  -8   11.28    1.78
  -9  -3   8   10.25    1.75
  -9   3   8    8.17    1.52
   9   3  -8   11.11    1.17
   9  -3  -8   13.60    2.03
   9  -3  -8   10.52    1.21
   9   3  -7    2.34    0.91
  -9  -3   7    1.78    1.01
  -9   3   7    4.45    1.08
   9   3  -7    3.94    0.69
   9  -3  -7    2.87    0.65
   9   3  -6    1.08    0.74
  -9  -3   6   -0.24    0.81
  -9   3   6    0.60    0.74
   9   3  -6    0.08    0.29
   9  -3  -6    0.28    0.27
   9   3  -5   16.34    2.26
   9   3  -5   16.27    1.43
   9  -3  -5   21.27    1.64
  -9   3   5   16.90    2.18
   9   3  -4   36.01    3.37
  -9  -3   4   33.93    3.64
  -9   3   4   33.55    3.30
   9   3  -4   37.75    2.36
   9  -3  -4   40.16    2.48
   9   3  -3    0.22    0.60
   9   3  -3   -0.31    0.35
   9  -3  -3    0.43    0.34
  -9  -3   3    0.79    0.81
   9   3  -2   58.49    4.64
   9   3  -2   64.97    3.47
   9  -3  -2   65.16    3.57
   9  -3  -1   40.39    2.59
   9   3  -1   44.73    2.57
   9  -3   0    5.17    0.76
   9   3   0    6.01    0.75
   9  -3   1    0.73    0.40
   9   3   1    0.65    0.32
  -9  -3  -2   20.18    3.93
   9  -3   2   19.99    1.59
   9   3   2   21.75    1.57
  -9  -3  -3   22.43    4.09
   9  -3   3   23.77    1.79
   9   3   3   24.60    1.70
   9  -3   4  323.44   14.44
   9   3   4  340.55   14.35
  -9  -3  -4  332.62   19.56
  -9  -3  -5   60.26    6.84
   9   3   5   72.29    4.53
   9  -3   5   70.21    4.66
   9   3   6   32.95    2.80
   9  -3   6   33.10    2.96
  -9  -3  -6   28.15    4.54
   9   3   7    2.03    0.78
   9  -3   7    0.78    0.64
   9   3   8    4.18    1.11
   9  -3   8    5.65    1.32
   9   3   9    6.91    1.42
   9  -3   9    5.84    1.45
   9   3  10   89.55    5.79
   9  -3  10   78.32    5.82
  -9  -3 -10   83.09    7.84
  -9  -3 -11    8.25    2.53
   9   3  11   11.93    2.01
   9  -3  11   12.61    2.14
  -9  -3 -12    0.51    1.29
   9   3  12   -0.57    1.13
   9  -3  12    0.95    1.22
  -9  -3 -13    1.52    1.56
   9   3  13    2.27    1.34
   9  -3  13    4.05    1.74
   9   3  14   -0.75    0.94
   9  -3  14   -0.43    1.09
   9   3  15   -0.85    1.39
   9  -3  15   -0.51    1.59
   9   3  16    4.78    2.42
   9  -3  16    5.53    3.35
   9   3  17   -0.53    2.49
   9   4 -12    1.75    0.66
   9  -4 -12    3.08    1.26
   9   4 -11    8.42    1.14
   9  -4 -11    9.34    1.92
   9   4 -10    5.70    0.91
   9  -4 -10    4.30    1.27
   9  -4  -9   73.83    5.49
   9   4  -9   92.36    4.66
   9   4  -8    9.19    1.10
   9  -4  -8    7.99    1.50
   9   4  -7    7.70    0.99
   9   4  -6    1.43    0.52
   9   4  -5   24.94    1.81
   9   4  -4   46.68    2.71
   9   4  -3  311.76   13.47
   9   4  -2   47.25    2.71
  -9  -4   1   23.68    4.48
   9   4  -1   21.77    1.58
  -9  -4   0    5.07    2.62
   9   4   0    6.62    0.81
  -9  -4  -1    0.64    1.31
   9   4   1    0.13    0.39
  -9  -4  -2    3.85    2.29
   9   4   2    2.36    0.54
  -9  -4  -3   38.73    5.81
   9   4   3   49.80    2.73
  -9  -4  -4    6.43    2.81
   9   4   4    4.76    0.66
   9   4   5   13.31    1.15
   9   4   6    1.49    0.43
   9   4   7    3.60    0.61
   9   4   9   -0.15    0.62
   9   4  10    5.94    1.20
   9   4  11   94.64    5.77
   9   4  12   23.69    2.57
  10   0 -17   -0.62    0.66
  10   0 -16   41.38    3.14
  10   0 -15   -0.14    0.36
  10   0 -14   10.39    1.35
  10   0 -13    0.13    0.39
  10   0 -12  164.02    8.11
 -10   0  11   -0.26    0.84
  10   0 -11    0.24    0.35
  10   0 -10    2.32    0.63
 -10   0  10    2.65    0.89
 -10   0  10    1.47    0.95
  10   0  -9   -0.11    0.38
 -10   0   9    0.21    0.67
 -10   0   9    0.23    0.64
  10   0  -8    9.83    1.20
 -10   0   8   10.17    1.66
 -10   0   8    9.83    1.76
 -10   0   7   -0.21    0.57
  10   0  -7    0.11    0.33
 -10   0   7   -0.44    0.60
 -10   0   6   -0.22    0.66
  10   0  -6   -0.11    0.37
 -10   0   6    0.21    0.58
 -10   0   5    0.45    0.61
  10   0  -5    0.20    0.26
 -10   0   5    0.21    0.67
 -10   0   4  485.98   22.42
  10   0  -4  461.99   20.72
 -10   0   4  531.60   22.23
 -10   0   3    0.49    0.67
  10   0  -3    0.59    0.25
 -10   0   3    0.19    0.59
 -10   0   2   33.11    3.49
  10   0  -2   38.64    2.58
 -10   0   2   43.68    3.44
 -10   0   1   -0.27    0.79
  10   0  -1    0.10    0.22
  10   0   0    5.88    2.14
 -10   0   0    7.94    1.68
  10   0   0    5.83    0.85
  10   0   1    0.54    1.75
  10   0   1    1.18    0.61
  10   0   2  261.25   16.76
  10   0   2  285.90   13.80
  10   0   3    0.53    1.43
  10   0   3    0.21    0.43
  10   0   4   19.09    2.28
  10   0   4   13.30    3.05
  10   0   5   -0.49    1.51
  10   0   5    0.22    0.65
  10   0   6    7.48    2.18
  10   0   6   10.13    1.75
  10   0   7    0.44    1.20
  10   0   7   -0.25    0.64
  10   0   8   66.41    5.14
  10   0   8   57.89    5.83
  10   0   9   -0.38    0.96
  10   0   9   -0.29    0.80
  10   0  10   60.31    5.10
  10   0  10   41.51    4.61
  10   0  11   -0.32    0.88
  10   0  11    1.78    1.10
  10   0  12    1.18    0.96
  10   0  12    0.40    1.00
  10   0  13    0.27    0.78
  10   0  13   -0.44    1.11
  10   0  14  105.15    7.35
  10   0  14  193.65   11.37
  10   0  15   -0.45    0.65
  10   0  15    0.52    1.62
  10   0  16   47.67    4.08
  10   0  16  100.40    8.33
  10   0  17    0.58    1.99
 -10   0 -19    0.45    0.65
 -10   0 -20   -0.22    0.65
  10   1 -17   11.92    1.58
  10  -1 -17   14.26    1.74
  10   1 -16    3.48    1.69
  10  -1 -16    5.33    1.11
  10   1 -15    0.45    1.31
  10   1 -15   -0.14    0.47
  10  -1 -15    0.29    0.47
  10   1 -14    4.85    0.93
  10  -1 -14    4.92    0.96
  10   1 -13    3.36    1.98
  10   1 -13    2.38    0.72
  10  -1 -13    3.53    0.88
  10   1 -12  120.83    9.94
  10   1 -12  140.60    7.03
  10  -1 -12  140.94    7.09
 -10   1  11  190.74   10.76
  10   1 -11  189.28    9.11
  10  -1 -11  200.97    9.24
 -10  -1  10  203.44   11.20
 -10   1  10  200.53   11.10
  10   1 -10  232.62   10.40
  10  -1 -10  230.22   10.44
 -10   1  10  237.57   12.07
  10   1 -10  204.55   13.94
 -10  -1   9   27.21    2.83
 -10   1   9   28.45    2.88
  10   1  -9   33.77    2.40
  10  -1  -9   34.83    2.46
  10   1  -9   29.79    4.57
 -10   1   9   32.57    3.31
  10   1  -8    0.52    1.41
  10   1  -8    2.19    0.57
  10  -1  -8    3.02    0.64
 -10  -1   8    1.87    0.88
 -10   1   8    2.19    0.82
 -10   1   8    0.92    0.79
  10   1  -7   -0.52    1.40
 -10  -1   7   -0.21    0.61
 -10   1   7   -0.20    0.55
  10   1  -7    0.21    0.28
  10  -1  -7   -0.11    0.36
 -10   1   7    0.22    0.77
 -10  -1   6   61.92    4.75
 -10   1   6   69.08    4.84
  10   1  -6   66.98    3.85
  10  -1  -6   63.11    3.83
 -10   1   6   67.87    4.80
 -10  -1   6   74.41    5.14
  10   1  -6   72.80    7.11
 -10  -1   5  116.35    7.17
 -10   1   5  109.66    6.92
  10   1  -5  118.75    5.90
  10  -1  -5  116.69    5.92
 -10   1   5  113.12    6.77
  10   1  -5  109.47    9.16
 -10  -1   4   74.40    5.19
 -10   1   4   58.79    4.70
  10  -1  -4   66.22    3.83
  10   1  -4   67.82    3.82
 -10   1   4   66.74    4.57
  10   1  -4   72.75    6.98
  10   1  -3    3.41    1.81
  10  -1  -3    4.23    0.74
  10   1  -3    4.93    0.76
 -10  -1   3    3.28    1.20
 -10   1   3    3.25    1.13
 -10   1   3    2.40    0.78
 -10  -1   2    0.80    0.91
 -10   1   2    2.21    1.01
  10  -1  -2    2.15    0.52
  10   1  -2    1.03    0.38
 -10   1   2    1.96    0.67
  10  -1  -1    0.77    0.36
  10   1  -1    0.46    0.27
 -10  -1   1   -0.28    0.96
 -10   1   1   -1.02    0.83
 -10   1   1    0.77    0.57
 -10  -1   0   44.02    4.16
 -10   1   0   41.83    3.88
 -10   1   0   48.77    3.32
  10  -1   0   39.30    2.71
  10   1   0   44.06    2.75
  10   1   0   43.43    5.13
  10   1   1   15.26    2.91
 -10   1  -1   12.33    1.52
  10  -1   1   10.76    1.22
  10   1   1   12.18    1.25
  10   1   2   16.31    3.08
 -10   1  -2   19.99    1.94
  10   1   2   20.16    2.25
  10  -1   2   19.59    2.30
  10   1   3   62.63    4.50
  10  -1   3   63.38    4.60
 -10   1  -3   64.48    3.91
  10   1   3   51.61    5.48
  10   1   4  104.86    6.45
  10  -1   4  100.12    6.48
 -10   1  -4  109.29    5.67
  10   1   4   97.06    7.77
  10   1   5   15.52    2.09
  10  -1   5   19.35    2.40
  10   1   5   18.28    3.03
 -10   1  -5   19.21    1.76
  10   1   6   38.03    3.43
  10  -1   6   42.34    3.65
  10  -1   6   30.89    4.63
  10   1   6   29.64    3.82
  10   1   7   30.14    3.11
  10  -1   7   30.64    3.19
  10  -1   7   22.61    4.05
  10   1   7   27.66    3.60
  10  -1   8    7.01    2.32
  10   1   8    5.75    1.70
  10   1   8    7.98    1.66
  10  -1   8    7.13    1.61
  10   1   9   40.48    4.24
  10   1   9   56.37    4.65
  10  -1   9   51.01    4.49
  10  -1   9   47.91    5.53
  10   1  10   93.19    7.05
  10  -1  10  117.32    7.70
  10  -1  10   94.06    8.14
  10   1  11   21.61    2.84
  10   1  11   31.36    3.78
  10  -1  11   32.38    3.76
  10  -1  11   22.08    3.43
  10  -1  12   -0.35    0.72
  10   1  12    0.25    0.77
  10   1  12   -0.39    1.06
  10  -1  12   -0.37    0.92
  10  -1  13    0.63    0.80
  10   1  13    0.44    1.42
  10  -1  13    1.62    1.38
  10  -1  14   11.33    2.21
  10   1  14   24.37    3.99
  10  -1  14   17.94    3.38
  10  -1  15   13.09    2.19
 -10   1 -15   15.33    1.66
  10   1  15   25.04    4.19
  10  -1  15   31.11    4.38
 -10   1 -16   15.57    1.69
  10   1  16   28.61    4.69
  10  -1  16   27.20    4.40
  10   1  17    0.60    2.38
  10  -1  17   -3.85    2.59
 -10   1 -17    0.82    0.50
 -10  -1 -21   21.74    3.04
  10   2 -16   -0.32    0.94
  10   2 -16    0.14    0.57
  10  -2 -16    1.06    0.66
  10   2 -15    0.34    1.26
  10   2 -15   -0.54    0.65
  10  -2 -15   -0.15    0.63
  10   2 -14    0.35    1.15
  10   2 -14    0.64    0.46
  10  -2 -14    0.14    0.55
  10   2 -13   94.96    5.27
  10  -2 -13   98.78    5.40
  10   2 -13   89.60    7.26
  10   2 -12    7.35    1.12
  10  -2 -12    7.29    1.14
  10   2 -11   38.49    2.68
  10  -2 -11   38.56    2.76
  10   2 -11   39.77    4.47
  10   2 -10    0.76    1.03
 -10   2  10    0.61    0.94
  10   2 -10    0.43    0.35
  10  -2 -10   -0.12    0.34
  10   2  -9   12.45    1.34
  10  -2  -9   11.60    1.35
  10   2  -9   11.01    2.38
 -10  -2   9    9.13    1.62
 -10   2   9   10.08    1.67
 -10   2   9    9.77    2.01
  10   2  -8    0.10    0.33
  10  -2  -8   -0.11    0.39
  10   2  -8   -0.38    1.16
 -10  -2   8   -0.21    0.70
 -10   2   8   -0.39    0.70
 -10   2   8   -0.27    0.73
 -10  -2   7   19.85    2.51
 -10   2   7   22.94    2.58
  10   2  -7   26.93    1.98
  10  -2  -7   26.52    2.04
  10   2  -7   22.12    3.37
 -10   2   7   25.17    2.95
  10   2  -6    0.37    1.01
  10   2  -6    1.16    0.45
  10  -2  -6    1.86    0.57
 -10  -2   6    0.68    0.80
 -10   2   6    1.03    0.82
 -10   2   6    0.70    0.68
 -10  -2   5   78.21    5.63
 -10   2   5   80.29    5.48
  10   2  -5   82.58    4.43
  10  -2  -5   81.61    4.48
 -10   2   5   87.55    5.69
  10   2  -5   77.06    6.56
 -10  -2   4   29.30    3.15
 -10   2   4   27.08    2.87
  10   2  -4   20.13    3.28
  10   2  -4   27.68    2.03
  10  -2  -4   28.59    2.11
 -10   2   4   26.74    2.73
 -10  -2   3  277.79   14.80
 -10   2   3  250.83   14.18
  10  -2  -3  288.80   12.92
  10   2  -3  298.85   12.88
 -10   2   3  329.73   14.26
  10   2  -3  282.79   15.71
  10  -2  -2    0.95    0.43
  10   2  -2    1.06    0.38
  10   2  -2   -0.34    0.93
 -10  -2   2    0.56    1.00
 -10   2   2    0.48    0.77
 -10   2   2    0.17    0.53
  10   2  -1   10.35    2.17
 -10   2   1   11.96    1.60
  10  -2  -1   11.85    1.25
  10   2  -1   12.07    1.22
  10  -2   0    0.65    0.39
  10   2   0    0.86    0.39
  10   2   0    0.65    1.16
 -10   2   0    0.58    0.49
 -10   2  -1   28.81    2.35
  10  -2   1   24.95    1.96
  10   2   1   27.29    1.95
 -10   2  -2    8.21    1.18
  10  -2   2    7.74    1.03
  10   2   2    9.82    1.05
  10   2   3  157.10   10.12
 -10   2  -3  183.60    8.38
  10   2   3  182.48    9.24
  10  -2   3  164.52    9.21
  10   2   4    2.20    0.83
  10  -2   4    3.01    0.95
  10   2   4    1.47    0.91
 -10   2  -4    2.71    0.64
  10   2   5    0.19    0.56
  10  -2   5    0.84    0.69
 -10   2  -5    0.30    0.30
  10   2   6   -0.20    0.54
  10  -2   6    0.43    0.70
 -10   2  -6    0.17    0.25
  10   2   7   33.04    3.13
  10  -2   7   39.02    3.43
 -10   2  -7   31.84    1.76
  10   2   8    0.91    0.66
  10  -2   8    0.24    0.74
  10   2   9    5.32    1.42
  10  -2   9    4.85    1.43
  10  -2  10    0.95    1.29
  10   2  10   -0.28    1.04
  10  -2  10   -0.27    0.85
  10   2  11   41.10    4.19
  10  -2  11   46.14    4.27
  10  -2  11   31.65    4.53
  10  -2  12    2.46    1.46
  10   2  12    2.48    1.51
  10  -2  12    2.29    1.26
  10   2  13   76.26    6.64
  10  -2  13   65.28    5.93
  10   2  14    3.16    1.86
  10  -2  14    2.81    1.49
  10   2  15    6.51    2.54
  10  -2  15    6.72    2.41
  10   2  16    1.65    2.33
  10  -2  16   -0.50    2.50
  10   3 -15   -0.26    0.60
  10  -3 -15   -0.15    0.64
  10   3 -14    0.13    0.67
  10  -3 -14    0.28    0.68
  10  -3 -14    0.93    1.06
  10   3 -13    4.09    0.94
  10  -3 -13    4.98    1.02
  10   3 -12   18.12    1.81
  10  -3 -12   21.25    2.00
  10   3 -11  245.43   11.49
  10  -3 -11  258.28   11.70
  10   3 -10   37.37    2.62
  10  -3 -10   38.51    2.73
  10   3  -9   17.70    1.61
  10  -3  -9   15.11    1.58
 -10  -3   8    1.44    1.11
 -10   3   8    0.21    1.05
  10   3  -8    1.74    0.56
  10  -3  -8    1.61    0.58
 -10  -3   7    0.25    0.97
 -10   3   7    1.31    0.98
  10   3  -7    0.77    0.45
  10  -3  -7    0.64    0.48
  10   3  -6   16.76    1.54
  10  -3  -6   18.48    1.66
 -10   3   6   17.56    2.38
 -10  -3   6   15.97    2.50
  10   3  -5  121.29    5.86
  10  -3  -5  121.19    5.96
 -10  -3   5  106.91    7.57
 -10   3   5  113.43    7.21
  10   3  -4    9.56    1.08
  10  -3  -4    9.81    1.14
 -10  -3   4    8.38    1.86
  10   3  -3    6.59    0.91
  10  -3  -3    5.48    0.88
  10   3  -2   -0.59    0.39
  10  -3  -2    0.09    0.35
  10  -3  -1    1.11    0.47
  10   3  -1    1.74    0.51
  10  -3   0    8.56    1.04
  10   3   0    8.04    0.95
  10  -3   1   17.86    1.59
  10   3   1   19.35    1.53
  10  -3   2    2.29    0.53
  10   3   2    2.83    0.56
  10  -3   3   85.42    4.68
  10   3   3   96.66    4.67
  10  -3   4   32.38    2.26
  10   3   4   33.34    2.19
  10  -3   5    0.19    0.69
  10  -3   5    0.87    0.56
  10   3   5    1.89    0.52
  10   3   6    6.22    1.24
  10  -3   6    6.28    1.36
  10   3   7   26.68    2.56
  10  -3   7   21.74    2.53
  10   3   8    0.97    0.83
  10  -3   8   -0.22    0.82
  10   3   9   85.56    5.50
  10  -3   9   80.22    5.61
 -10  -3  -9   68.20    7.45
  10   3  10   21.87    2.65
 -10  -3 -10   18.13    3.79
  10  -3  10   19.80    2.67
  10   3  11   34.28    3.43
  10  -3  11   28.92    3.45
 -10  -3 -11   22.30    4.16
  10   3  12    0.28    0.88
  10  -3  12   -0.32    0.98
  10   3  13   -0.32    0.99
  10  -3  13   -0.72    1.04
  10   3  14   16.04    2.93
  10  -3  14   23.02    3.64
  10   3  15   82.65    7.18
  10   4 -10    0.83    0.49
  10   4  -9    0.10    0.41
  10   4  -8   -0.10    0.49
  10   4  -7    1.18    0.55
  10   4  -6    0.79    0.47
  10   4  -5   16.58    1.49
  10   4  -4  129.86    6.24
  10   4  -3   10.95    1.18
  10   4  -2   13.84    1.29
  10   4  -1    5.28    0.81
  10   4   0    1.21    0.49
  10   4   1    6.96    0.88
  10   4   2   80.11    4.12
  10   4   3   16.81    1.38
  10   4   4   15.00    1.29
  10   4   5    0.14    0.29
  10   4   6    1.15    0.43
  10   4   7    5.85    0.81
  10   4   8   42.65    2.58
  10   4  10   17.75    2.07
  11   0 -15    0.60    0.57
  11   0 -14   -0.14    0.47
  11   0 -13  202.58    9.83
  11   0 -12    0.13    0.47
  11   0 -11   44.11    3.10
  11   0 -10   -0.13    0.37
  11   0  -9    1.19    0.48
  11   0  -8    0.71    0.42
 -11   0   8   -0.25    0.72
 -11   0   7   45.54    4.13
  11   0  -7   51.59    3.30
 -11   0   7   56.03    4.43
 -11   0   6   -0.25    0.92
  11   0  -6    0.35    0.36
 -11   0   6    1.62    0.95
 -11   0   5   20.37    2.64
  11   0  -5   21.56    1.90
 -11   0   5   24.84    2.71
  11   0  -4    0.11    0.30
 -11   0   4   -0.53    1.06
 -11   0   4    0.44    0.74
 -11   0   3   33.26    3.51
  11   0  -3   29.82    2.31
 -11   0   3   34.87    3.16
  11   0  -2    0.59    1.83
 -11   0   2    0.29    0.95
  11   0  -2    0.21    0.25
 -11   0   2   -0.20    0.66
 -11   0   1  213.70   12.31
  11   0  -1  217.14   10.29
  11   0  -1  192.05   14.46
  11   0   0   -0.60    1.50
 -11   0   0    0.59    0.74
  11   0   0    0.32    0.24
  11   0   1   66.76    3.92
  11   0   1   71.37    7.55
  11   0   2   -0.58    1.47
  11   0   2    0.43    0.54
  11   0   3   62.02    6.97
  11   0   3   68.54    4.93
  11   0   4   -0.55    1.38
  11   0   4   -0.23    0.58
  11   0   5   20.01    2.48
  11   0   5   16.72    3.44
  11   0   6    0.50    1.25
  11   0   6   -0.25    0.51
  11   0   7   67.58    5.13
  11   0   7   59.71    6.34
  11   0   8    0.44    1.19
  11   0   8    0.56    0.86
  11   0   9   21.67    2.95
  11   0   9   21.86    3.44
  11   0  10    0.38    1.03
  11   0  10    0.33    0.95
  11   0  11   86.11    6.48
  11   0  11   56.98    5.62
  11   0  12   -0.32    0.93
  11   0  12   -1.18    1.51
  11   0  13  399.44   21.22
  11   0  14   -1.90    2.07
  11   0  15   -0.52    2.01
  11   1 -15   20.65    2.07
  11  -1 -15   21.23    2.13
  11  -1 -14    7.98    1.33
  11   1 -14   12.39    1.51
  11   1 -13    4.65    0.90
  11  -1 -13    4.00    0.88
  11   1 -12   38.87    2.81
  11  -1 -12   36.77    2.79
  11   1 -11   23.16    2.07
  11  -1 -11   22.95    2.08
  11   1 -10    2.58    0.74
  11  -1 -10    3.69    0.85
  11   1  -9   57.09    3.58
  11  -1  -9   57.67    3.64
 -11   1   9   59.51    4.80
  11   1  -9   49.97    6.16
  11   1  -8   18.38    1.73
  11  -1  -8   18.87    1.77
  11   1  -8   16.41    3.50
 -11   1   8   22.38    2.71
  11   1  -7    2.19    1.79
  11   1  -7    4.65    0.84
  11  -1  -7    5.27    0.91
 -11   1   7    3.51    1.22
 -11  -1   6   68.07    5.27
 -11   1   6   61.70    4.98
  11   1  -6   71.43    4.12
  11  -1  -6   70.08    4.14
 -11   1   6   76.13    5.19
 -11  -1   6   75.33    5.41
  11   1  -6   69.73    7.20
 -11  -1   5  135.53    8.53
 -11   1   5  131.32    8.30
  11   1  -5  149.90    7.19
  11  -1  -5  142.73    7.18
 -11   1   5  150.61    8.27
 -11  -1   5  162.44    8.78
  11   1  -5  124.03   10.52
 -11   1   4   19.62    2.51
  11   1  -4   18.03    3.61
 -11  -1   4   14.38    2.34
  11  -1  -4   18.38    1.70
  11   1  -4   21.07    1.77
 -11   1   4   18.33    2.22
  11  -1  -3    0.11    0.31
  11   1  -3   -0.10    0.35
  11   1  -3   -0.52    1.20
 -11  -1   3    1.99    1.13
 -11   1   3    0.26    0.76
 -11   1   3    0.38    0.58
 -11  -1   2   -0.90    1.16
 -11   1   2   -0.27    0.98
  11  -1  -2    0.11    0.31
  11   1  -2    0.52    0.35
 -11   1   2    0.18    0.52
 -11  -1   1    9.70    2.01
 -11   1   1    8.26    1.81
  11  -1  -1   10.43    1.20
  11   1  -1    8.97    1.12
 -11   1   1    9.65    1.49
 -11   1   0   44.63    3.29
  11  -1   0   38.55    2.69
  11   1   0   39.61    2.66
  11   1   0   33.31    4.74
  11   1   1   18.15    3.35
 -11   1  -1   22.97    2.23
  11  -1   1   20.31    1.79
  11   1   1   21.78    1.80
  11  -1   2    0.21    0.73
  11   1   2    0.45    1.22
  11   1   2    1.69    0.50
  11  -1   2    1.00    0.43
 -11   1  -2    1.49    0.71
  11   1   3    0.42    0.68
  11  -1   3   -0.22    0.69
  11   1   3   -0.43    1.08
 -11   1  -3    0.43    0.57
  11   1   4   25.29    2.74
  11  -1   4   29.55    3.03
 -11   1  -4   30.92    2.50
  11   1   4   25.23    3.78
  11   1   5  166.19    9.17
  11  -1   5  161.55    9.24
 -11   1  -5  168.48    8.16
  11  -1   5  143.43   11.66
  11   1   5  156.80   10.62
  11   1   6  130.14    7.94
  11  -1   6  143.42    8.26
 -11   1  -6  141.08    6.96
  11  -1   6  117.84   10.32
  11   1   6  119.71    8.99
  11   1   7   57.57    4.52
  11  -1   7   47.72    4.29
  11  -1   7   48.21    6.08
  11  -1   8    4.85    2.23
  11   1   8    5.02    1.48
  11  -1   8    5.93    1.56
  11   1   9   55.82    4.75
  11  -1   9   48.05    4.49
  11  -1   9   44.14    5.63
  11  -1  10   10.13    2.55
  11   1  10   12.05    2.29
  11  -1  10   15.22    2.46
  11  -1  11   13.00    2.74
  11   1  11   12.46    2.52
  11  -1  11   12.99    2.40
  11   1  12   33.20    4.14
  11  -1  12   30.61    3.91
  11  -1  12   22.43    3.45
  11  -1  13   -0.34    0.98
  11   1  13    0.43    1.65
  11  -1  14   16.52    2.73
  11   1  14   20.88    3.67
  11  -1  14   25.80    3.92
  11  -1  15   54.93    5.89
 -11   1 -15   33.96    2.78
  11   2 -14   47.56    3.34
  11  -2 -14   50.64    3.52
  11  -2 -13    8.85    1.35
  11   2 -13   11.70    1.44
  11   2 -12  130.62    6.80
  11  -2 -12  133.55    6.93
  11   2 -11    0.71    0.55
  11  -2 -11    0.38    0.47
  11   2 -10   -0.12    0.47
  11  -2 -10   -0.13    0.49
 -11   2   9    0.30    0.92
  11   2  -9   -0.70    0.51
  11  -2  -9   -0.12    0.51
  11   2  -8   49.88    3.16
  11  -2  -8   46.39    3.14
 -11   2   8   46.00    4.39
  11   2  -7   -0.21    0.33
  11  -2  -7    0.34    0.39
 -11   2   7   -0.26    0.77
  11   2  -6    1.70    0.56
  11  -2  -6    1.59    0.56
 -11   2   6    2.47    1.08
 -11   2   5    0.24    0.85
  11   2  -5    0.10    0.46
  11  -2  -5    0.22    0.44
 -11   2   5   -0.46    0.75
  11   2  -4   13.82    1.39
  11  -2  -4   12.36    1.37
 -11  -2   4   10.95    2.10
 -11   2   4   10.70    2.01
 -11   2   4   11.07    1.82
 -11  -2   3    1.77    1.10
 -11   2   3    1.55    0.96
 -11   2   3    2.18    0.87
  11  -2  -3    2.47    0.61
  11   2  -3    3.41    0.68
 -11  -2   2  161.38   10.28
 -11   2   2  161.14    9.81
  11  -2  -2  174.83    8.42
  11   2  -2  179.81    8.37
  11  -2  -1   11.46    1.29
  11   2  -1   12.79    1.30
 -11   2   1   12.66    1.70
 -11   2   0    6.96    1.23
  11  -2   0    5.43    0.89
  11   2   0    5.89    0.86
  11  -2   1    4.59    0.81
  11   2   1    5.66    0.81
 -11   2  -1    5.23    1.02
 -11   2  -2  147.66    7.20
  11  -2   2  127.20    6.69
  11   2   2  139.93    6.71
  11  -2   3    0.84    0.42
  11   2   3    0.78    0.41
 -11   2  -3    1.42    0.57
  11   2   4    5.10    1.22
  11  -2   4    5.78    1.34
 -11   2  -4    6.65    1.01
  11   2   5    0.81    0.69
  11  -2   5    0.22    0.71
 -11   2  -5    1.00    0.45
  11   2   6    4.48    1.22
  11  -2   6    6.17    1.43
 -11   2  -6    5.38    0.77
  11   2   7    6.34    1.47
  11  -2   7    6.85    1.49
 -11   2  -7    4.52    0.64
  11   2   8   67.56    4.64
  11  -2   8   62.64    4.58
  11  -2   9    1.10    1.50
  11   2   9    0.52    0.84
  11  -2   9   -0.26    0.81
  11  -2  10    3.17    1.81
  11   2  10    3.69    1.41
  11  -2  10    3.64    1.36
  11  -2  11    0.49    1.67
  11   2  11    1.27    1.13
  11  -2  11   -0.61    1.03
  11   2  12  246.64   13.35
  11  -2  12  207.43   12.57
  11   2  13   20.88    3.46
  11  -2  13   19.69    3.23
  11   2  14  152.02   10.31
  11  -2  14  125.99    9.35
  11   3 -13    1.02    0.62
  11  -3 -13    1.44    0.73
  11   3 -12   30.22    2.47
  11  -3 -12   34.35    2.70
  11   3 -11   14.19    1.58
  11  -3 -11   16.81    1.79
  11   3 -10    2.14    0.68
  11  -3 -10    2.40    0.74
  11   3  -9    7.09    1.05
  11  -3  -9    7.79    1.18
  11   3  -8   35.39    2.53
  11  -3  -8   35.10    2.59
  11   3  -7    1.17    0.56
  11  -3  -7   -0.12    0.53
  11   3  -6  109.96    5.62
  11  -3  -6  108.56    5.73
  11   3  -5   27.34    2.05
  11  -3  -5   25.21    2.07
  11   3  -4   23.43    1.81
  11  -3  -4   18.00    1.74
  11   3  -3    0.10    0.37
  11  -3  -3    0.11    0.48
  11   3  -2   -0.09    0.47
  11  -3  -2    0.10    0.43
  11   3  -1    6.38    0.88
  11  -3  -1    4.96    0.86
  11  -3   0   39.27    2.67
  11   3   0   42.13    2.63
  11  -3   1    4.14    0.77
  11   3   1    6.01    0.85
  11  -3   2    0.39    0.39
  11   3   2    0.35    0.38
  11  -3   3    0.58    0.40
  11   3   3    0.35    0.35
  11  -3   4   23.74    1.93
  11   3   4   25.15    1.88
  11  -3   5   23.65    1.92
  11   3   5   23.39    1.82
  11  -3   6  139.73    7.99
  11   3   7    5.05    1.28
  11  -3   7    7.37    1.59
  11   3   8    8.41    1.59
  11  -3   8   10.77    1.86
  11   3   9    7.92    1.59
  11  -3   9    8.85    1.80
  11   3  10    5.94    1.49
  11  -3  10    7.28    1.60
  11   3  11    0.26    0.80
  11  -3  11    0.28    0.82
  11   3  12   23.08    2.98
  11  -3  12   15.27    2.67
  11   3  13   -1.57    1.52
  11   4  -6    1.22    0.50
  11   4  -5    5.44    0.85
  11   4  -4    0.36    0.49
  11   4  -3    6.56    0.95
  11   4  -2   19.00    1.61
  11   4  -1   63.66    3.55
  11   4   0    0.08    0.47
  11   4   1   39.43    2.50
  11   4   2    8.35    0.99
  11   4   3    8.41    1.04
  11   4   4   -0.08    0.41
  11   4   5    1.81    0.51
  11   4   6    0.32    0.31
  12   0 -13    0.14    0.58
  12   0 -12   -0.14    0.41
  12   0 -11   -0.14    0.49
  12   0 -10   37.82    2.84
  12   0  -9   -0.26    0.58
  12   0  -8   73.13    4.39
  12   0  -7   -0.13    0.42
  12   0  -6   19.15    1.83
  12   0  -5    0.37    0.36
 -12   0   5    0.48    0.79
  12   0  -4   68.99    4.23
 -12   0   4   81.81    5.49
  12   0  -3    0.59    0.36
 -12   0   3   -0.23    0.71
  12   0  -2  334.32   15.64
 -12   0   2  394.54   17.24
  12   0  -1    0.23    0.24
 -12   0   1    0.64    0.73
  12   0   0    0.57    0.35
 -12   0   0    0.41    0.56
  12   0   1   -0.11    0.26
  12   0   2   15.76    1.58
  12   0   3   -0.23    0.59
  12   0   4  265.56   13.55
  12   0   5   -0.25    0.81
  12   0   6    1.29    0.92
  12   0   7   -0.27    0.83
  12   0   8   48.63    4.43
  12   0   9    0.30    0.98
  12   0  10   15.43    2.53
  12   0  11   -0.36    1.47
  12   0  12  234.90   13.80
  12   0  13   -0.85    1.38
  12   1 -13    0.14    0.65
  12  -1 -13    0.88    0.62
  12   1 -12    0.27    0.44
  12  -1 -12    0.14    0.53
  12   1 -11   15.34    1.72
  12  -1 -11   15.88    1.78
  12   1 -10  124.36    6.64
  12  -1 -10  128.34    6.73
  12   1  -9   92.17    5.18
  12  -1  -9   92.22    5.23
  12   1  -8   21.07    1.93
  12  -1  -8   19.83    1.92
  12   1  -7    2.10    0.68
  12  -1  -7    1.91    0.64
 -12   1   7    3.75    1.21
  12   1  -6   21.15    1.91
  12  -1  -6   18.47    1.85
 -12   1   6   21.98    2.68
  12   1  -5    2.98    0.74
  12  -1  -5    2.34    0.65
 -12   1   5    1.81    0.96
  12  -1  -4   80.58    4.69
  12   1  -4   80.36    4.64
 -12   1   4   91.05    5.75
  12  -1  -3   47.92    3.18
  12   1  -3   47.11    3.12
 -12   1   3   48.97    3.88
  12  -1  -2   11.98    1.36
  12   1  -2    9.80    1.20
 -12   1   2   10.34    1.71
  12  -1  -1    8.20    1.10
  12   1  -1    6.95    1.01
 -12   1   1    9.20    1.55
  12  -1   0   42.82    3.02
  12   1   0   45.28    3.01
 -12   1  -1   20.76    2.20
  12  -1   1   16.36    1.64
  12   1   1   17.51    1.63
  12  -1   2    7.87    1.08
  12   1   2    8.24    1.09
 -12   1  -2    8.37    1.40
 -12   1  -3   20.58    2.11
  12  -1   3   16.45    1.69
  12   1   3   19.66    1.78
  12   1   3   18.45    2.30
  12  -1   3   16.31    2.25
 -12   1  -4  146.36    7.57
  12   1   4  140.00    8.28
  12  -1   4  140.40    8.38
  12   1   5  120.55    7.52
  12  -1   5  122.14    7.62
 -12   1  -5  125.98    6.68
  12   1   6   97.12    6.38
  12  -1   6   89.26    6.32
 -12   1  -6   91.81    5.27
  12   1   7    4.42    1.38
  12  -1   7    4.53    1.36
 -12   1  -7    6.81    1.11
  12   1   8    0.27    0.88
  12  -1   8   -0.56    0.99
 -12   1  -8   -0.13    0.46
  12   1   9    6.40    1.76
  12  -1   9    5.56    1.75
  12   1  10  101.44    7.09
  12  -1  10   86.12    6.70
  12   1  11  112.35    8.07
  12  -1  11  114.89    8.07
  12   1  12   84.88    6.98
  12  -1  12   85.89    6.91
  12   2 -12   -0.13    0.59
  12   2 -11   29.14    2.41
  12  -2 -11   29.82    2.50
  12   2 -10    3.56    0.85
  12  -2 -10    4.23    0.97
  12   2  -9    0.75    0.44
  12  -2  -9    0.80    0.48
  12   2  -8    5.24    0.95
  12  -2  -8    4.96    0.97
  12   2  -7   58.78    3.54
  12  -2  -7   55.25    3.56
 -12   2   7   48.32    4.54
  12   2  -6    0.12    0.41
  12  -2  -6    0.25    0.44
 -12   2   6   -0.52    0.88
  12   2  -5    4.32    0.86
  12  -2  -5    6.92    1.06
 -12   2   5    5.32    1.36
  12   2  -4    4.38    0.85
  12  -2  -4    3.84    0.82
 -12   2   4    3.61    1.15
  12   2  -3  207.58    9.47
  12  -2  -3  191.12    9.46
 -12   2   3  202.47   10.59
  12  -2  -2   10.97    1.28
  12   2  -2    9.59    1.16
 -12   2   2    7.15    1.52
 -12   2   1   97.50    5.80
  12  -2  -1   86.84    4.93
  12   2  -1   92.00    4.91
  12  -2   0    1.12    0.50
  12   2   0    0.31    0.34
 -12   2   0    0.69    0.68
  12  -2   1    5.03    0.88
  12   2   1    6.08    0.88
 -12   2  -1    6.04    1.17
  12  -2   2    1.21    0.52
  12   2   2    1.33    0.46
 -12   2  -2    0.87    0.56
 -12   2  -3  122.79    6.21
  12  -2   3  103.92    5.80
  12   2   3  114.45    5.80
  12  -2   4    7.09    1.07
 -12   2  -4    8.36    1.20
  12   2   4    9.72    1.19
 -12   2  -5   61.42    3.53
  12   2   5   53.47    4.27
  12  -2   5   49.47    4.28
  12   2   6   -0.22    0.86
  12  -2   6   -0.95    0.95
 -12   2  -6    0.80    0.48
  12   2   7   50.12    4.22
  12  -2   7   47.95    4.22
  12   2   8   -0.25    0.89
  12  -2   8   -0.51    0.99
  12   2   9    7.76    1.76
  12  -2   9    4.83    1.40
  12   2  10    2.91    1.44
  12  -2  10    2.28    1.25
  12   2  11   95.82    6.83
  12  -2  11   80.81    6.40
  12   3 -10   27.04    2.33
  12  -3 -10   32.45    2.55
  12   3  -9  108.94    5.76
  12  -3  -9  108.74    5.91
  12   3  -8    6.26    1.07
  12  -3  -8    8.13    1.24
  12   3  -7    5.20    0.93
  12  -3  -7    3.27    0.87
  12   3  -6    2.59    0.70
  12  -3  -6    1.92    0.67
  12   3  -5    1.25    0.59
  12  -3  -5    0.46    0.48
  12   3  -4    5.83    0.99
  12  -3  -4    5.88    1.04
  12   3  -3   70.75    3.93
  12  -3  -3   62.44    3.89
  12   3  -2    1.33    0.59
  12  -3  -2    0.11    0.66
  12   3  -1   18.56    1.65
  12  -3  -1   16.39    1.67
  12  -3   0   15.11    1.56
  12   3   0   16.23    1.52
  12  -3   1   13.75    1.48
  12   3   1   12.66    1.32
  12  -3   2   -0.32    0.67
  12   3   2   -0.10    0.49
  12  -3   3   18.60    1.73
  12   3   3   19.55    1.66
  12  -3   4   17.24    1.64
  12   3   4   16.37    1.54
  12  -3   5  139.37    7.01
  12   3   5  142.22    6.88
  12  -3   6   27.67    2.23
  12   3   6   30.26    2.21
  12  -3   7    6.32    1.49
  12  -3   7    5.17    0.99
  12   3   8   -0.22    0.97
  12  -3   8    0.24    0.81
  12   3   9    3.66    1.21
  12  -3   9    3.78    1.30
  12   3  10   21.44    2.79
  13   0 -10    0.15    0.52
  13   0  -9    0.14    0.43
  13   0  -8   -0.14    0.43
  13   0  -7    3.30    0.82
  13   0  -6    0.14    0.37
  13   0  -5    0.67    0.49
  13   0  -4    0.91    0.43
  13   0  -3  163.48    8.13
  13   0  -2    0.50    0.37
  13   0  -1   26.66    2.26
 -13   0   1   32.59    3.19
  13   0   0    0.36    0.31
 -13   0   0    0.67    0.82
 -13   0  -1   36.52    3.30
  13   0   1   29.83    2.40
  13   0   2    1.96    0.57
  13   0   3  414.57   18.31
  13   0   4   -0.75    0.97
  13   0   5   25.94    3.05
  13   0   6   -1.34    1.03
  13   0   7    7.59    1.78
  13   0   8   -0.59    0.91
  13   0   9   32.61    3.71
  13   0  10    0.33    1.12
  13   1  -9   55.57    3.72
  13  -1  -9   56.75    3.78
  13   1  -8    3.47    0.87
  13  -1  -8    2.63    0.82
  13   1  -7   -0.13    0.63
  13  -1  -7   -0.14    0.66
  13   1  -6   18.50    1.86
  13  -1  -6   18.48    1.88
  13   1  -5  142.64    7.27
  13  -1  -5  140.81    7.31
  13   1  -4  142.12    7.49
  13  -1  -4  146.25    7.59
  13  -1  -3  102.91    5.78
  13   1  -3  102.58    5.72
  13  -1  -2    3.03    0.75
  13   1  -2    3.39    0.76
 -13   1   2    5.06    1.27
  13  -1  -1    6.86    1.11
  13   1  -1    8.35    1.14
 -13   1   1    7.46    1.47
 -13   1   0    1.95    0.83
  13  -1   0    2.33    0.69
  13   1   0    0.58    0.40
  13  -1   1    2.44    0.68
  13   1   1    1.51    0.53
 -13   1  -1    1.49    0.81
  13   1   2    2.33    0.63
 -13   1  -2    1.96    0.82
  13  -1   2    2.08    0.62
  13  -1   3    2.72    0.71
 -13   1  -3    1.53    0.73
 -13   1  -4   34.18    2.91
  13  -1   4   31.93    2.57
  13   1   4   35.96    2.63
  13  -1   4   37.61    3.59
 -13   1  -5   50.63    3.66
  13   1   5   56.74    4.47
  13  -1   5   49.06    4.36
  13   1   6   10.76    1.98
  13  -1   6    7.14    1.75
 -13   1  -6    8.07    1.31
  13   1   7   -0.54    1.21
  13  -1   7    0.28    1.10
 -13   1  -7    0.99    0.55
  13   1   8    4.84    1.50
  13  -1   8    5.45    1.57
 -13   1  -8    2.97    0.85
  13   1   9   87.64    6.47
  13  -1   9   87.11    6.49
  13  -2  -8    9.83    1.36
  13   2  -8   12.01    1.46
  13   2  -7   -0.87    0.59
  13   2  -6    0.12    0.54
  13  -2  -6    0.26    0.59
  13   2  -5   -0.49    0.54
  13  -2  -5   -0.39    0.59
 -13   2   5   -0.77    0.91
  13   2  -4   52.05    3.34
  13  -2  -4   46.45    3.30
 -13   2   4   53.98    4.35
 -13   2   3    4.52    1.33
  13   2  -3    5.46    0.92
  13  -2  -3    5.21    0.99
  13  -2  -2   85.53    5.01
  13   2  -2   92.19    5.01
 -13   2   2   95.90    6.01
  13  -2  -1    0.60    0.45
  13   2  -1    0.45    0.42
 -13   2   1    1.19    0.76
  13  -2   0    0.96    0.50
  13   2   0    1.12    0.46
 -13   2   0    0.19    0.54
 -13   2  -1    1.55    0.81
  13  -2   1    1.07    0.51
  13   2   1    1.88    0.55
 -13   2  -2  175.89    8.68
  13  -2   2  155.28    8.07
  13   2   2  171.52    8.09
  13  -2   3   16.61    1.68
  13   2   3   16.67    1.61
  13  -2   4  158.94    8.33
  13   2   4  189.97    8.48
  13  -2   5    0.49    0.49
  13   2   5    0.12    0.41
  13   2   6    2.36    1.01
  13  -2   6    3.72    1.33
  13   2   7    0.25    0.95
  13  -2   7    0.26    1.05
  13   2   8    4.71    1.46
  13  -2   8    5.61    1.57
  13   3  -6   15.32    1.66
  13   3  -5   35.01    2.64
  13  -3  -5   41.92    2.89
  13   3  -4  189.29    8.78
  13  -3  -4  174.37    8.81
  13   3  -3   22.37    1.95
  13  -3  -3   21.96    2.01
  13   3  -2    4.16    0.82
  13  -3  -2    3.15    0.88
  13   3  -1    0.97    0.49
  13  -3  -1   -0.12    0.59
  13  -3   0    1.41    0.61
  13   3   0    1.38    0.59
  13  -3   1    0.23    0.55
  13   3   1   -0.21    0.56
  13  -3   2    2.06    0.69
  13   3   2    2.07    0.64
  13  -3   3    2.39    0.71
  13   3   3    1.65    0.59
  13  -3   4   34.12    2.59
  13   3   4   39.73    2.63
  13  -3   5   13.63    1.49
  13   3   5   13.03    1.40
  14   0  -5   -0.29    0.57
  14   0  -4    4.08    0.86
  14   0  -3    0.14    0.40
  14   0  -2    0.13    0.41
  14   0  -1    0.13    0.39
  14   0   0    0.92    0.49
  14   0   1    0.13    0.42
  14   0   2  180.93    8.90
  14   0   3    1.56    0.59
  14   0   4    8.54    1.24
  14   1  -4  108.70    5.92
  14  -1  -4  105.94    5.94
  14  -1  -3   10.00    1.36
  14   1  -3   10.39    1.37
  14  -1  -2    3.38    0.82
  14   1  -2    2.72    0.69
  14  -1  -1    0.40    0.53
  14   1  -1    0.51    0.47
 -14   1   1    0.43    0.80
 -14   1   0   22.47    2.59
  14  -1   0   23.91    2.16
  14   1   0   26.14    2.18
 -14   1  -1   40.41    3.49
  14  -1   1   41.89    2.98
  14   1   1   37.82    2.82
 -14   1  -2   29.36    2.85
  14  -1   2   25.72    2.26
  14   1   2   28.24    2.31
  14   1   3    1.62    0.52
 -14   1  -3    1.27    0.75
  14  -1   3    2.86    0.72
  14   1   4    2.41    0.68
 -14   1  -4    1.39    0.70
   0   0   0    0.00    0.00
;
_shelx_hkl_checksum              65680
loop_
_space_group_symop_operation_xyz
'x, y, z'
'-x+1/2, y+1/2, -z+1/2'
'-x, -y, -z'
'x-1/2, -y-1/2, z-1/2'
loop_
_atom_site_label
_atom_site_type_symbol
_atom_site_fract_x
_atom_site_fract_y
_atom_site_fract_z
_atom_site_U_iso_or_equiv
_atom_site_adp_type
_atom_site_occupancy
_atom_site_site_symmetry_order
_atom_site_calc_flag
_atom_site_refinement_flags_posn
_atom_site_refinement_flags_adp
_atom_site_refinement_flags_occupancy
_atom_site_disorder_assembly
_atom_site_disorder_group
Cu1 Cu 0.67293(6) 0.14046(13) 0.20807(3) 0.02002(19) Uani 1 1 d . . . . .
Cu2 Cu 0.54712(6) -0.34933(13) 0.14010(3) 0.01681(18) Uani 1 1 d . . . . .
I1 I 0.63764(3) 0.14190(6) 0.07739(2) 0.01348(14) Uani 1 1 d . . . . .
I2 I 0.59217(3) -0.35977(6) 0.27654(2) 0.01247(14) Uani 1 1 d . . . . .
C3 C 0.1809(5) -0.3729(10) 0.1477(3) 0.0144(11) Uani 1 1 d . . . . .
H3A H 0.1081 -0.3222 0.1653 0.017 Uiso 1 1 calc R U . . .
C2 C 0.2861(4) -0.2699(11) 0.1710(2) 0.0138(10) Uani 1 1 d . . . . .
H2A H 0.2974 -0.1315 0.2075 0.017 Uiso 1 1 calc R U . . .
C1 C 0.3203(4) -0.5776(11) 0.0859(2) 0.0138(10) Uani 1 1 d . . . . .
H1A H 0.3582 -0.6946 0.0525 0.017 Uiso 1 1 calc R U . . .
C4 C 0.1175(4) -0.7378(11) 0.0510(2) 0.0138(10) Uani 1 1 d . . . . .
H4A H 0.0600 -0.8325 0.0809 0.017 Uiso 1 1 calc R U . . .
H4B H 0.1562 -0.9079 0.0268 0.017 Uiso 1 1 calc R U . . .
C5 C 0.0560(4) -0.5267(11) -0.0001(2) 0.0142(10) Uani 1 1 d . . . . .
H5A H 0.1006 -0.4292 -0.0337 0.017 Uiso 1 1 calc R U . . .
N1 N 0.3748(4) -0.4035(9) 0.1319(2) 0.0151(9) Uani 1 1 d . . . . .
N2 N 0.2037(3) -0.5677(9) 0.09272(19) 0.0105(8) Uani 1 1 d . . . . .
loop_
_atom_site_aniso_label
_atom_site_aniso_U_11
_atom_site_aniso_U_22
_atom_site_aniso_U_33
_atom_site_aniso_U_23
_atom_site_aniso_U_13
_atom_site_aniso_U_12
Cu1 0.0205(4) 0.0214(4) 0.0183(4) -0.0008(2) 0.0053(3) -0.0007(2)
Cu2 0.0120(4) 0.0168(4) 0.0217(4) -0.0020(2) 0.0019(3) -0.0031(2)
I1 0.0148(2) 0.0108(2) 0.0149(2) -0.00148(10) 0.00393(15) -0.00155(10)
I2 0.0123(2) 0.0114(2) 0.0137(2) -0.00051(10) 0.00346(14) -0.00060(10)
C3 0.015(3) 0.012(3) 0.016(2) -0.0002(17) 0.004(2) 0.0032(17)
C2 0.016(3) 0.011(2) 0.015(2) -0.0025(19) 0.003(2) -0.0002(19)
C1 0.013(3) 0.014(2) 0.014(2) -0.0013(19) 0.003(2) 0.0001(19)
C4 0.006(2) 0.014(2) 0.022(3) -0.004(2) -0.001(2) -0.0028(18)
C5 0.017(2) 0.014(2) 0.012(2) -0.0039(18) 0.000(2) -0.006(2)
N1 0.016(2) 0.016(2) 0.013(2) 0.0020(16) 0.0050(18) 0.0006(16)
N2 0.010(2) 0.0084(18) 0.0128(19) -0.0010(15) -0.0034(16) -0.0004(15)
loop_
_atom_type_symbol
_atom_type_description
_atom_type_scat_dispersion_real
_atom_type_scat_dispersion_imag
_atom_type_scat_source
C C 0.0033 0.0016 'International Tables Vol C Tables 4.2.6.8 and 6.1.1.4'
H H 0.0000 0.0000 'International Tables Vol C Tables 4.2.6.8 and 6.1.1.4'
N N 0.0061 0.0033 'International Tables Vol C Tables 4.2.6.8 and 6.1.1.4'
Cu Cu 0.3201 1.2651 'International Tables Vol C Tables 4.2.6.8 and 6.1.1.4'
I I -0.4742 1.8119 'International Tables Vol C Tables 4.2.6.8 and 6.1.1.4'
loop_
_geom_angle_atom_site_label_1
_geom_angle_atom_site_label_2
_geom_angle_atom_site_label_3
_geom_angle
_geom_angle_site_symmetry_1
_geom_angle_site_symmetry_3
_geom_angle_publ_flag
I1 Cu1 I2 116.22(3) . 1_565 ?
I1 Cu1 I2 116.45(2) . . ?
I2 Cu1 I2 104.53(2) 1_565 . ?
I1 Cu1 I2 104.95(2) . 2_655 ?
I2 Cu1 I2 107.06(2) 1_565 2_655 ?
I2 Cu1 I2 107.01(2) . 2_655 ?
I1 Cu1 Cu2 57.64(2) . . ?
I2 Cu1 Cu2 129.23(3) 1_565 . ?
I2 Cu1 Cu2 58.846(18) . . ?
I2 Cu1 Cu2 123.50(3) 2_655 . ?
I1 Cu1 Cu2 58.20(2) . 1_565 ?
I2 Cu1 Cu2 58.042(18) 1_565 1_565 ?
I2 Cu1 Cu2 129.96(3) . 1_565 ?
I2 Cu1 Cu2 122.72(3) 2_655 1_565 ?
Cu2 Cu1 Cu2 94.42(3) . 1_565 ?
N1 Cu2 I1 116.60(11) . . ?
N1 Cu2 I1 104.93(11) . 1_545 ?
I1 Cu2 I1 105.24(2) . 1_545 ?
N1 Cu2 I2 104.96(11) . . ?
I1 Cu2 I2 113.50(2) . . ?
I1 Cu2 I2 111.37(2) 1_545 . ?
N1 Cu2 Cu1 128.27(11) . . ?
I1 Cu2 Cu1 56.180(18) . . ?
I1 Cu2 Cu1 126.74(3) 1_545 . ?
I2 Cu2 Cu1 57.36(2) . . ?
N1 Cu2 Cu1 116.07(11) . 1_545 ?
I1 Cu2 Cu1 126.99(3) . 1_545 ?
I1 Cu2 Cu1 54.841(17) 1_545 1_545 ?
I2 Cu2 Cu1 56.547(19) . 1_545 ?
Cu1 Cu2 Cu1 94.42(3) . 1_545 ?
Cu1 I1 Cu2 66.18(2) . . ?
Cu1 I1 Cu2 66.96(2) . 1_565 ?
Cu2 I1 Cu2 105.24(2) . 1_565 ?
Cu1 I2 Cu1 104.54(2) 1_545 . ?
Cu1 I2 Cu1 72.98(2) 1_545 2_645 ?
Cu1 I2 Cu1 72.96(2) . 2_645 ?
Cu1 I2 Cu2 65.41(2) 1_545 . ?
Cu1 I2 Cu2 63.80(2) . . ?
Cu1 I2 Cu2 106.91(2) 2_645 . ?
C2 C3 N2 106.3(4) . . ?
C2 C3 H3A 126.9 . . ?
N2 C3 H3A 126.9 . . ?
C3 C2 N1 109.6(4) . . ?
C3 C2 H2A 125.2 . . ?
N1 C2 H2A 125.2 . . ?
N1 C1 N2 112.5(4) . . ?
N1 C1 H1A 123.8 . . ?
N2 C1 H1A 123.8 . . ?
N2 C4 C5 112.9(4) . . ?
N2 C4 H4A 109.0 . . ?
C5 C4 H4A 109.0 . . ?
N2 C4 H4B 109.0 . . ?
C5 C4 H4B 109.0 . . ?
H4A C4 H4B 107.8 . . ?
C5 C5 C4 123.7(5) 3_545 . ?
C5 C5 H5A 118.2 3_545 . ?
C4 C5 H5A 118.2 . . ?
C1 N1 C2 104.9(4) . . ?
C1 N1 Cu2 125.7(3) . . ?
C2 N1 Cu2 129.4(3) . . ?
C1 N2 C3 106.8(4) . . ?
C1 N2 C4 126.6(4) . . ?
C3 N2 C4 126.5(4) . . ?
loop_
_geom_bond_atom_site_label_1
_geom_bond_atom_site_label_2
_geom_bond_distance
_geom_bond_site_symmetry_2
_geom_bond_publ_flag
Cu1 I1 2.5828(7) . ?
Cu1 I2 2.6675(6) 1_565 ?
Cu1 I2 2.6691(6) . ?
Cu1 I2 2.7067(8) 2_655 ?
Cu1 Cu2 2.8440(9) . ?
Cu1 Cu2 2.9072(9) 1_565 ?
Cu2 N1 1.994(4) . ?
Cu2 I1 2.6261(6) . ?
Cu2 I1 2.6849(6) 1_545 ?
Cu2 I2 2.7126(7) . ?
Cu2 Cu1 2.9072(9) 1_545 ?
I1 Cu2 2.6850(6) 1_565 ?
I2 Cu1 2.6675(6) 1_545 ?
I2 Cu1 2.7067(8) 2_645 ?
C3 C2 1.357(8) . ?
C3 N2 1.380(6) . ?
C3 H3A 0.9300 . ?
C2 N1 1.396(6) . ?
C2 H2A 0.9300 . ?
C1 N1 1.314(7) . ?
C1 N2 1.345(6) . ?
C1 H1A 0.9300 . ?
C4 N2 1.463(6) . ?
C4 C5 1.510(7) . ?
C4 H4A 0.9700 . ?
C4 H4B 0.9700 . ?
C5 C5 1.304(10) 3_545 ?
C5 H5A 0.9300 . ?
