#------------------------------------------------------------------------------
#$Date: 2021-02-05 00:25:44 +0200 (Fri, 05 Feb 2021) $
#$Revision: 261521 $
#$URL: file:///home/coder/svn-repositories/cod/cif/7/12/75/7127540.cif $
#------------------------------------------------------------------------------
#
# This file is available in the Crystallography Open Database (COD),
# http://www.crystallography.net/
#
# All data on this site have been placed in the public domain by the
# contributors.
#
data_7127540
loop_
_publ_author_name
'Fern\'andez-Moyano, Sara'
'Pe\~nas-Defrutos, Marconi N'
'Bartolom\'e, Camino'
'Espinet, Pablo'
_publ_section_title
;
 Striking ligand-disproportionative Cl/aryl scrambling in a simple Au(III)
 system. Solvent role, driving forces and mechanisms.
;
_journal_issue                   1
_journal_name_full
'Chemical communications (Cambridge, England)'
_journal_page_first              125
_journal_page_last               128
_journal_paper_doi               10.1039/d0cc06450e
_journal_volume                  57
_journal_year                    2021
_chemical_formula_moiety         'Au2 C24 Cl10 F12'
_chemical_formula_sum            'C24 Au2 Cl10 F12'
_chemical_formula_weight         1264.67
_space_group_crystal_system      triclinic
_space_group_IT_number           2
_space_group_name_Hall           '-P 1'
_space_group_name_H-M_alt        'P -1'
_atom_sites_solution_primary     iterative
_audit_creation_date             2020-08-27
_audit_creation_method
;
Olex2 1.2
(compiled 2018.05.29 svn.r3508 for OlexSys, GUI svn.r5506)
;
_audit_update_record
;
2020-08-27 deposited with the CCDC.	2020-11-20 downloaded from the CCDC.
;
_cell_angle_alpha                104.586(5)
_cell_angle_beta                 110.708(7)
_cell_angle_gamma                96.983(6)
_cell_formula_units_Z            1
_cell_length_a                   9.7169(8)
_cell_length_b                   10.6308(6)
_cell_length_c                   11.5370(7)
_cell_measurement_reflns_used    4010
_cell_measurement_temperature    294
_cell_measurement_theta_max      26.5300
_cell_measurement_theta_min      3.0440
_cell_volume                     1049.22(14)
_computing_cell_refinement       'CrysAlisPro 1.171.38.43f (Rigaku OD, 2015)'
_computing_data_collection       'CrysAlisPro 1.171.38.43f (Rigaku OD, 2015)'
_computing_data_reduction        'CrysAlisPro 1.171.38.43f (Rigaku OD, 2015)'
_computing_molecular_graphics    'Olex2 (Dolomanov et al., 2009)'
_computing_publication_material  'Olex2 (Dolomanov et al., 2009)'
_computing_structure_refinement  'ShelXL (Sheldrick, 2015)'
_computing_structure_solution    'olex2.solve (Bourhis et al., 2015)'
_diffrn_ambient_temperature      294
_diffrn_detector                 'CCD plate'
_diffrn_detector_area_resol_mean 10.4757
_diffrn_detector_type            Atlas
_diffrn_measured_fraction_theta_full 1.000
_diffrn_measured_fraction_theta_max 0.844
_diffrn_measurement_details
;
List of Runs (angles in degrees, time in seconds):

  # Type    Start    End  Width  t~exp~   \w     \q     \k     \f   Frames
#--------------------------------------------------------------------------
  1  \w    -30.00  62.00   1.00   42.81    --  -10.11  57.00 -30.00   92
  2  \w     -6.00  20.00   1.00   42.81    --   11.75 -99.00 120.00   26
  3  \w    -74.00  18.00   1.00   42.81    --  -10.11 -77.00  60.00   92
  4  \w    -77.00  17.00   1.00   42.81    --  -10.11 -57.00-180.00   94
;
_diffrn_measurement_device       'four-circle diffractometer'
_diffrn_measurement_device_type  'SuperNova, Dual, Cu at zero, Atlas'
_diffrn_measurement_method       '\w scans'
_diffrn_orient_matrix_type
'CrysAlisPro convention (1999,Acta A55,543-557)'
_diffrn_orient_matrix_UB_11      -0.0403428000
_diffrn_orient_matrix_UB_12      -0.0072571000
_diffrn_orient_matrix_UB_13      -0.0668354000
_diffrn_orient_matrix_UB_21      0.0603518000
_diffrn_orient_matrix_UB_22      -0.0210441000
_diffrn_orient_matrix_UB_23      -0.0143279000
_diffrn_orient_matrix_UB_31      -0.0341840000
_diffrn_orient_matrix_UB_32      -0.0673032000
_diffrn_orient_matrix_UB_33      -0.0114959000
_diffrn_radiation_monochromator  mirror
_diffrn_radiation_probe          x-ray
_diffrn_radiation_type           MoK\a
_diffrn_radiation_wavelength     0.71073
_diffrn_reflns_av_R_equivalents  0.0372
_diffrn_reflns_av_unetI/netI     0.0546
_diffrn_reflns_Laue_measured_fraction_full 1.000
_diffrn_reflns_Laue_measured_fraction_max 0.844
_diffrn_reflns_limit_h_max       13
_diffrn_reflns_limit_h_min       -13
_diffrn_reflns_limit_k_max       13
_diffrn_reflns_limit_k_min       -12
_diffrn_reflns_limit_l_max       12
_diffrn_reflns_limit_l_min       -15
_diffrn_reflns_number            8981
_diffrn_reflns_point_group_measured_fraction_full 1.000
_diffrn_reflns_point_group_measured_fraction_max 0.844
_diffrn_reflns_theta_full        25.242
_diffrn_reflns_theta_max         29.521
_diffrn_reflns_theta_min         2.035
_diffrn_source                   'micro-focus sealed X-ray tube'
_diffrn_source_type              'SuperNova (Mo) X-ray Source'
_exptl_absorpt_coefficient_mu    7.689
_exptl_absorpt_correction_T_max  0.977
_exptl_absorpt_correction_T_min  0.294
_exptl_absorpt_correction_type   gaussian
_exptl_absorpt_process_details
;
CrysAlisPro 1.171.38.43f (Rigaku Oxford Diffraction, 2015)
Numerical absorption correction based on gaussian integration over
			a multifaceted crystal model
Empirical absorption correction using spherical harmonics,
 implemented in SCALE3 ABSPACK scaling algorithm.
;
_exptl_crystal_colour            colourless
_exptl_crystal_colour_primary    colourless
_exptl_crystal_density_diffrn    2.002
_exptl_crystal_description       plate
_exptl_crystal_F_000             580
_exptl_crystal_size_max          0.299
_exptl_crystal_size_mid          0.133
_exptl_crystal_size_min          0.047
_refine_diff_density_max         0.998
_refine_diff_density_min         -0.739
_refine_diff_density_rms         0.101
_refine_ls_extinction_method     none
_refine_ls_goodness_of_fit_ref   0.966
_refine_ls_hydrogen_treatment    undef
_refine_ls_matrix_type           full
_refine_ls_number_parameters     217
_refine_ls_number_reflns         4941
_refine_ls_number_restraints     0
_refine_ls_restrained_S_all      0.966
_refine_ls_R_factor_all          0.0518
_refine_ls_R_factor_gt           0.0340
_refine_ls_shift/su_max          0.000
_refine_ls_shift/su_mean         0.000
_refine_ls_structure_factor_coef Fsqd
_refine_ls_weighting_details
'w=1/[\s^2^(Fo^2^)+(0.0225P)^2^] where P=(Fo^2^+2Fc^2^)/3'
_refine_ls_weighting_scheme      calc
_refine_ls_wR_factor_gt          0.0619
_refine_ls_wR_factor_ref         0.0689
_reflns_Friedel_coverage         0.000
_reflns_number_gt                3676
_reflns_number_total             4941
_reflns_threshold_expression     'I > 2\s(I)'
_cod_data_source_file            d0cc06450e2.cif
_cod_data_source_block           6
_cod_depositor_comments
'Adding full bibliography for 7127540--7127544.cif.'
_cod_original_cell_volume        1049.23(13)
_cod_database_code               7127540
_shelx_shelxl_version_number     2014/7
_chemical_oxdiff_formula         'C24 Au2 Cl10 F12'
_chemical_oxdiff_usercomment     colourless
_shelx_space_group_comment
;
The symmetry employed for this shelxl refinement is uniquely defined
by the following loop, which should always be used as a source of
symmetry information in preference to the above space-group names.
They are only intended as comments.
;
_reflns_odcompleteness_completeness 99.98
_reflns_odcompleteness_iscentric 1
_reflns_odcompleteness_theta     26.32
_olex2_refinement_description
;
;
_shelx_res_file
;
    hb-31-b.res created by SHELXL-2014/7

TITL hb-31-b_a.res in P-1
REM Old TITL HB-31-B in P1 #1
REM SHELXT solution in P-1
REM R1 0.212, Rweak 0.007, Alpha 0.037, Orientation as input
REM Formula found by SHELXT: C14 F4 Cl5 Au
CELL 0.71073 9.716939 10.630757 11.53703 104.5862 110.7079 96.9826
ZERR 1 0.000827 0.000623 0.000684 0.0051 0.0066 0.0058
LATT 1
SFAC C F Cl Au
UNIT 24 12 10 2

L.S. 10
PLAN  1
TEMP 20.85
LIST 6
ABIN
fmap 2
acta
REM <olex2.extras>
REM <HklSrc "%.\\HB-31-B.hkl">
REM </olex2.extras>

WGHT    0.022500
FVAR       0.44174
AU1   4    0.097933    0.118665    0.153682    11.00000    0.06671    0.04700 =
         0.04411    0.00580    0.01716   -0.01053
CL15  3    0.324907   -0.046501    0.594962    11.00000    0.13200    0.12736 =
         0.12004    0.08201    0.00859    0.01146
CL5   3    0.224187    0.666613    0.213565    11.00000    0.20853    0.06856 =
         0.21282    0.06441    0.14335    0.04874
CL3   3    0.683753    0.449296    0.423697    11.00000    0.06832    0.15920 =
         0.09193    0.01418    0.01662   -0.03215
CL1   3   -0.063695   -0.100379    0.066037    11.00000    0.12136    0.06797 =
         0.04962    0.00424    0.02950   -0.04025
CL13  3    0.012140    0.334765    0.617150    11.00000    0.11632    0.17760 =
         0.09782   -0.00499    0.06934    0.01565
F12   2   -0.007261    0.300005    0.352214    11.00000    0.08580    0.09196 =
         0.08507    0.02417    0.03510    0.03106
F6    2    0.044046    0.396462    0.135362    11.00000    0.08638    0.08702 =
         0.10943    0.04482    0.03665    0.02492
F14   2    0.177782    0.143398    0.706824    11.00000    0.13530    0.17461 =
         0.05953    0.03912    0.03323   -0.02287
F16   2    0.266800   -0.029721    0.334299    11.00000    0.11090    0.06028 =
         0.10141    0.02882    0.04028    0.02046
F2    2    0.443666    0.209312    0.320383    11.00000    0.07527    0.09167 =
         0.09333    0.03938    0.02140    0.01167
F4    2    0.536145    0.660809    0.358327    11.00000    0.15767    0.06930 =
         0.14425   -0.01192    0.07855   -0.05399
C11   1    0.126401    0.133296    0.338221    11.00000    0.05349    0.05017 =
         0.04074    0.00648    0.01792   -0.00564
C2    1    0.391823    0.314800    0.295543    11.00000    0.06928    0.06301 =
         0.05121    0.00760    0.02436   -0.00344
C12   1    0.067922    0.218792    0.407066    11.00000    0.04994    0.06567 =
         0.06138    0.01733    0.01720    0.00063
C16   1    0.206536    0.053597    0.398690    11.00000    0.07345    0.04390 =
         0.06275    0.01262    0.02033   -0.00563
C4    1    0.439765    0.540926    0.315198    11.00000    0.11307    0.05285 =
         0.07417   -0.01227    0.05188   -0.02158
C6    1    0.191746    0.407618    0.202908    11.00000    0.07511    0.04849 =
         0.06060    0.00992    0.02838    0.00477
C15   1    0.225354    0.054053    0.523224    11.00000    0.06811    0.07513 =
         0.05974    0.02890    0.00665   -0.01713
C13   1    0.084027    0.224340    0.531820    11.00000    0.06536    0.08943 =
         0.05381    0.00667    0.02882   -0.00680
C14   1    0.161361    0.140406    0.586418    11.00000    0.07613    0.10944 =
         0.04778    0.02335    0.01683   -0.02950
C3    1    0.496654    0.435607    0.340620    11.00000    0.06867    0.07422 =
         0.06092   -0.00168    0.02418   -0.01919
C5    1    0.288220    0.531199    0.245013    11.00000    0.11891    0.04965 =
         0.08917    0.01485    0.06322    0.01118
C1    1    0.240318    0.298486    0.226544    11.00000    0.06484    0.03828 =
         0.04197    0.00591    0.01575   -0.00494
HKLF 4

REM  hb-31-b_a.res in P-1
REM R1 =  0.0340 for    3676 Fo > 4sig(Fo)  and  0.0518 for all    4941 data
REM    217 parameters refined using      0 restraints

END

WGHT      0.0225      0.0000

REM Highest difference peak  0.998,  deepest hole -0.739,  1-sigma level  0.101
Q1    1   0.7049  0.6401  0.5310  11.00000  0.05    1.00
;
_shelx_res_checksum              11062
_shelx_fab_file
;
-13 3 5 2.0047 -0.1430
-13 3 6 1.6213 -0.1819
-13 3 7 0.5996 -0.0660
-13 3 8 0.0709 -0.1234
-13 4 4 2.1615 0.0081
-13 4 6 -1.3881 -0.0821
-13 4 7 -0.7412 -0.1279
-13 5 3 3.3676 -0.1322
-13 5 4 3.3832 -0.1160
-12 -1 5 1.2514 0.0655
-12 -1 6 -0.1092 0.0539
-12 -1 7 -1.7608 -0.0922
-12 -1 8 -1.7910 -0.2333
-12 0 3 -1.7593 0.0176
-12 0 4 -1.0042 0.0839
-12 0 5 -0.3177 0.1244
-12 0 6 -1.7335 0.1044
-12 0 7 -3.1207 -0.0012
-12 0 8 -1.4738 -0.0108
-12 0 9 1.4934 0.1495
-12 0 10 2.3039 0.2194
-12 1 2 -4.2622 -0.0377
-12 1 3 -1.5975 0.0857
-12 1 4 1.0885 0.1412
-12 1 5 1.9996 0.1522
-12 1 6 1.6357 0.0711
-12 1 7 1.6474 -0.0512
-12 1 8 1.8892 0.0071
-12 1 9 1.2689 0.2068
-12 1 10 0.3692 0.2644
-12 1 11 0.1922 0.1912
-12 2 1 2.4321 0.0546
-12 2 2 3.8603 0.0576
-12 2 3 2.6475 0.0742
-12 2 4 0.0876 0.1277
-12 2 5 -0.9843 0.1156
-12 2 6 -0.2240 -0.0271
-12 2 7 0.5169 -0.0913
-12 2 8 0.4857 0.0516
-12 2 9 0.4313 0.1738
-12 2 10 0.4214 0.1537
-12 2 11 -0.1228 0.1706
-12 3 1 2.1462 0.0722
-12 3 2 1.5194 0.0497
-12 3 3 0.0435 0.0160
-12 3 4 -1.8440 0.0184
-12 3 5 -2.9109 -0.0571
-12 3 6 -2.3925 -0.1502
-12 3 7 -1.2242 -0.0355
-12 3 8 -0.8479 0.1842
-12 3 9 -1.0591 0.2303
-12 3 10 -0.6184 0.1907
-12 4 1 1.0284 0.0204
-12 4 2 -0.8955 0.0130
-12 4 3 -1.7155 -0.0604
-12 4 4 -0.1130 -0.1416
-12 4 6 0.2838 -0.0723
-12 4 7 -1.0067 0.1452
-12 4 8 -2.1872 0.2055
-12 5 1 0.0578 0.0702
-12 5 2 -2.0273 0.0505
-12 5 3 -1.8830 -0.1375
-12 5 4 -0.4404 -0.2692
-12 5 6 1.5471 0.0381
-12 6 1 -1.3279 0.0085
-12 6 2 0.3739 -0.1243
-12 6 3 1.8053 -0.2605
-11 -4 5 -1.5541 -0.0312
-11 -4 6 -0.4540 -0.1252
-11 -4 7 -0.0442 -0.1384
-11 -4 8 0.2144 -0.1178
-11 -3 3 0.2088 0.0666
-11 -3 4 0.1940 -0.0698
-11 -3 5 0.3833 -0.0806
-11 -3 6 0.7611 -0.0134
-11 -3 7 -0.0608 -0.0393
-11 -3 8 -1.0373 -0.1333
-11 -3 9 -0.1396 -0.1347
-11 -3 10 1.5522 0.0298
-11 -2 2 1.4134 0.1079
-11 -2 3 -0.0076 -0.0320
-11 -2 4 -0.7007 -0.1063
-11 -2 5 -0.2236 -0.0896
-11 -2 6 0.4412 -0.0276
-11 -2 7 0.6646 0.0258
-11 -2 8 0.4345 -0.0397
-11 -2 9 0.0617 -0.1429
-11 -2 10 -0.0019 -0.0399
-11 -2 11 0.1236 0.2325
-11 -1 1 -1.0967 0.1839
-11 -1 2 -0.8488 0.0806
-11 -1 3 -0.4560 0.0036
-11 -1 4 -1.0014 0.0063
-11 -1 5 -0.6483 0.0430
-11 -1 6 1.1593 0.0954
-11 -1 7 1.8485 0.0736
-11 -1 8 0.6742 -0.0374
-11 -1 9 -0.1497 -0.0737
-11 -1 10 -0.5229 0.0289
-11 -1 11 -2.2890 0.1276
-11 -1 12 -4.1533 0.1608
-11 0 1 3.1679 0.1238
-11 0 2 3.3652 0.0458
-11 0 3 2.4983 0.0416
-11 0 4 1.3263 0.0725
-11 0 5 1.2399 0.1114
-11 0 6 1.7245 0.1615
-11 0 7 0.8918 0.1378
-11 0 8 -0.9287 0.0351
-11 0 9 -1.4553 0.0073
-11 0 10 -0.3833 0.0553
-11 0 11 0.5309 -0.0034
-11 0 12 0.5607 -0.1085
-11 1 1 0.3832 -0.0391
-11 1 2 -1.9362 -0.0826
-11 1 3 -2.1377 -0.0366
-11 1 4 0.0614 0.0122
-11 1 5 2.0008 0.0600
-11 1 6 1.6021 0.1087
-11 1 7 0.1642 0.0878
-11 1 8 -0.4048 0.0382
-11 1 9 -0.6013 0.0461
-11 1 10 -0.8665 0.0118
-11 1 11 -0.0002 -0.0936
-11 1 12 1.4924 -0.0252
-11 2 1 -1.3767 -0.1715
-11 2 2 -1.9965 -0.1328
-11 2 3 -1.0508 -0.0805
-11 2 4 0.5123 -0.0574
-11 2 5 1.1374 -0.0020
-11 2 6 1.1036 0.0312
-11 2 7 1.6740 0.0036
-11 2 8 2.3071 0.0305
-11 2 9 1.5233 0.0927
-11 2 10 -0.1294 0.0031
-11 2 11 -0.9235 -0.1776
-11 2 12 -0.6939 -0.1905
-11 3 1 -0.9624 -0.1772
-11 3 2 -1.3023 -0.1249
-11 3 3 -1.0577 -0.1092
-11 3 4 0.0988 -0.1073
-11 3 5 0.7859 -0.0526
-11 3 6 0.1467 -0.0222
-11 3 7 -0.3157 -0.0036
-11 3 8 0.5576 0.0885
-11 3 9 1.1642 0.1189
-11 3 10 0.0258 -0.0548
-11 4 1 0.3540 -0.1297
-11 4 2 1.3589 -0.1188
-11 4 3 0.1965 -0.1091
-11 4 4 -0.9010 -0.0748
-11 4 5 -0.5598 -0.0466
-11 4 6 0.0800 -0.0361
-11 4 7 1.2073 0.0354
-11 4 8 3.5072 0.1083
-11 4 9 4.9025 0.0282
-11 4 10 3.4869 -0.1329
-11 5 1 1.3910 -0.0697
-11 5 2 1.1594 0.0032
-11 5 3 0.7704 0.0296
-11 5 4 0.3770 -0.0278
-11 5 5 -0.8554 -0.0895
-11 5 6 -1.7491 -0.0380
-11 5 7 -0.6510 0.0630
-11 5 8 1.5088 0.0178
-11 5 9 2.7072 -0.1490
-11 5 10 2.4010 -0.2135
-11 6 1 1.2420 -0.0055
-11 6 2 0.0477 0.0547
-11 6 3 0.5510 0.0687
-11 6 4 1.4050 0.0394
-11 6 5 0.7940 0.0188
-11 6 6 0.2873 0.0187
-11 6 7 1.5581 -0.0517
-11 6 8 2.6205 -0.1955
-11 6 9 1.2853 -0.2664
-11 7 1 1.2117 0.0992
-11 7 2 0.2932 0.1380
-11 7 3 0.4428 0.1447
-11 7 4 0.6254 0.1359
-11 7 5 0.7022 0.1162
-11 7 6 1.0347 0.0433
-11 7 7 0.4810 -0.1139
-11 7 8 -1.1497 -0.2509
-11 8 1 -2.3893 0.0814
-11 8 3 2.2652 0.1952
-11 8 4 1.0414 0.2605
-11 8 5 -0.2988 0.1687
-11 8 6 0.8340 0.0098
-11 8 7 3.0501 -0.0321
-11 9 3 -2.4050 0.1733
-11 9 4 0.7006 0.1718
-11 9 5 2.1734 0.1980
-10 -6 4 0.7539 0.1256
-10 -6 5 0.9161 0.1546
-10 -6 6 0.6768 -0.0190
-10 -6 7 -0.4651 -0.1477
-10 -6 8 -1.2395 -0.0916
-10 -5 2 0.7130 0.1145
-10 -5 3 0.8663 0.1309
-10 -5 4 1.4486 -0.0209
-10 -5 5 0.5504 -0.0911
-10 -5 6 -0.8247 -0.1158
-10 -5 7 -0.6455 -0.1890
-10 -5 8 0.3874 -0.1642
-10 -5 9 0.4635 0.0083
-10 -5 10 0.1025 0.1022
-10 -4 1 1.4599 -0.0776
-10 -4 2 0.8574 0.1712
-10 -4 3 0.9910 0.1358
-10 -4 4 0.3477 -0.0209
-10 -4 5 -0.4862 -0.1651
-10 -4 6 0.1331 -0.1905
-10 -4 7 1.3315 -0.0637
-10 -4 8 0.8222 0.0612
-10 -4 9 -1.4013 0.0407
-10 -4 10 -3.1235 0.0226
-10 -4 11 -2.8768 0.1906
-10 -3 1 2.8919 0.1137
-10 -3 2 1.5496 0.1268
-10 -3 3 1.2786 0.1965
-10 -3 4 0.6097 0.1044
-10 -3 5 -0.7565 -0.0708
-10 -3 6 -1.0403 -0.0782
-10 -3 7 -0.1448 0.0546
-10 -3 8 0.1463 0.1150
-10 -3 9 -0.2919 0.0456
-10 -3 10 -0.3036 -0.0342
-10 -3 11 -0.1594 -0.0363
-10 -3 12 -0.5007 0.0132
-10 -2 1 -0.2855 0.1797
-10 -2 2 -0.2326 0.1505
-10 -2 3 -1.2006 0.0493
-10 -2 4 -1.6837 0.0069
-10 -2 5 -0.9655 0.0080
-10 -2 6 -0.4120 -0.0019
-10 -2 7 -0.7088 0.0250
-10 -2 8 -0.9954 0.0466
-10 -2 9 -0.8517 -0.0268
-10 -2 10 -0.4211 -0.0939
-10 -2 11 0.3573 -0.0519
-10 -2 12 0.7831 -0.0302
-10 -1 1 -0.2602 0.0873
-10 -1 2 -0.4016 0.0552
-10 -1 3 -0.3332 -0.0127
-10 -1 4 -0.4656 -0.0338
-10 -1 5 -1.5132 -0.0154
-10 -1 6 -1.9241 0.0400
-10 -1 7 -0.2922 0.0696
-10 -1 8 1.8029 -0.0131
-10 -1 9 2.5326 -0.1039
-10 -1 10 2.3897 -0.0457
-10 -1 11 2.0022 0.0500
-10 -1 12 1.1979 -0.0335
-10 -1 13 0.8002 -0.2236
-10 0 1 -0.6958 0.0248
-10 0 2 0.4323 -0.0712
-10 0 3 0.6055 -0.1087
-10 0 4 0.1805 -0.0488
-10 0 5 -0.3714 0.0073
-10 0 6 -0.9227 0.0297
-10 0 7 -1.2740 0.0418
-10 0 8 -1.0586 -0.0026
-10 0 9 -0.3110 -0.0774
-10 0 10 0.1251 -0.0375
-10 0 11 -0.2371 0.0668
-10 0 12 -0.3901 -0.0102
-10 0 13 0.2775 -0.2181
-10 1 1 2.7409 -0.1376
-10 1 2 2.8024 -0.2153
-10 1 3 0.7708 -0.1684
-10 1 4 -1.4270 -0.0657
-10 1 5 -1.1349 0.0167
-10 1 6 0.3348 0.0669
-10 1 7 0.0580 0.0462
-10 1 8 -0.9667 -0.0407
-10 1 9 -0.5129 -0.0680
-10 1 10 -0.0074 -0.0148
-10 1 11 -0.8072 -0.0626
-10 1 12 -0.7904 -0.2354
-10 1 13 0.7077 -0.3018
-10 2 1 -0.0518 -0.1544
-10 2 2 1.3452 -0.2075
-10 2 3 1.3911 -0.1040
-10 2 4 0.0953 -0.0159
-10 2 5 -0.9573 0.0305
-10 2 6 -1.4847 0.0807
-10 2 7 -1.8271 0.0748
-10 2 8 -1.2976 -0.0065
-10 2 9 0.3030 -0.0518
-10 2 10 1.6004 -0.0252
-10 2 11 1.6119 -0.0069
-10 2 12 0.8426 -0.0451
-10 3 1 -0.4415 -0.1294
-10 3 2 -0.0004 -0.0979
-10 3 3 0.0601 0.0640
-10 3 4 -0.1830 0.1121
-10 3 5 0.3053 0.0670
-10 3 6 1.2393 0.0422
-10 3 7 1.0177 0.0163
-10 3 8 -0.2170 -0.0218
-10 3 9 -0.5292 -0.0232
-10 3 10 0.4713 -0.0035
-10 3 11 1.0193 0.0071
-10 4 1 0.0531 -0.0311
-10 4 2 -0.2435 0.0559
-10 4 3 -0.4985 0.1261
-10 4 4 -0.8178 0.0931
-10 4 5 -0.2147 0.0319
-10 4 6 0.4916 -0.0024
-10 4 7 -0.2280 -0.0193
-10 4 8 -1.5758 -0.0268
-10 4 9 -1.8401 -0.0304
-10 4 10 -1.0545 -0.0166
-10 4 11 -0.1251 -0.0079
-10 5 1 0.4909 -0.0196
-10 5 2 -0.2439 0.1005
-10 5 3 -1.3680 0.1413
-10 5 4 -0.6835 0.0868
-10 5 5 0.8368 -0.0020
-10 5 6 1.0851 -0.0591
-10 5 7 0.4498 -0.0504
-10 5 8 -0.1749 -0.0221
-10 5 9 -0.9902 -0.0302
-10 5 10 -1.3710 -0.0705
-10 6 1 -0.6812 -0.0036
-10 6 2 -1.3524 0.0750
-10 6 3 -2.2190 0.0514
-10 6 4 -1.2326 -0.0054
-10 6 5 -0.1974 -0.0631
-10 6 6 -1.4308 -0.1060
-10 6 7 -2.6933 -0.1133
-10 6 8 -1.1841 -0.0837
-10 6 9 1.2322 0.0024
-10 7 1 0.9614 -0.0074
-10 7 2 0.5605 0.0635
-10 7 3 1.0049 0.0160
-10 7 4 2.0289 -0.0700
-10 7 5 2.3311 -0.1191
-10 7 6 2.5436 -0.1246
-10 7 7 2.5706 -0.1086
-10 7 8 0.7001 -0.0600
-10 8 1 -0.5486 0.0314
-10 8 2 -1.6547 0.0509
-10 8 3 -1.0346 0.0000
-10 8 4 0.3381 -0.0131
-10 8 5 0.8520 -0.0260
-10 8 6 -0.2743 -0.1156
-10 8 7 -1.1937 -0.1788
-10 9 1 4.5705 0.0359
-10 9 2 3.1016 -0.0064
-10 9 3 -1.5480 0.0407
-10 9 4 -4.0509 -0.0031
-10 9 5 -1.8888 -0.1245
-10 9 6 1.6700 -0.1558
-10 10 1 -0.5188 0.2048
-10 10 2 -1.9087 0.1844
-10 10 3 -1.6905 0.0354
-10 10 4 -0.5983 -0.0680
-9 -8 3 -0.1997 0.4392
-9 -8 4 -1.7658 0.4420
-9 -8 5 -1.7408 0.2877
-9 -8 6 -0.3763 0.1840
-9 -8 7 -0.1890 -0.0210
-9 -8 8 -1.0677 -0.3009
-9 -7 2 -0.5733 -0.1567
-9 -7 3 -0.5716 0.0335
-9 -7 4 -1.2379 0.2135
-9 -7 5 -2.0732 0.2031
-9 -7 6 -2.1826 0.0818
-9 -7 7 -0.5286 0.0090
-9 -7 8 2.5202 0.0404
-9 -7 9 4.1392 0.0214
-9 -7 10 2.5273 -0.1869
-9 -6 1 -0.1441 0.0181
-9 -6 2 0.3821 0.2822
-9 -6 3 0.6550 0.3220
-9 -6 4 0.3833 0.1278
-9 -6 5 -0.3079 -0.0356
-9 -6 6 -0.4696 -0.0752
-9 -6 7 0.2264 -0.0773
-9 -6 8 0.3894 -0.0435
-9 -6 9 -0.4825 0.0289
-9 -6 10 -0.4775 0.0714
-9 -6 11 1.2348 0.1059
-9 -5 1 0.7214 -0.0060
-9 -5 2 1.0497 0.0731
-9 -5 3 -0.3504 0.1875
-9 -5 4 -0.2905 0.1054
-9 -5 5 0.9816 -0.0570
-9 -5 6 0.9496 -0.0629
-9 -5 7 -0.1016 0.0546
-9 -5 8 -0.2782 0.1215
-9 -5 9 0.0251 0.1085
-9 -5 10 -0.6123 0.0686
-9 -5 11 -1.7224 0.0213
-9 -5 12 -2.0176 0.0356
-9 -4 1 0.3645 0.0035
-9 -4 2 0.1073 0.0134
-9 -4 3 -0.0939 -0.0288
-9 -4 4 0.0987 0.0211
-9 -4 5 -0.2937 0.0767
-9 -4 6 -0.8009 0.0217
-9 -4 7 -0.1757 0.0150
-9 -4 8 0.9958 0.1417
-9 -4 9 1.4184 0.1849
-9 -4 10 1.1954 0.0364
-9 -4 11 0.6976 -0.1014
-9 -4 12 -0.3123 -0.0834
-9 -3 1 -2.7589 0.0082
-9 -3 2 -2.9133 0.0152
-9 -3 3 -2.0003 -0.0063
-9 -3 4 -0.6385 0.0266
-9 -3 5 0.1835 0.0238
-9 -3 6 0.4191 -0.0139
-9 -3 7 0.3561 0.0027
-9 -3 8 -0.3288 0.0433
-9 -3 9 -1.3384 0.0081
-9 -3 10 -1.3609 -0.0833
-9 -3 11 -0.3222 -0.1446
-9 -3 12 0.3321 -0.1580
-9 -3 13 0.2030 -0.0876
-9 -2 1 -1.1699 -0.0132
-9 -2 2 -0.0756 0.0791
-9 -2 3 0.8700 0.0022
-9 -2 4 0.0365 -0.1065
-9 -2 5 -0.6119 -0.1065
-9 -2 6 0.4247 -0.0714
-9 -2 7 1.2970 -0.0540
-9 -2 8 0.6087 -0.0081
-9 -2 9 -0.4518 0.0141
-9 -2 10 -0.7535 -0.0471
-9 -2 11 -0.0285 -0.0947
-9 -2 12 1.6956 -0.0501
-9 -2 13 2.7404 0.0137
-9 -1 1 -0.4558 -0.0990
-9 -1 2 -0.7275 -0.0993
-9 -1 3 -0.2970 -0.1137
-9 -1 4 0.3074 -0.1142
-9 -1 5 0.3785 -0.1014
-9 -1 6 -0.4566 -0.0785
-9 -1 7 -1.4655 -0.0426
-9 -1 8 -1.6961 -0.0199
-9 -1 9 -1.1941 -0.0225
-9 -1 10 -0.3670 -0.0229
-9 -1 11 0.2916 0.0012
-9 -1 12 -0.3685 0.0381
-9 -1 13 -2.3065 0.0152
-9 -1 14 -2.9675 -0.1209
-9 0 1 -1.3475 0.0438
-9 0 2 -1.2581 -0.0467
-9 0 3 -0.8752 -0.1272
-9 0 4 -0.6606 -0.1101
-9 0 5 -0.5053 -0.0309
-9 0 6 0.0710 -0.0109
-9 0 7 0.6490 -0.0539
-9 0 8 0.1415 -0.0511
-9 0 9 -0.9992 -0.0027
-9 0 10 -1.0397 0.0079
-9 0 11 -0.1719 0.0282
-9 0 12 -0.1318 0.1023
-9 0 13 -0.6134 0.0695
-9 0 14 -0.2530 -0.1420
-9 1 1 -1.3059 0.1530
-9 1 2 -1.2019 0.0121
-9 1 3 -0.2613 -0.0316
-9 1 4 0.0469 0.0423
-9 1 5 -0.7428 0.0835
-9 1 6 -0.4057 0.0483
-9 1 7 1.0834 -0.0131
-9 1 8 0.9693 -0.0789
-9 1 9 -0.5875 -0.1076
-9 1 10 -1.0119 -0.0359
-9 1 11 -0.6018 0.0734
-9 1 12 -0.9413 0.0858
-9 1 13 -1.1740 0.0322
-9 1 14 -0.5820 0.0148
-9 2 1 -0.4806 0.1689
-9 2 2 -1.3567 0.0739
-9 2 3 -0.6894 0.0760
-9 2 4 0.4120 0.1588
-9 2 5 0.6234 0.1724
-9 2 6 0.0350 0.0870
-9 2 7 -0.5323 -0.0060
-9 2 8 -0.6181 -0.0514
-9 2 9 -0.4558 -0.0479
-9 2 10 -0.4912 -0.0114
-9 2 11 -0.4329 0.0316
-9 2 12 0.3218 0.1180
-9 2 13 1.1635 0.2638
-9 3 1 0.6734 0.1948
-9 3 2 0.5549 0.1139
-9 3 3 0.3868 0.1358
-9 3 4 0.4323 0.2149
-9 3 5 0.1887 0.1775
-9 3 6 -0.4043 0.0266
-9 3 7 -0.7881 -0.0758
-9 3 8 -0.7199 -0.0501
-9 3 9 -0.5652 0.0271
-9 3 10 -0.4047 0.0436
-9 3 11 0.4016 0.0127
-9 4 1 -1.4567 0.0219
-9 4 2 -0.4318 0.0353
-9 4 3 0.4278 0.0565
-9 4 4 -0.0744 0.0660
-9 4 5 -0.9506 0.0323
-9 4 6 -1.1940 -0.0257
-9 4 7 -1.3098 -0.0358
-9 4 8 -1.3951 0.0112
-9 4 9 -0.8452 0.0193
-9 4 10 -0.1489 -0.0140
-9 4 11 -0.2222 0.0833
-9 5 1 -0.8421 -0.1733
-9 5 2 0.4120 -0.0774
-9 5 3 0.4791 -0.0117
-9 5 4 -0.5017 -0.0458
-9 5 5 -0.8783 -0.0948
-9 5 6 -0.8208 -0.0684
-9 5 7 -0.6542 0.0240
-9 5 8 0.4456 0.0934
-9 5 9 1.6558 0.0847
-9 5 10 0.9779 0.0857
-9 5 11 -0.8477 0.1653
-9 6 1 0.8337 -0.2330
-9 6 2 1.5770 -0.1844
-9 6 3 0.9896 -0.1694
-9 6 4 -0.3361 -0.1908
-9 6 5 -0.4812 -0.1563
-9 6 6 -0.2215 -0.0396
-9 6 7 -0.8026 0.0742
-9 6 8 -0.6912 0.0896
-9 6 9 1.2583 0.0471
-9 6 10 2.9270 0.0673
-9 7 1 0.3801 -0.1740
-9 7 2 0.4519 -0.1631
-9 7 3 -0.0096 -0.1866
-9 7 4 -0.2972 -0.2326
-9 7 5 -1.7574 -0.1997
-9 7 6 -2.9503 -0.0646
-9 7 7 -0.4747 0.0351
-9 7 8 3.3617 0.0316
-9 7 9 3.0108 0.0416
-9 8 1 0.1021 -0.0029
-9 8 2 0.9454 0.0157
-9 8 3 1.0577 -0.0456
-9 8 4 -0.8221 -0.1065
-9 8 5 -2.8412 -0.1022
-9 8 6 -3.0272 -0.0676
-9 8 7 -3.0631 -0.0357
-9 8 8 -4.0097 0.0027
-9 9 1 -2.5990 0.1801
-9 9 2 0.1455 0.0835
-9 9 3 3.1953 0.0332
-9 9 4 3.0085 0.0307
-9 9 5 -0.2677 -0.0331
-9 9 6 -3.3830 -0.0402
-9 10 1 1.4759 0.2046
-9 10 2 -1.0232 0.2330
-9 10 3 -3.2673 0.1724
-9 10 4 -2.7760 -0.0117
-9 11 1 -1.4266 0.1828
-9 11 2 -2.3128 0.1293
-8 -10 4 -0.8783 -0.3277
-8 -10 5 -2.2290 -0.3374
-8 -10 6 -1.4835 -0.5658
-8 -9 1 0.3332 0.2520
-8 -9 2 -1.4126 0.4698
-8 -9 3 -2.1811 0.3259
-8 -9 4 -0.5595 0.1625
-8 -9 5 1.0633 0.3017
-8 -9 6 0.7260 0.4076
-8 -9 7 -0.4147 0.1347
-8 -9 8 -1.0424 -0.2290
-8 -9 9 -1.0104 -0.3032
-8 -8 1 0.6625 0.0898
-8 -8 2 0.0545 0.1114
-8 -8 3 -0.0085 0.1922
-8 -8 4 -0.1802 0.3436
-8 -8 5 -0.3891 0.2464
-8 -8 6 0.0196 0.0275
-8 -8 7 0.2905 -0.0090
-8 -8 8 -0.0565 -0.0621
-8 -8 9 0.0712 -0.2462
-8 -8 10 0.4862 -0.1834
-8 -7 1 -1.0063 -0.0695
-8 -7 2 -0.8664 -0.0221
-8 -7 3 -0.5828 0.0099
-8 -7 4 0.2787 0.0494
-8 -7 5 1.2306 0.0607
-8 -7 6 0.6856 0.0180
-8 -7 7 -1.4536 -0.0381
-8 -7 8 -2.5993 -0.0349
-8 -7 9 -1.3553 0.0300
-8 -7 10 0.1386 0.0407
-8 -7 11 0.2017 -0.0002
-8 -6 1 -0.8316 0.0885
-8 -6 2 -0.1433 0.0050
-8 -6 3 0.6793 -0.0003
-8 -6 4 1.2454 0.0430
-8 -6 5 1.2596 0.0752
-8 -6 6 0.2846 0.1059
-8 -6 7 -0.7899 0.1060
-8 -6 8 -0.8204 0.0849
-8 -6 9 -0.9163 0.1203
-8 -6 10 -2.1821 0.1541
-8 -6 11 -2.8547 0.0549
-8 -6 12 -1.5259 -0.0851
-8 -5 1 -1.5912 -0.0215
-8 -5 2 0.1482 -0.0949
-8 -5 3 1.4428 0.0018
-8 -5 4 0.9361 0.1324
-8 -5 5 0.4075 0.1930
-8 -5 6 0.6069 0.1721
-8 -5 7 0.4075 0.0926
-8 -5 8 -0.2447 0.0263
-8 -5 9 -0.3179 0.0086
-8 -5 10 0.2742 -0.0106
-8 -5 11 0.8628 -0.0336
-8 -5 12 0.8663 -0.0284
-8 -5 13 -0.2549 -0.0958
-8 -4 1 0.7903 -0.2739
-8 -4 2 0.6391 -0.0914
-8 -4 3 0.4874 -0.0069
-8 -4 4 0.8523 -0.0581
-8 -4 5 0.7413 -0.0144
-8 -4 6 -0.3283 0.0651
-8 -4 7 -0.7800 0.0473
-8 -4 8 0.0507 0.0341
-8 -4 9 0.3964 0.0463
-8 -4 10 -0.3467 -0.0449
-8 -4 11 -0.1780 -0.1345
-8 -4 12 1.4665 -0.0446
-8 -4 13 2.2430 0.0091
-8 -3 1 1.5730 -0.2609
-8 -3 2 0.7811 -0.1904
-8 -3 3 0.1972 -0.1178
-8 -3 4 0.4981 -0.0913
-8 -3 5 0.6067 -0.0973
-8 -3 6 0.1565 -0.1095
-8 -3 7 0.3646 -0.0774
-8 -3 8 1.4802 0.0069
-8 -3 9 2.0979 0.0529
-8 -3 10 1.5129 -0.0022
-8 -3 11 0.2065 -0.0580
-8 -3 12 -1.2965 -0.0273
-8 -3 13 -1.8699 -0.0221
-8 -3 14 -0.3983 -0.1086
-8 -2 1 0.5165 -0.1662
-8 -2 2 -0.0422 -0.0588
-8 -2 3 -0.1700 -0.0246
-8 -2 4 0.2274 -0.0973
-8 -2 5 0.0871 -0.1544
-8 -2 6 -0.0728 -0.1041
-8 -2 7 0.2814 -0.0118
-8 -2 8 0.2584 0.0266
-8 -2 9 -0.1082 0.0176
-8 -2 10 -0.1253 0.0310
-8 -2 11 -0.5870 0.0709
-8 -2 12 -1.2406 0.0622
-8 -2 13 0.2995 0.0271
-8 -2 14 3.2464 0.0697
-8 -1 1 0.3762 0.0845
-8 -1 2 -0.0805 0.0745
-8 -1 3 -0.5688 0.0276
-8 -1 4 -0.7190 -0.0230
-8 -1 5 -0.2110 -0.0869
-8 -1 6 0.5346 -0.0953
-8 -1 7 0.6747 -0.0137
-8 -1 8 0.3562 0.0192
-8 -1 9 0.1544 -0.0507
-8 -1 10 -0.0889 -0.0502
-8 -1 11 -0.1170 0.0461
-8 -1 12 0.8981 0.0676
-8 -1 13 2.1751 0.0822
-8 -1 14 2.0940 0.2305
-8 0 1 0.4451 0.2053
-8 0 2 1.0218 0.1879
-8 0 3 0.8671 0.1110
-8 0 4 0.4852 0.0255
-8 0 5 0.2728 -0.0331
-8 0 6 -0.4588 -0.0398
-8 0 7 -1.3310 -0.0319
-8 0 8 -0.8425 -0.0446
-8 0 9 0.6234 -0.0260
-8 0 10 1.1984 0.0258
-8 0 11 0.6209 0.0179
-8 0 12 -0.1536 0.0008
-8 0 13 -0.6797 0.1236
-8 0 14 -0.4825 0.3059
-8 0 15 0.4793 0.3274
-8 1 1 -0.2489 0.3642
-8 1 2 0.1962 0.3430
-8 1 3 0.0611 0.1728
-8 1 4 0.2204 0.0667
-8 1 5 0.3695 0.0414
-8 1 6 -0.0343 -0.0046
-8 1 7 0.0072 -0.0612
-8 1 8 0.7413 -0.0475
-8 1 9 0.8683 0.0153
-8 1 10 0.4135 0.0498
-8 1 11 0.3713 0.0776
-8 1 12 0.1696 0.1145
-8 1 13 -0.7375 0.0510
-8 1 14 -1.2162 -0.1078
-8 2 1 0.6977 0.1208
-8 2 2 0.6555 0.1371
-8 2 3 0.7069 0.1266
-8 2 4 0.6062 0.0819
-8 2 5 0.5139 0.0306
-8 2 6 0.5978 -0.0087
-8 2 7 0.3205 -0.0274
-8 2 8 -0.3930 -0.0190
-8 2 9 -0.4465 -0.0151
-8 2 10 0.2724 -0.0131
-8 2 11 0.1099 0.0487
-8 2 12 -1.1901 0.1197
-8 2 13 -1.6370 0.0824
-8 3 1 -0.4502 0.0337
-8 3 2 0.2210 -0.0172
-8 3 3 0.5449 -0.0112
-8 3 4 0.2380 0.0242
-8 3 5 -0.0682 0.0523
-8 3 6 0.1931 0.0336
-8 3 7 0.4453 -0.0175
-8 3 8 0.2171 -0.0297
-8 3 9 0.2140 0.0156
-8 3 10 0.4165 0.0578
-8 3 11 -0.2962 0.0499
-8 3 12 -1.3511 0.0250
-8 4 1 0.1443 -0.1782
-8 4 2 -0.6093 -0.2032
-8 4 3 -0.3033 -0.1212
-8 4 4 0.1643 -0.0443
-8 4 5 0.2711 0.0139
-8 4 6 0.7304 0.0533
-8 4 7 1.0683 0.0612
-8 4 8 0.0389 0.0582
-8 4 9 -1.5641 0.0607
-8 4 10 -1.8102 0.0362
-8 4 11 -0.6858 -0.0037
-8 5 1 -0.6010 -0.2551
-8 5 2 -0.8585 -0.3005
-8 5 3 -0.3780 -0.1883
-8 5 4 -0.1294 -0.0595
-8 5 5 0.2735 0.0015
-8 5 6 0.9824 0.0418
-8 5 7 0.6977 0.1177
-8 5 8 -0.3794 0.1707
-8 5 9 -0.1647 0.0922
-8 5 10 1.3841 -0.0744
-8 5 11 2.0204 -0.0917
-8 6 1 -0.3183 -0.1713
-8 6 2 -0.8174 -0.2227
-8 6 3 -0.5337 -0.1716
-8 6 4 0.1038 -0.0501
-8 6 5 1.3644 0.0343
-8 6 6 2.3252 0.0511
-8 6 7 0.8003 0.0652
-8 6 8 -2.5225 0.0626
-8 6 9 -3.9114 -0.0165
-8 6 10 -1.9981 -0.0580
-8 7 1 -0.2016 -0.0975
-8 7 2 -0.5323 -0.0950
-8 7 3 -2.0364 -0.0784
-8 7 4 -1.2387 -0.0538
-8 7 5 1.5266 -0.0475
-8 7 6 1.3522 -0.0221
-8 7 7 -1.1892 0.0244
-8 7 8 -0.4789 0.0230
-8 7 9 3.3081 0.0239
-8 8 1 -0.6467 0.0317
-8 8 2 -0.6861 0.0900
-8 8 3 1.1058 0.0477
-8 8 4 2.3977 -0.0138
-8 8 5 0.6605 -0.0253
-8 8 6 -1.6171 -0.0495
-8 8 7 -1.3768 -0.0907
-8 8 8 -0.6500 0.0071
-8 8 9 -1.7048 0.2429
-8 9 1 0.5777 0.1509
-8 9 2 -0.2141 0.1585
-8 9 3 -0.9900 0.0807
-8 9 4 0.0276 0.0523
-8 9 5 2.5079 0.0004
-8 9 6 4.1105 -0.0787
-8 9 7 3.3438 0.0152
-8 10 1 1.2437 0.1086
-8 10 2 4.1513 0.0981
-8 10 3 3.6261 0.0772
-8 10 4 0.1086 -0.0253
-8 10 5 -2.1395 -0.1056
-8 11 1 -0.8872 0.0318
-8 11 2 0.1291 -0.0165
-8 11 3 0.7129 -0.0606
-7 -11 4 -1.9553 -0.2551
-7 -11 5 -2.5642 -0.3486
-7 -11 6 -1.3422 -0.5953
-7 -11 7 0.1197 -0.6020
-7 -10 2 -0.3971 0.3078
-7 -10 3 1.0665 0.2255
-7 -10 4 2.0835 0.0922
-7 -10 5 1.1866 0.2685
-7 -10 6 -0.4723 0.4115
-7 -10 7 -0.9302 0.1357
-7 -10 8 -0.2960 -0.2195
-7 -10 9 -0.2409 -0.2123
-7 -9 1 0.0635 -0.0284
-7 -9 2 2.0292 -0.0806
-7 -9 3 1.4975 0.0925
-7 -9 4 -0.1261 0.1205
-7 -9 5 -0.0567 0.0171
-7 -9 6 0.9488 0.0268
-7 -9 7 0.9853 0.0798
-7 -9 8 0.3089 -0.0160
-7 -9 9 0.0407 -0.1556
-7 -9 10 0.5709 -0.1383
-7 -8 1 -1.5665 0.0549
-7 -8 2 -1.0787 -0.0391
-7 -8 3 -0.0158 -0.1913
-7 -8 4 0.3271 -0.1158
-7 -8 5 -0.2274 0.0855
-7 -8 6 -0.1184 0.0622
-7 -8 7 0.6151 -0.0626
-7 -8 8 0.1176 0.0102
-7 -8 9 -0.9411 0.1123
-7 -8 10 -0.2265 0.0671
-7 -8 11 1.2604 0.1132
-7 -7 1 0.8769 -0.0105
-7 -7 2 0.5122 -0.1572
-7 -7 3 -0.0390 -0.1433
-7 -7 4 -0.7148 -0.0523
-7 -7 5 -0.8515 0.0016
-7 -7 6 -0.2391 -0.0088
-7 -7 7 0.2368 -0.0370
-7 -7 8 0.3192 -0.0226
-7 -7 9 0.8148 0.0673
-7 -7 10 1.1478 0.1583
-7 -7 11 -0.2042 0.0979
-7 -7 12 -2.2403 -0.0709
-7 -6 1 -0.0166 -0.1165
-7 -6 2 -0.8005 -0.1157
-7 -6 3 -1.3009 -0.0091
-7 -6 4 -1.1408 0.1343
-7 -6 5 -0.4026 0.1497
-7 -6 6 0.2014 0.0719
-7 -6 7 0.0683 0.0373
-7 -6 8 0.1806 -0.0054
-7 -6 9 1.2948 -0.0967
-7 -6 10 1.7101 -0.1027
-7 -6 11 0.3939 -0.0296
-7 -6 12 -0.3186 -0.0729
-7 -6 13 1.1939 -0.2260
-7 -5 1 -0.5316 -0.0037
-7 -5 2 -1.2487 -0.0684
-7 -5 3 -1.1013 -0.0092
-7 -5 4 -0.4296 0.0957
-7 -5 5 -0.2305 0.1155
-7 -5 6 -0.3866 0.0809
-7 -5 7 -0.2848 0.0236
-7 -5 8 0.1169 -0.0539
-7 -5 9 0.5574 -0.0586
-7 -5 10 0.9094 0.0114
-7 -5 11 1.0927 -0.0134
-7 -5 12 1.2353 -0.1150
-7 -5 13 1.6251 -0.0665
-7 -4 1 0.0795 -0.1717
-7 -4 2 1.0219 -0.2263
-7 -4 3 0.7427 -0.1051
-7 -4 4 0.0984 -0.0461
-7 -4 5 0.1085 -0.0455
-7 -4 6 -0.0920 0.0025
-7 -4 7 -0.9659 0.0161
-7 -4 8 -1.1945 -0.0320
-7 -4 9 -0.4741 0.0032
-7 -4 10 -0.4004 0.1060
-7 -4 11 -1.2491 0.0860
-7 -4 12 -1.2866 -0.0094
-7 -4 13 -0.0603 0.0449
-7 -4 14 0.9335 0.1648
-7 -3 1 0.5173 -0.0554
-7 -3 2 0.9821 -0.0894
-7 -3 3 0.9530 -0.1057
-7 -3 4 0.6060 -0.0922
-7 -3 5 0.4309 -0.0478
-7 -3 6 0.1761 -0.0136
-7 -3 7 -0.1035 -0.0055
-7 -3 8 0.0159 0.0099
-7 -3 9 0.1289 0.0480
-7 -3 10 0.2123 0.0565
-7 -3 11 1.2231 0.0118
-7 -3 12 1.8603 0.0060
-7 -3 13 -0.8755 0.0650
-7 -3 14 -5.2851 0.0673
-7 -2 1 0.2182 0.0378
-7 -2 2 1.1850 0.1245
-7 -2 3 1.6783 0.1388
-7 -2 4 1.4500 0.0919
-7 -2 5 0.6157 0.0400
-7 -2 6 -0.0542 -0.0060
-7 -2 7 0.6300 -0.0123
-7 -2 8 1.4908 0.0528
-7 -2 9 0.3314 0.0782
-7 -2 10 -1.3634 -0.0320
-7 -2 11 -0.9433 -0.0883
-7 -2 12 -0.1300 0.0535
-7 -2 13 -1.3902 0.1225
-7 -2 14 -2.6396 -0.0333
-7 -1 1 0.2677 0.1816
-7 -1 2 -0.3284 0.2818
-7 -1 3 -0.0391 0.1617
-7 -1 4 0.4115 0.0325
-7 -1 5 -0.1120 -0.0043
-7 -1 6 -0.5594 -0.0422
-7 -1 7 0.0139 -0.0615
-7 -1 8 0.4716 0.0178
-7 -1 9 0.0958 0.0519
-7 -1 10 -0.3292 -0.0575
-7 -1 11 -0.4983 -0.0760
-7 -1 12 -0.5658 0.0842
-7 -1 13 -0.2588 0.1343
-7 -1 14 0.0583 0.0073
-7 -1 15 -0.2649 -0.0344
-7 0 1 -0.1133 0.1936
-7 0 2 0.0948 0.1978
-7 0 3 0.3678 0.0644
-7 0 4 -0.0001 -0.0595
-7 0 5 -0.0638 -0.1054
-7 0 6 0.9608 -0.0839
-7 0 7 1.3991 -0.0229
-7 0 8 -0.0009 0.0087
-7 0 9 -1.5493 -0.0117
-7 0 10 -1.6104 0.0015
-7 0 11 -0.8564 0.0331
-7 0 12 -0.2136 -0.0358
-7 0 13 0.2340 -0.1051
-7 0 14 0.3878 0.0018
-7 0 15 0.4150 0.1434
-7 1 1 -0.1421 0.0234
-7 1 2 -0.1374 0.1009
-7 1 3 -0.1989 0.0228
-7 1 4 -0.3140 -0.1182
-7 1 5 -0.1932 -0.1395
-7 1 6 -0.1005 -0.0135
-7 1 7 -0.0293 0.0758
-7 1 8 0.5000 0.0299
-7 1 9 0.8685 0.0246
-7 1 10 0.2192 0.1274
-7 1 11 -0.2392 0.0795
-7 1 12 0.9154 -0.1445
-7 1 13 2.5230 -0.1530
-7 1 14 2.8381 0.1174
-7 2 1 1.1254 -0.0348
-7 2 2 0.4079 -0.1658
-7 2 3 -0.3707 -0.1893
-7 2 4 -0.3179 -0.1201
-7 2 5 -0.1748 -0.0600
-7 2 6 -0.3674 -0.0273
-7 2 7 -0.2068 -0.0173
-7 2 8 0.1385 -0.0016
-7 2 9 -0.2959 0.0637
-7 2 10 -0.9706 0.0784
-7 2 11 -0.7786 -0.0631
-7 2 12 -0.4328 -0.1781
-7 2 13 -0.7359 -0.0516
-7 3 1 -0.0380 -0.0500
-7 3 2 -0.0590 -0.1774
-7 3 3 0.1821 -0.1699
-7 3 4 0.8037 -0.0493
-7 3 5 1.0283 0.0578
-7 3 6 0.7293 0.0734
-7 3 7 0.5194 0.0035
-7 3 8 0.0829 -0.0403
-7 3 9 -0.7984 0.0145
-7 3 10 -0.9282 0.0541
-7 3 11 -0.1728 -0.0328
-7 3 12 -0.2353 -0.1462
-7 4 1 -0.1612 0.0881
-7 4 2 -0.0577 -0.0324
-7 4 3 0.1644 0.0004
-7 4 4 0.4201 0.0959
-7 4 5 0.1145 0.1433
-7 4 6 -0.2715 0.1137
-7 4 7 0.2462 0.0529
-7 4 8 1.0847 0.0087
-7 4 9 0.8414 -0.0472
-7 4 10 -0.2661 -0.1013
-7 4 11 -0.4875 -0.0543
-7 4 12 0.8994 0.0737
-7 5 1 0.5610 -0.0142
-7 5 2 0.2192 -0.0151
-7 5 3 0.6246 0.0830
-7 5 4 0.8995 0.1638
-7 5 5 -0.0411 0.1615
-7 5 6 -0.9471 0.0775
-7 5 7 -0.6172 -0.0064
-7 5 8 -0.1757 -0.0256
-7 5 9 -0.6429 -0.0231
-7 5 10 -1.2407 -0.0668
-7 5 11 -1.2657 -0.1337
-7 6 1 -0.7411 0.0344
-7 6 2 -0.4975 0.1101
-7 6 3 0.0907 0.1222
-7 6 4 -0.1573 0.0950
-7 6 5 -0.9613 0.0857
-7 6 6 -0.4103 0.0467
-7 6 7 1.1876 -0.0073
-7 6 8 1.2799 -0.0184
-7 6 9 -0.6479 -0.0417
-7 6 10 -2.3403 -0.0873
-7 7 1 -0.8273 -0.0616
-7 7 2 0.7213 0.0288
-7 7 3 0.8799 0.0687
-7 7 4 -0.9217 0.0529
-7 7 5 -0.5427 0.0029
-7 7 6 2.1349 -0.0093
-7 7 7 2.3913 0.0516
-7 7 8 -0.1495 0.0554
-7 7 9 -1.5812 -0.0599
-7 7 11 -1.6010 0.1343
-7 8 1 1.0869 -0.2071
-7 8 2 -0.5159 -0.0824
-7 8 3 -0.9833 -0.0130
-7 8 4 1.1906 -0.0473
-7 8 5 3.0827 -0.0664
-7 8 6 1.8073 0.0030
-7 8 7 -0.0170 0.0415
-7 8 8 0.9736 0.0006
-7 8 9 2.9267 0.0501
-7 8 10 2.6892 0.2105
-7 9 1 -1.0642 -0.1448
-7 9 2 -0.4124 -0.0957
-7 9 3 0.3716 -0.1195
-7 9 4 0.0981 -0.0869
-7 9 5 -0.8676 -0.0041
-7 9 6 -1.2255 0.0073
-7 9 7 -0.4901 0.0128
-7 9 8 0.3492 0.1538
-7 10 1 -0.6849 -0.0948
-7 10 2 -0.9522 -0.1349
-7 10 3 0.2938 -0.0836
-7 10 4 1.0114 -0.0224
-7 10 5 -0.7068 -0.0287
-7 10 6 -2.4727 0.0609
-7 11 1 0.6453 -0.0360
-7 11 2 -0.5892 -0.0176
-7 11 3 1.3998 -0.0344
-7 11 4 4.9711 -0.0193
-6 -12 6 1.7974 -0.8441
-6 -12 7 -0.3889 -0.7701
-6 -12 8 -1.6966 -0.2311
-6 -11 3 -0.3012 0.1179
-6 -11 4 0.7857 0.1101
-6 -11 5 0.7885 0.1703
-6 -11 6 0.3449 0.2266
-6 -11 7 0.9824 0.0968
-6 -11 8 1.7417 -0.1448
-6 -11 9 0.9732 -0.2341
-6 -10 1 1.5165 -0.2034
-6 -10 2 -0.0750 -0.2488
-6 -10 3 -1.0964 0.0496
-6 -10 4 -0.6490 0.1403
-6 -10 5 0.2255 0.0132
-6 -10 6 0.5513 0.0374
-6 -10 7 0.6755 0.1622
-6 -10 8 1.3863 0.0665
-6 -10 9 2.4405 -0.1514
-6 -10 10 2.7056 -0.1714
-6 -9 1 -0.4825 0.0402
-6 -9 2 -1.2881 -0.1618
-6 -9 3 -0.5437 -0.3500
-6 -9 4 -0.1247 -0.3121
-6 -9 5 -0.3223 -0.1781
-6 -9 6 -0.1890 -0.0881
-6 -9 7 0.0053 0.0252
-6 -9 8 -0.3165 0.1715
-6 -9 9 -0.7914 0.1909
-6 -9 10 -0.7808 0.0444
-6 -9 11 -0.0441 -0.0266
-6 -8 1 1.2717 -0.1879
-6 -8 2 0.6002 -0.0631
-6 -8 3 -0.1401 -0.0613
-6 -8 4 0.0172 -0.1536
-6 -8 5 0.0000 -0.1148
-6 -8 6 -0.4368 0.0005
-6 -8 7 0.0847 -0.0197
-6 -8 8 1.0081 -0.0587
-6 -8 9 0.5084 0.0841
-6 -8 10 -0.3771 0.2106
-6 -8 11 0.1970 0.0722
-6 -8 12 0.9407 -0.1394
-6 -7 1 -0.5309 -0.0086
-6 -7 2 -0.2852 -0.0367
-6 -7 3 -0.0941 -0.0626
-6 -7 4 -0.2209 -0.0663
-6 -7 5 -0.0456 -0.0317
-6 -7 6 0.4867 0.0061
-6 -7 7 0.3182 -0.0308
-6 -7 8 -0.8305 -0.1153
-6 -7 9 -1.0514 -0.1144
-6 -7 10 0.9830 -0.0033
-6 -7 11 3.0109 0.0517
-6 -7 12 2.2392 -0.0777
-6 -7 13 -0.1656 -0.2555
-6 -6 1 -0.1337 0.0940
-6 -6 2 0.1489 0.0689
-6 -6 3 0.2602 0.0024
-6 -6 4 0.0218 -0.0190
-6 -6 5 0.0148 0.0033
-6 -6 6 0.7099 -0.0527
-6 -6 7 1.1599 -0.1400
-6 -6 8 0.5246 -0.1264
-6 -6 9 -0.0496 -0.0797
-6 -6 10 0.2763 -0.0809
-6 -6 11 0.1439 -0.0366
-6 -6 12 -1.1249 0.0544
-6 -6 13 -1.9868 0.0470
-6 -5 1 0.2449 0.1040
-6 -5 2 -0.0963 0.0468
-6 -5 3 -0.8229 0.0187
-6 -5 4 -1.1429 0.0484
-6 -5 5 -0.5365 0.0524
-6 -5 6 0.0737 0.0175
-6 -5 7 -0.1064 0.0070
-6 -5 8 -0.4432 -0.0033
-6 -5 9 -0.4623 -0.0537
-6 -5 10 -0.5610 -0.0556
-6 -5 11 -0.4450 0.0520
-6 -5 12 0.4022 0.1398
-6 -5 13 0.9276 0.1091
-6 -5 14 0.0450 0.0762
-6 -4 1 -0.4902 0.1765
-6 -4 2 -0.2980 0.0575
-6 -4 3 0.2747 0.0673
-6 -4 4 0.3606 0.1256
-6 -4 5 0.1295 0.0867
-6 -4 6 0.1309 0.0116
-6 -4 7 0.1108 0.0177
-6 -4 8 0.0549 0.0702
-6 -4 9 0.4955 0.0804
-6 -4 10 0.7855 0.0625
-6 -4 11 -0.2651 0.0686
-6 -4 12 -1.5368 0.0696
-6 -4 13 -0.7640 0.0447
-6 -4 14 1.3661 0.0565
-6 -3 1 0.8529 -0.0164
-6 -3 2 0.1644 0.0241
-6 -3 3 -0.0608 0.0850
-6 -3 4 0.0967 0.1124
-6 -3 5 0.2011 0.1102
-6 -3 6 -0.1737 0.0772
-6 -3 7 -1.1721 0.0229
-6 -3 8 -1.6500 -0.0239
-6 -3 9 -0.7214 -0.0198
-6 -3 10 -0.0282 0.0496
-6 -3 11 -0.7604 0.0662
-6 -3 12 -0.5089 -0.0551
-6 -3 13 2.1746 -0.1320
-6 -3 14 3.9097 -0.0402
-6 -2 1 -1.5218 0.0288
-6 -2 2 -1.3885 0.1325
-6 -2 3 -0.6132 0.1626
-6 -2 4 0.2926 0.0993
-6 -2 5 1.1120 0.0497
-6 -2 6 0.8495 0.0625
-6 -2 7 -0.2822 0.0439
-6 -2 8 -0.1549 -0.0530
-6 -2 9 1.3647 -0.0812
-6 -2 10 1.8420 0.0053
-6 -2 11 0.8266 -0.0062
-6 -2 12 0.1398 -0.1330
-6 -2 13 0.1206 -0.1315
-6 -2 14 -0.0091 -0.0424
-6 -2 15 -0.0699 -0.0701
-6 -1 1 0.8711 -0.3049
-6 -1 2 0.0182 -0.1215
-6 -1 3 -1.2437 -0.0069
-6 -1 4 -0.9158 -0.0471
-6 -1 5 0.3798 -0.0763
-6 -1 6 0.5694 0.0068
-6 -1 7 0.0399 0.0778
-6 -1 8 0.1472 0.0503
-6 -1 9 0.4567 0.0316
-6 -1 10 0.2902 0.0384
-6 -1 11 -0.1120 -0.0256
-6 -1 12 -0.7982 -0.0847
-6 -1 13 -1.5620 -0.0488
-6 -1 14 -1.3552 -0.0262
-6 -1 15 -0.2662 -0.0671
-6 0 1 -0.1238 -0.1849
-6 0 2 -0.3032 -0.1922
-6 0 3 0.0655 -0.2579
-6 0 4 0.3066 -0.2465
-6 0 5 -0.2650 -0.1277
-6 0 6 -0.5727 -0.0343
-6 0 7 0.4972 0.0013
-6 0 8 1.7477 0.0721
-6 0 9 1.8502 0.0955
-6 0 10 1.6620 -0.0466
-6 0 11 1.8565 -0.1509
-6 0 12 1.3248 -0.0618
-6 0 13 -0.2407 -0.0144
-6 0 14 -1.3821 -0.0961
-6 0 15 -1.3163 -0.0580
-6 1 1 0.3673 -0.1661
-6 1 2 -0.0439 -0.1878
-6 1 3 -0.1740 -0.1935
-6 1 4 -0.4128 -0.1269
-6 1 5 -0.5065 -0.0632
-6 1 6 -0.0932 -0.0233
-6 1 7 0.1438 0.0719
-6 1 8 -0.2319 0.1479
-6 1 9 -0.3986 0.0192
-6 1 10 -0.1068 -0.1689
-6 1 11 -0.1644 -0.1034
-6 1 12 -0.4542 0.0727
-6 1 13 -0.2387 0.0197
-6 1 14 0.1043 -0.1354
-6 2 1 -0.2668 0.1098
-6 2 2 -0.0193 0.0009
-6 2 3 -0.2605 -0.1376
-6 2 4 -0.7099 -0.1323
-6 2 5 -0.5880 -0.0460
-6 2 6 -0.1695 0.0106
-6 2 7 -0.0572 0.0410
-6 2 8 0.1088 0.0395
-6 2 9 0.4151 -0.0146
-6 2 10 0.0802 -0.0668
-6 2 11 -0.6115 -0.0748
-6 2 12 -0.4602 -0.0354
-6 2 13 0.2853 0.0627
-6 3 1 0.2966 0.3629
-6 3 2 0.4641 0.2326
-6 3 3 -0.0194 0.0744
-6 3 4 -0.3530 0.0232
-6 3 5 -0.2163 0.0278
-6 3 6 -0.1899 0.0280
-6 3 7 -0.0952 -0.0274
-6 3 8 0.6332 -0.1250
-6 3 9 1.2622 -0.0987
-6 3 10 1.0825 0.0662
-6 3 11 0.8100 0.0911
-6 3 12 0.7010 -0.1070
-6 4 1 0.9146 0.5221
-6 4 2 0.8278 0.4561
-6 4 3 0.2766 0.3179
-6 4 4 -0.3256 0.1829
-6 4 5 -0.6413 0.0862
-6 4 6 -0.6691 0.0088
-6 4 7 -0.2764 -0.1170
-6 4 8 0.6135 -0.1709
-6 4 9 1.2829 -0.0160
-6 4 10 0.4623 0.1205
-6 4 11 -2.0168 0.0154
-6 4 12 -4.0533 -0.1026
-6 5 1 0.6562 0.3201
-6 5 2 0.7307 0.2535
-6 5 3 -0.2808 0.2527
-6 5 4 -0.7347 0.1940
-6 5 5 -0.3198 0.0826
-6 5 6 -0.0432 -0.0259
-6 5 7 -0.0682 -0.1092
-6 5 8 -0.0280 -0.0987
-6 5 9 -0.0175 0.0151
-6 5 10 -0.0617 0.0806
-6 5 11 -0.1632 -0.0314
-6 6 1 0.7909 -0.0510
-6 6 2 -0.2313 -0.0126
-6 6 3 -0.6624 0.0699
-6 6 4 0.0315 0.0641
-6 6 5 0.5415 0.0768
-6 6 6 0.3625 0.0895
-6 6 7 0.1920 0.0099
-6 6 8 0.1553 -0.0470
-6 6 9 -0.0044 0.0102
-6 6 10 -0.1071 0.0255
-6 6 12 -0.1775 -0.0856
-6 7 1 0.0723 -0.2273
-6 7 2 -0.1258 -0.1748
-6 7 3 0.6962 -0.0979
-6 7 4 0.1849 -0.0012
-6 7 5 -1.5219 0.0828
-6 7 6 -1.1556 0.0856
-6 7 7 1.0435 0.0557
-6 7 8 1.6102 0.0199
-6 7 9 0.4056 -0.0968
-6 7 10 -0.1986 -0.2063
-6 7 11 -0.2719 -0.0974
-6 8 1 0.1383 -0.4342
-6 8 2 0.1705 -0.3555
-6 8 3 -0.3832 -0.1867
-6 8 4 -0.0284 -0.0401
-6 8 5 1.8394 0.0274
-6 8 6 2.7994 0.0639
-6 8 7 1.0196 0.0764
-6 8 8 -1.4470 -0.0160
-6 8 9 -1.9726 -0.1366
-6 8 10 -0.9353 -0.0542
-6 9 1 0.4211 -0.3624
-6 9 2 -1.2776 -0.2471
-6 9 3 -2.4494 -0.1582
-6 9 4 -1.8250 -0.0853
-6 9 5 -0.1375 0.0105
-6 9 6 0.5296 0.0538
-6 9 7 -0.3309 0.0168
-6 9 8 -0.7860 0.0085
-6 9 9 0.0547 0.0798
-6 10 1 -0.0646 -0.0179
-6 10 2 0.6968 -0.0301
-6 10 3 0.5175 -0.0312
-6 10 4 0.5004 0.0468
-6 10 5 0.3041 0.0422
-6 10 6 -1.1178 -0.0159
-6 10 7 -2.0838 0.0652
-6 11 1 1.6005 0.1398
-6 11 2 1.0396 0.1734
-6 11 3 -0.9062 0.1312
-6 11 4 -1.1475 0.0465
-6 11 5 0.8035 0.0415
-6 12 1 1.0547 0.1073
-5 -12 5 -0.2109 0.2152
-5 -12 6 1.0032 0.2297
-5 -12 7 1.7333 -0.0256
-5 -12 8 1.1059 -0.0369
-5 -12 9 0.1457 0.3720
-5 -11 3 0.2720 -0.0449
-5 -11 4 -0.3956 0.0414
-5 -11 5 -0.7600 0.0467
-5 -11 6 -1.5188 0.0577
-5 -11 7 -1.6397 0.0646
-5 -11 8 -0.0916 -0.0328
-5 -11 9 1.2964 -0.1608
-5 -11 10 0.5842 -0.2681
-5 -10 1 -1.3822 0.0935
-5 -10 2 -0.3449 -0.1040
-5 -10 3 0.2928 -0.2870
-5 -10 4 0.8242 -0.2348
-5 -10 5 1.1462 -0.1044
-5 -10 6 1.0000 -0.0087
-5 -10 7 0.3950 0.0912
-5 -10 8 -0.5329 0.1188
-5 -10 9 -1.3637 0.0104
-5 -10 10 -1.6830 -0.0096
-5 -10 11 -1.5409 0.2044
-5 -9 1 0.3563 -0.2095
-5 -9 2 -0.0487 -0.0521
-5 -9 3 -0.5319 -0.0733
-5 -9 4 -0.9209 -0.2262
-5 -9 5 -1.2907 -0.2358
-5 -9 6 -0.8675 -0.0618
-5 -9 7 0.3565 0.0845
-5 -9 8 0.9369 0.1086
-5 -9 9 0.2071 0.0859
-5 -9 10 -0.6972 0.0641
-5 -9 11 -0.5251 0.0452
-5 -9 12 0.4918 0.0599
-5 -8 1 0.0865 0.0396
-5 -8 2 0.4263 0.0406
-5 -8 3 0.5402 0.0183
-5 -8 4 0.4353 -0.0291
-5 -8 5 0.2712 -0.0985
-5 -8 6 -0.3242 -0.0956
-5 -8 7 -0.6114 -0.0176
-5 -8 8 0.3483 -0.0164
-5 -8 9 1.0025 -0.1306
-5 -8 10 -0.2179 -0.1898
-5 -8 11 -1.6530 -0.1064
-5 -8 12 -1.8832 -0.0424
-5 -8 13 -2.3873 -0.1438
-5 -7 1 0.4357 0.1664
-5 -7 2 -0.2020 0.0558
-5 -7 3 -0.1617 -0.0080
-5 -7 4 -0.2218 0.0039
-5 -7 5 -0.7503 -0.0355
-5 -7 6 -0.8177 -0.0913
-5 -7 7 -0.1148 -0.0644
-5 -7 8 0.1023 -0.0164
-5 -7 9 -0.7053 -0.0333
-5 -7 10 -1.0218 -0.0675
-5 -7 11 0.0440 -0.0452
-5 -7 12 1.0275 0.0166
-5 -7 13 0.8049 0.0376
-5 -6 1 0.3412 0.2531
-5 -6 2 0.0633 0.1452
-5 -6 3 -0.1519 0.0083
-5 -6 4 -0.1572 -0.1040
-5 -6 5 -0.5870 -0.1253
-5 -6 6 -1.0705 -0.0878
-5 -6 7 -0.7951 -0.0836
-5 -6 8 -0.3918 -0.0612
-5 -6 9 -0.4595 0.0493
-5 -6 10 -0.4068 0.1291
-5 -6 11 -0.6578 0.0846
-5 -6 12 -2.1161 0.0442
-5 -6 13 -3.0947 0.0991
-5 -6 14 -1.6223 0.1270
-5 -5 1 -0.0474 0.2168
-5 -5 2 0.0295 0.2135
-5 -5 3 0.3268 0.1498
-5 -5 4 0.2618 0.0842
-5 -5 5 0.2873 0.0430
-5 -5 6 0.8470 0.0091
-5 -5 7 0.7985 -0.0358
-5 -5 8 -0.2986 -0.0653
-5 -5 9 -0.7645 -0.0207
-5 -5 10 -0.0471 0.0706
-5 -5 11 0.2699 0.0806
-5 -5 12 -0.0539 -0.0015
-5 -5 13 0.3223 -0.0264
-5 -5 14 1.1309 0.0567
-5 -4 1 -0.2155 0.1711
-5 -4 2 -1.0482 0.2264
-5 -4 3 -1.4352 0.2412
-5 -4 4 -0.7525 0.1914
-5 -4 5 0.1980 0.1377
-5 -4 6 0.4601 0.0972
-5 -4 7 0.2734 0.0387
-5 -4 8 0.0747 -0.0113
-5 -4 9 -0.1554 -0.0052
-5 -4 10 -0.0310 0.0093
-5 -4 11 0.5999 -0.0208
-5 -4 12 0.3827 -0.0565
-5 -4 13 -1.6061 -0.0700
-5 -4 14 -3.5556 -0.0534
-5 -3 1 -0.4970 -0.1767
-5 -3 2 -0.3065 -0.1766
-5 -3 3 -0.8070 0.0178
-5 -3 4 -0.9006 0.1235
-5 -3 5 -0.6485 0.1082
-5 -3 6 -0.4677 0.0477
-5 -3 7 -0.4369 -0.0037
-5 -3 8 -0.6798 0.0253
-5 -3 9 -0.8223 0.0565
-5 -3 10 0.0042 -0.0295
-5 -3 11 1.4071 -0.0955
-5 -3 12 1.7563 -0.0482
-5 -3 13 0.6609 -0.0573
-5 -3 14 -0.5395 -0.1162
-5 -3 15 -0.8203 -0.0615
-5 -2 1 -0.8129 -0.5866
-5 -2 2 -1.3985 -0.4219
-5 -2 3 -1.2519 -0.1534
-5 -2 4 -1.3111 -0.0042
-5 -2 5 -1.6701 0.0260
-5 -2 6 -1.4828 -0.0108
-5 -2 7 -1.0259 -0.0216
-5 -2 8 -1.0236 0.0344
-5 -2 9 -1.1029 0.0242
-5 -2 10 -0.6543 -0.0608
-5 -2 11 0.3913 -0.0502
-5 -2 12 1.7470 0.0087
-5 -2 13 2.2999 -0.0339
-5 -2 14 1.1028 -0.0918
-5 -2 15 -0.5074 -0.0849
-5 -1 1 -0.1559 -0.5129
-5 -1 2 1.1109 -0.4482
-5 -1 3 1.4545 -0.2055
-5 -1 4 0.7045 0.0178
-5 -1 5 0.4093 0.0757
-5 -1 6 0.6794 0.0481
-5 -1 7 0.4136 0.0943
-5 -1 8 -0.0115 0.1039
-5 -1 9 0.2354 -0.0352
-5 -1 10 0.5113 -0.1013
-5 -1 11 0.3065 0.0025
-5 -1 12 0.3256 0.0489
-5 -1 13 0.7447 -0.0076
-5 -1 14 0.9080 -0.0300
-5 -1 15 0.8079 -0.0371
-5 0 1 -1.2739 -0.3836
-5 0 2 -0.9062 -0.2014
-5 0 3 -0.5786 -0.0802
-5 0 4 -0.0980 -0.0904
-5 0 5 0.0134 -0.0882
-5 0 6 -0.9680 0.0708
-5 0 7 -2.2006 0.1644
-5 0 8 -2.2587 -0.0447
-5 0 9 -1.4095 -0.2254
-5 0 10 -0.6415 -0.0572
-5 0 11 0.0941 0.1245
-5 0 12 0.6328 0.0286
-5 0 13 -0.1002 -0.0925
-5 0 14 -1.9019 -0.0747
-5 0 15 -2.8207 -0.0507
-5 1 1 0.4071 0.0382
-5 1 2 -0.1618 0.1815
-5 1 3 -0.7488 0.0949
-5 1 4 -0.5655 -0.0236
-5 1 5 -0.2559 -0.0394
-5 1 6 -0.4335 0.0207
-5 1 7 -0.5185 0.0084
-5 1 8 -0.1995 -0.1142
-5 1 9 0.0891 -0.1570
-5 1 10 0.2207 -0.0218
-5 1 11 0.2070 0.1317
-5 1 12 -0.0552 0.1281
-5 1 13 -0.1694 -0.0361
-5 1 14 0.1907 -0.1942
-5 2 1 0.3766 0.2017
-5 2 2 -0.2508 0.2752
-5 2 3 -0.6013 0.1582
-5 2 4 -0.6198 0.0065
-5 2 5 -0.3216 -0.0498
-5 2 6 0.2555 -0.0399
-5 2 7 0.5864 -0.0321
-5 2 8 0.4494 -0.0164
-5 2 9 0.5576 0.0180
-5 2 10 1.1114 0.0489
-5 2 11 1.1576 0.0444
-5 2 12 0.2957 -0.0332
-5 2 13 -0.7056 -0.0942
-5 3 1 0.5002 0.4326
-5 3 2 0.6830 0.3704
-5 3 3 0.3422 0.1320
-5 3 4 -0.2787 -0.0467
-5 3 5 -0.1753 -0.1297
-5 3 6 0.5881 -0.1718
-5 3 7 0.8772 -0.0864
-5 3 8 0.4059 0.0795
-5 3 9 -0.0251 0.0912
-5 3 10 0.2546 -0.0123
-5 3 11 1.4346 -0.0058
-5 3 12 2.8858 0.0270
-5 4 1 0.1462 0.2613
-5 4 2 -0.5089 0.2047
-5 4 3 -0.3526 0.1175
-5 4 4 0.1575 0.0204
-5 4 5 0.1390 -0.1307
-5 4 6 -0.4172 -0.1797
-5 4 7 -1.0313 -0.0348
-5 4 8 -1.4175 0.1010
-5 4 9 -1.1446 0.0811
-5 4 10 0.2000 -0.0191
-5 4 11 1.7288 -0.1102
-5 4 12 1.7151 -0.0990
-5 5 1 -0.5163 0.1897
-5 5 2 0.1559 -0.0235
-5 5 3 0.9338 -0.0291
-5 5 4 0.9648 0.0604
-5 5 5 0.1403 0.0349
-5 5 6 -0.9960 -0.0451
-5 5 7 -1.3227 -0.0475
-5 5 8 -0.2426 0.0380
-5 5 9 1.1809 0.1023
-5 5 10 1.8228 0.0348
-5 5 11 2.1040 -0.0887
-5 5 12 2.2941 -0.1184
-5 6 1 0.0932 -0.0896
-5 6 2 0.5007 -0.2176
-5 6 3 -0.2312 -0.0640
-5 6 4 -0.7682 0.0790
-5 6 5 -0.3828 0.1001
-5 6 6 0.3241 0.1013
-5 6 7 0.7355 0.0550
-5 6 8 0.5844 -0.0305
-5 6 9 -0.0422 -0.0387
-5 6 10 -0.4524 -0.0263
-5 6 11 -0.2158 -0.1129
-5 7 1 0.0479 -0.2213
-5 7 2 -0.1338 -0.1492
-5 7 3 -0.2245 -0.0512
-5 7 4 -0.1969 0.0281
-5 7 5 -1.0794 0.1160
-5 7 6 -2.3483 0.0876
-5 7 7 -1.9829 -0.0588
-5 7 8 -0.1573 -0.1217
-5 7 9 0.9720 -0.1043
-5 7 10 0.9358 -0.1721
-5 8 1 -0.0358 -0.1751
-5 8 2 0.3139 -0.1094
-5 8 3 -0.1368 -0.0248
-5 8 4 -0.8663 0.0601
-5 8 5 -0.5440 0.1132
-5 8 6 0.6066 0.0578
-5 8 7 0.8675 -0.0836
-5 8 8 -0.0215 -0.1954
-5 8 9 -0.4390 -0.1847
-5 8 10 0.1464 -0.0482
-5 9 1 -0.3754 -0.1041
-5 9 2 0.6106 -0.0213
-5 9 3 0.5109 0.0109
-5 9 4 -0.5268 0.0058
-5 9 5 -0.4206 0.0403
-5 9 6 1.6692 0.0221
-5 9 7 2.8317 -0.1306
-5 9 8 0.7821 -0.2344
-5 9 9 -1.7749 -0.0972
-5 10 1 -0.1513 0.1244
-5 10 2 0.0253 0.1636
-5 10 3 0.6515 0.0296
-5 10 4 0.8216 -0.0409
-5 10 5 0.6605 -0.0362
-5 10 6 -0.1743 -0.1170
-5 10 7 -1.6867 -0.1285
-5 10 8 -2.1274 0.0731
-5 11 1 -1.8695 0.1926
-5 11 2 -1.1592 0.2175
-5 11 3 -1.5282 0.1693
-5 11 4 -2.7004 0.0625
-5 11 5 -2.8781 -0.0845
-5 11 6 -1.3990 -0.0756
-5 12 1 1.5067 0.1498
-5 12 2 0.6628 0.0276
-4 -13 4 1.5523 0.2776
-4 -13 5 1.1857 -0.5839
-4 -13 6 -0.0528 -1.1184
-4 -13 7 -1.5097 -0.5132
-4 -13 8 -2.4539 0.4706
-4 -13 9 -1.9280 0.5716
-4 -12 2 -1.3018 -0.1428
-4 -12 3 -1.6262 0.1615
-4 -12 4 -1.4892 0.3246
-4 -12 5 -1.2630 0.3112
-4 -12 6 -0.7082 0.2201
-4 -12 7 -0.0939 0.1018
-4 -12 8 -0.0726 0.0185
-4 -12 9 -0.5908 -0.0654
-4 -12 10 -1.0674 -0.1294
-4 -11 1 0.3054 -0.0068
-4 -11 2 1.1393 -0.0823
-4 -11 3 1.2813 -0.1685
-4 -11 4 0.7146 -0.1329
-4 -11 5 0.8162 -0.0238
-4 -11 6 0.9629 0.0066
-4 -11 7 -0.0162 -0.0159
-4 -11 8 -0.7840 -0.0415
-4 -11 9 0.0418 -0.0705
-4 -11 10 1.1939 -0.0533
-4 -11 11 1.2042 -0.0639
-4 -10 1 0.9270 -0.0376
-4 -10 2 0.8438 0.0414
-4 -10 3 0.1769 -0.0030
-4 -10 4 -0.2314 -0.0781
-4 -10 5 -0.1631 -0.0738
-4 -10 6 -0.3473 -0.0413
-4 -10 7 -0.8273 -0.0120
-4 -10 8 -0.9591 0.0547
-4 -10 9 -0.5727 0.1274
-4 -10 10 -0.0622 0.1194
-4 -10 11 0.0663 0.1035
-4 -10 12 -0.2210 0.2669
-4 -9 1 0.5765 0.0784
-4 -9 2 0.5442 0.0939
-4 -9 3 0.6252 0.1373
-4 -9 4 1.2555 0.1122
-4 -9 5 1.4666 -0.0037
-4 -9 6 0.7693 -0.0501
-4 -9 7 0.2584 -0.0170
-4 -9 8 0.3992 -0.0400
-4 -9 9 -0.0181 -0.0767
-4 -9 10 -1.6107 -0.0410
-4 -9 11 -2.8116 -0.0420
-4 -9 12 -1.9267 -0.1110
-4 -8 1 0.1022 0.0041
-4 -8 2 0.2503 0.1006
-4 -8 3 0.3163 0.0589
-4 -8 4 0.4175 -0.0011
-4 -8 5 0.8662 0.0195
-4 -8 6 1.2191 0.0450
-4 -8 7 0.5070 -0.0106
-4 -8 8 -0.5692 -0.1082
-4 -8 9 -0.5516 -0.1508
-4 -8 10 0.0853 -0.1032
-4 -8 11 0.6220 -0.0249
-4 -8 12 2.1218 -0.0044
-4 -8 13 4.4468 -0.0733
-4 -7 1 0.3075 0.1646
-4 -7 2 0.1444 0.1208
-4 -7 3 -0.0771 -0.0781
-4 -7 4 -0.1939 -0.1555
-4 -7 5 -0.2077 -0.0637
-4 -7 6 0.0661 0.0497
-4 -7 7 0.6860 0.1213
-4 -7 8 0.8168 0.1259
-4 -7 9 -0.3474 0.0369
-4 -7 10 -1.5916 -0.0387
-4 -7 11 -0.9918 0.0214
-4 -7 12 0.5697 0.1271
-4 -7 13 0.6340 0.1251
-4 -6 1 -0.4329 0.1512
-4 -6 2 0.2649 0.0759
-4 -6 3 0.3462 -0.0239
-4 -6 4 0.2279 -0.1031
-4 -6 5 0.1625 -0.1592
-4 -6 6 -0.4282 -0.1242
-4 -6 7 -0.9151 0.0168
-4 -6 8 -0.4840 0.1513
-4 -6 9 -0.0102 0.1481
-4 -6 10 0.2201 0.0124
-4 -6 11 1.2156 -0.0864
-4 -6 12 2.0208 -0.0367
-4 -6 13 0.6950 0.0442
-4 -6 14 -1.4561 0.0313
-4 -5 1 -0.3349 0.2055
-4 -5 2 -0.2269 0.0934
-4 -5 3 -0.1383 0.0192
-4 -5 4 -0.2688 0.0200
-4 -5 5 -0.5423 -0.0181
-4 -5 6 0.1273 -0.1026
-4 -5 7 1.6357 -0.0953
-4 -5 8 2.0011 0.0144
-4 -5 9 0.8593 0.0454
-4 -5 10 -0.0091 -0.0467
-4 -5 11 -0.2247 -0.0936
-4 -5 12 -0.4772 -0.0405
-4 -5 13 0.0605 -0.0063
-4 -5 14 1.6255 -0.0310
-4 -4 1 -0.1567 0.0099
-4 -4 2 0.4792 -0.1028
-4 -4 3 0.2730 -0.0154
-4 -4 4 -0.7757 0.1142
-4 -4 5 -1.0046 0.1118
-4 -4 6 -0.2425 0.0330
-4 -4 7 -0.0234 -0.0380
-4 -4 8 -0.3429 -0.0978
-4 -4 9 0.0102 -0.0972
-4 -4 10 0.3822 -0.0205
-4 -4 11 -0.4295 0.0116
-4 -4 12 -0.9891 -0.0204
-4 -4 13 0.6069 -0.0107
-4 -4 14 2.8899 -0.0156
-4 -3 1 0.9815 0.1221
-4 -3 2 1.1742 -0.1997
-4 -3 3 0.6262 -0.2383
-4 -3 4 -0.3909 -0.0641
-4 -3 5 -0.6432 0.0614
-4 -3 6 0.2159 0.1422
-4 -3 7 1.1346 0.1165
-4 -3 8 1.3172 -0.0681
-4 -3 9 1.0773 -0.1318
-4 -3 10 0.7177 0.0277
-4 -3 11 0.0986 0.1047
-4 -3 12 -0.3147 0.0347
-4 -3 13 0.2788 0.0089
-4 -3 14 1.3313 -0.0139
-4 -3 15 1.4167 -0.0745
-4 -2 1 3.4760 -0.3391
-4 -2 2 3.2851 -0.3374
-4 -2 3 2.9493 -0.1364
-4 -2 4 3.2265 -0.0075
-4 -2 5 3.1126 0.0280
-4 -2 6 1.9397 0.0643
-4 -2 7 0.6881 0.0306
-4 -2 8 0.3166 -0.0149
-4 -2 9 0.3264 0.0498
-4 -2 10 -0.3111 0.0814
-4 -2 11 -1.4731 0.0135
-4 -2 12 -1.7426 0.0205
-4 -2 13 -0.3465 0.0700
-4 -2 14 1.3738 0.0242
-4 -2 15 1.6625 -0.0053
-4 -1 1 -0.4168 -0.0430
-4 -1 2 -1.6114 0.1137
-4 -1 3 -2.1658 0.1455
-4 -1 4 -2.2188 0.1524
-4 -1 5 -2.1742 0.2224
-4 -1 6 -1.6945 0.0474
-4 -1 7 -0.8608 -0.2623
-4 -1 8 -0.4418 -0.1701
-4 -1 9 -0.4159 0.1337
-4 -1 10 -0.1352 0.0900
-4 -1 11 0.1600 -0.0877
-4 -1 12 -0.2174 -0.0158
-4 -1 13 -0.8577 0.0907
-4 -1 14 -0.7073 0.0761
-4 -1 15 0.1561 0.0944
-4 0 1 -1.5319 0.1998
-4 0 2 -0.5739 0.2510
-4 0 3 1.1441 0.2417
-4 0 4 2.2103 0.2573
-4 0 5 2.4892 0.2032
-4 0 6 2.3749 -0.1231
-4 0 7 1.9377 -0.3140
-4 0 8 1.3996 -0.0575
-4 0 9 0.9851 0.1506
-4 0 10 0.4909 0.0240
-4 0 11 0.1152 -0.0529
-4 0 12 0.6088 0.0163
-4 0 13 1.7774 -0.0380
-4 0 14 2.3040 -0.1369
-4 0 15 1.5492 -0.0639
-4 1 1 -1.2138 -0.1881
-4 1 2 0.7149 0.1302
-4 1 3 1.6458 0.1830
-4 1 4 1.1122 0.0521
-4 1 5 0.4236 -0.0638
-4 1 6 0.1709 -0.1460
-4 1 7 -0.1667 -0.0922
-4 1 8 -0.6760 0.0689
-4 1 9 -0.8227 0.1099
-4 1 10 -0.4432 0.0101
-4 1 11 -0.1488 -0.0310
-4 1 12 -0.5119 0.0654
-4 1 13 -0.9422 0.1346
-4 1 14 -0.4407 -0.0352
-4 2 1 0.2919 -0.2137
-4 2 2 0.5520 -0.1160
-4 2 3 0.7439 -0.0635
-4 2 4 0.6623 -0.1066
-4 2 5 0.1835 -0.1590
-4 2 6 -0.2871 -0.0098
-4 2 7 -0.3549 0.1855
-4 2 8 -0.1702 0.1010
-4 2 9 0.0967 -0.0983
-4 2 10 0.4295 -0.0813
-4 2 11 0.5416 0.0373
-4 2 12 0.3096 0.0169
-4 2 13 0.1218 -0.0740
-4 3 1 -1.3614 -0.2680
-4 3 2 -1.2283 -0.2271
-4 3 3 -0.5491 -0.2547
-4 3 4 0.0011 -0.3144
-4 3 5 0.0596 -0.2072
-4 3 6 -0.3703 0.1144
-4 3 7 -0.9022 0.2544
-4 3 8 -0.9841 0.0264
-4 3 9 -0.6494 -0.1695
-4 3 10 -0.6361 -0.0449
-4 3 11 -1.0905 0.1628
-4 3 12 -1.1063 0.1772
-4 3 13 -0.3854 0.0306
-4 4 1 0.2886 -0.2204
-4 4 2 0.5032 -0.2409
-4 4 3 0.1736 -0.2849
-4 4 4 0.3012 -0.2011
-4 4 5 0.9748 -0.0606
-4 4 6 1.3895 0.0652
-4 4 7 1.3204 0.1222
-4 4 8 1.0293 0.0134
-4 4 9 0.4323 -0.1405
-4 4 10 -0.3756 -0.0693
-4 4 11 -0.7049 0.0984
-4 4 12 -0.4029 0.0265
-4 5 1 0.0892 0.0925
-4 5 2 -0.1624 -0.0047
-4 5 3 -0.5409 -0.0798
-4 5 4 -0.6688 -0.0317
-4 5 5 -0.1342 -0.0021
-4 5 6 0.3138 0.0002
-4 5 7 -0.2235 0.0242
-4 5 8 -0.9266 0.0132
-4 5 9 -0.6843 -0.0047
-4 5 10 -0.2859 0.0412
-4 5 11 -0.7559 0.0731
-4 6 1 -0.1243 0.4626
-4 6 2 0.0289 0.2337
-4 6 3 0.3735 0.1537
-4 6 4 -0.1649 0.1370
-4 6 5 -1.2135 -0.0139
-4 6 6 -1.3918 -0.1334
-4 6 7 -0.4332 -0.0685
-4 6 8 0.3488 0.0237
-4 6 9 0.1606 0.0334
-4 6 10 -0.0811 0.0247
-4 7 1 0.0737 0.2313
-4 7 2 0.3491 0.2334
-4 7 3 0.6673 0.3138
-4 7 4 0.5018 0.1520
-4 7 5 -0.0819 -0.0950
-4 7 6 -0.8202 -0.1877
-4 7 7 -1.2915 -0.1312
-4 7 8 -0.9715 0.0244
-4 7 9 -0.2278 0.1099
-4 7 10 -0.0956 -0.0933
-4 8 1 -0.6867 0.1688
-4 8 2 -0.2055 0.1730
-4 8 3 0.3345 0.2396
-4 8 4 -0.0361 0.1647
-4 8 5 -0.5917 -0.0174
-4 8 6 -0.0407 -0.1449
-4 8 7 1.0569 -0.0938
-4 8 8 0.9274 0.0272
-4 8 9 -0.5401 -0.0303
-4 9 1 0.6495 0.0246
-4 9 2 0.3302 0.0235
-4 9 3 0.3677 0.0606
-4 9 4 0.2908 0.0152
-4 9 5 -0.6897 -0.0435
-4 9 6 -1.0042 -0.0362
-4 9 7 1.4134 -0.0528
-4 9 8 4.2820 -0.1541
-4 9 9 3.6805 -0.2034
-4 10 1 0.1489 -0.1746
-4 10 2 0.0334 -0.0731
-4 10 3 -0.0452 -0.1044
-4 10 4 0.3185 -0.1940
-4 10 5 1.3768 -0.0846
-4 10 6 2.5989 0.0667
-4 10 7 2.5614 -0.0263
-4 11 1 -0.6158 -0.1333
-4 11 2 -0.5118 -0.0292
-4 11 3 0.3137 -0.0649
-4 11 4 0.9671 -0.0689
-4 11 5 0.7940 0.0055
-4 12 1 -0.9844 -0.0221
-4 12 2 1.6951 -0.1102
-3 -13 2 1.2312 0.3389
-3 -13 3 -0.0695 -0.0069
-3 -13 4 -0.2724 -0.1216
-3 -13 5 0.5440 -0.0053
-3 -13 6 1.3595 0.0768
-3 -13 7 1.4474 0.0358
-3 -13 8 0.2634 0.1156
-3 -13 9 -1.5550 0.4402
-3 -13 10 -2.0728 0.6105
-3 -12 1 -0.8185 0.0855
-3 -12 2 -0.7612 0.1247
-3 -12 3 -0.5573 0.2131
-3 -12 4 -0.5877 0.1921
-3 -12 5 -1.1118 0.0692
-3 -12 6 -1.3779 0.0234
-3 -12 7 -0.8212 -0.0018
-3 -12 8 0.0263 -0.0813
-3 -12 9 0.5744 -0.1526
-3 -12 10 0.6000 -0.2895
-3 -11 1 -0.3079 0.0566
-3 -11 2 -0.7049 0.0501
-3 -11 3 0.2586 0.1161
-3 -11 4 0.4021 0.0629
-3 -11 5 -0.5340 -0.0523
-3 -11 6 -1.0449 -0.1020
-3 -11 7 -1.1514 -0.0109
-3 -11 8 -1.2386 0.1530
-3 -11 9 -0.5428 0.1494
-3 -11 10 0.6639 0.0014
-3 -11 11 0.9087 0.0321
-3 -10 1 -0.5208 0.0883
-3 -10 2 -0.3060 0.1614
-3 -10 3 -0.4682 0.2124
-3 -10 4 -0.9119 0.1512
-3 -10 5 -0.6643 0.0421
-3 -10 6 0.1750 -0.0682
-3 -10 7 0.5308 -0.0759
-3 -10 8 0.0195 0.0448
-3 -10 9 -0.6654 0.0942
-3 -10 10 -0.5229 0.0127
-3 -10 11 0.4769 0.0017
-3 -10 12 0.9860 0.1009
-3 -9 1 0.0627 0.0205
-3 -9 2 0.5358 0.1329
-3 -9 3 0.0135 0.1860
-3 -9 4 -0.4581 0.2129
-3 -9 5 -0.0943 0.1466
-3 -9 6 0.0679 -0.0557
-3 -9 7 -0.4302 -0.1563
-3 -9 8 -0.2673 -0.0456
-3 -9 9 1.1102 0.0349
-3 -9 10 1.9929 -0.0425
-3 -9 11 0.8735 -0.1274
-3 -9 12 -0.9128 -0.1253
-3 -8 1 -1.2948 -0.2842
-3 -8 2 -1.0788 -0.1424
-3 -8 3 -0.5257 -0.0133
-3 -8 4 0.0337 0.0504
-3 -8 5 0.0442 0.1122
-3 -8 6 -0.0667 0.1399
-3 -8 7 0.1962 0.0814
-3 -8 8 0.4458 0.0034
-3 -8 9 0.6822 0.0041
-3 -8 10 1.1873 0.0632
-3 -8 11 1.1453 0.0808
-3 -8 12 -0.0003 0.0286
-3 -8 13 -1.0603 -0.0350
-3 -7 1 0.4606 -0.3810
-3 -7 2 0.0121 -0.2359
-3 -7 3 -0.1330 -0.1985
-3 -7 4 0.0102 -0.1818
-3 -7 5 -0.1840 -0.0229
-3 -7 6 -0.7483 0.1948
-3 -7 7 -0.9345 0.2242
-3 -7 8 -0.3070 0.0467
-3 -7 9 0.2062 -0.0707
-3 -7 10 -0.3357 0.0042
-3 -7 11 -0.6062 0.0902
-3 -7 12 0.9519 0.0638
-3 -7 13 2.4203 0.0426
-3 -6 1 0.0082 -0.1526
-3 -6 2 0.2503 -0.1452
-3 -6 3 0.5194 -0.2048
-3 -6 4 0.3146 -0.2070
-3 -6 5 0.4309 -0.1283
-3 -6 6 0.7749 0.0381
-3 -6 7 0.2386 0.1156
-3 -6 8 -0.6531 -0.0495
-3 -6 9 -0.6830 -0.1917
-3 -6 10 -0.1967 -0.0792
-3 -6 11 0.2365 0.0134
-3 -6 12 0.7469 -0.1027
-3 -6 13 0.8431 -0.1527
-3 -6 14 0.1863 -0.0248
-3 -5 1 0.0962 -0.0600
-3 -5 2 0.2081 -0.0472
-3 -5 3 0.4569 -0.1362
-3 -5 4 0.7931 -0.1793
-3 -5 5 0.3365 -0.1337
-3 -5 6 -0.7522 -0.0149
-3 -5 7 -0.8032 0.0513
-3 -5 8 -0.0607 -0.0213
-3 -5 9 -0.4209 -0.0990
-3 -5 10 -1.1673 -0.0396
-3 -5 11 -0.5479 0.0645
-3 -5 12 -0.2388 0.0434
-3 -5 13 -2.0687 -0.0647
-3 -5 14 -3.4702 -0.0851
-3 -4 1 -0.1818 0.1512
-3 -4 2 -0.7796 -0.0076
-3 -4 3 -0.4423 -0.0925
-3 -4 4 0.1816 -0.0432
-3 -4 5 0.0651 -0.0407
-3 -4 6 -0.2533 -0.1243
-3 -4 7 -0.1015 -0.1138
-3 -4 8 -0.3762 0.0087
-3 -4 9 -1.4843 0.0425
-3 -4 10 -1.8945 -0.0010
-3 -4 11 -0.9761 0.0569
-3 -4 12 -0.5882 0.1298
-3 -4 13 -1.8109 0.0701
-3 -4 14 -2.8616 -0.0029
-3 -3 1 -1.5788 0.5236
-3 -3 2 -1.3050 0.3341
-3 -3 3 -0.8554 0.0708
-3 -3 4 -0.2361 0.0457
-3 -3 5 -0.0935 0.0537
-3 -3 6 -0.3100 -0.1157
-3 -3 7 -0.1386 -0.1551
-3 -3 8 0.0157 0.0411
-3 -3 9 -0.6956 0.1219
-3 -3 10 -1.6960 0.0245
-3 -3 11 -1.9711 -0.0113
-3 -3 12 -1.6834 0.0439
-3 -3 13 -1.3061 0.1132
-3 -3 14 -0.8159 0.1508
-3 -2 1 -2.8184 0.6795
-3 -2 2 -2.3508 0.4119
-3 -2 3 -2.5145 0.3266
-3 -2 4 -3.3821 0.2314
-3 -2 5 -2.9738 0.0180
-3 -2 6 -0.9286 -0.0609
-3 -2 7 0.4194 0.0276
-3 -2 8 -0.0369 0.0513
-3 -2 9 -0.6281 0.0587
-3 -2 10 -0.3273 0.1073
-3 -2 11 -0.1737 0.0003
-3 -2 12 -0.5674 -0.1284
-3 -2 13 -0.5645 0.0289
-3 -2 14 -0.1889 0.2173
-3 -1 1 6.7565 0.0402
-3 -1 2 8.6668 0.1388
-3 -1 3 8.2933 0.4883
-3 -1 4 5.7583 0.1912
-3 -1 5 2.5762 -0.3221
-3 -1 6 0.5578 -0.1973
-3 -1 7 0.2973 0.0983
-3 -1 8 0.6852 -0.0089
-3 -1 9 0.2971 -0.0695
-3 -1 10 -0.8294 0.0848
-3 -1 11 -1.3598 0.0342
-3 -1 12 -0.6995 -0.0952
-3 -1 13 -0.0531 0.0067
-3 -1 14 -0.5487 0.1049
-3 -1 15 -1.2159 0.0720
-3 0 1 0.9294 0.1981
-3 0 2 -2.8557 0.1703
-3 0 3 -5.0221 0.2630
-3 0 4 -4.8230 -0.0024
-3 0 5 -3.3962 -0.1939
-3 0 6 -2.0343 0.0091
-3 0 7 -1.3939 0.1233
-3 0 8 -1.3205 0.0082
-3 0 9 -1.2811 -0.0261
-3 0 10 -1.0674 -0.0319
-3 0 11 -0.6524 -0.0896
-3 0 12 0.0353 -0.0214
-3 0 13 0.5770 0.0619
-3 0 14 0.3504 -0.0876
-3 0 15 -0.3374 -0.2970
-3 1 1 -6.8882 -0.6435
-3 1 2 -5.5723 -0.4916
-3 1 3 -2.5807 -0.2347
-3 1 4 0.1433 -0.0329
-3 1 5 1.0137 0.1810
-3 1 6 0.5686 0.2001
-3 1 7 0.5236 0.0315
-3 1 8 1.0975 -0.0021
-3 1 9 0.9855 0.0378
-3 1 10 0.2074 -0.0344
-3 1 11 0.3778 -0.0354
-3 1 12 1.5419 0.1063
-3 1 13 1.8836 0.2212
-3 1 14 1.0180 0.3275
-3 2 1 -2.8853 -0.7668
-3 2 2 -1.6378 -0.5998
-3 2 3 -0.2859 -0.5915
-3 2 4 0.5006 -0.0816
-3 2 5 0.3648 0.4078
-3 2 6 -0.2190 0.1204
-3 2 7 -0.4006 -0.2668
-3 2 8 -0.1660 -0.0833
-3 2 9 -0.0867 0.1061
-3 2 10 -0.2538 -0.0555
-3 2 11 -0.4888 -0.0941
-3 2 12 -0.6776 0.0677
-3 2 13 -0.4523 0.0009
-3 2 14 0.1436 -0.2254
-3 3 1 -2.3606 -0.4448
-3 3 2 -1.4631 -0.3601
-3 3 3 -0.6099 -0.4061
-3 3 4 -0.6155 -0.0345
-3 3 5 -0.9058 0.2789
-3 3 6 -0.6251 0.0562
-3 3 7 -0.2319 -0.1852
-3 3 8 -0.4395 -0.0494
-3 3 9 -0.8219 0.1005
-3 3 10 -0.7816 0.0467
-3 3 11 -0.4628 0.0383
-3 3 12 0.1164 0.1377
-3 3 13 1.0513 0.1371
-3 4 1 -0.2596 0.0240
-3 4 2 0.0516 0.1058
-3 4 3 0.2765 -0.1048
-3 4 4 0.1861 -0.1444
-3 4 5 0.0961 0.0197
-3 4 6 0.2287 0.0458
-3 4 7 0.4036 -0.0631
-3 4 8 0.4714 -0.0581
-3 4 9 0.3415 0.0205
-3 4 10 -0.1791 0.0250
-3 4 11 -0.8024 0.0266
-3 4 12 -0.7717 0.0319
-3 5 1 -1.1395 0.6465
-3 5 2 -0.9897 0.4344
-3 5 3 -0.2762 0.0560
-3 5 4 0.2793 -0.1919
-3 5 5 0.3161 -0.1871
-3 5 6 0.1174 -0.0275
-3 5 7 -0.1907 0.0760
-3 5 8 -0.4811 0.0334
-3 5 9 -0.2354 0.0062
-3 5 10 0.6352 0.0943
-3 5 11 1.3398 0.0984
-3 6 1 1.8774 1.0571
-3 6 2 1.2349 0.6694
-3 6 3 0.2146 0.1683
-3 6 4 0.3010 -0.2109
-3 6 5 0.4529 -0.3135
-3 6 6 -0.3355 -0.0852
-3 6 7 -0.5977 0.1682
-3 6 8 0.3703 0.1083
-3 6 9 0.3988 -0.0657
-3 6 10 -1.4164 0.0163
-3 7 1 -0.0741 0.7509
-3 7 2 -0.5281 0.3451
-3 7 3 -0.5475 0.1684
-3 7 4 -0.2683 -0.0369
-3 7 5 -0.1650 -0.2058
-3 7 6 -0.1377 -0.0112
-3 7 7 -0.1209 0.1982
-3 7 8 -0.1010 0.0616
-3 7 9 0.5258 -0.0250
-3 7 10 1.6666 0.1066
-3 8 1 0.6880 0.1451
-3 8 2 -0.2742 0.0072
-3 8 3 -0.1190 0.0037
-3 8 4 0.4286 0.0025
-3 8 5 0.0780 0.0344
-3 8 6 -0.9777 0.0990
-3 8 7 -1.5758 0.0792
-3 8 8 -1.1026 0.0138
-3 8 9 -0.0630 -0.0352
-3 9 1 -0.1235 -0.2845
-3 9 2 0.3609 -0.2552
-3 9 3 0.1173 -0.1289
-3 9 4 -0.3649 0.0228
-3 9 5 -0.3299 0.0915
-3 9 6 -0.9826 0.0471
-3 9 7 -2.5059 -0.0164
-3 9 8 -2.4500 -0.0882
-3 10 1 0.0014 -0.5653
-3 10 2 0.9168 -0.4160
-3 10 3 1.8254 -0.1130
-3 10 4 1.2041 0.1087
-3 10 5 -0.5930 0.0796
-3 10 6 -1.7297 -0.0919
-3 11 1 0.6173 -0.4869
-3 11 2 0.8207 -0.2670
-3 11 3 0.0381 -0.0259
-3 11 4 -0.7139 0.1653
-3 11 5 -0.9265 0.1596
-3 12 1 -0.6530 -0.1589
-3 12 2 -2.6598 -0.0380
-3 12 3 -2.2236 -0.1318
-2 -13 1 -1.6066 0.1224
-2 -13 2 -0.1511 0.1299
-2 -13 3 0.7360 0.1722
-2 -13 4 0.5078 0.2948
-2 -13 5 -0.3030 0.2625
-2 -13 6 -0.9036 0.0193
-2 -13 7 -0.2168 -0.1549
-2 -13 8 1.7654 -0.1328
-2 -13 9 3.1454 0.0144
-2 -13 10 2.6724 0.2410
-2 -12 1 0.8757 0.1807
-2 -12 2 0.3626 0.0584
-2 -12 3 -0.0085 -0.0631
-2 -12 4 0.3686 -0.0354
-2 -12 5 0.7083 0.0232
-2 -12 6 0.5853 0.0477
-2 -12 7 0.6664 -0.0085
-2 -12 8 0.8745 -0.1603
-2 -12 9 0.6968 -0.1848
-2 -12 10 0.6272 -0.0395
-2 -12 11 0.8268 -0.0800
-2 -11 1 0.0775 0.3225
-2 -11 2 -0.5772 0.1598
-2 -11 3 -0.3197 0.0847
-2 -11 4 0.7301 -0.0007
-2 -11 5 0.8535 -0.0153
-2 -11 6 0.3686 0.1303
-2 -11 7 0.2218 0.1699
-2 -11 8 -0.2644 0.0629
-2 -11 9 -1.0855 0.1033
-2 -11 10 -0.8742 0.1916
-2 -11 11 0.2770 0.0907
-2 -10 1 -2.3157 0.0690
-2 -10 2 -1.4715 0.0649
-2 -10 3 0.3291 0.2090
-2 -10 4 1.1244 0.1157
-2 -10 5 0.3979 -0.0474
-2 -10 6 -0.4269 -0.0078
-2 -10 7 -0.1526 0.0282
-2 -10 8 0.9396 -0.0444
-2 -10 9 1.3686 -0.0472
-2 -10 10 0.2062 -0.0212
-2 -10 11 -1.2079 -0.0746
-2 -10 12 -1.1310 -0.0864
-2 -9 1 -0.3125 -0.2762
-2 -9 2 0.0533 -0.1709
-2 -9 3 0.6868 0.0659
-2 -9 4 0.1167 0.1156
-2 -9 5 -0.7680 0.0478
-2 -9 6 -0.6076 -0.0024
-2 -9 7 0.0012 -0.0260
-2 -9 8 0.2009 0.0030
-2 -9 9 0.5674 0.0544
-2 -9 10 1.4968 0.0420
-2 -9 11 1.6153 -0.0222
-2 -9 12 -0.3558 -0.0944
-2 -8 1 -0.0168 -0.4777
-2 -8 2 0.0720 -0.3115
-2 -8 3 0.1045 -0.0484
-2 -8 4 0.3480 0.1631
-2 -8 5 0.5192 0.2096
-2 -8 6 0.1474 0.0746
-2 -8 7 -0.0699 -0.0094
-2 -8 8 0.4119 0.0940
-2 -8 9 0.7389 0.1517
-2 -8 10 0.2484 0.0437
-2 -8 11 -0.6428 0.0098
-2 -8 12 -1.3438 0.1085
-2 -8 13 -1.4025 0.0887
-2 -7 1 0.9154 -0.5929
-2 -7 2 1.0626 -0.3945
-2 -7 3 0.8978 -0.2011
-2 -7 4 0.7574 0.0782
-2 -7 5 0.5060 0.1926
-2 -7 6 0.0564 -0.0459
-2 -7 7 -0.2306 -0.1947
-2 -7 8 0.0506 0.0086
-2 -7 9 0.6001 0.1182
-2 -7 10 -0.0118 -0.0638
-2 -7 11 -2.2249 -0.1207
-2 -7 12 -3.1278 0.0511
-2 -7 13 -0.1349 0.1092
-2 -6 1 -0.2299 -0.2234
-2 -6 2 -0.3236 -0.1047
-2 -6 3 0.1835 -0.2101
-2 -6 4 0.5716 -0.0507
-2 -6 5 0.3619 0.1444
-2 -6 6 0.3876 -0.0677
-2 -6 7 0.8932 -0.2823
-2 -6 8 1.1656 -0.1090
-2 -6 9 0.9479 0.0469
-2 -6 10 0.3569 -0.0716
-2 -6 11 -0.2619 -0.1386
-2 -6 12 -0.0141 -0.0475
-2 -6 13 1.0948 -0.0202
-2 -6 14 1.5250 -0.0578
-2 -5 1 -0.6395 0.0856
-2 -5 2 -0.5496 0.1327
-2 -5 3 -0.6752 -0.0851
-2 -5 4 -0.9758 -0.1507
-2 -5 5 -0.8305 -0.0347
-2 -5 6 -0.8153 0.0304
-2 -5 7 -1.1159 0.0325
-2 -5 8 -0.3595 0.0547
-2 -5 9 1.2876 0.0708
-2 -5 10 1.7445 0.0340
-2 -5 11 1.1673 -0.0092
-2 -5 12 1.5751 0.0255
-2 -5 13 2.4054 0.0746
-2 -5 14 1.5841 0.0026
-2 -4 1 0.4372 0.5432
-2 -4 2 0.8071 0.3848
-2 -4 3 0.9393 0.0602
-2 -4 4 0.8499 -0.2840
-2 -4 5 0.9685 -0.3507
-2 -4 6 0.8711 -0.0469
-2 -4 7 0.1946 0.1836
-2 -4 8 -0.1181 0.0821
-2 -4 9 0.6251 -0.0216
-2 -4 10 1.4444 0.0326
-2 -4 11 1.3459 0.0425
-2 -4 12 0.8785 0.0287
-2 -4 13 0.8849 0.1085
-2 -4 14 1.1208 0.1359
-2 -3 1 0.9468 0.8558
-2 -3 2 1.3020 0.6710
-2 -3 3 1.3873 0.3568
-2 -3 4 1.7404 -0.1623
-2 -3 5 2.0779 -0.3825
-2 -3 6 1.2058 -0.0934
-2 -3 7 -0.2727 0.1564
-2 -3 8 -0.5266 0.0479
-2 -3 9 0.5350 -0.1102
-2 -3 10 1.6275 -0.0593
-2 -3 11 2.0048 0.0672
-2 -3 12 1.3263 0.0565
-2 -3 13 -0.2136 -0.0163
-2 -3 14 -1.2254 0.0694
-2 -2 1 -1.0427 0.7588
-2 -2 2 -2.7582 0.3837
-2 -2 3 -1.8883 0.1370
-2 -2 4 0.6091 0.1668
-2 -2 5 1.1464 0.1216
-2 -2 6 -0.1333 -0.0148
-2 -2 7 -0.4409 0.0357
-2 -2 8 0.2289 0.0876
-2 -2 9 0.2143 -0.0808
-2 -2 10 -0.0726 -0.0987
-2 -2 11 0.1551 0.1235
-2 -2 12 -0.0146 0.0636
-2 -2 13 -0.7026 -0.2167
-2 -2 14 -0.4707 -0.1389
-2 -1 1 -14.7673 -0.0344
-2 -1 2 -15.9940 -0.6946
-2 -1 3 -14.0398 -0.8117
-2 -1 4 -9.0662 -0.0589
-2 -1 5 -3.8108 0.3812
-2 -1 6 -1.0593 0.1364
-2 -1 7 -0.6628 -0.0235
-2 -1 8 -0.5562 0.0220
-2 -1 9 0.3369 -0.0522
-2 -1 10 1.2565 -0.0519
-2 -1 11 1.1362 0.0822
-2 -1 12 0.4045 0.0547
-2 -1 13 0.4921 -0.0660
-2 -1 14 1.3484 -0.1093
-2 0 1 20.0344 -0.5041
-2 0 2 22.1070 -0.5138
-2 0 3 18.8298 -0.3057
-2 0 4 12.2042 0.0360
-2 0 5 6.0861 0.1419
-2 0 6 3.2157 0.1221
-2 0 7 2.5092 0.0724
-2 0 8 1.6206 -0.0740
-2 0 9 0.5663 -0.0984
-2 0 10 0.1814 0.0315
-2 0 11 -0.1242 -0.0085
-2 0 12 -0.6463 -0.1013
-2 0 13 -0.5665 0.1138
-2 0 14 0.0121 0.4236
-2 1 1 11.0023 -0.7701
-2 1 2 6.4545 -0.1287
-2 1 3 1.3214 0.6326
-2 1 4 -2.5165 0.3457
-2 1 5 -3.1925 -0.1928
-2 1 6 -1.8805 -0.0720
-2 1 7 -1.2678 0.0993
-2 1 8 -1.5431 -0.0425
-2 1 9 -1.4504 -0.0009
-2 1 10 -1.3077 0.1327
-2 1 11 -1.6959 -0.0077
-2 1 12 -1.8686 -0.1137
-2 1 13 -1.5716 -0.0091
-2 1 14 -1.3989 -0.0066
-2 2 1 6.2903 -1.1731
-2 2 2 3.9707 0.0293
-2 2 3 1.8510 0.7872
-2 2 4 0.7571 0.0359
-2 2 5 0.6091 -0.4779
-2 2 6 0.7487 -0.0792
-2 2 7 0.7901 0.1021
-2 2 8 0.6361 -0.0976
-2 2 9 0.2838 -0.0194
-2 2 10 0.2301 0.1156
-2 2 11 0.7224 -0.0745
-2 2 12 0.6429 -0.1961
-2 2 13 -0.7218 0.0089
-2 2 14 -1.8474 0.1378
-2 3 1 2.1692 -0.2934
-2 3 2 1.1378 0.3240
-2 3 3 0.6376 0.4801
-2 3 4 0.7076 -0.0134
-2 3 5 0.5274 -0.2330
-2 3 6 0.1662 -0.0378
-2 3 7 0.3933 0.0699
-2 3 8 0.9063 0.0203
-2 3 9 0.8823 -0.0033
-2 3 10 0.6287 0.0070
-2 3 11 0.6904 0.0248
-2 3 12 0.6472 0.0504
-2 3 13 0.3060 0.0439
-2 4 1 -0.1521 0.1096
-2 4 2 -0.0767 0.0740
-2 4 3 0.0803 -0.0770
-2 4 4 0.0897 -0.0444
-2 4 5 -0.0422 0.0429
-2 4 6 0.0319 -0.0113
-2 4 7 0.4301 -0.0352
-2 4 8 0.7485 0.0486
-2 4 9 0.9389 0.0377
-2 4 10 1.3556 -0.0655
-2 4 11 1.6903 -0.0195
-2 4 12 1.3811 0.1759
-2 5 1 -0.1866 0.4879
-2 5 2 -0.0007 -0.0897
-2 5 3 0.5689 -0.5935
-2 5 4 0.9156 -0.1700
-2 5 5 0.9515 0.2980
-2 5 6 0.8746 0.0869
-2 5 7 0.2145 -0.1522
-2 5 8 -1.1048 0.0194
-2 5 9 -1.8622 0.1235
-2 5 10 -1.3861 0.0214
-2 5 11 -0.5607 0.0469
-2 6 1 -2.0780 0.4368
-2 6 2 -0.6495 -0.1782
-2 6 3 0.0408 -0.6316
-2 6 4 0.1290 -0.1134
-2 6 5 0.8323 0.3716
-2 6 6 0.9728 0.0913
-2 6 7 -0.4220 -0.2033
-2 6 8 -1.1230 0.0159
-2 6 9 0.1300 0.2102
-2 6 10 0.9287 0.0563
-2 7 1 -0.6451 0.3532
-2 7 2 -0.5139 -0.1225
-2 7 3 0.0813 -0.3426
-2 7 4 0.6814 0.0921
-2 7 5 0.2244 0.3050
-2 7 6 -0.6600 0.0587
-2 7 7 -0.2797 -0.0290
-2 7 8 0.7127 0.0952
-2 7 9 0.3599 0.1300
-2 8 1 0.3431 -0.0658
-2 8 2 -0.6182 -0.1175
-2 8 3 -1.5018 0.0127
-2 8 4 -0.9936 0.0690
-2 8 5 -0.0013 0.0296
-2 8 6 0.3724 0.0611
-2 8 7 0.1686 0.0495
-2 8 8 -0.5773 -0.0144
-2 8 9 -1.5795 0.1051
-2 9 1 -0.5988 -0.3334
-2 9 2 -1.1340 0.0010
-2 9 3 -0.2715 0.2674
-2 9 4 0.0787 0.0291
-2 9 5 -0.3648 -0.1940
-2 9 6 0.0793 -0.0538
-2 9 7 0.8910 0.0973
-2 10 1 0.3760 -0.2081
-2 10 2 -1.4906 0.1521
-2 10 3 -1.4797 0.3437
-2 10 4 0.3944 0.0095
-2 10 5 1.7457 -0.2838
-2 10 6 1.1278 -0.1584
-2 11 1 0.0970 -0.1839
-2 11 2 0.0612 0.1201
-2 11 3 -0.0164 0.2456
-2 11 4 -0.2853 -0.0175
-2 11 5 -0.0452 -0.1488
-2 12 1 3.4253 -0.1017
-2 12 2 2.0561 -0.0626
-2 12 3 -0.6869 -0.0545
-1 -13 1 -1.0053 0.0625
-1 -13 2 -1.3719 0.1690
-1 -13 3 -1.7044 0.0886
-1 -13 4 -0.7558 0.0639
-1 -13 5 1.6212 0.0844
-1 -13 6 2.9870 -0.0683
-1 -13 7 1.4712 -0.2412
-1 -13 8 -1.0686 -0.1728
-1 -13 9 -2.1028 -0.0240
-1 -13 10 -1.8265 0.0385
-1 -12 1 1.0119 -0.1992
-1 -12 2 1.7292 -0.3429
-1 -12 3 0.6876 -0.3389
-1 -12 4 -0.5639 0.0050
-1 -12 5 -0.4482 0.2021
-1 -12 6 0.0850 0.0123
-1 -12 7 0.2878 -0.1008
-1 -12 8 0.8388 0.0113
-1 -12 9 1.3866 0.0197
-1 -12 10 1.0731 -0.0245
-1 -12 11 0.6110 0.0428
-1 -11 1 2.0658 0.2561
-1 -11 2 1.5667 -0.0956
-1 -11 3 -0.3151 -0.2805
-1 -11 4 -1.0046 0.0288
-1 -11 5 -0.3602 0.2098
-1 -11 6 -0.1450 0.0763
-1 -11 7 -0.1180 0.0407
-1 -11 8 0.6062 0.0975
-1 -11 9 1.1496 0.0625
-1 -11 10 0.6671 0.0652
-1 -11 11 -0.2587 0.1004
-1 -10 1 1.7463 0.2117
-1 -10 2 0.7418 -0.0405
-1 -10 3 -0.7796 -0.1399
-1 -10 4 -1.2230 -0.0115
-1 -10 5 -0.5783 0.0010
-1 -10 6 0.1562 -0.0489
-1 -10 7 0.0417 -0.0249
-1 -10 8 -0.7431 -0.0505
-1 -10 9 -0.9213 -0.1103
-1 -10 10 -0.3172 -0.0976
-1 -10 11 -0.2312 -0.0719
-1 -10 12 -0.7155 -0.0033
-1 -9 1 0.7733 -0.0924
-1 -9 2 0.3678 -0.0422
-1 -9 3 0.0713 0.0903
-1 -9 4 0.0670 -0.0000
-1 -9 5 -0.2772 -0.1140
-1 -9 6 -0.4877 0.0028
-1 -9 7 -0.1051 0.0980
-1 -9 8 -0.0755 0.0222
-1 -9 9 -1.1554 0.0083
-1 -9 10 -2.1400 0.0707
-1 -9 11 -1.1455 0.0195
-1 -9 12 1.3886 -0.0846
-1 -8 1 0.0528 -0.1709
-1 -8 2 -0.3118 0.2217
-1 -8 3 -0.7604 0.4928
-1 -8 4 -1.0307 0.0511
-1 -8 5 -0.5133 -0.2777
-1 -8 6 0.0773 0.0015
-1 -8 7 -0.3148 0.1894
-1 -8 8 -1.0723 -0.0041
-1 -8 9 -1.0218 -0.0443
-1 -8 10 -0.0548 0.1192
-1 -8 11 1.0577 0.0893
-1 -8 12 1.1160 -0.0121
-1 -8 13 -0.2157 0.0828
-1 -7 1 0.1140 -0.1905
-1 -7 2 0.0420 0.3049
-1 -7 3 0.0718 0.5350
-1 -7 4 0.3016 -0.0261
-1 -7 5 0.6143 -0.3637
-1 -7 6 0.7500 -0.0754
-1 -7 7 0.5225 0.0955
-1 -7 8 -0.0355 -0.0488
-1 -7 9 -0.0325 -0.0549
-1 -7 10 1.3027 0.0307
-1 -7 11 2.1253 -0.0567
-1 -7 12 -0.1201 -0.1177
-1 -7 13 -3.7164 0.0309
-1 -6 1 -0.3846 -0.2638
-1 -6 2 -0.3845 0.1851
-1 -6 3 -0.1939 0.3643
-1 -6 4 0.4375 0.0114
-1 -6 5 0.9843 -0.1457
-1 -6 6 1.1656 0.0228
-1 -6 7 1.2033 0.0299
-1 -6 8 1.0984 -0.0833
-1 -6 9 0.9893 -0.0206
-1 -6 10 1.1058 0.0767
-1 -6 11 0.8400 0.0085
-1 -6 12 -0.4101 -0.1162
-1 -6 13 -1.8480 -0.1131
-1 -5 1 -0.1121 0.0470
-1 -5 2 -0.4688 -0.0055
-1 -5 3 -0.1333 -0.1713
-1 -5 4 -0.0779 -0.0194
-1 -5 5 -0.9556 0.2304
-1 -5 6 -1.6076 0.1445
-1 -5 7 -1.2856 -0.0230
-1 -5 8 -0.7557 0.0234
-1 -5 9 -0.6148 0.0595
-1 -5 10 -0.7172 0.0104
-1 -5 11 -0.8616 0.0333
-1 -5 12 -0.7273 0.0226
-1 -5 13 -0.1119 -0.0560
-1 -4 1 1.1568 0.3752
-1 -4 2 0.4871 -0.3108
-1 -4 3 0.0277 -0.7840
-1 -4 4 -0.4626 -0.1440
-1 -4 5 -1.0194 0.4086
-1 -4 6 -0.7189 0.0903
-1 -4 7 0.3323 -0.1993
-1 -4 8 0.7898 -0.0204
-1 -4 9 0.3413 0.0500
-1 -4 10 -0.0132 -0.0645
-1 -4 11 0.1021 -0.0236
-1 -4 12 0.0487 0.0484
-1 -4 13 -0.4211 -0.0125
-1 -4 14 -0.6861 -0.0404
-1 -3 1 0.8260 0.6927
-1 -3 2 2.2727 -0.1186
-1 -3 3 2.0437 -0.6942
-1 -3 4 0.1180 -0.1829
-1 -3 5 -0.6874 0.3194
-1 -3 6 0.0721 0.0955
-1 -3 7 0.2415 -0.2153
-1 -3 8 -0.3364 -0.1037
-1 -3 9 -0.3108 0.0830
-1 -3 10 -0.1105 0.0007
-1 -3 11 -0.4492 -0.1026
-1 -3 12 -0.4215 0.0129
-1 -3 13 0.1878 0.0557
-1 -3 14 0.2637 -0.1547
-1 -2 1 0.6240 -0.1564
-1 -2 2 1.8770 -0.0715
-1 -2 3 0.9305 -0.1758
-1 -2 4 0.1574 -0.0734
-1 -2 5 0.9355 0.1813
-1 -2 6 1.1871 0.1578
-1 -2 7 0.1277 -0.0962
-1 -2 8 -0.3051 -0.0815
-1 -2 9 0.2767 0.1157
-1 -2 10 0.3232 0.0406
-1 -2 11 -0.0441 -0.0952
-1 -2 12 0.3652 0.0263
-1 -2 13 0.9222 0.0220
-1 -2 14 0.5334 -0.3117
-1 -1 1 11.3307 -1.0459
-1 -1 2 8.7012 -0.4321
-1 -1 3 5.6063 0.0816
-1 -1 4 2.7555 0.0628
-1 -1 5 1.0147 0.0378
-1 -1 6 0.3528 0.0969
-1 -1 7 0.3576 0.0460
-1 -1 8 0.6407 0.0135
-1 -1 9 0.6113 0.0353
-1 -1 10 0.1946 -0.0004
-1 -1 11 -0.1372 -0.0265
-1 -1 12 -0.5992 0.0188
-1 -1 13 -1.4352 0.1262
-1 -1 14 -1.6504 0.2990
-1 0 1 -38.1254 1.0656
-1 0 2 -36.1263 0.3667
-1 0 3 -27.3426 0.0509
-1 0 4 -14.5808 0.0494
-1 0 5 -5.5981 -0.0877
-1 0 6 -2.8869 -0.2171
-1 0 7 -1.9407 0.0143
-1 0 8 -0.2023 0.2065
-1 0 9 0.6581 0.0188
-1 0 10 0.0847 -0.0941
-1 0 11 -0.6924 0.0391
-1 0 12 -1.1797 -0.0002
-1 0 13 -1.0700 -0.1793
-1 1 1 -7.0772 3.1830
-1 1 2 -3.7137 0.9163
-1 1 3 0.2835 -0.2137
-1 1 4 2.8017 0.0407
-1 1 5 2.6501 0.0028
-1 1 6 1.5722 -0.2736
-1 1 7 0.9356 -0.0229
-1 1 8 0.3870 0.2015
-1 1 9 -0.0671 -0.0054
-1 1 10 -0.1614 -0.1132
-1 1 11 -0.3379 -0.0373
-1 1 12 -0.4325 -0.0758
-1 1 13 0.2274 -0.0795
-1 2 1 -2.5504 1.8408
-1 2 2 -1.9344 0.0267
-1 2 3 -1.8143 -0.2207
-1 2 4 -1.3640 0.2153
-1 2 5 -0.5952 0.0468
-1 2 6 -0.3307 -0.1643
-1 2 7 -0.7044 0.0304
-1 2 8 -0.5514 0.0941
-1 2 9 0.4336 -0.0774
-1 2 10 0.7548 -0.0942
-1 2 11 -0.0954 0.0184
-1 2 12 -0.6221 0.0167
-1 2 13 -0.2369 -0.0598
-1 3 1 -0.0623 -0.7005
-1 3 2 0.1880 -0.2308
-1 3 3 -0.2178 0.2983
-1 3 4 -0.7016 0.1895
-1 3 5 -0.3010 -0.0560
-1 3 6 0.2402 0.0146
-1 3 7 0.0027 0.0633
-1 3 8 -0.1664 -0.0286
-1 3 9 0.2920 -0.0366
-1 3 10 0.2586 -0.0224
-1 3 11 -0.7379 -0.0335
-1 3 12 -1.5920 0.1016
-1 3 13 -1.5617 0.2583
-1 4 1 0.4751 -3.0348
-1 4 2 0.2919 -0.6186
-1 4 3 -0.0144 0.6056
-1 4 4 0.0852 0.1615
-1 4 5 0.2914 -0.1688
-1 4 6 0.0031 0.0702
-1 4 7 -0.2575 0.0813
-1 4 8 0.0288 -0.0998
-1 4 9 0.1558 -0.0219
-1 4 10 -0.2109 0.0796
-1 4 11 -0.3974 -0.0779
-1 4 12 -0.3211 -0.2491
-1 5 1 0.8583 -3.5650
-1 5 2 -0.6239 -0.6711
-1 5 3 -1.3428 0.6442
-1 5 4 -0.7729 0.1066
-1 5 5 -0.0670 -0.2114
-1 5 6 0.5329 0.0835
-1 5 7 1.3618 0.0869
-1 5 8 1.5081 -0.1212
-1 5 9 0.6934 -0.0453
-1 5 10 0.4533 0.1253
-1 5 11 1.0429 0.2085
-1 6 1 0.2825 -2.1150
-1 6 2 0.5541 -0.2820
-1 6 3 0.7638 0.3863
-1 6 4 0.2539 -0.0141
-1 6 5 0.1794 -0.1626
-1 6 6 1.4241 0.0843
-1 6 7 2.0053 0.0994
-1 6 8 0.7925 -0.1004
-1 6 9 0.1311 -0.0991
-1 6 10 1.0469 0.1402
-1 7 1 0.5902 -0.0753
-1 7 2 0.3955 0.1613
-1 7 3 -0.4550 0.0114
-1 7 4 -0.3507 -0.0417
-1 7 5 0.6606 0.0350
-1 7 6 0.2537 0.0023
-1 7 7 -1.6335 0.0418
-1 7 8 -1.9208 0.1771
-1 7 9 0.0310 0.0528
-1 8 1 0.6223 1.6175
-1 8 2 1.8489 0.3540
-1 8 3 0.8199 -0.3121
-1 8 4 -0.6830 -0.1115
-1 8 5 -0.4859 -0.0073
-1 8 6 0.7514 -0.0668
-1 8 7 1.8361 0.1030
-1 8 8 2.6443 0.1107
-1 9 1 -0.1728 1.9905
-1 9 2 -0.6192 0.3401
-1 9 3 -1.0545 -0.3914
-1 9 4 -0.7379 -0.0951
-1 9 5 -0.9994 0.1072
-1 9 6 -1.4410 0.0262
-1 9 7 -0.1828 0.0106
-1 10 1 -1.5423 1.3975
-1 10 2 -1.2869 0.2206
-1 10 3 -1.5697 -0.2672
-1 10 4 -1.4832 -0.0275
-1 10 5 -0.4217 0.1549
-1 10 6 1.0271 0.0222
-1 11 1 -2.5793 0.1700
-1 11 2 -1.2180 -0.0440
-1 11 3 1.4385 -0.0218
-1 11 4 2.2947 0.0768
-1 11 5 0.9378 0.0352
-1 12 1 -2.1905 -0.7122
-1 12 2 -0.3908 -0.2426
-1 12 3 1.5637 0.1676
0 -13 1 0.5137 -0.8485
0 -13 2 1.2844 -0.1442
0 -13 3 1.9007 0.1211
0 -13 4 0.3946 -0.1521
0 -13 5 -1.6537 -0.2082
0 -13 6 -1.5816 0.0383
0 -13 7 -0.5914 0.0303
0 -13 8 -1.2082 -0.1985
0 -13 9 -2.4540 -0.2049
0 -13 10 -2.3044 -0.0446
0 -12 1 -1.9453 -0.9342
0 -12 2 -2.1764 -0.1888
0 -12 3 -0.5957 0.0390
0 -12 4 0.2115 -0.1625
0 -12 5 -0.0169 -0.0925
0 -12 6 0.0289 0.1324
0 -12 7 0.0274 0.0899
0 -12 8 -0.5643 -0.0321
0 -12 9 -0.9291 -0.0167
0 -12 10 -0.6447 0.0177
0 -12 11 -0.2316 0.0885
0 -11 1 -1.0993 -0.2044
0 -11 2 -1.1014 0.0900
0 -11 3 -0.7576 -0.0222
0 -11 4 -0.5045 -0.1703
0 -11 5 0.3544 -0.0566
0 -11 6 0.8891 0.0226
0 -11 7 -0.1850 -0.0152
0 -11 8 -1.6545 0.0008
0 -11 9 -1.6555 0.0108
0 -11 10 -0.2201 -0.0030
0 -11 11 1.3707 0.0364
0 -10 1 -0.0156 0.7564
0 -10 2 -0.4932 0.1736
0 -10 3 -0.1475 -0.2359
0 -10 4 0.7299 -0.0992
0 -10 5 1.3175 0.0369
0 -10 6 1.2376 -0.1003
0 -10 7 1.0682 -0.1327
0 -10 8 0.8086 -0.0224
0 -10 9 0.0799 -0.0369
0 -10 10 -0.2290 -0.0786
0 -10 11 0.6659 -0.0297
0 -10 12 1.6273 -0.0224
0 -9 1 0.0689 1.7726
0 -9 2 -0.2319 0.3038
0 -9 3 -0.6505 -0.3897
0 -9 4 -0.3003 -0.0372
0 -9 5 0.3652 0.1655
0 -9 6 0.1674 -0.0334
0 -9 7 -0.6248 -0.0514
0 -9 8 -0.6810 0.0694
0 -9 9 0.3187 0.0241
0 -9 10 0.8772 -0.0325
0 -9 11 -0.3344 0.0284
0 -9 12 -2.0203 0.0392
0 -8 1 0.7056 1.9279
0 -8 2 0.6855 0.2794
0 -8 3 0.3222 -0.3049
0 -8 4 -0.1727 0.0807
0 -8 5 -0.6303 0.1116
0 -8 6 -0.7481 -0.1289
0 -8 7 -0.7693 -0.0134
0 -8 8 -0.9785 0.1304
0 -8 9 -1.2529 -0.0121
0 -8 10 -1.3523 -0.0598
0 -8 11 -0.5104 0.1052
0 -8 12 1.7003 0.1469
0 -7 1 0.4073 0.8695
0 -7 2 0.2328 0.0738
0 -7 3 -0.2529 -0.0070
0 -7 4 -0.1769 0.1744
0 -7 5 0.2191 0.0436
0 -7 6 0.1901 -0.0810
0 -7 7 -0.0277 0.0194
0 -7 8 -0.1633 0.0580
0 -7 9 -0.9385 -0.0292
0 -7 10 -2.0423 -0.0503
0 -7 11 -1.6527 -0.0038
0 -7 12 0.1615 0.0099
0 -7 13 1.1025 -0.0657
0 -6 1 0.7575 -1.0005
0 -6 2 0.5981 -0.2540
0 -6 3 -0.0982 0.4147
0 -6 4 -0.7331 0.3201
0 -6 5 -0.7380 -0.0066
0 -6 6 -0.3745 0.0320
0 -6 7 -0.1033 0.1290
0 -6 8 -0.0161 0.0193
0 -6 9 0.0316 -0.0352
0 -6 10 0.3640 0.0230
0 -6 11 1.1910 0.0338
0 -6 12 2.2291 0.0142
0 -6 13 2.9140 -0.0996
0 -5 1 -0.0894 -3.1098
0 -5 2 -0.5527 -0.6052
0 -5 3 -0.9836 0.7304
0 -5 4 -0.2066 0.2225
0 -5 5 1.3614 -0.1921
0 -5 6 1.7376 0.0693
0 -5 7 0.3698 0.0839
0 -5 8 -1.1128 -0.1152
0 -5 9 -1.2292 -0.0327
0 -5 10 -0.3627 0.0458
0 -5 11 0.1327 -0.0370
0 -5 12 -0.1058 -0.0006
0 -5 13 -0.2135 0.0107
0 -4 1 -0.6892 -3.4278
0 -4 2 -0.6685 -0.6090
0 -4 3 -0.9181 0.5901
0 -4 4 -0.8929 -0.0186
0 -4 5 -0.5683 -0.2715
0 -4 6 0.0335 0.0681
0 -4 7 0.5942 0.0482
0 -4 8 0.2983 -0.1466
0 -4 9 -0.7084 -0.0741
0 -4 10 -0.9740 0.0024
0 -4 11 0.0446 -0.0687
0 -4 12 1.0832 -0.0878
0 -4 13 1.1010 -0.0031
0 -3 1 -1.9130 -1.7744
0 -3 2 -2.0281 -0.0618
0 -3 3 -0.7441 0.3731
0 -3 4 -0.3820 -0.1309
0 -3 5 -1.3139 -0.2876
0 -3 6 -0.9930 0.0275
0 -3 7 0.6211 0.1932
0 -3 8 0.8325 0.0198
0 -3 9 -0.2986 -0.1101
0 -3 10 -0.3364 0.0067
0 -3 11 0.5541 0.0391
0 -3 12 0.5004 -0.1141
0 -3 13 -0.1218 -0.0260
0 -2 1 1.3286 0.7217
0 -2 2 2.3074 0.3204
0 -2 3 2.2816 -0.1245
0 -2 4 0.5940 -0.1921
0 -2 5 -0.6561 -0.1521
0 -2 6 -0.3018 -0.0531
0 -2 7 -0.0285 0.1147
0 -2 8 -0.6237 0.0967
0 -2 9 -0.4877 -0.0153
0 -2 10 0.5702 0.0423
0 -2 11 0.4730 0.0762
0 -2 12 -1.1523 -0.0412
0 -2 13 -2.2011 0.0062
0 -1 1 4.5859 3.1335
0 -1 2 7.8542 0.8438
0 -1 3 7.5784 -0.4158
0 -1 4 4.6051 -0.2496
0 -1 5 2.1545 0.0459
0 -1 6 1.0742 0.0064
0 -1 7 -0.1787 -0.0326
0 -1 8 -1.4637 0.0147
0 -1 9 -1.4866 0.0242
0 -1 10 -0.7306 0.0276
0 -1 11 -0.0990 0.0999
0 -1 12 0.6241 0.0908
0 -1 13 1.0191 -0.1565
0 0 2 32.6201 0.6977
0 0 3 20.0880 -0.0188
0 0 4 7.8997 -0.2391
0 0 5 2.7620 0.0988
0 0 6 1.8365 0.1487
0 0 7 0.5028 -0.1053
0 0 8 -0.7049 -0.0562
0 0 9 -0.2788 0.1171
0 0 10 1.0438 0.0107
0 0 11 2.2062 -0.1020
0 0 12 2.3618 -0.0582
0 0 13 1.1566 -0.1251
0 1 0 -0.0016 -3.8327
0 1 1 -3.7615 -2.0669
0 1 2 -5.3831 -0.2173
0 1 3 -4.3070 0.1477
0 1 4 -2.0709 0.0638
0 1 5 -0.9440 0.2109
0 1 6 -0.6318 0.0785
0 1 7 0.4203 -0.1872
0 1 8 1.5157 -0.1089
0 1 9 1.2018 0.0376
0 1 10 0.3057 0.0161
0 1 11 0.2127 0.0251
0 1 12 0.5748 0.0355
0 1 13 0.7201 -0.0290
0 2 0 1.0343 -0.4691
0 2 1 1.1662 -0.0903
0 2 2 0.8752 -0.1976
0 2 3 0.4136 -0.2353
0 2 4 0.0656 0.1500
0 2 5 -0.1160 0.3234
0 2 6 0.3010 0.0689
0 2 7 0.9039 -0.1057
0 2 8 0.4253 -0.0489
0 2 9 -0.6964 0.0154
0 2 10 -0.7514 0.0134
0 2 11 0.0520 -0.0265
0 2 12 0.2671 -0.0283
0 2 13 -0.0066 0.0569
0 3 0 -0.9252 2.7283
0 3 1 -0.6688 1.4978
0 3 2 -0.2627 -0.1627
0 3 3 0.9054 -0.3282
0 3 4 1.0694 0.1809
0 3 5 -0.1918 0.1184
0 3 6 -0.9403 -0.0843
0 3 7 -0.7591 0.0282
0 3 8 -0.8789 0.0567
0 3 9 -1.1371 -0.0513
0 3 10 -0.8059 -0.0340
0 3 11 -0.4603 -0.0702
0 3 12 -0.5310 -0.2493
0 4 0 -1.1524 4.2777
0 4 1 -1.1484 1.9772
0 4 2 -0.5050 -0.2438
0 4 3 -0.3842 -0.3147
0 4 4 -0.8396 0.2021
0 4 5 -0.7151 0.0103
0 4 6 -0.1965 -0.1810
0 4 7 -0.1196 0.0210
0 4 8 -0.0121 0.0695
0 4 9 0.2093 -0.1101
0 4 10 -0.5375 -0.1252
0 4 11 -1.6953 0.0518
0 4 12 -1.4251 0.2163
0 5 0 0.2549 3.6813
0 5 1 0.9930 1.7424
0 5 2 1.3065 -0.0718
0 5 3 0.5452 -0.2904
0 5 4 -0.2005 0.0378
0 5 5 -0.3345 0.0163
0 5 6 -0.4958 -0.0789
0 5 7 -0.3305 -0.0302
0 5 8 0.5829 0.0237
0 5 9 0.6802 0.0273
0 5 10 -0.8277 -0.1105
0 6 0 0.4933 1.0151
0 6 1 0.1396 0.5500
0 6 2 0.1191 0.1671
0 6 3 0.6470 -0.0516
0 6 4 0.7291 -0.1325
0 6 5 -0.3774 -0.0593
0 6 6 -0.9825 -0.0025
0 6 7 0.2292 -0.0386
0 6 8 1.2268 -0.0434
0 6 9 0.5469 -0.1195
0 6 10 0.2158 -0.3938
0 7 0 -0.1594 -1.3530
0 7 1 -0.5515 -0.6379
0 7 2 0.0293 0.2269
0 7 3 0.6876 0.1248
0 7 4 0.3296 -0.2170
0 7 5 -0.1294 -0.0134
0 7 6 0.2766 0.1259
0 7 7 0.0686 -0.1147
0 7 8 -1.7508 -0.0556
0 7 9 -3.0562 0.3539
0 8 0 -0.0484 -2.4947
0 8 1 -0.7323 -1.1580
0 8 2 0.0300 0.1284
0 8 3 1.3212 0.1491
0 8 4 1.3660 -0.0892
0 8 5 0.6411 0.0240
0 8 6 0.0686 0.0001
0 8 7 -0.8251 -0.0503
0 8 8 -1.5867 0.2704
0 9 0 0.2557 -2.1564
0 9 1 0.8768 -1.0362
0 9 2 0.9221 0.0402
0 9 3 0.0275 0.2116
0 9 4 0.1023 0.0442
0 9 5 1.0447 0.0182
0 9 6 0.0306 0.1071
0 9 7 -2.4692 0.2537
0 10 0 1.3554 -0.8055
0 10 1 2.9140 -0.4100
0 10 2 3.1154 -0.0319
0 10 3 1.7465 0.1520
0 10 4 0.3735 0.1358
0 10 5 -0.0132 0.0681
0 10 6 0.2044 0.1438
0 11 0 -0.0604 0.3986
0 11 1 0.1906 0.0741
0 11 2 -1.3991 -0.1987
0 11 3 -2.2704 -0.0250
0 11 4 -0.9009 0.1616
0 11 5 0.5289 0.1529
0 12 0 0.2599 1.2039
0 12 1 1.5198 0.6038
0 12 2 0.7339 -0.0799
0 12 3 -0.3527 -0.2940
0 13 0 1.1747 0.9815
1 -13 0 -0.2042 1.2068
1 -13 1 -0.0615 0.5455
1 -13 2 -0.9395 -0.1280
1 -13 3 -1.2290 -0.1570
1 -13 4 -0.7618 -0.0135
1 -13 5 -0.7888 -0.1066
1 -13 6 -0.5998 -0.1433
1 -13 8 3.2636 0.0182
1 -13 9 2.9413 -0.1612
1 -13 10 1.0661 -0.2462
1 -12 0 -1.7037 0.7735
1 -12 1 -0.1947 0.3486
1 -12 2 0.3776 -0.0241
1 -12 3 0.4881 -0.0635
1 -12 4 0.6871 -0.0392
1 -12 5 0.1271 -0.0625
1 -12 6 -1.0084 -0.0038
1 -12 7 -1.3327 0.0572
1 -12 8 -0.5719 0.0320
1 -12 9 0.3819 0.0069
1 -12 10 0.7327 -0.0603
1 -11 0 -1.8020 -0.3945
1 -11 1 -0.3851 -0.2384
1 -11 2 0.9791 0.1182
1 -11 3 1.7148 0.1176
1 -11 4 0.9244 -0.1563
1 -11 5 -0.3846 -0.1902
1 -11 6 -0.6739 -0.0456
1 -11 7 -0.7861 -0.0443
1 -11 8 -1.6954 -0.0657
1 -11 9 -2.1179 0.0071
1 -11 10 -1.1788 0.0227
1 -11 11 -0.0883 0.0324
1 -10 0 -2.1181 -1.8960
1 -10 1 -1.7652 -0.9856
1 -10 2 -0.5538 0.1208
1 -10 3 -0.0602 0.2486
1 -10 4 -0.4927 -0.0601
1 -10 5 -0.6186 -0.0424
1 -10 6 -0.2693 0.0325
1 -10 7 0.1447 -0.0752
1 -10 8 0.9756 -0.0818
1 -10 9 1.8364 0.0212
1 -10 10 1.4035 0.0109
1 -10 11 -0.0813 -0.0707
1 -9 0 -0.8219 -2.5661
1 -9 1 -1.1700 -1.3090
1 -9 2 -0.2625 0.0287
1 -9 3 0.3180 0.2109
1 -9 4 -0.4676 0.0061
1 -9 5 -1.3508 0.0833
1 -9 6 -0.9104 0.0937
1 -9 7 0.5446 -0.0695
1 -9 8 1.5595 -0.0816
1 -9 9 1.6057 0.0382
1 -9 10 1.7837 0.0715
1 -9 11 2.5451 0.0212
1 -9 12 2.5254 -0.0092
1 -8 0 -1.1546 -1.8813
1 -8 1 -1.3635 -0.9420
1 -8 2 -0.5103 -0.1600
1 -8 3 0.0123 -0.0157
1 -8 4 -0.0242 0.0683
1 -8 5 -0.1284 0.1651
1 -8 6 -0.1006 0.0324
1 -8 7 -0.1339 -0.0848
1 -8 8 -0.0653 0.0011
1 -8 9 0.4802 0.0546
1 -8 10 0.6321 0.0066
1 -8 11 -0.8319 0.0222
1 -8 12 -2.5772 0.0814
1 -7 0 0.0969 0.4675
1 -7 1 -0.0012 0.2918
1 -7 2 0.2175 -0.1814
1 -7 3 -0.0880 -0.1503
1 -7 4 -0.6665 0.1888
1 -7 5 -0.5908 0.1769
1 -7 6 -0.0399 -0.0381
1 -7 7 0.1447 -0.0346
1 -7 8 0.0255 0.0515
1 -7 9 -0.0307 0.0220
1 -7 10 -0.2570 -0.0221
1 -7 11 -0.4210 -0.0571
1 -7 12 0.1573 -0.0689
1 -6 0 0.2242 2.9667
1 -6 1 -0.1720 1.6284
1 -6 2 -0.5250 -0.0809
1 -6 3 -0.1979 -0.2944
1 -6 4 0.2283 0.2286
1 -6 5 0.0122 0.1946
1 -6 6 -0.4162 -0.0516
1 -6 7 -0.3389 0.0407
1 -6 8 -0.0327 0.0978
1 -6 9 -0.2526 -0.0251
1 -6 10 -0.9307 -0.0239
1 -6 11 -1.3498 -0.0024
1 -6 12 -1.3515 -0.0626
1 -5 0 1.4697 4.5131
1 -5 1 1.3680 2.2197
1 -5 2 1.7779 -0.1694
1 -5 3 2.4007 -0.3802
1 -5 4 1.9989 0.1180
1 -5 5 0.6911 -0.0542
1 -5 6 -0.0316 -0.1872
1 -5 7 0.5791 0.0520
1 -5 8 1.3885 0.0645
1 -5 9 0.9819 -0.0821
1 -5 10 -0.1988 -0.0441
1 -5 11 -0.6470 -0.0267
1 -5 12 -0.2486 -0.0691
1 -5 13 -0.1242 0.0398
1 -4 0 0.3008 3.6737
1 -4 1 -0.0707 1.8207
1 -4 2 -0.3557 0.0347
1 -4 3 0.0016 -0.2390
1 -4 4 0.8491 -0.0450
1 -4 5 0.8691 -0.1104
1 -4 6 -0.1918 -0.1070
1 -4 7 -0.5377 0.0053
1 -4 8 0.5955 0.0210
1 -4 9 1.2729 -0.0246
1 -4 10 0.2171 -0.0778
1 -4 11 -0.8366 -0.0728
1 -4 12 -0.1767 0.0130
1 -4 13 1.0370 -0.0271
1 -3 0 -0.4193 0.4963
1 -3 1 -0.9264 0.2368
1 -3 2 -1.6812 0.2920
1 -3 3 -1.5037 0.1897
1 -3 4 -0.0806 -0.0509
1 -3 5 0.5802 -0.0615
1 -3 6 -0.4485 -0.0240
1 -3 7 -1.1119 -0.0419
1 -3 8 -0.2377 0.0744
1 -3 9 0.4214 0.1073
1 -3 10 -0.0723 -0.0641
1 -3 11 -0.2409 -0.0461
1 -3 12 0.3795 0.0952
1 -3 13 0.4029 -0.1115
1 -2 0 -4.2332 -3.0071
1 -2 1 -6.0511 -1.7035
1 -2 2 -6.0562 0.1058
1 -2 3 -4.0037 0.3062
1 -2 4 -2.0982 -0.1492
1 -2 5 -1.6040 -0.0722
1 -2 6 -1.1302 0.0231
1 -2 7 0.0633 -0.1182
1 -2 8 0.4378 -0.0375
1 -2 9 -0.3232 0.1280
1 -2 10 -0.0853 0.0832
1 -2 11 1.8305 0.0730
1 -2 12 3.3533 0.1294
1 -2 13 3.1455 -0.0667
1 -1 0 -10.0984 -3.6868
1 -1 1 -12.6310 -1.7451
1 -1 2 -11.8315 0.0138
1 -1 3 -7.1548 0.1659
1 -1 4 -2.7809 -0.1275
1 -1 5 -1.4250 -0.0170
1 -1 6 -1.1295 0.0803
1 -1 7 -0.2449 -0.0690
1 -1 8 0.2759 -0.1321
1 -1 9 0.0554 0.0102
1 -1 10 -0.4575 0.0685
1 -1 11 -1.6007 -0.0443
1 -1 12 -2.7394 0.0122
1 0 0 -35.3835 -1.5845
1 0 1 -27.8823 -1.3647
1 0 2 -16.0463 -0.4642
1 0 3 -5.5601 0.2860
1 0 4 -1.2444 0.2789
1 0 5 -0.8786 0.0162
1 0 6 -0.5044 0.0552
1 0 7 0.0491 0.0826
1 0 8 -0.0048 -0.0890
1 0 9 -0.0647 -0.0920
1 0 10 0.0814 0.0559
1 0 11 0.2824 0.0300
1 0 12 0.8220 -0.0506
1 1 0 13.0470 0.6693
1 1 1 12.2698 -0.3199
1 1 2 7.9449 -0.5949
1 1 3 2.7894 -0.1450
1 1 4 0.7242 0.1469
1 1 5 1.1876 0.1162
1 1 6 0.5555 0.0387
1 1 7 -1.5700 -0.0179
1 1 8 -2.4629 -0.0074
1 1 9 -1.5263 0.0602
1 1 10 -0.6529 0.0632
1 1 11 -0.5750 0.0357
1 1 12 -0.6046 0.0575
1 2 0 -1.1124 0.5731
1 2 1 -0.6443 0.8041
1 2 2 0.6625 0.3734
1 2 3 0.4647 -0.2364
1 2 4 -0.4745 -0.2788
1 2 5 -0.8318 0.0373
1 2 6 -0.9453 0.1282
1 2 7 -0.8903 0.0378
1 2 8 -0.4065 -0.0102
1 2 9 -0.1665 -0.0405
1 2 10 -0.1114 -0.0260
1 2 11 0.8788 -0.0073
1 2 12 2.1000 -0.1314
1 3 0 -0.0499 -0.1839
1 3 1 -0.3966 0.8848
1 3 2 -1.2073 0.7709
1 3 3 -1.4185 -0.0986
1 3 4 -0.4068 -0.3189
1 3 5 0.2704 -0.0341
1 3 6 -0.0924 0.0365
1 3 7 -0.6229 0.0196
1 3 8 -1.1538 0.0547
1 3 9 -1.5218 -0.0698
1 3 10 -0.5877 -0.1726
1 3 11 1.3134 0.0156
1 3 12 2.0617 0.2197
1 4 0 1.0587 -0.0043
1 4 1 -0.0600 0.6199
1 4 2 -0.6195 0.4215
1 4 3 -0.1303 -0.0390
1 4 4 0.0610 -0.0845
1 4 5 -0.1065 -0.0316
1 4 6 0.3319 -0.0996
1 4 7 0.5677 -0.0599
1 4 8 -0.1587 0.0418
1 4 9 -0.2105 -0.0141
1 4 10 1.1058 -0.1794
1 4 11 1.5663 -0.3251
1 5 0 0.2477 0.1222
1 5 1 0.0291 0.1739
1 5 2 -0.1482 0.1032
1 5 3 -0.2182 0.0717
1 5 4 -0.5009 -0.0080
1 5 5 -0.4075 -0.0926
1 5 6 0.0415 -0.0047
1 5 7 -0.2947 0.0584
1 5 8 -1.0602 -0.1181
1 5 9 -0.6724 -0.1831
1 5 10 0.5326 0.1582
1 6 0 -0.5103 0.0939
1 6 1 -0.5563 -0.3574
1 6 2 -0.6014 -0.1893
1 6 3 -0.5408 0.2174
1 6 4 0.2499 0.0803
1 6 5 1.0374 -0.2055
1 6 6 0.3512 -0.0826
1 6 7 -0.7840 0.0500
1 6 8 -0.4843 -0.0716
1 6 9 0.1079 -0.0143
1 6 10 -0.6724 0.2331
1 7 0 0.1636 -0.1936
1 7 1 -0.1128 -0.8077
1 7 2 -0.6685 -0.4422
1 7 3 -0.6084 0.2589
1 7 4 0.2797 0.1936
1 7 5 0.8311 -0.1358
1 7 6 0.6883 -0.0262
1 7 7 0.7030 0.0651
1 7 8 0.7618 -0.1352
1 7 9 0.2648 -0.1622
1 8 0 0.3909 -0.1288
1 8 1 0.3081 -0.5127
1 8 2 0.1530 -0.2786
1 8 3 0.5018 0.0925
1 8 4 0.3407 0.1379
1 8 5 -0.8443 0.0978
1 8 6 -1.2337 0.0607
1 8 7 -0.1068 -0.0588
1 8 8 0.6784 -0.0851
1 9 0 0.1939 -0.0419
1 9 1 -0.5501 -0.1013
1 9 2 0.0326 -0.0740
1 9 3 0.7235 -0.0390
1 9 4 0.2232 0.0828
1 9 5 0.2263 0.1312
1 9 6 1.5083 -0.0521
1 9 7 1.7852 -0.1449
1 10 0 1.0743 -0.0851
1 10 1 0.0221 0.2306
1 10 2 0.0954 0.1417
1 10 3 0.5146 -0.1040
1 10 4 0.0508 -0.0439
1 10 5 -0.8963 0.0389
1 10 6 -1.3031 -0.0768
1 11 0 1.0567 -0.0816
1 11 1 0.5780 0.2286
1 11 2 0.4892 0.0786
1 11 3 -0.1463 -0.1413
1 11 4 -0.3240 -0.0408
1 12 0 -0.1541 0.2303
1 12 1 -0.1097 0.2553
1 12 2 0.7890 0.0923
1 12 3 1.4009 -0.0856
1 13 0 -1.0575 0.1757
2 -13 0 -2.3415 -0.0842
2 -13 1 -0.9283 0.1329
2 -13 2 0.7462 0.1565
2 -13 3 1.8330 0.0622
2 -13 4 2.3799 0.0054
2 -13 5 2.2004 -0.0426
2 -13 6 1.1532 -0.1122
2 -13 8 0.9385 0.0342
2 -13 9 1.4598 0.1111
2 -12 0 2.2810 0.0078
2 -12 1 0.7122 -0.0842
2 -12 2 0.0261 -0.0305
2 -12 3 -0.4253 0.0935
2 -12 4 -0.7230 0.1150
2 -12 5 -0.2875 0.0247
2 -12 6 0.6572 -0.0190
2 -12 7 1.4031 0.0103
2 -12 8 1.3900 -0.0001
2 -12 9 0.4639 0.0028
2 -12 10 -0.5742 0.1174
2 -11 0 0.7423 0.0857
2 -11 1 1.1372 -0.2654
2 -11 2 0.5706 -0.2561
2 -11 3 0.0685 0.0431
2 -11 4 0.0362 0.0923
2 -11 5 -0.0583 -0.0747
2 -11 6 0.6162 -0.0907
2 -11 7 2.4186 -0.0131
2 -11 8 2.8866 -0.0101
2 -11 9 0.5035 0.0090
2 -11 10 -2.2207 0.0426
2 -10 0 1.5282 0.0339
2 -10 1 0.5518 -0.3773
2 -10 2 -0.8608 -0.3083
2 -10 3 -1.0497 0.0543
2 -10 4 -0.5592 0.1512
2 -10 5 -0.1245 0.0556
2 -10 6 0.2729 0.0262
2 -10 7 0.1939 0.0043
2 -10 8 -0.5181 -0.0401
2 -10 9 -0.8474 -0.0475
2 -10 10 -0.4999 -0.0530
2 -10 11 -0.5693 -0.0087
2 -9 0 0.6266 0.1321
2 -9 1 0.5823 -0.2323
2 -9 2 -0.1413 -0.2364
2 -9 3 0.0547 -0.0780
2 -9 4 0.7791 -0.0147
2 -9 5 0.6259 0.0343
2 -9 6 -0.6112 0.0576
2 -9 7 -1.7653 -0.0057
2 -9 8 -1.7386 -0.0388
2 -9 9 -0.8500 -0.0004
2 -9 10 -0.2422 0.0163
2 -9 11 -0.1858 0.0001
2 -8 0 -0.0968 -0.0387
2 -8 1 -0.9731 0.0116
2 -8 2 -0.6650 -0.0188
2 -8 3 0.4731 -0.1990
2 -8 4 1.0844 -0.1709
2 -8 5 1.0239 0.0509
2 -8 6 1.0281 0.0804
2 -8 7 0.8728 -0.0397
2 -8 8 -0.2689 -0.0266
2 -8 9 -1.6062 0.0305
2 -8 10 -1.3508 -0.0115
2 -8 11 0.0667 -0.0101
2 -8 12 0.4731 0.0687
2 -7 0 -0.6639 -0.0450
2 -7 1 -0.5435 0.5587
2 -7 2 -0.1272 0.3578
2 -7 3 0.2594 -0.2329
2 -7 4 0.2589 -0.2493
2 -7 5 -0.0332 0.0570
2 -7 6 -0.2366 0.0709
2 -7 7 0.0906 -0.0300
2 -7 8 1.1087 0.0066
2 -7 9 2.0449 0.0081
2 -7 10 1.5917 -0.0228
2 -7 11 -0.2132 0.0450
2 -7 12 -1.5291 0.0186
2 -6 0 -2.1241 0.0103
2 -6 1 -0.4936 0.8007
2 -6 2 0.4035 0.6156
2 -6 3 -0.5242 -0.0978
2 -6 4 -1.6529 -0.2268
2 -6 5 -1.6505 0.0322
2 -6 6 -1.1593 0.0495
2 -6 7 -0.9894 0.0003
2 -6 8 -0.7271 0.0661
2 -6 9 -0.0041 0.0149
2 -6 10 0.4375 -0.0429
2 -6 11 0.0381 0.0813
2 -6 12 -0.5146 0.0635
2 -5 0 -0.0234 -0.0749
2 -5 1 -0.2140 0.5637
2 -5 2 -0.9256 0.3991
2 -5 3 -1.3317 -0.0416
2 -5 4 -0.6770 -0.0658
2 -5 5 0.3243 -0.0040
2 -5 6 0.1232 -0.0799
2 -5 7 -1.1432 -0.0364
2 -5 8 -1.3898 0.0401
2 -5 9 0.2194 -0.0182
2 -5 10 1.8139 -0.0249
2 -5 11 1.7059 0.0283
2 -5 12 0.6573 -0.0290
2 -4 0 0.1697 0.0365
2 -4 1 0.8820 0.0784
2 -4 2 1.2451 0.0774
2 -4 3 0.7128 0.1776
2 -4 4 0.0635 0.1217
2 -4 5 0.3649 -0.0834
2 -4 6 1.1654 -0.0785
2 -4 7 1.1313 0.0124
2 -4 8 0.2107 -0.0551
2 -4 9 -0.4077 -0.0313
2 -4 10 -0.4259 0.0897
2 -4 11 -0.7488 -0.0231
2 -4 12 -1.4659 -0.1318
2 -3 0 2.8550 0.1135
2 -3 1 2.9479 -0.5766
2 -3 2 2.6066 -0.3549
2 -3 3 1.5965 0.3889
2 -3 4 0.2145 0.3246
2 -3 5 -0.3690 -0.1332
2 -3 6 0.1199 -0.0787
2 -3 7 0.6259 0.0522
2 -3 8 0.6080 -0.0835
2 -3 9 0.4778 -0.0386
2 -3 10 0.4603 0.0785
2 -3 11 0.6085 -0.0776
2 -3 12 1.0121 -0.0869
2 -2 0 7.4805 0.5208
2 -2 1 6.4770 -0.9399
2 -2 2 3.8125 -0.8290
2 -2 3 1.6684 0.1713
2 -2 4 1.2344 0.2818
2 -2 5 1.2640 -0.0993
2 -2 6 0.7081 -0.0704
2 -2 7 0.4048 0.0293
2 -2 8 0.5662 -0.0586
2 -2 9 -0.0909 -0.0333
2 -2 10 -1.2913 0.0515
2 -2 11 -1.1246 0.0291
2 -2 12 0.2537 0.1058
2 -1 0 13.7577 0.3456
2 -1 1 12.7629 -0.2635
2 -1 2 7.6487 -0.3208
2 -1 3 2.0155 -0.1994
2 -1 4 -0.4415 -0.1299
2 -1 5 -0.1906 0.0006
2 -1 6 0.4537 0.0966
2 -1 7 0.7767 0.0642
2 -1 8 0.8985 -0.0572
2 -1 9 0.9102 -0.1666
2 -1 10 1.4490 -0.0737
2 -1 11 2.3645 0.1243
2 -1 12 2.0231 0.0364
2 0 0 13.2324 0.6511
2 0 1 5.3227 0.6807
2 0 2 0.7673 0.1632
2 0 3 0.1585 -0.2972
2 0 4 0.2710 -0.1516
2 0 5 -0.4435 0.0767
2 0 6 -0.5206 0.0326
2 0 7 0.3871 0.0578
2 0 8 0.8359 0.1519
2 0 9 0.5918 0.0340
2 0 10 0.3328 -0.0966
2 0 11 -0.1557 0.0033
2 0 12 -0.7929 0.0978
2 1 0 -11.3817 0.0018
2 1 1 -6.5396 0.3539
2 1 2 -1.8144 0.2094
2 1 3 0.4548 -0.1976
2 1 4 0.1243 -0.2187
2 1 5 -0.3673 0.0229
2 1 6 0.3006 0.0969
2 1 7 0.9537 0.0159
2 1 8 0.8249 0.0271
2 1 9 0.6297 0.1143
2 1 10 0.3889 0.0945
2 1 11 -0.5677 0.0067
2 1 12 -1.4755 -0.0047
2 2 0 0.2003 -0.6773
2 2 1 -0.1990 -0.0901
2 2 2 -0.2956 0.3028
2 2 3 0.4876 0.1017
2 2 4 0.8602 -0.1916
2 2 5 0.4992 -0.1275
2 2 6 -0.0133 0.0093
2 2 7 -0.1678 -0.0208
2 2 8 0.6266 -0.0283
2 2 9 1.8258 0.0106
2 2 10 1.5349 0.0098
2 2 11 -0.2682 0.1147
2 3 0 0.8609 -0.9230
2 3 1 1.2892 -0.4960
2 3 2 1.0751 0.1644
2 3 3 0.1704 0.3260
2 3 4 -0.0162 0.0610
2 3 5 0.3916 -0.0715
2 3 6 0.2450 -0.0572
2 3 7 0.0410 -0.0732
2 3 8 0.3905 -0.0023
2 3 9 0.1716 0.0988
2 3 10 -0.8959 -0.0466
2 3 11 -1.2160 -0.3293
2 4 0 0.3206 -0.4403
2 4 1 0.2112 -0.1964
2 4 2 -0.1540 -0.0629
2 4 3 -0.1585 0.0165
2 4 4 0.1564 0.1587
2 4 5 -0.1267 0.1649
2 4 6 -0.5217 -0.0340
2 4 7 0.1856 -0.1467
2 4 8 1.0034 -0.0394
2 4 9 0.2199 0.1231
2 4 10 -1.1260 0.2398
2 4 11 -1.0036 0.3065
2 5 0 -0.2557 0.1887
2 5 1 0.2127 0.1363
2 5 2 0.2223 -0.1845
2 5 3 0.2177 -0.1585
2 5 4 0.1056 0.1428
2 5 5 -0.6672 0.1372
2 5 6 -1.2529 -0.0944
2 5 7 -0.6503 -0.0770
2 5 8 0.2857 0.0805
2 5 9 0.5025 0.0235
2 5 10 0.3780 -0.1009
2 6 0 -0.1036 0.4948
2 6 1 -0.1461 0.2804
2 6 2 0.1479 -0.1829
2 6 3 0.1513 -0.1706
2 6 4 -0.4897 0.0930
2 6 5 -0.3050 0.0439
2 6 6 0.7701 -0.0663
2 6 7 0.4296 0.0374
2 6 8 -1.3914 -0.0496
2 6 9 -2.0266 -0.4021
2 7 0 0.5077 0.6211
2 7 1 0.4870 0.2111
2 7 2 0.5464 -0.2155
2 7 3 -0.2248 -0.1537
2 7 4 -1.2098 0.0730
2 7 5 -0.9301 0.0420
2 7 6 0.6897 -0.0687
2 7 7 2.4832 -0.1763
2 7 8 3.2782 -0.4381
2 8 0 0.0176 0.3845
2 8 1 -0.0012 0.1399
2 8 2 -0.6272 -0.0005
2 8 3 -0.9636 -0.0509
2 8 4 -0.0185 -0.0724
2 8 5 0.7381 0.0152
2 8 6 -0.1105 -0.0059
2 8 7 -1.1116 -0.3763
2 9 0 0.3795 0.0845
2 9 1 0.6177 -0.0121
2 9 2 -0.2045 0.0969
2 9 3 -0.9863 -0.0108
2 9 4 -1.5512 -0.2680
2 9 5 -2.1128 -0.2321
2 9 6 -1.7317 -0.1097
2 10 0 -1.7549 -0.2428
2 10 1 -0.9685 -0.1335
2 10 2 -0.4724 0.1070
2 10 3 -0.0885 0.0143
2 10 4 0.0443 -0.1915
2 10 5 -0.0306 -0.1705
2 11 0 -0.1308 -0.3704
2 11 1 -0.8722 -0.1301
2 11 2 -0.7258 0.0498
2 11 3 -0.5002 -0.0485
2 11 4 -1.0064 -0.1209
2 12 0 0.7288 -0.0831
2 12 1 0.1631 0.0814
2 12 2 -0.3371 0.1328
2 13 0 -2.0411 -0.0639
3 -13 1 0.6910 0.0026
3 -13 2 -0.7107 0.0521
3 -13 3 -1.7100 0.0986
3 -13 4 -1.8585 0.0915
3 -13 5 -1.3705 0.0293
3 -12 0 1.2454 0.2295
3 -12 1 0.5764 0.0607
3 -12 2 -0.9055 -0.1025
3 -12 3 -0.8526 -0.0505
3 -12 4 -0.1435 0.0845
3 -12 5 -0.5910 0.1207
3 -12 6 -2.0039 0.0840
3 -12 7 -2.8508 0.0753
3 -12 8 -2.1522 0.0799
3 -12 9 -0.4534 0.0436
3 -12 10 0.7326 0.0040
3 -11 0 -0.1004 0.5074
3 -11 1 -0.0881 0.2283
3 -11 2 0.5155 -0.0962
3 -11 3 1.1782 -0.1678
3 -11 4 2.0431 -0.0613
3 -11 5 2.4460 0.0123
3 -11 6 1.4624 0.0437
3 -11 7 0.1090 0.0492
3 -11 8 -0.2226 -0.0145
3 -11 9 -0.1355 -0.0504
3 -11 10 -0.3958 0.0236
3 -10 0 0.2773 0.4761
3 -10 1 0.9867 0.2290
3 -10 2 0.8173 -0.0048
3 -10 3 -0.0857 -0.1156
3 -10 4 -0.7097 -0.1116
3 -10 5 -0.6450 -0.0241
3 -10 6 -0.0188 0.0691
3 -10 7 0.7627 0.0490
3 -10 8 0.9037 -0.0338
3 -10 9 0.2261 -0.0339
3 -10 10 -0.1681 -0.0224
3 -10 11 0.3932 -0.1233
3 -9 0 -0.2139 0.2109
3 -9 1 0.2909 0.1194
3 -9 2 0.4017 0.0425
3 -9 3 0.1101 -0.1032
3 -9 4 0.0616 -0.2329
3 -9 5 0.1845 -0.1409
3 -9 6 0.2296 0.0519
3 -9 7 0.2379 0.0632
3 -9 8 0.0444 -0.0403
3 -9 9 -0.4311 -0.0531
3 -9 10 -0.7626 -0.0177
3 -9 11 -0.6530 -0.0135
3 -8 0 1.4843 -0.3020
3 -8 1 0.8416 -0.1460
3 -8 2 -0.4390 0.1216
3 -8 3 -0.8721 0.0307
3 -8 4 -0.4364 -0.2188
3 -8 5 -0.0570 -0.1709
3 -8 6 0.0582 0.0067
3 -8 7 0.3783 -0.0003
3 -8 8 0.9288 -0.0336
3 -8 9 1.2797 0.0429
3 -8 10 1.3479 0.0387
3 -8 11 1.3003 -0.0781
3 -7 0 0.1112 -0.9498
3 -7 1 -0.2271 -0.4431
3 -7 2 -0.5954 0.1739
3 -7 3 -0.8308 0.1855
3 -7 4 -0.8912 -0.0747
3 -7 5 -0.3325 -0.0953
3 -7 6 0.4772 -0.0331
3 -7 7 0.2080 -0.0550
3 -7 8 -0.9999 0.0082
3 -7 9 -1.1904 0.1103
3 -7 10 0.1858 0.0477
3 -7 11 1.2833 -0.0278
3 -6 0 0.8411 -0.9850
3 -6 1 -0.3928 -0.4377
3 -6 2 0.0165 0.0848
3 -6 3 1.2254 0.2004
3 -6 4 1.2210 0.0915
3 -6 5 0.1072 0.0295
3 -6 6 -0.3628 -0.0203
3 -6 7 0.0987 -0.0586
3 -6 8 0.0261 0.0355
3 -6 9 -1.0776 0.1300
3 -6 10 -1.9955 0.0525
3 -6 11 -1.9376 -0.0033
3 -5 0 -0.7821 -0.5194
3 -5 1 -0.4753 -0.2388
3 -5 2 -0.3588 -0.0536
3 -5 3 -0.2342 0.0831
3 -5 4 0.1612 0.2209
3 -5 5 1.0038 0.1630
3 -5 6 1.8089 -0.0572
3 -5 7 1.6110 -0.0968
3 -5 8 0.3157 0.0221
3 -5 9 -0.9500 0.0129
3 -5 10 -1.1911 -0.0247
3 -5 11 -0.5106 0.0483
3 -4 0 -0.3005 0.2909
3 -4 1 -0.3540 0.2149
3 -4 2 -0.7408 -0.1885
3 -4 3 -0.9514 -0.1682
3 -4 4 -0.6276 0.2094
3 -4 5 -0.5048 0.2061
3 -4 6 -0.8716 -0.0542
3 -4 7 -0.5669 -0.0204
3 -4 8 0.8262 0.0463
3 -4 9 1.6718 -0.1195
3 -4 10 0.7770 -0.1040
3 -4 11 -0.7190 0.0793
3 -3 0 -2.6586 0.7757
3 -3 1 -2.7462 0.4886
3 -3 2 -2.5679 -0.2550
3 -3 3 -1.4464 -0.3143
3 -3 4 0.0873 0.1358
3 -3 5 0.5132 0.1335
3 -3 6 -0.3686 -0.0854
3 -3 7 -1.1449 0.0067
3 -3 8 -0.8056 0.0324
3 -3 9 -0.0155 -0.1481
3 -3 10 -0.2523 -0.1030
3 -3 11 -1.6957 0.0269
3 -2 0 -3.3102 1.0462
3 -2 1 -2.6544 0.6173
3 -2 2 -1.6783 -0.1441
3 -2 3 -1.1955 -0.2994
3 -2 4 -0.8932 -0.0644
3 -2 5 -0.3487 0.0073
3 -2 6 -0.0875 0.0190
3 -2 7 -0.2174 0.0489
3 -2 8 0.1311 -0.0191
3 -2 9 0.7092 -0.0526
3 -2 10 0.0152 0.0115
3 -2 11 -1.7668 -0.0044
3 -1 0 -5.9270 0.4202
3 -1 1 -3.4807 0.2102
3 -1 2 -0.9967 0.2704
3 -1 3 0.3474 0.0881
3 -1 4 0.5317 -0.3180
3 -1 5 0.4386 -0.2636
3 -1 6 0.5778 0.0877
3 -1 7 0.7096 0.1151
3 -1 8 0.5733 -0.0052
3 -1 9 0.2114 -0.0021
3 -1 10 -0.1288 -0.0729
3 -1 11 -0.0375 -0.0775
3 0 0 3.3081 -0.4488
3 0 1 2.2401 -0.1945
3 0 2 -0.3598 0.3479
3 0 3 -1.2716 0.2378
3 0 4 -0.5117 -0.2360
3 0 5 -0.2712 -0.2091
3 0 6 -0.7614 0.0778
3 0 7 -0.7757 0.0752
3 0 8 -0.8438 0.0146
3 0 9 -1.9279 0.1231
3 0 10 -2.6953 0.1163
3 0 11 -1.6841 -0.0686
3 1 0 3.7792 -0.4610
3 1 1 1.1786 -0.5328
3 1 2 -0.4036 -0.0561
3 1 3 -1.0677 0.2372
3 1 4 -1.0286 0.0860
3 1 5 -0.3829 -0.0816
3 1 6 0.6397 -0.0484
3 1 7 1.4227 -0.0130
3 1 8 1.3419 -0.0479
3 1 9 0.6559 0.0218
3 1 10 0.3700 0.1916
3 1 11 0.7214 0.2442
3 2 0 -2.3452 -0.8894
3 2 1 -0.7982 -0.6935
3 2 2 0.5107 -0.1851
3 2 3 0.7513 0.1747
3 2 4 0.2396 0.1457
3 2 5 -0.1715 -0.0155
3 2 6 -0.0441 -0.0407
3 2 7 0.2180 -0.0133
3 2 8 0.2360 -0.0207
3 2 9 0.3149 0.0133
3 2 10 0.5355 0.0563
3 3 0 -1.7190 -0.4561
3 3 1 -1.1112 -0.3236
3 3 2 0.0238 -0.1700
3 3 3 0.5351 0.0511
3 3 4 0.4693 0.1625
3 3 5 0.7628 0.0756
3 3 6 1.1589 -0.0083
3 3 7 0.9760 0.0207
3 3 8 0.6496 0.0532
3 3 9 0.4672 0.1014
3 3 10 -0.1493 0.2737
3 4 0 0.4525 -0.1345
3 4 1 0.3398 0.0207
3 4 2 -0.2064 0.0305
3 4 3 -0.6513 -0.0588
3 4 4 -0.8136 0.0193
3 4 5 -0.8290 0.1493
3 4 6 -0.9930 0.0960
3 4 7 -1.0497 0.0191
3 4 8 -0.1503 0.0721
3 4 9 1.4917 0.0753
3 4 10 2.1732 -0.0251
3 5 0 0.1163 0.2740
3 5 1 0.3301 0.4014
3 5 2 0.1356 0.1351
3 5 3 -0.4069 -0.2097
3 5 4 -0.1956 -0.1580
3 5 5 0.6645 0.0998
3 5 6 0.8328 0.1050
3 5 7 0.1670 -0.0671
3 5 8 -0.4238 -0.0863
3 5 9 -0.7079 -0.0096
3 6 0 0.1107 0.3297
3 6 1 -0.3630 0.4169
3 6 2 -1.0105 0.1761
3 6 3 -0.6151 -0.0896
3 6 4 -0.2101 -0.0780
3 6 5 -0.8787 -0.0442
3 6 6 -0.7202 -0.1518
3 6 7 1.4624 -0.0185
3 6 8 3.1680 0.4545
3 7 0 0.4169 0.4535
3 7 1 -0.1755 0.2768
3 7 2 -0.2536 0.0031
3 7 3 0.5691 -0.1039
3 7 4 1.2132 -0.1038
3 7 5 0.5335 -0.1639
3 7 6 -1.2281 -0.0894
3 7 7 -2.4834 0.2821
3 8 0 -1.1692 0.2315
3 8 1 -0.3842 0.0204
3 8 2 0.5590 -0.0490
3 8 3 0.5497 -0.0070
3 8 4 0.1796 -0.1330
3 8 5 0.8642 -0.1981
3 9 0 -0.5450 -0.0120
3 9 1 -0.3080 -0.1832
3 9 2 0.3111 -0.2165
3 9 3 0.8843 -0.0186
3 9 4 1.3788 0.0851
3 10 0 -0.3980 -0.1517
3 10 1 -0.1084 -0.1857
3 10 2 -0.1160 -0.0214
3 10 3 -0.0655 0.0892
3 11 0 1.0722 -0.2335
3 11 1 1.1315 -0.3022
3 11 2 0.1534 -0.1358
3 12 0 -0.7815 0.0137
3 12 1 -0.5452 0.1984
4 -13 2 1.2420 0.0593
4 -13 3 1.7993 -0.0348
4 -12 0 -0.8385 0.1414
4 -12 1 1.1908 0.1721
4 -12 2 1.3184 -0.0057
4 -12 3 0.0092 -0.1207
4 -12 4 0.3512 -0.0308
4 -12 5 1.9256 0.1032
4 -12 6 1.9041 0.1435
4 -12 7 0.0885 0.1083
4 -11 0 -0.1095 0.2992
4 -11 1 0.5291 0.2875
4 -11 2 0.9066 0.1013
4 -11 3 0.5247 -0.0572
4 -11 4 -0.4775 -0.1098
4 -11 5 -1.0646 -0.1019
4 -11 6 -0.5914 -0.0356
4 -11 7 0.6965 0.0614
4 -11 8 2.2561 0.0730
4 -11 9 3.1444 -0.0106
4 -11 10 2.4413 -0.0469
4 -10 0 -0.0541 0.1797
4 -10 1 -0.2215 0.0806
4 -10 2 0.3106 0.0657
4 -10 3 1.0425 0.0775
4 -10 4 0.8706 -0.0390
4 -10 5 -0.0684 -0.1480
4 -10 6 -0.8144 -0.0668
4 -10 7 -1.0360 0.0586
4 -10 8 -0.8122 0.0343
4 -10 9 -0.2312 -0.0398
4 -10 10 0.2259 -0.0290
4 -9 0 0.9641 -0.1519
4 -9 1 1.0868 -0.2160
4 -9 2 0.8166 -0.0457
4 -9 3 0.3987 0.1291
4 -9 4 0.7247 0.0362
4 -9 5 1.5289 -0.1359
4 -9 6 1.4157 -0.1086
4 -9 7 0.4874 -0.0026
4 -9 8 0.0615 0.0013
4 -9 9 0.1067 -0.0099
4 -9 10 -0.0826 0.0362
4 -8 0 -0.3237 -0.3638
4 -8 1 0.2493 -0.4502
4 -8 2 0.3311 -0.1693
4 -8 3 0.1473 0.1253
4 -8 4 -0.0621 0.0741
4 -8 5 -0.3758 -0.0837
4 -8 6 -0.3806 -0.0708
4 -8 7 0.2423 -0.0175
4 -8 8 0.5366 -0.0365
4 -8 9 -0.3492 -0.0267
4 -8 10 -1.3192 0.0352
4 -7 0 0.2075 -0.4701
4 -7 1 0.2893 -0.5292
4 -7 2 0.1438 -0.2125
4 -7 3 0.3077 0.0795
4 -7 4 0.5998 0.1070
4 -7 5 0.2495 0.0506
4 -7 6 -0.3828 0.0149
4 -7 7 -0.4097 -0.0354
4 -7 8 -0.1234 -0.0384
4 -7 9 -0.1563 0.0416
4 -7 10 -0.2469 0.0962
4 -7 11 -0.1417 0.0554
4 -6 0 0.4906 -0.5209
4 -6 1 0.8893 -0.3056
4 -6 2 0.3939 -0.1207
4 -6 3 -0.0194 -0.0633
4 -6 4 0.3129 0.0414
4 -6 5 0.2676 0.1573
4 -6 6 -0.9116 0.1142
4 -6 7 -1.7899 -0.0082
4 -6 8 -0.7596 -0.0160
4 -6 9 1.4669 0.0623
4 -6 10 2.8215 0.0861
4 -6 11 2.4658 0.0808
4 -5 0 0.3251 0.0246
4 -5 1 0.5796 0.1722
4 -5 2 0.6534 0.0198
4 -5 3 0.3092 -0.1988
4 -5 4 -0.2673 -0.0623
4 -5 5 -0.4487 0.2059
4 -5 6 -0.3343 0.1478
4 -5 7 -0.8916 -0.0554
4 -5 8 -2.0050 -0.0279
4 -5 9 -2.1817 0.0420
4 -5 10 -1.0244 -0.0461
4 -5 11 0.0883 -0.0115
4 -4 0 -0.3302 0.3970
4 -4 1 -0.0750 0.5201
4 -4 2 0.8937 0.2241
4 -4 3 1.0307 -0.2031
4 -4 4 0.3006 -0.1728
4 -4 5 0.0312 0.1376
4 -4 6 0.0509 0.1415
4 -4 7 -0.9125 -0.0422
4 -4 8 -2.3934 -0.0182
4 -4 9 -2.5619 0.0212
4 -4 10 -1.1194 -0.1091
4 -4 11 0.2888 -0.1056
4 -3 0 -0.5203 0.4118
4 -3 1 0.7735 0.5030
4 -3 2 1.4921 0.2508
4 -3 3 1.3688 -0.1171
4 -3 4 1.0294 -0.1485
4 -3 5 0.9747 -0.0126
4 -3 6 1.1166 -0.0272
4 -3 7 1.0624 -0.0184
4 -3 8 0.5962 0.0844
4 -3 9 0.1645 0.0251
4 -3 10 0.4089 -0.1586
4 -3 11 0.9971 -0.2074
4 -2 0 0.0290 0.2992
4 -2 1 0.0155 0.2403
4 -2 2 0.4485 0.1050
4 -2 3 0.9528 0.1066
4 -2 4 0.9394 0.0820
4 -2 5 0.3341 -0.1285
4 -2 6 -0.4584 -0.1807
4 -2 7 -1.0387 0.0283
4 -2 8 -1.2329 0.0896
4 -2 9 -1.1203 -0.0244
4 -2 10 -0.8384 -0.0305
4 -1 0 -2.1899 0.2523
4 -1 1 -1.7480 -0.0891
4 -1 2 -1.0641 -0.0991
4 -1 3 -0.6641 0.2865
4 -1 4 -0.2718 0.2077
4 -1 5 0.0003 -0.2387
4 -1 6 -0.0398 -0.2129
4 -1 7 -0.1447 0.0803
4 -1 8 -0.1213 0.0409
4 -1 9 0.0032 -0.0471
4 -1 10 0.1841 0.0420
4 0 0 -0.8300 -0.3135
4 0 1 0.3276 -0.5054
4 0 2 0.4616 -0.2625
4 0 3 0.1120 0.2176
4 0 4 0.4999 0.2397
4 0 5 0.9978 -0.0791
4 0 6 0.2731 -0.1420
4 0 7 -0.7978 0.0194
4 0 8 -0.1961 0.0482
4 0 9 1.6105 -0.0079
4 0 10 2.1696 0.0365
4 1 0 0.4102 0.0438
4 1 1 0.3676 -0.1738
4 1 2 0.2104 -0.2939
4 1 3 0.2689 -0.1517
4 1 4 0.1881 0.0894
4 1 5 0.2704 0.1672
4 1 6 0.7604 0.0251
4 1 7 0.7311 -0.0987
4 1 8 -0.1411 -0.0445
4 1 9 -0.4575 0.0340
4 1 10 0.4000 0.0086
4 2 0 2.3025 0.1288
4 2 1 0.4933 -0.0435
4 2 2 -0.3313 -0.1179
4 2 3 -0.0596 -0.1296
4 2 4 0.3697 -0.0228
4 2 5 0.4860 0.1332
4 2 6 -0.0097 0.1602
4 2 7 -1.3998 0.0647
4 2 8 -2.8120 -0.0077
4 2 9 -2.6969 -0.0409
4 2 10 -1.1183 -0.1163
4 3 0 0.8799 -0.2587
4 3 1 1.2422 -0.0238
4 3 2 1.4013 0.1119
4 3 3 0.8445 -0.0657
4 3 4 0.0537 -0.1572
4 3 5 -0.2982 0.0188
4 3 6 -0.2051 0.1541
4 3 7 0.0293 0.1410
4 3 8 0.2707 0.1714
4 3 9 0.4387 0.1850
4 4 0 -0.3426 -0.1177
4 4 1 -0.0314 0.0252
4 4 2 0.0784 0.1887
4 4 3 0.0950 0.0638
4 4 4 0.1321 -0.1066
4 4 5 -0.1974 -0.0139
4 4 6 -0.5808 0.0936
4 4 7 -0.3586 -0.0189
4 4 8 0.0205 -0.0926
4 4 9 -0.1078 0.0156
4 5 0 -0.4853 -0.1546
4 5 1 -0.2320 0.0893
4 5 2 0.4135 0.2365
4 5 3 0.4862 0.0835
4 5 4 -0.1882 -0.1419
4 5 5 -0.7655 -0.1161
4 5 6 -1.1081 0.0819
4 5 7 -1.4708 0.0952
4 5 8 -1.3202 -0.1464
4 6 0 -0.6822 -0.0641
4 6 1 -0.0671 0.1436
4 6 2 0.1950 0.2028
4 6 3 0.0349 0.0350
4 6 4 0.5447 -0.0945
4 6 5 1.1149 -0.0006
4 6 6 0.3577 0.1368
4 6 7 -0.9994 0.0951
4 6 8 -1.2270 -0.0295
4 7 0 0.2064 -0.0154
4 7 1 -0.0016 0.0452
4 7 2 -0.1931 -0.0564
4 7 3 -0.6241 -0.0644
4 7 4 -1.0543 0.0907
4 7 5 -0.7270 0.1340
4 7 6 -0.0099 -0.0325
4 8 0 -0.3656 0.0876
4 8 1 -1.0650 -0.0331
4 8 2 -1.0175 -0.1814
4 8 3 -0.0574 -0.0336
4 8 4 0.3790 0.1997
4 8 5 -0.3128 0.1011
4 9 0 0.2021 -0.0407
4 9 1 -0.0706 0.0310
4 9 2 -0.1144 0.0654
4 9 3 -0.2612 0.0862
4 10 0 0.6717 0.0684
4 10 1 0.6957 -0.0211
4 11 0 0.3403 -0.1029
5 -12 0 -0.1987 -0.1749
5 -12 1 -1.0279 -0.0392
5 -12 2 -0.3429 0.0800
5 -12 3 -1.3121 0.0800
5 -12 4 -3.6537 0.0230
5 -12 5 -3.4158 -0.0187
5 -12 6 -0.3008 -0.0212
5 -11 0 -2.4532 -0.0673
5 -11 1 -2.3011 0.0531
5 -11 2 -1.7276 0.0883
5 -11 3 -0.9510 0.0894
5 -11 4 -0.3482 0.0603
5 -11 5 -0.7548 -0.0315
5 -11 6 -2.0848 -0.0891
5 -11 7 -2.8038 -0.0286
5 -11 8 -1.9501 0.0454
5 -11 9 -0.5187 0.0394
5 -10 0 0.6164 0.0037
5 -10 1 0.7171 -0.0139
5 -10 2 -0.4622 -0.0401
5 -10 3 -0.9589 0.1027
5 -10 4 -0.1251 0.1910
5 -10 5 0.2833 0.0461
5 -10 6 -0.2106 -0.0942
5 -10 7 -0.4827 -0.0446
5 -10 8 -0.4638 0.0396
5 -10 9 -0.6079 0.0485
5 -9 0 -1.0993 0.0822
5 -9 1 -0.4258 -0.0698
5 -9 2 0.9830 -0.1275
5 -9 3 1.1193 0.0110
5 -9 4 -0.0965 0.1329
5 -9 5 -0.4902 0.0908
5 -9 6 0.1958 0.0101
5 -9 7 0.0974 -0.0208
5 -9 8 -0.4720 -0.0500
5 -9 9 0.2251 -0.0592
5 -9 10 1.3174 -0.0480
5 -8 0 -0.4603 0.1065
5 -8 1 -0.4562 -0.0963
5 -8 2 -0.1769 -0.2009
5 -8 3 0.3275 -0.1084
5 -8 4 1.0825 0.0144
5 -8 5 1.4801 0.0654
5 -8 6 0.9278 0.0578
5 -8 7 0.1415 -0.0250
5 -8 8 0.1567 -0.1026
5 -8 9 0.5082 -0.0532
5 -8 10 0.2925 0.0173
5 -7 0 -0.0387 0.1109
5 -7 1 0.1340 -0.0788
5 -7 2 0.3096 -0.1402
5 -7 3 -0.5012 -0.1293
5 -7 4 -1.5661 -0.1036
5 -7 5 -1.1546 0.0240
5 -7 6 0.6008 0.1383
5 -7 7 1.9090 0.0569
5 -7 8 1.6002 -0.0714
5 -7 9 0.1910 -0.0546
5 -7 10 -0.7483 -0.0059
5 -6 0 -0.9370 -0.1484
5 -6 1 -0.8954 -0.0903
5 -6 2 0.1880 0.0752
5 -6 3 0.8131 -0.0403
5 -6 4 0.4833 -0.2019
5 -6 5 0.0533 -0.0625
5 -6 6 0.2888 0.1426
5 -6 7 0.9937 0.1161
5 -6 8 1.3631 0.0178
5 -6 9 1.1385 0.0399
5 -6 10 0.9395 0.0759
5 -5 0 -0.4068 -0.2707
5 -5 1 -0.0703 -0.0027
5 -5 2 -0.2376 0.2171
5 -5 3 -0.7646 0.0537
5 -5 4 -1.3121 -0.1733
5 -5 5 -1.4045 -0.1012
5 -5 6 -0.2912 0.0760
5 -5 7 1.5070 0.0772
5 -5 8 2.0997 0.0258
5 -5 9 0.9623 0.0746
5 -5 10 -0.3314 0.1041
5 -4 0 0.7400 -0.1370
5 -4 1 0.4812 0.1231
5 -4 2 -0.0803 0.2702
5 -4 3 -0.2242 0.1744
5 -4 4 -0.2284 -0.0265
5 -4 5 -0.4666 -0.1070
5 -4 6 -0.4512 -0.0347
5 -4 7 0.4491 0.0448
5 -4 8 1.8498 0.0565
5 -4 9 2.5331 0.0403
5 -4 10 1.9072 0.0514
5 -3 0 0.4589 -0.2350
5 -3 1 0.7094 0.0279
5 -3 2 0.7085 0.1507
5 -3 3 0.3686 0.1374
5 -3 4 0.2494 0.1027
5 -3 5 0.4088 0.0366
5 -3 6 0.1463 -0.0842
5 -3 7 -0.6174 -0.0998
5 -3 8 -0.7721 0.0189
5 -3 9 0.4081 0.0401
5 -3 10 1.9219 -0.0294
5 -2 0 0.7678 0.0002
5 -2 1 0.5727 0.0520
5 -2 2 0.1002 -0.0831
5 -2 3 -0.2021 -0.0354
5 -2 4 -0.1682 0.2271
5 -2 5 0.0581 0.1891
5 -2 6 0.0196 -0.1582
5 -2 7 -0.4283 -0.2136
5 -2 8 -0.5028 0.0193
5 -2 9 0.3340 0.0352
5 -2 10 1.0604 -0.0760
5 -1 0 0.3437 0.2069
5 -1 1 0.3788 0.1155
5 -1 2 0.8641 -0.2021
5 -1 3 0.9276 -0.1330
5 -1 4 0.0728 0.2031
5 -1 5 -0.9027 0.1567
5 -1 6 -0.9291 -0.1200
5 -1 7 -0.0524 -0.0999
5 -1 8 0.3752 0.0080
5 -1 9 -0.5698 -0.1309
5 0 0 -1.4728 0.4047
5 0 1 -1.0479 0.1448
5 0 2 -0.2624 -0.1499
5 0 3 0.1988 -0.1766
5 0 4 0.1951 -0.0210
5 0 5 0.1959 0.0739
5 0 6 0.5563 0.0587
5 0 7 1.0745 0.0065
5 0 8 1.2933 -0.0126
5 0 9 1.0616 -0.0070
5 1 0 -0.8352 0.3348
5 1 1 -0.8892 0.1045
5 1 2 -0.8293 -0.0085
5 1 3 -0.2794 -0.1185
5 1 4 0.1060 -0.2183
5 1 5 -0.9469 -0.0684
5 1 6 -1.9302 0.1823
5 1 7 -0.5094 0.1190
5 1 8 1.5865 -0.1513
5 1 9 1.1850 -0.2212
5 2 0 -0.1329 0.4349
5 2 1 -0.5506 0.1665
5 2 2 -1.2349 0.0535
5 2 3 -0.9788 0.0087
5 2 4 -0.4792 -0.0804
5 2 5 -0.4611 -0.0729
5 2 6 -0.2978 0.0741
5 2 7 0.0574 0.1376
5 2 8 -0.1597 0.0078
5 2 9 -0.6198 -0.1300
5 3 0 -1.7762 -0.0924
5 3 1 -2.5700 -0.2343
5 3 2 -1.8969 -0.0329
5 3 3 -0.8472 0.1467
5 3 4 -0.0128 0.0236
5 3 5 1.2115 -0.1194
5 3 6 2.0827 -0.0211
5 3 7 1.3200 0.1016
5 3 8 0.0784 0.0548
5 4 0 0.2801 -0.1663
5 4 1 0.5233 -0.1716
5 4 2 0.5973 -0.0579
5 4 3 0.4580 0.0893
5 4 4 0.5394 0.0683
5 4 5 0.7337 -0.0520
5 4 6 -0.0488 -0.0725
5 4 7 -1.7167 -0.0266
5 4 8 -2.4464 -0.0272
5 5 0 0.2021 -0.1444
5 5 1 0.3286 -0.0493
5 5 2 0.4285 0.0249
5 5 3 0.6697 0.0931
5 5 4 0.8557 0.1421
5 5 5 1.1689 0.1129
5 5 6 1.8281 0.0907
5 5 7 2.0745 0.2447
5 6 0 0.0814 -0.2436
5 6 1 -0.3544 -0.0626
5 6 2 -0.3106 0.1461
5 6 3 0.0588 0.2216
5 6 4 0.0684 0.1903
5 6 5 -0.4952 0.1008
5 6 6 -0.8188 -0.0559
5 6 7 -0.1978 -0.1937
5 7 0 0.9945 -0.1177
5 7 1 0.3513 0.0634
5 7 2 -0.6626 0.1324
5 7 3 -0.6868 0.0587
5 7 4 -0.2520 0.0301
5 7 5 -0.2477 0.0789
5 7 6 -0.1491 0.0429
5 8 0 0.3519 0.0436
5 8 1 1.0836 0.1446
5 8 2 1.0620 0.0941
5 8 3 0.3001 -0.0394
5 8 4 0.0087 -0.0017
5 9 0 -0.0373 0.3119
5 9 1 -0.5333 0.2372
5 9 2 -0.0026 0.0636
6 -12 0 1.4239 -0.1156
6 -12 1 0.5213 -0.0672
6 -12 2 0.8259 -0.0191
6 -12 3 2.6240 0.0227
6 -12 4 2.4879 0.0584
6 -12 5 0.0238 0.0228
6 -11 0 0.1463 -0.0358
6 -11 1 -0.8138 0.0594
6 -11 2 -0.3215 0.0565
6 -11 3 0.1320 0.0379
6 -11 4 0.3738 0.1002
6 -11 5 1.3369 0.1246
6 -11 6 1.8465 0.0176
6 -11 7 0.3800 -0.0595
6 -11 8 -1.5119 0.0089
6 -10 0 -0.7700 0.1169
6 -10 1 -0.0161 0.1565
6 -10 2 0.3958 0.0314
6 -10 3 -1.0448 -0.0260
6 -10 4 -2.1997 0.0959
6 -10 5 -1.2894 0.1691
6 -10 6 0.4322 0.0822
6 -10 7 1.5637 -0.0011
6 -10 8 1.7921 -0.0040
6 -10 9 0.9833 0.0021
6 -9 0 0.8299 0.3618
6 -9 1 -0.1742 0.1771
6 -9 2 -0.6788 -0.0210
6 -9 3 -0.0400 -0.0584
6 -9 4 -0.2009 0.0095
6 -9 5 -1.5112 0.0564
6 -9 6 -1.4588 0.0816
6 -9 7 0.2760 0.0766
6 -9 8 0.9505 -0.0450
6 -9 9 -0.0287 -0.2098
6 -8 0 -0.3642 0.3528
6 -8 1 -0.7653 0.1532
6 -8 2 -0.9968 -0.0089
6 -8 3 -0.8846 -0.0673
6 -8 4 -0.4131 -0.1175
6 -8 5 -0.3068 -0.1399
6 -8 6 -1.1602 -0.0187
6 -8 7 -2.2252 0.0971
6 -8 8 -2.0702 -0.0056
6 -8 9 -0.7358 -0.1635
6 -7 0 0.6932 0.1581
6 -7 1 0.1431 0.0050
6 -7 2 -0.3702 -0.0260
6 -7 3 0.2679 0.0122
6 -7 4 0.7886 -0.0889
6 -7 5 0.3370 -0.1842
6 -7 6 -0.3619 -0.0649
6 -7 7 -0.6035 0.0671
6 -7 8 -0.1602 0.0131
6 -7 9 0.5703 -0.0797
6 -6 0 0.7105 -0.1109
6 -6 1 -0.4933 -0.1989
6 -6 2 -1.5011 -0.0020
6 -6 3 -1.3994 0.1308
6 -6 4 -0.0245 -0.0351
6 -6 5 1.5153 -0.1693
6 -6 6 1.3123 -0.0642
6 -6 7 -0.6326 0.0555
6 -6 8 -2.1139 0.0735
6 -6 9 -1.9451 0.0848
6 -5 0 -0.4838 -0.4094
6 -5 1 -1.0168 -0.2810
6 -5 2 -0.5307 0.0098
6 -5 3 -0.0991 0.1287
6 -5 4 -0.3704 0.0347
6 -5 5 -0.9781 -0.0346
6 -5 6 -1.1053 -0.0202
6 -5 7 -0.5117 -0.0027
6 -5 8 -0.0707 0.0582
6 -5 9 -0.3704 0.1762
6 -4 0 0.6628 -0.3765
6 -4 1 0.3694 -0.0937
6 -4 2 0.0058 0.0458
6 -4 3 -0.3338 0.0349
6 -4 4 -0.1847 0.0869
6 -4 5 0.4716 0.1463
6 -4 6 0.7669 0.0390
6 -4 7 0.0942 -0.0931
6 -4 8 -0.8543 -0.0168
6 -4 9 -1.0996 0.1674
6 -3 0 -0.2830 -0.2671
6 -3 1 -0.5950 -0.0410
6 -3 2 -0.7268 0.0509
6 -3 3 -1.1596 0.0075
6 -3 4 -1.7614 0.0464
6 -3 5 -1.6319 0.1593
6 -3 6 -0.2217 0.1006
6 -3 7 1.3672 -0.1010
6 -3 8 1.2624 -0.1211
6 -3 9 -0.4526 0.0570
6 -2 0 -0.3381 -0.0232
6 -2 1 -0.0284 0.1058
6 -2 2 0.1123 0.0198
6 -2 3 -0.0678 -0.1590
6 -2 4 -0.0611 -0.0767
6 -2 5 0.3164 0.1725
6 -2 6 0.4519 0.1562
6 -2 7 -0.2704 -0.0912
6 -2 8 -1.4559 -0.1757
6 -2 9 -1.9268 -0.0651
6 -1 0 0.9163 0.2229
6 -1 1 0.9438 0.2446
6 -1 2 0.5237 0.0678
6 -1 3 0.4265 -0.1319
6 -1 4 0.8169 -0.0950
6 -1 5 0.8138 0.0374
6 -1 6 -0.2155 0.0337
6 -1 7 -1.3139 -0.0414
6 -1 8 -0.9803 -0.1138
6 0 0 0.2896 0.2237
6 0 1 0.5739 0.1847
6 0 2 0.4721 0.0862
6 0 3 -0.1568 0.0129
6 0 4 -0.5456 -0.0839
6 0 5 0.0642 -0.1597
6 0 6 0.5045 -0.0347
6 0 7 -0.8047 0.1443
6 0 8 -2.7284 0.0704
6 1 0 0.7887 0.2762
6 1 1 0.9549 0.0348
6 1 2 0.7962 -0.0555
6 1 3 -0.5425 0.0655
6 1 4 -1.3956 0.0206
6 1 5 -0.7179 -0.2064
6 1 6 -0.2962 -0.2219
6 1 7 -0.8461 -0.0446
6 1 8 -0.7729 -0.0195
6 2 0 -0.5283 0.0163
6 2 1 0.4005 -0.0189
6 2 2 0.3442 -0.0239
6 2 3 0.3633 0.0252
6 2 4 0.8660 0.0456
6 2 5 0.9255 -0.0014
6 2 6 1.1011 -0.0704
6 2 7 2.2654 -0.0817
6 3 0 1.0412 -0.0397
6 3 1 0.3542 -0.1348
6 3 2 0.1293 -0.1221
6 3 3 0.6190 0.0117
6 3 4 0.0895 0.1018
6 3 5 -1.1767 0.0215
6 3 6 -0.6453 -0.1230
6 3 7 1.2840 -0.1446
6 4 0 -0.0909 -0.2648
6 4 1 0.0937 -0.2211
6 4 2 -0.1118 -0.1319
6 4 3 -0.2197 -0.0312
6 4 4 -0.1374 0.1006
6 4 5 0.1360 0.1723
6 4 6 0.6500 0.0978
6 5 0 0.4292 -0.0890
6 5 1 0.8085 0.0008
6 5 2 0.8323 0.0819
6 5 3 -0.0077 0.1102
6 5 4 -0.9735 0.1229
6 5 5 -1.1060 0.1278
6 5 6 -0.6893 0.0322
6 6 0 -0.1612 -0.0820
6 6 1 -0.1070 -0.0052
6 6 2 -0.8546 0.1536
6 6 3 -2.1610 0.2022
6 6 4 -2.0512 0.0136
6 6 5 -0.2354 -0.1899
6 7 0 -0.0390 0.0169
6 7 1 0.8394 0.0587
6 7 2 0.9989 0.0545
6 7 3 0.5257 -0.0159
6 7 4 0.2704 -0.0838
6 7 5 0.2456 -0.1209
6 8 0 0.5825 0.2166
6 8 1 -0.5905 0.0847
6 8 2 -0.8292 -0.0916
6 8 3 -0.3488 -0.2621
6 9 0 1.2517 0.0175
6 9 1 1.1534 0.2524
6 9 2 -0.4752 0.3939
7 -12 0 0.7231 0.0502
7 -12 1 0.8744 -0.0178
7 -12 2 -0.5237 -0.0774
7 -12 3 -0.3853 -0.1234
7 -12 4 1.8623 -0.0890
7 -11 0 1.3693 0.0832
7 -11 1 -0.7532 0.1213
7 -11 2 -2.7556 0.0916
7 -11 3 -2.2572 -0.0089
7 -11 4 -1.0532 -0.0637
7 -11 5 -0.5574 0.0116
7 -11 6 0.1513 0.1242
7 -10 0 -0.0113 0.0914
7 -10 1 0.2093 0.1540
7 -10 2 0.6343 0.1357
7 -10 3 0.9000 0.0347
7 -10 4 0.2989 -0.0145
7 -10 5 -0.4589 0.0030
7 -10 6 -0.6744 0.0308
7 -10 7 -0.4291 0.0719
7 -10 8 0.2455 0.1021
7 -9 0 -0.5882 0.2292
7 -9 1 0.0672 0.1988
7 -9 2 -0.2288 0.0847
7 -9 3 -0.4961 0.0220
7 -9 4 0.1973 -0.0018
7 -9 5 0.4748 -0.0566
7 -9 6 -0.5530 -0.0658
7 -9 7 -1.4211 0.0615
7 -9 8 -1.2737 0.2116
7 -8 0 1.6739 0.2462
7 -8 1 1.2781 0.1511
7 -8 2 0.2866 0.0326
7 -8 3 -0.9326 0.0115
7 -8 4 -1.0864 0.0102
7 -8 5 0.6310 -0.0964
7 -8 6 2.9938 -0.1798
7 -8 7 3.8156 -0.0911
7 -8 8 2.3235 0.0032
7 -7 0 -0.4253 0.1018
7 -7 1 1.1558 0.0064
7 -7 2 1.6682 -0.0698
7 -7 3 1.3769 0.0144
7 -7 4 0.6188 0.0644
7 -7 5 -0.5776 -0.0646
7 -7 6 -0.5532 -0.1527
7 -7 7 1.1874 -0.0860
7 -7 8 2.2226 -0.0616
7 -6 0 -0.5841 -0.0581
7 -6 1 -0.2432 -0.1937
7 -6 2 0.5771 -0.1754
7 -6 3 1.0037 0.0208
7 -6 4 0.0389 0.0920
7 -6 5 -1.0553 -0.0068
7 -6 6 -0.7628 -0.0477
7 -6 7 0.2110 -0.0223
7 -6 8 0.6330 -0.0549
7 -5 0 0.5790 -0.1294
7 -5 1 -0.1645 -0.2418
7 -5 2 -0.3571 -0.1662
7 -5 3 0.7281 -0.0283
7 -5 4 1.9998 0.0292
7 -5 5 1.9973 0.0698
7 -5 6 0.8362 0.1105
7 -5 7 0.1785 0.0649
7 -5 8 0.7291 -0.0133
7 -4 0 -0.4576 -0.2146
7 -4 1 -0.5616 -0.1345
7 -4 2 -0.2677 0.0067
7 -4 3 -0.2396 -0.0333
7 -4 4 -0.5959 -0.0869
7 -4 5 -0.5390 0.0613
7 -4 6 -0.0954 0.1975
7 -4 7 -0.2084 0.1134
7 -4 8 -0.7137 0.0053
7 -3 0 -0.1666 -0.0312
7 -3 1 -0.1456 0.0340
7 -3 2 0.2747 0.0747
7 -3 3 0.6252 -0.0268
7 -3 4 0.1679 -0.1025
7 -3 5 -1.2949 -0.0014
7 -3 6 -2.7297 0.1302
7 -3 7 -2.5526 0.1052
7 -3 8 -0.8223 0.0369
7 -2 0 0.5768 -0.0312
7 -2 1 -0.4564 0.0457
7 -2 2 -0.4392 0.0982
7 -2 3 0.4007 0.0139
7 -2 4 0.8669 -0.0629
7 -2 5 1.0123 -0.0179
7 -2 6 1.6149 0.0160
7 -2 7 2.4058 -0.0279
7 -1 0 0.0815 0.1142
7 -1 1 0.0855 0.1622
7 -1 2 -0.4971 0.0889
7 -1 3 -0.7495 0.0082
7 -1 4 0.0531 0.0063
7 -1 5 1.0283 -0.0231
7 -1 6 1.2260 -0.1472
7 -1 7 0.9666 -0.1534
7 0 0 0.0106 -0.0380
7 0 1 -0.1139 0.0728
7 0 2 -0.0458 0.0469
7 0 3 0.5952 0.0499
7 0 4 0.4926 0.1035
7 0 5 -0.7922 -0.0145
7 0 6 -1.2158 -0.2131
7 0 7 0.1084 -0.1375
7 1 0 0.5468 0.0370
7 1 1 0.3129 0.0620
7 1 2 0.8274 -0.0714
7 1 3 1.7907 -0.0660
7 1 4 1.6956 0.0185
7 1 5 0.4119 -0.0795
7 1 6 -1.2291 -0.2299
7 2 0 0.0855 0.0102
7 2 1 1.0285 -0.0332
7 2 2 1.0809 -0.0627
7 2 3 0.1290 -0.0333
7 2 4 0.7259 -0.0099
7 2 5 2.5343 0.0145
7 2 6 2.3053 0.0376
7 3 0 0.2948 -0.0036
7 3 1 0.2528 -0.0445
7 3 2 -0.4509 -0.0370
7 3 3 -1.4821 -0.0541
7 3 4 -2.0724 -0.1033
7 3 5 -2.6447 -0.0888
7 3 6 -3.1704 -0.0589
7 4 0 -0.8171 -0.0454
7 4 1 -0.5398 -0.1148
7 4 2 0.2639 -0.0288
7 4 3 0.7694 -0.0286
7 4 4 0.8913 -0.0675
7 4 5 0.7638 0.0052
7 5 0 -0.2326 -0.0482
7 5 1 -0.5788 -0.0395
7 5 2 0.3009 -0.0887
7 5 3 2.4410 -0.1679
7 5 4 3.0104 -0.1358
7 6 0 0.3312 0.0343
7 6 1 0.4414 -0.1324
7 6 2 1.1949 -0.2327
7 6 3 1.7838 -0.0747
7 6 4 0.7979 0.1848
7 7 0 1.2348 -0.1842
7 7 1 1.4201 -0.1756
7 7 2 1.0862 0.0856
7 7 3 0.4466 0.3340
7 8 0 -1.2659 -0.0456
7 8 1 -0.7940 -0.0898
7 8 2 -0.5425 -0.0968
7 9 0 -1.4572 -0.3328
7 9 1 -0.6988 -0.5875
8 -11 0 0.2100 -0.0212
8 -11 1 1.9885 0.0258
8 -11 2 1.9594 0.0344
8 -11 3 0.9592 -0.0278
8 -11 4 0.6860 -0.1140
8 -11 5 0.6736 -0.1764
8 -10 0 -1.4638 -0.0847
8 -10 1 -1.5317 0.0243
8 -10 2 0.3646 0.0954
8 -10 3 2.2655 0.0534
8 -10 4 2.6841 0.0029
8 -10 5 1.5856 -0.0184
8 -10 6 0.0487 -0.0596
8 -9 0 0.2266 0.0016
8 -9 1 -0.3984 0.0982
8 -9 2 -0.2676 0.0555
8 -9 3 0.3452 0.0369
8 -9 4 0.7969 0.0889
8 -9 5 0.6336 0.0795
8 -9 6 -0.3790 0.0061
8 -9 7 -1.3385 0.0086
8 -8 0 0.1108 0.0693
8 -8 1 0.5546 0.1044
8 -8 2 0.9680 0.0622
8 -8 3 1.1760 0.0320
8 -8 4 0.9110 0.0617
8 -8 5 0.2680 0.0549
8 -8 6 -0.8433 -0.0684
8 -8 7 -1.8383 -0.1797
8 -7 0 -0.7241 0.1049
8 -7 1 -0.4237 0.0647
8 -7 2 -0.4755 -0.0344
8 -7 3 -1.0192 -0.0587
8 -7 4 -0.4048 0.0286
8 -7 5 0.2476 0.0554
8 -7 6 -1.0533 -0.0441
8 -7 7 -2.6928 -0.1318
8 -6 0 0.5571 0.0549
8 -6 1 0.3913 -0.0769
8 -6 2 -0.2914 -0.1375
8 -6 3 0.1074 -0.0872
8 -6 4 1.0199 -0.0255
8 -6 5 1.1728 -0.0145
8 -6 6 0.8558 0.0016
8 -6 7 0.3399 -0.0222
8 -5 0 0.4091 0.0501
8 -5 1 0.6335 -0.1219
8 -5 2 -0.2170 -0.1136
8 -5 3 -0.9402 -0.0508
8 -5 4 -1.0011 -0.0841
8 -5 5 -0.6858 -0.0784
8 -5 6 -0.2565 0.0738
8 -5 7 0.0079 0.1340
8 -4 0 0.9278 -0.0036
8 -4 1 0.6025 -0.1306
8 -4 2 -0.0164 -0.0453
8 -4 3 -0.1219 0.0355
8 -4 4 -0.0498 -0.0604
8 -4 5 0.5848 -0.1012
8 -4 6 2.4740 0.0755
8 -4 7 4.0987 0.2171
8 -3 0 -0.7488 -0.0998
8 -3 1 -0.4814 -0.0720
8 -3 2 -0.1630 0.0453
8 -3 3 0.0499 0.0985
8 -3 4 0.6962 0.0143
8 -3 5 1.4812 -0.0715
8 -3 6 1.1029 0.0115
8 -2 0 0.6428 -0.0860
8 -2 1 0.0052 -0.0176
8 -2 2 -0.9058 0.0653
8 -2 3 -1.2998 0.0961
8 -2 4 -0.9849 0.0455
8 -2 5 -0.2507 -0.0200
8 -2 6 0.4963 -0.0185
8 -1 0 -0.6514 -0.1554
8 -1 1 0.2997 0.0569
8 -1 2 0.9669 0.0768
8 -1 3 -0.7986 0.0070
8 -1 4 -2.9432 0.0289
8 -1 5 -2.3739 0.0984
8 -1 6 -0.2624 0.0360
8 0 0 -0.0448 -0.1038
8 0 1 0.0452 0.0568
8 0 2 0.0049 0.1002
8 0 3 -0.3623 0.0106
8 0 4 -0.5263 -0.0180
8 0 5 -0.5473 0.0326
8 1 0 0.3194 -0.0125
8 1 1 -0.3724 0.0361
8 1 2 -0.7658 -0.0375
8 1 3 -0.1971 -0.0870
8 1 4 0.6534 -0.0071
8 1 5 1.2565 -0.0118
8 2 0 0.0014 0.2062
8 2 1 -0.9657 0.1153
8 2 2 -0.8546 -0.0174
8 2 3 -0.9707 -0.0891
8 2 4 -2.7116 -0.1189
8 2 5 -3.9088 -0.0988
8 3 0 1.1891 0.1831
8 3 1 0.0726 -0.0369
8 3 2 -0.1969 -0.1327
8 3 3 0.7995 -0.0639
8 3 4 2.0694 -0.1658
8 4 0 0.4421 0.1877
8 4 1 -0.0597 -0.0962
8 4 2 -0.7262 -0.1851
8 4 3 -1.3632 -0.1756
8 5 0 -1.1252 -0.1373
8 5 1 0.0984 -0.2045
8 5 2 -0.8728 -0.2660
8 5 3 -2.5561 -0.4296
8 6 0 -0.7479 -0.1238
8 6 1 -0.3022 -0.1123
8 6 2 -0.2646 -0.2270
8 7 0 -1.1517 0.0780
8 7 1 -0.8924 -0.1074
8 8 0 1.1669 0.1537
9 -11 0 -0.1548 -0.1567
9 -11 1 1.1570 -0.1344
9 -11 2 1.6432 -0.1416
9 -11 3 0.8340 -0.1309
9 -11 4 -0.2299 -0.0789
9 -10 0 1.6293 -0.2007
9 -10 1 0.1032 -0.1572
9 -10 2 -1.3499 -0.0507
9 -10 3 -2.1803 0.0249
9 -10 4 -2.3378 0.0694
9 -9 0 -2.4235 -0.1195
9 -9 1 -0.7171 0.0426
9 -9 2 0.0684 0.0642
9 -9 3 -0.2102 0.0148
9 -9 4 -0.1936 0.0887
9 -9 5 0.7660 0.1798
9 -9 6 1.8544 0.1337
9 -8 0 -0.3939 0.0667
9 -8 1 -0.9047 0.0962
9 -8 2 -1.3723 0.0856
9 -8 3 -1.8493 0.0581
9 -8 4 -2.6717 0.0286
9 -8 5 -2.7937 0.0528
9 -8 6 -1.2401 0.1618
9 -7 0 -0.7633 0.1642
9 -7 1 -0.7832 0.1118
9 -7 2 0.6340 0.0448
9 -7 3 0.9725 -0.0035
9 -7 4 -0.0296 -0.0336
9 -7 5 -0.6402 -0.0721
9 -7 6 -0.7375 -0.0996
9 -6 0 0.6342 0.1893
9 -6 1 0.9331 0.0244
9 -6 2 0.1383 -0.0963
9 -6 3 -0.6496 -0.0665
9 -6 4 0.2620 -0.0298
9 -6 5 1.3415 -0.1323
9 -5 0 -1.0391 0.1424
9 -5 1 -0.0013 -0.0123
9 -5 2 0.2682 -0.1055
9 -5 3 -0.0611 -0.0584
9 -5 4 0.5156 -0.0248
9 -5 5 1.1458 -0.1059
9 -4 0 -1.3894 -0.0209
9 -4 1 -0.8251 -0.0302
9 -4 2 -0.4283 -0.0324
9 -4 3 -0.3266 -0.0243
9 -4 4 -1.3920 -0.0088
9 -4 5 -3.8004 0.0356
9 -3 0 0.2023 -0.2002
9 -3 1 -0.1141 -0.0531
9 -3 2 0.5553 0.0542
9 -3 3 1.2116 0.0080
9 -3 4 0.8215 0.0071
9 -3 5 0.2982 0.1796
9 -2 0 0.8115 -0.1817
9 -2 1 0.6727 -0.0501
9 -2 2 -0.4170 0.0382
9 -2 3 -0.6786 -0.0049
9 -2 4 -0.3425 0.0036
9 -2 5 -0.7674 0.1622
9 -1 0 -1.3783 -0.1612
9 -1 1 -1.7211 0.0041
9 -1 2 -0.7857 0.1030
9 -1 3 0.9700 0.0344
9 -1 4 1.2104 -0.0016
9 0 0 -0.9941 -0.0689
9 0 1 -0.7639 -0.0116
9 0 2 -0.9732 0.0815
9 0 3 -0.7767 0.0916
9 0 4 0.4931 0.0078
9 1 0 0.5912 0.1144
9 1 1 1.3880 0.0994
9 1 2 0.7801 0.0248
9 1 3 -0.5453 -0.0381
9 2 0 -0.4873 0.1415
9 2 1 0.4398 0.1166
9 2 2 -0.0366 -0.0353
9 2 3 -0.6578 -0.1405
9 3 0 -1.8763 0.1231
9 3 1 -0.7204 0.1250
9 3 2 0.2856 -0.1553
9 4 0 -0.4594 0.0268
9 4 1 -1.2097 -0.0663
9 4 2 -0.3171 -0.0416
9 5 0 -1.8109 -0.0635
9 5 1 -2.9206 0.0161
9 6 0 -0.5123 0.2314
10 -11 0 -0.4462 -0.1704
10 -10 0 0.3971 -0.1961
10 -10 1 -0.1923 -0.2069
10 -9 0 2.3289 -0.1129
10 -9 1 0.1671 -0.0378
10 -9 2 -0.1415 0.0752
10 -9 3 0.1127 0.0442
10 -8 0 1.6132 0.0708
10 -8 1 2.7938 0.1117
10 -8 2 2.2937 0.0761
10 -8 3 1.4821 0.1066
10 -8 4 1.1711 0.1905
10 -7 0 0.3829 0.1504
10 -7 1 -0.7200 0.2010
10 -7 2 -0.2575 0.1071
10 -7 3 0.8422 0.0096
10 -7 4 0.7906 0.0129
10 -6 0 -1.1048 0.1359
10 -6 1 -0.5156 0.1530
10 -6 2 0.9217 0.0335
10 -6 3 0.4146 -0.0729
10 -6 4 -1.7914 -0.1114
10 -5 0 0.0729 0.0937
10 -5 1 0.5392 0.0534
10 -5 2 1.9170 -0.0147
10 -5 3 1.9122 -0.0513
10 -5 4 0.5596 -0.1347
10 -4 0 1.2288 -0.0120
10 -4 1 2.0633 -0.1078
10 -4 2 1.4810 -0.0704
10 -4 3 1.2807 0.0369
10 -4 4 2.5498 -0.0195
10 -3 0 -0.6730 -0.0747
10 -3 1 -0.6205 -0.2160
10 -3 2 -0.1689 -0.0713
10 -3 3 0.7335 0.1232
10 -2 0 -0.6601 -0.0606
10 -2 1 0.0901 -0.1827
10 -2 2 0.3526 -0.0881
10 -2 3 -0.3856 0.0604
10 -1 0 1.6551 0.0312
10 -1 1 1.1328 0.0143
10 -1 2 1.6209 0.0506
10 -1 3 2.3713 0.1064
10 0 0 -1.8603 -0.0501
10 0 1 -1.6018 -0.0163
10 0 2 -0.2826 0.0494
10 1 0 -0.8918 -0.0013
10 1 1 -1.8449 0.1099
10 1 2 -1.3740 0.1710
10 2 0 -0.5991 -0.0986
10 2 1 0.2862 0.0448
10 3 0 4.1318 -0.0932
11 -8 0 -3.8963 -0.0049
11 -8 1 -2.9805 0.0975
11 -8 2 -1.3815 0.0573
11 -7 0 1.8446 0.0131
11 -7 1 0.1138 0.1809
11 -7 2 -2.1085 0.2786
11 -6 0 1.9807 0.0782
11 -6 1 0.5809 0.1015
11 -6 2 -1.0918 0.0772
11 -5 0 0.0794 0.0847
11 -5 1 -2.0317 0.0010
11 -5 2 -2.8210 -0.0611
11 -4 0 -0.9767 0.0828
11 -4 1 -0.0349 -0.0688
11 -4 2 1.2121 -0.1942
11 -3 0 -1.0624 0.0982
11 -3 1 -1.6936 -0.1207
11 -2 0 -0.0164 0.0648
11 -2 1 0.8982 -0.1078
11 -1 0 2.1845 -0.0342
11 -1 1 1.6328 0.0320
11 0 0 2.4037 -0.1333
12 -6 0 -1.6265 0.0407
12 -5 0 1.9564 0.1066
12 -4 0 0.8166 0.0852
0 0 0 0.0 0.0
;
_shelx_fab_checksum              8321
_olex2_submission_special_instructions 'No special instructions were received'
_oxdiff_exptl_absorpt_empirical_details
;
Empirical correction (ABSPACK) includes:
- Absorption correction using spherical harmonics
- Frame scaling
;
_oxdiff_exptl_absorpt_empirical_full_max 1.766
_oxdiff_exptl_absorpt_empirical_full_min 0.673
loop_
_space_group_symop_operation_xyz
'x, y, z'
'-x, -y, -z'
loop_
_atom_site_label
_atom_site_type_symbol
_atom_site_fract_x
_atom_site_fract_y
_atom_site_fract_z
_atom_site_U_iso_or_equiv
_atom_site_adp_type
_atom_site_occupancy
_atom_site_site_symmetry_order
_atom_site_calc_flag
_atom_site_refinement_flags_posn
_atom_site_refinement_flags_adp
_atom_site_refinement_flags_occupancy
_atom_site_disorder_assembly
_atom_site_disorder_group
Au1 Au 0.09793(2) 0.11867(2) 0.15368(2) 0.05806(9) Uani 1 1 d . . . . .
Cl15 Cl 0.3249(3) -0.0465(2) 0.5950(2) 0.1319(8) Uani 1 1 d . . . . .
Cl5 Cl 0.2242(3) 0.66661(17) 0.2136(3) 0.1405(9) Uani 1 1 d . . . . .
Cl3 Cl 0.6838(2) 0.4493(2) 0.42370(19) 0.1217(7) Uani 1 1 d . . . . .
Cl1 Cl -0.0637(2) -0.10038(14) 0.06604(13) 0.0898(5) Uani 1 1 d . . . . .
Cl13 Cl 0.0121(2) 0.3348(2) 0.6171(2) 0.1344(8) Uani 1 1 d . . . . .
F12 F -0.0073(4) 0.3000(3) 0.3522(3) 0.0872(10) Uani 1 1 d . . . . .
F6 F 0.0440(4) 0.3965(3) 0.1354(4) 0.0918(10) Uani 1 1 d . . . . .
F14 F 0.1778(5) 0.1434(5) 0.7068(4) 0.1300(16) Uani 1 1 d . . . . .
F16 F 0.2668(4) -0.0297(3) 0.3343(4) 0.0908(10) Uani 1 1 d . . . . .
F2 F 0.4437(4) 0.2093(3) 0.3204(3) 0.0891(10) Uani 1 1 d . . . . .
F4 F 0.5361(5) 0.6608(3) 0.3583(4) 0.1353(17) Uani 1 1 d . . . . .
C11 C 0.1264(5) 0.1333(4) 0.3382(4) 0.0517(12) Uani 1 1 d . . . . .
C2 C 0.3918(6) 0.3148(5) 0.2955(5) 0.0650(14) Uani 1 1 d . . . . .
C12 C 0.0679(6) 0.2188(5) 0.4071(5) 0.0623(14) Uani 1 1 d . . . . .
C16 C 0.2065(6) 0.0536(5) 0.3987(5) 0.0647(14) Uani 1 1 d . . . . .
C4 C 0.4398(9) 0.5409(6) 0.3152(6) 0.086(2) Uani 1 1 d . . . . .
C6 C 0.1917(6) 0.4076(5) 0.2029(5) 0.0634(14) Uani 1 1 d . . . . .
C15 C 0.2254(6) 0.0541(6) 0.5232(6) 0.0749(16) Uani 1 1 d . . . . .
C13 C 0.0840(6) 0.2243(6) 0.5318(6) 0.0737(16) Uani 1 1 d . . . . .
C14 C 0.1614(8) 0.1404(7) 0.5864(6) 0.085(2) Uani 1 1 d . . . . .
C3 C 0.4967(6) 0.4356(6) 0.3406(5) 0.0765(17) Uani 1 1 d . . . . .
C5 C 0.2882(8) 0.5312(5) 0.2450(6) 0.0818(18) Uani 1 1 d . . . . .
C1 C 0.2403(6) 0.2985(4) 0.2265(4) 0.0530(12) Uani 1 1 d . . . . .
loop_
_atom_site_aniso_label
_atom_site_aniso_U_11
_atom_site_aniso_U_22
_atom_site_aniso_U_33
_atom_site_aniso_U_23
_atom_site_aniso_U_13
_atom_site_aniso_U_12
Au1 0.06671(15) 0.04700(12) 0.04411(12) 0.00580(8) 0.01716(10) -0.01053(9)
Cl15 0.1320(17) 0.1274(15) 0.1200(16) 0.0820(13) 0.0086(13) 0.0115(13)
Cl5 0.209(2) 0.0686(10) 0.213(2) 0.0644(13) 0.143(2) 0.0487(12)
Cl3 0.0683(11) 0.1592(17) 0.0919(13) 0.0142(12) 0.0166(9) -0.0321(11)
Cl1 0.1214(13) 0.0680(8) 0.0496(8) 0.0042(7) 0.0295(8) -0.0403(8)
Cl13 0.1163(15) 0.178(2) 0.0978(14) -0.0050(14) 0.0693(13) 0.0156(14)
F12 0.086(2) 0.092(2) 0.085(2) 0.024(2) 0.035(2) 0.0311(19)
F6 0.086(3) 0.087(2) 0.109(3) 0.045(2) 0.037(2) 0.0249(18)
F14 0.135(4) 0.175(4) 0.060(2) 0.039(2) 0.033(2) -0.023(3)
F16 0.111(3) 0.0603(18) 0.101(3) 0.0288(18) 0.040(2) 0.0205(18)
F2 0.075(2) 0.092(2) 0.093(3) 0.039(2) 0.0214(19) 0.0117(18)
F4 0.158(4) 0.069(2) 0.144(4) -0.012(2) 0.079(3) -0.054(2)
C11 0.053(3) 0.050(3) 0.041(3) 0.006(2) 0.018(2) -0.006(2)
C2 0.069(4) 0.063(3) 0.051(3) 0.008(3) 0.024(3) -0.003(3)
C12 0.050(3) 0.066(3) 0.061(4) 0.017(3) 0.017(3) 0.001(2)
C16 0.073(4) 0.044(3) 0.063(4) 0.013(3) 0.020(3) -0.006(2)
C4 0.113(6) 0.053(3) 0.074(4) -0.012(3) 0.052(4) -0.022(3)
C6 0.075(4) 0.048(3) 0.061(3) 0.010(3) 0.028(3) 0.005(3)
C15 0.068(4) 0.075(4) 0.060(4) 0.029(3) 0.007(3) -0.017(3)
C13 0.065(4) 0.089(4) 0.054(4) 0.007(3) 0.029(3) -0.007(3)
C14 0.076(4) 0.109(5) 0.048(4) 0.023(4) 0.017(3) -0.030(4)
C3 0.069(4) 0.074(4) 0.061(4) -0.002(3) 0.024(3) -0.019(3)
C5 0.119(6) 0.050(3) 0.089(5) 0.015(3) 0.063(4) 0.011(3)
C1 0.065(3) 0.038(2) 0.042(3) 0.006(2) 0.016(2) -0.005(2)
loop_
_atom_type_symbol
_atom_type_description
_atom_type_scat_dispersion_real
_atom_type_scat_dispersion_imag
_atom_type_scat_source
C C 0.0033 0.0016 'International Tables Vol C Tables 4.2.6.8 and 6.1.1.4'
F F 0.0171 0.0103 'International Tables Vol C Tables 4.2.6.8 and 6.1.1.4'
Cl Cl 0.1484 0.1585 'International Tables Vol C Tables 4.2.6.8 and 6.1.1.4'
Au Au -2.0133 8.8022 'International Tables Vol C Tables 4.2.6.8 and 6.1.1.4'
loop_
_exptl_crystal_face_index_h
_exptl_crystal_face_index_k
_exptl_crystal_face_index_l
_exptl_crystal_face_perp_dist
0 -5 -12 0.0396
0 5 12 0.0073
-4 -12 12 0.1550
1 0 -15 0.0462
-13 1 10 0.0565
13 -4 -9 0.0542
-9 -5 -4 0.0369
-9 4 -8 0.0740
0 15 -7 0.1160
loop_
_geom_angle_atom_site_label_1
_geom_angle_atom_site_label_2
_geom_angle_atom_site_label_3
_geom_angle
_geom_angle_site_symmetry_1
_geom_angle_site_symmetry_3
_geom_angle_publ_flag
Cl1 Au1 Cl1 86.54(5) . 2 ?
C11 Au1 Cl1 93.25(13) . . ?
C11 Au1 Cl1 179.78(13) . 2 ?
C1 Au1 Cl1 177.60(15) . . ?
C1 Au1 Cl1 93.02(14) . 2 ?
C1 Au1 C11 87.18(18) . . ?
Au1 Cl1 Au1 93.45(5) . 2 ?
C12 C11 Au1 122.8(4) . . ?
C12 C11 C16 117.7(5) . . ?
C16 C11 Au1 119.4(4) . . ?
F2 C2 C3 117.6(5) . . ?
F2 C2 C1 119.0(4) . . ?
C1 C2 C3 123.5(6) . . ?
F12 C12 C11 119.2(5) . . ?
F12 C12 C13 118.7(5) . . ?
C11 C12 C13 122.1(6) . . ?
F16 C16 C11 119.0(5) . . ?
F16 C16 C15 118.3(5) . . ?
C11 C16 C15 122.7(5) . . ?
F4 C4 C3 118.4(7) . . ?
F4 C4 C5 118.0(7) . . ?
C3 C4 C5 123.6(5) . . ?
F6 C6 C5 117.7(5) . . ?
F6 C6 C1 119.5(4) . . ?
C1 C6 C5 122.8(6) . . ?
C16 C15 Cl15 121.4(5) . . ?
C14 C15 Cl15 121.8(5) . . ?
C14 C15 C16 116.8(6) . . ?
C12 C13 Cl13 121.1(6) . . ?
C14 C13 Cl13 121.0(5) . . ?
C14 C13 C12 117.9(5) . . ?
F14 C14 C15 118.2(7) . . ?
F14 C14 C13 119.0(7) . . ?
C13 C14 C15 122.8(6) . . ?
C2 C3 Cl3 121.4(6) . . ?
C4 C3 Cl3 122.7(5) . . ?
C4 C3 C2 115.9(6) . . ?
C4 C5 Cl5 121.4(5) . . ?
C6 C5 Cl5 121.8(6) . . ?
C6 C5 C4 116.9(6) . . ?
C2 C1 Au1 121.3(4) . . ?
C6 C1 Au1 121.3(4) . . ?
C6 C1 C2 117.4(5) . . ?
loop_
_geom_bond_atom_site_label_1
_geom_bond_atom_site_label_2
_geom_bond_distance
_geom_bond_site_symmetry_2
_geom_bond_publ_flag
Au1 Cl1 2.3904(14) 2 ?
Au1 Cl1 2.3902(12) . ?
Au1 C11 2.010(5) . ?
Au1 C1 2.000(4) . ?
Cl15 C15 1.701(6) . ?
Cl5 C5 1.707(6) . ?
Cl3 C3 1.697(6) . ?
Cl1 Au1 2.3904(14) 2 ?
Cl13 C13 1.714(6) . ?
F12 C12 1.335(6) . ?
F6 C6 1.342(6) . ?
F14 C14 1.333(7) . ?
F16 C16 1.335(6) . ?
F2 C2 1.338(6) . ?
F4 C4 1.345(6) . ?
C11 C12 1.364(7) . ?
C11 C16 1.373(7) . ?
C2 C3 1.389(7) . ?
C2 C1 1.368(7) . ?
C12 C13 1.377(8) . ?
C16 C15 1.381(8) . ?
C4 C3 1.359(9) . ?
C4 C5 1.383(9) . ?
C6 C5 1.378(7) . ?
C6 C1 1.358(7) . ?
C15 C14 1.372(9) . ?
C13 C14 1.367(9) . ?
loop_
_exptl_oxdiff_crystal_face_indexfrac_h
_exptl_oxdiff_crystal_face_indexfrac_k
_exptl_oxdiff_crystal_face_indexfrac_l
_exptl_oxdiff_crystal_face_x
_exptl_oxdiff_crystal_face_y
_exptl_oxdiff_crystal_face_z
-0.0000 -5.0000 -12.0000 0.8383 0.2772 0.4745
0.0000 5.0000 12.0000 -0.8383 -0.2772 -0.4745
-4.0000 -12.0000 12.0000 -0.5536 -0.1608 0.8064
1.0000 -0.0000 -15.0000 0.9622 0.2753 0.1383
-13.0000 1.0000 10.0000 -0.1512 -0.9489 0.2621
13.0000 -4.0000 -9.0000 0.1061 0.9977 -0.0717
-9.0000 -5.0000 -4.0000 0.6667 -0.3806 0.6902
-9.0000 4.0000 -8.0000 0.8687 -0.5127 0.1304
-0.0000 15.0000 -7.0000 0.3590 -0.2154 -0.9291
loop_
_smtbx_masks_void_nr
_smtbx_masks_void_average_x
_smtbx_masks_void_average_y
_smtbx_masks_void_average_z
_smtbx_masks_void_volume
_smtbx_masks_void_count_electrons
_smtbx_masks_void_content
1 0.500 -0.558 0.000 316.9 55.2 ?
