#------------------------------------------------------------------------------
#$Date: 2021-04-05 16:53:44 +0300 (Mon, 05 Apr 2021) $
#$Revision: 263622 $
#$URL: file:///home/coder/svn-repositories/cod/cif/7/12/79/7127918.cif $
#------------------------------------------------------------------------------
#
# This file is available in the Crystallography Open Database (COD),
# http://www.crystallography.net/
#
# All data on this site have been placed in the public domain by the
# contributors.
#
data_7127918
loop_
_publ_author_name
'Cabelof, Alyssa C.'
'Carta, Veronica'
'Caulton, Kenneth G.'
_publ_section_title
;
 A proton-responsive ligand becomes a dimetal linker for multisubstrate
 assembly <i>via</i> nitrate deoxygenation.
;
_journal_issue                   22
_journal_name_full
'Chemical communications (Cambridge, England)'
_journal_page_first              2780
_journal_page_last               2783
_journal_paper_doi               10.1039/d0cc07886g
_journal_volume                  57
_journal_year                    2021
_chemical_formula_moiety         'C30 H26 Br4 N6 Ni2'
_chemical_formula_sum            'C30 H26 Br4 N6 Ni2'
_chemical_formula_weight         907.63
_space_group_crystal_system      triclinic
_space_group_IT_number           2
_space_group_name_Hall           '-P 1'
_space_group_name_H-M_alt        'P -1'
_atom_sites_solution_hydrogens   geom
_audit_creation_date             2020-11-12
_audit_creation_method
;
Olex2 1.3
(compiled 2020.07.31 svn.rc2a77460 for OlexSys, GUI svn.r6145)
;
_audit_update_record
;
2020-11-16 deposited with the CCDC.	2021-02-08 downloaded from the CCDC.
;
_cell_angle_alpha                72.909(2)
_cell_angle_beta                 79.406(2)
_cell_angle_gamma                87.141(2)
_cell_formula_units_Z            1
_cell_length_a                   7.1360(3)
_cell_length_b                   8.8312(3)
_cell_length_c                   13.1888(5)
_cell_measurement_reflns_used    9963
_cell_measurement_temperature    123.0
_cell_measurement_theta_max      27.49
_cell_measurement_theta_min      2.49
_cell_volume                     780.90(5)
_computing_cell_refinement       'SAINT V8.38A (?, 2016)'
_computing_data_reduction        'SAINT V8.38A (?, 2016)'
_computing_molecular_graphics    'Olex2 1.3 (Dolomanov et al., 2009)'
_computing_publication_material  'Olex2 1.3 (Dolomanov et al., 2009)'
_computing_structure_refinement  'XL  (Sheldrick, 2008)'
_diffrn_ambient_temperature      123.0
_diffrn_measured_fraction_theta_full 1.000
_diffrn_measured_fraction_theta_max 1.000
_diffrn_measurement_device_type  'Bruker VENTURE D8'
_diffrn_measurement_method       '\f and \w scans'
_diffrn_radiation_type           MoK\a
_diffrn_radiation_wavelength     0.71073
_diffrn_reflns_av_R_equivalents  0.0272
_diffrn_reflns_av_unetI/netI     0.0158
_diffrn_reflns_Laue_measured_fraction_full 1.000
_diffrn_reflns_Laue_measured_fraction_max 1.000
_diffrn_reflns_limit_h_max       9
_diffrn_reflns_limit_h_min       -9
_diffrn_reflns_limit_k_max       11
_diffrn_reflns_limit_k_min       -11
_diffrn_reflns_limit_l_max       17
_diffrn_reflns_limit_l_min       -17
_diffrn_reflns_number            25478
_diffrn_reflns_point_group_measured_fraction_full 1.000
_diffrn_reflns_point_group_measured_fraction_max 1.000
_diffrn_reflns_theta_full        25.242
_diffrn_reflns_theta_max         27.485
_diffrn_reflns_theta_min         2.413
_diffrn_source_current           1.4
_diffrn_source_power             0.07
_diffrn_source_voltage           50.0
_diffrn_standards_number         0
_exptl_absorpt_coefficient_mu    6.354
_exptl_absorpt_correction_T_max  0.7456
_exptl_absorpt_correction_T_min  0.6033
_exptl_absorpt_correction_type   multi-scan
_exptl_absorpt_process_details   'SADABS-2016/2 (Bruker,2016/2)'
_exptl_crystal_colour            orange
_exptl_crystal_colour_primary    orange
_exptl_crystal_density_diffrn    1.930
_exptl_crystal_description       plate
_exptl_crystal_F_000             444
_exptl_crystal_preparation       synthesized
_exptl_crystal_recrystallization_method
'Vapor diffusion of Et2O into a THF solution'
_exptl_crystal_size_max          0.16
_exptl_crystal_size_mid          0.08
_exptl_crystal_size_min          0.04
_refine_diff_density_max         0.402
_refine_diff_density_min         -0.345
_refine_diff_density_rms         0.062
_refine_ls_extinction_method     none
_refine_ls_goodness_of_fit_ref   1.084
_refine_ls_hydrogen_treatment    constr
_refine_ls_matrix_type           full
_refine_ls_number_parameters     191
_refine_ls_number_reflns         3590
_refine_ls_number_restraints     0
_refine_ls_restrained_S_all      1.084
_refine_ls_R_factor_all          0.0203
_refine_ls_R_factor_gt           0.0176
_refine_ls_shift/su_max          0.001
_refine_ls_shift/su_mean         0.000
_refine_ls_structure_factor_coef Fsqd
_refine_ls_weighting_details
'w=1/[\s^2^(Fo^2^)+(0.0118P)^2^+0.6340P] where P=(Fo^2^+2Fc^2^)/3'
_refine_ls_weighting_scheme      calc
_refine_ls_wR_factor_gt          0.0375
_refine_ls_wR_factor_ref         0.0384
_reflns_Friedel_coverage         0.000
_reflns_number_gt                3334
_reflns_number_total             3590
_reflns_threshold_expression     'I > 2\s(I)'
_cod_data_source_file            d0cc07886g2.cif
_cod_data_source_block           mo_20121_0m_a
_cod_depositor_comments
'Adding full bibliography for 7127916--7127921.cif.'
_cod_database_code               7127918
_shelx_shelxl_version_number     2017/1
_shelx_space_group_comment
;
The symmetry employed for this shelxl refinement is uniquely defined
by the following loop, which should always be used as a source of
symmetry information in preference to the above space-group names.
They are only intended as comments.
;
_shelx_estimated_absorpt_t_max   0.785
_shelx_estimated_absorpt_t_min   0.430
_olex2_refinement_description
;
1. Fixed Uiso
 At 1.2 times of:
  All C(H) groups, All N(H) groups
 At 1.5 times of:
  All C(H,H,H) groups
2.a Aromatic/amide H refined with riding coordinates:
 N3(H3), C11(H11), C8(H8), C5(H5), C15(H15), C3(H3A), C4(H4), C13(H13),
 C12(H12), C14(H14)
2.b Idealised Me refined as rotating group:
 C1(H1A,H1B,H1C)
;
_shelx_res_file
;
TITL mo_20121_0m_a.res in P-1
    mo_20121_0m_a.res
    created by SHELXL-2017/1 at 12:10:21 on 12-Nov-2020
REM Old TITL mo_20121_0m in P-1
REM SHELXT solution in P-1
REM R1 0.069, Rweak 0.008, Alpha 0.159, Orientation as input
REM Formula found by SHELXT: C15 Br2 N3 Ni
CELL 0.71073 7.136 8.8312 13.1888 72.909 79.406 87.141
ZERR 1 0.0003 0.0003 0.0005 0.002 0.002 0.002
LATT 1
SFAC C H Br N Ni
UNIT 30 26 4 6 2
EQIV $1 1-X,2-Y,1-Z
EQIV $2 2-X,2-Y,1-Z
EQIV $3 1-X,1-Y,1-Z

L.S. 10
PLAN  2
SIZE 0.16 0.08 0.04
TEMP -150.15
CONF
HTAB N3 Br2_$1
HTAB N3 Br1_$2
HTAB C8 Br2_$3
HTAB C5 Br2_$3
HTAB C1 Br2
HTAB C1 Br1
BOND $H
htab
LIST 4
fmap 2
MORE -1
ACTA
REM <olex2.extras>
REM <HklSrc "%.\\20121_0m.hkl">
REM </olex2.extras>

WGHT    0.011800    0.634000
FVAR       0.62510
BR2   3    0.327591    0.920795    0.455588    11.00000    0.02062    0.01427 =
         0.02198   -0.00919   -0.00679   -0.00003
BR1   3    0.935222    1.086635    0.278095    11.00000    0.02471    0.01824 =
         0.01813   -0.00382   -0.00418   -0.00633
NI1   5    0.681005    0.926865    0.406589    11.00000    0.01991    0.01044 =
         0.01523   -0.00340   -0.00584   -0.00047
N1    4    0.664138    0.761186    0.322341    11.00000    0.01651    0.01470 =
         0.01342   -0.00395   -0.00310   -0.00162
N2    4    0.768034    0.733169    0.507140    11.00000    0.02282    0.01279 =
         0.01449   -0.00515   -0.00705    0.00117
N3    4    0.800024    0.692367    0.609169    11.00000    0.02333    0.01370 =
         0.01405   -0.00639   -0.00642    0.00050
AFIX  43
H3    2    0.815485    0.760402    0.644157    11.00000   -1.20000
AFIX   0
C6    1    0.707940    0.612070    0.377461    11.00000    0.01283    0.01534 =
         0.01473   -0.00511   -0.00128   -0.00203
C7    1    0.751593    0.598012    0.483866    11.00000    0.01321    0.01323 =
         0.01545   -0.00545   -0.00137   -0.00020
C10   1    0.827495    0.454227    0.762941    11.00000    0.01447    0.01745 =
         0.01527   -0.00319   -0.00250   -0.00323
C11   1    0.873889    0.293530    0.792523    11.00000    0.01801    0.01891 =
         0.01892   -0.00375   -0.00369   -0.00225
AFIX  43
H11   2    0.894621    0.237604    0.739967    11.00000   -1.20000
AFIX   0
C2    1    0.616711    0.785815    0.224454    11.00000    0.01704    0.02121 =
         0.01409   -0.00340   -0.00149   -0.00447
C9    1    0.805320    0.532213    0.651096    11.00000    0.01380    0.01287 =
         0.01627   -0.00401   -0.00219   -0.00059
C8    1    0.775334    0.468361    0.571438    11.00000    0.01568    0.01170 =
         0.01636   -0.00504   -0.00189   -0.00051
AFIX  43
H8    2    0.771659    0.359347    0.575433    11.00000   -1.20000
AFIX   0
C5    1    0.711505    0.484499    0.336346    11.00000    0.01724    0.01719 =
         0.01908   -0.00778   -0.00100   -0.00103
AFIX  43
H5    2    0.742568    0.381361    0.376970    11.00000   -1.20000
AFIX   0
C15   1    0.796890    0.534741    0.840657    11.00000    0.02534    0.01968 =
         0.01915   -0.00535   -0.00274   -0.00500
AFIX  43
H15   2    0.764420    0.643873    0.821491    11.00000   -1.20000
AFIX   0
C3    1    0.619344    0.662092    0.178598    11.00000    0.01989    0.02816 =
         0.01423   -0.00702   -0.00328   -0.00466
AFIX  43
H3A   2    0.587333    0.681470    0.109100    11.00000   -1.20000
AFIX   0
C4    1    0.668432    0.511462    0.234113    11.00000    0.02041    0.02425 =
         0.01975   -0.01250   -0.00105   -0.00341
AFIX  43
H4    2    0.672697    0.427100    0.202679    11.00000   -1.20000
AFIX   0
C1    1    0.557100    0.949546    0.168016    11.00000    0.03504    0.02173 =
         0.01983   -0.00079   -0.01300   -0.00356
AFIX 137
H1A   2    0.432764    0.973327    0.205836    11.00000   -1.50000
H1B   2    0.547802    0.955874    0.093667    11.00000   -1.50000
H1C   2    0.651773    1.026450    0.167658    11.00000   -1.50000
AFIX   0
C13   1    0.860112    0.296493    0.975384    11.00000    0.03432    0.03589 =
         0.01615    0.00279   -0.00748   -0.00956
AFIX  43
H13   2    0.871558    0.242975    1.047834    11.00000   -1.20000
AFIX   0
C12   1    0.889748    0.215505    0.898275    11.00000    0.02648    0.02203 =
         0.02494    0.00354   -0.00876   -0.00382
AFIX  43
H12   2    0.921032    0.106141    0.918066    11.00000   -1.20000
AFIX   0
C14   1    0.813898    0.455262    0.946331    11.00000    0.03368    0.03531 =
         0.01762   -0.00882   -0.00351   -0.00943
AFIX  43
H14   2    0.793528    0.510700    0.999162    11.00000   -1.20000
AFIX   0
HKLF 4




REM  mo_20121_0m_a.res in P-1
REM R1 =  0.0176 for    3334 Fo > 4sig(Fo)  and  0.0203 for all    3590 data
REM    191 parameters refined using      0 restraints

END

WGHT      0.0118      0.6340

REM Instructions for potential hydrogen bonds
HTAB N3 Br2_$1
HTAB N3 Br1_$2
HTAB C8 Br2_$3
HTAB C5 Br2_$3
HTAB C1 Br2
HTAB C1 Br1

REM Highest difference peak  0.402,  deepest hole -0.345,  1-sigma level  0.062
Q1    1   0.7313  0.5982  0.4333  11.00000  0.05    0.40
Q2    1   0.7570  0.5270  0.5192  11.00000  0.05    0.34
;
_shelx_res_checksum              27077
_shelx_hkl_file
;
  -1   0   0 33.3752 2.14258   6
  -1   0   0 32.6748 2.22404   6
  -1   0   0 34.6880 1.88699   5
  -1   0   0 31.3404 2.59007   1
  -1   0   0 31.0848 2.42603   2
  -1   0   0 30.9048 2.71726   3
   1   0   0 33.8071 2.28658   6
   1   0   0 31.2682 1.81974   5
   1   0   0 33.1704 2.67110   3
   1   0   0 33.6144 2.65256   1
   1   0   0 33.1590 2.40444   2
   1   0   0 32.9302 2.20007   6
  -2   0   0 4281.17 77.3973   5
  -2   0   0 4396.66 78.9220   6
  -2   0   0 4324.43 79.6977   2
  -2   0   0 4409.12 79.3297   6
  -2   0   0 4332.97 81.1384   3
  -2   0   0 4323.41 80.8492   1
   2   0   0 4399.26 80.9528   1
   2   0   0 4314.62 81.1106   3
   2   0   0 4318.35 79.1374   6
   2   0   0 4284.06 77.4697   5
   2   0   0 4437.11 79.0660   6
   2   0   0 4415.77 79.7345   2
  -3   0   0 2806.20 57.2079   1
  -3   0   0 2863.71 58.4847   3
  -3   0   0 2738.20 54.3270   6
  -3   0   0 2807.71 55.7580   2
  -3   0   0 2802.15 52.3919   5
  -3   0   0 2814.82 54.9292   6
   3   0   0 2784.91 57.7737   1
   3   0   0 2744.75 54.4810   6
   3   0   0 2759.22 52.3823   5
   3   0   0 2847.85 55.1065   6
   3   0   0 2789.86 57.6087   3
  -4   0   0 370.589 13.1183   6
  -4   0   0 356.944 13.3749   6
  -4   0   0 321.218 14.5011   1
  -4   0   0 338.712 11.1596   5
  -4   0   0 336.686 13.6742   2
   4   0   0 339.307 13.2657   6
   4   0   0 321.742 12.7168   6
   4   0   0 350.975 15.2345   3
   4   0   0 335.170 15.0774   1
  -5   0   0 969.601 27.4073   6
  -5   0   0 993.152 28.6646   2
  -5   0   0 985.935 30.4666   1
  -5   0   0 999.108 24.1922   5
  -5   0   0 1001.28 26.9582   6
   5   0   0 1034.32 28.1518   6
   5   0   0 993.021 30.8511   3
   5   0   0 955.446 27.0054   6
   5   0   0 1025.82 31.2815   1
  -6   0   0 349.177 19.0777   1
  -6   0   0 335.016 15.9824   6
  -6   0   0 372.676 16.5362   6
  -6   0   0 354.921 17.6160   2
   6   0   0 374.347 19.7968   1
   6   0   0 351.677 19.4456   3
   6   0   0 369.687 16.4601   6
   6   0   0 353.811 17.0569   6
  -7   0   0 360.349 14.5992   5
  -7   0   0 398.714 18.5207   6
  -7   0   0 362.016 21.6962   1
  -7   0   0 377.937 19.7578   2
   7   0   0 345.976 21.3498   1
   7   0   0 380.433 21.8750   3
   7   0   0 368.615 18.1249   6
   7   0   0 377.405 19.1173   6
  -8   0   0 857.650 24.1430   5
  -8   0   0 805.273 30.8699   6
  -8   0   0 877.049 30.1805   6
  -8   0   0 835.500 32.8777   2
   8   0   0 879.387 36.5116   1
   8   0   0 796.165 30.7835   6
  -9   0   0 63.4435 11.1760   6
   9   0   0 75.4560 12.4411   6
   9   0   0 91.6539 14.6668   4
   9   0   0 74.4693 15.4412   1
   9  -1   0 67.1795 12.1030   6
   9  -1   0 43.3573 13.1700   1
   9  -1   0 48.5882 10.4966   4
  -9   1   0 62.6389 11.3429   6
  -9   1   0 58.9804 8.98145   5
   8  -1   0 429.830 22.5348   6
   8  -1   0 424.670 25.3523   1
  -8   1   0 450.843 18.8974   5
  -8   1   0 421.884 24.5355   2
  -8   1   0 414.573 21.7512   6
  -8   1   0 379.665 20.6049   6
  -8   1   0 371.706 24.9166   1
   7  -1   0 232.332 18.2782   1
   7  -1   0 205.276 15.2065   6
   7  -1   0 202.129 17.5887   3
   7  -1   0 222.768 15.7785   6
  -7   1   0 223.441 15.2430   6
  -7   1   0 197.832 12.7658   5
  -7   1   0 234.296 15.1287   6
  -7   1   0 245.031 18.0517   1
   6  -1   0 184.735 12.9599   6
   6  -1   0 187.920 14.7608   3
   6  -1   0 213.676 15.7517   1
  -6   1   0 187.953 13.0901   6
  -6   1   0 173.563 11.2227   5
  -6   1   0 227.793 14.9356   2
  -6   1   0 191.281 14.4362   1
  -6   1   0 174.039 12.3736   6
   5  -1   0 1610.48 42.1612   1
   5  -1   0 1610.79 38.9671   6
   5  -1   0 1547.38 42.4160   3
   5  -1   0 1621.48 39.5158   6
  -5   1   0 1685.69 37.4278   5
  -5   1   0 1655.71 40.0056   6
  -5   1   0 1619.65 41.4097   2
  -5   1   0 1672.53 39.2379   6
  -5   1   0 1625.40 43.8746   3
   4  -1   0 1323.58 34.8550   3
   4  -1   0 1329.06 34.1435   1
   4  -1   0 1375.40 32.2712   6
   4  -1   0 1275.78 31.2914   6
  -4   1   0 1378.12 31.9461   6
  -4   1   0 1332.90 30.3488   5
  -4   1   0 1332.40 33.9901   1
  -4   1   0 1302.97 35.2222   3
  -4   1   0 1325.44 32.2030   6
  -4   1   0 1288.84 33.1340   2
   3  -1   0 1306.52 29.5871   6
   3  -1   0 1400.90 29.5920   5
   3  -1   0 1353.33 30.2020   6
   3  -1   0 1326.93 31.5661   1
  -3   1   0 1356.99 31.5154   1
  -3   1   0 1391.82 33.3813   3
  -3   1   0 1305.38 30.1756   6
  -3   1   0 1330.59 29.8626   6
  -3   1   0 1335.83 31.4147   2
  -3   1   0 1302.31 29.0915   5
   2  -1   0 78.5201 5.69924   3
   2  -1   0 72.5363 4.55195   6
   2  -1   0 79.9022 4.76220   5
   2  -1   0 85.3159 5.06446   6
   2  -1   0 82.4210 5.36615   1
  -2   1   0 74.8637 4.80153   6
  -2   1   0 77.6667 5.25390   1
  -2   1   0 75.4888 4.85010   5
  -2   1   0 79.1606 4.86148   6
  -2   1   0 75.7344 5.88997   3
   1  -1   0 3.04925 1.48102   1
   1  -1   0 1.87552 1.35680   6
   1  -1   0 0.58653 1.33268   6
   1  -1   0 0.69295 1.71738   3
  -1   1   0 2.71726 1.39560   1
  -1   1   0 2.79682 1.85611   3
  -1   1   0 -0.1763 1.28175   6
  -1   1   0 2.41717 1.54949   5
   0  -1   0 1956.58 35.1285   3
   0  -1   0 1937.65 34.1279   4
   0   1   0 1884.50 35.0357   3
   0   1   0 1918.18 34.0970   4
  -1  -1   0 339.335 7.05147   6
  -1  -1   0 345.799 8.33018   2
  -1  -1   0 337.529 6.99887   6
   1   1   0 348.589 9.35446   1
   1   1   0 342.271 8.22889   2
   1   1   0 331.355 7.32249   6
   1   1   0 338.287 7.41389   6
  -2  -1   0 5186.79 92.3147   6
  -2  -1   0 5120.96 95.9267   1
  -2  -1   0 5168.74 92.6003   6
  -2  -1   0 5202.35 93.5440   2
   2   1   0 5210.58 93.0677   6
   2   1   0 5238.83 92.8721   6
   2   1   0 5242.59 95.9804   1
   2   1   0 5190.06 93.4080   2
  -3  -1   0 8392.33 151.887   6
  -3  -1   0 8603.96 156.374   1
  -3  -1   0 8469.66 152.950   2
  -3  -1   0 8648.05 151.642   6
   3   1   0 8624.19 156.336   1
   3   1   0 8587.74 152.566   6
   3   1   0 8579.57 152.701   2
   3   1   0 8286.69 155.631   3
   3   1   0 8540.14 152.242   6
  -4  -1   0 6.71245 3.88559   1
  -4  -1   0 0.69770 2.85152   6
  -4  -1   0 7.06487 3.79256   2
  -4  -1   0 4.22923 3.07865   6
   4   1   0 0.87242 3.22226   3
   4   1   0 9.94018 3.88005   6
   4   1   0 7.54222 4.27383   2
   4   1   0 4.98822 3.96560   1
   4   1   0 11.4382 3.53974   6
  -5  -1   0 1353.86 32.6403   6
  -5  -1   0 1344.24 33.1943   6
  -5  -1   0 1345.01 28.4113   5
  -5  -1   0 1352.35 34.7415   2
   5   1   0 1423.01 38.6801   1
   5   1   0 1368.22 34.2653   6
  -6  -1   0 78.8990 9.16761   6
  -6  -1   0 73.3598 8.60981   6
   6   1   0 92.1683 10.4028   6
   6   1   0 97.2207 12.7342   1
   6   1   0 92.2108 9.79587   6
   6   1   0 92.9353 12.3807   3
  -7  -1   0 82.9319 11.5047   2
  -7  -1   0 75.7940 9.26340   6
  -7  -1   0 57.9965 8.46821   6
  -7  -1   0 92.1540 14.3237   1
   7   1   0 76.5384 10.3484   6
   7   1   0 78.2102 12.7288   1
   7   1   0 62.9485 11.4763   3
   7   1   0 61.2237 9.03456   6
  -8  -1   0 589.487 24.3325   6
  -8  -1   0 617.841 27.2117   2
  -8  -1   0 612.053 23.8793   6
   8   1   0 616.554 26.3689   6
   8   1   0 586.224 31.7228   3
  -9  -1   0 26.3760 8.90897   6
  -9  -1   0 47.5977 10.9175   6
  -9  -1   0 49.5955 13.1924   2
   9   1   0 17.9784 11.2085   1
   9   1   0 30.3209 9.03391   6
   8  -2   0 223.119 17.2609   6
   8  -2   0 224.308 19.2337   1
  -8   2   0 225.175 15.8487   5
  -8   2   0 201.850 16.7631   6
  -8   2   0 237.901 19.9799   2
  -8   2   0 225.532 20.0219   1
   7  -2   0 115.784 14.1441   1
   7  -2   0 118.999 12.7760   6
   7  -2   0 95.2175 14.7807   6
   7  -2   0 137.727 22.4826   3
  -7   2   0 135.699 15.0416   2
  -7   2   0 109.729 13.0375   1
  -7   2   0 123.533 12.3371   5
  -7   2   0 119.225 12.6524   6
  -7   2   0 118.156 13.0074   6
   6  -2   0 -0.7723 5.54151   6
   6  -2   0 2.32356 6.32386   1
  -6   2   0 7.38015 5.77266   2
  -6   2   0 2.93071 5.29933   1
  -6   2   0 0.71909 5.29817   6
  -6   2   0 -4.9354 4.97133   5
  -6   2   0 5.05775 6.76172   3
   5  -2   0 900.897 28.6585   1
   5  -2   0 863.494 25.6521   6
   5  -2   0 850.726 25.8779   6
  -5   2   0 908.073 31.8747   1
  -5   2   0 886.445 26.5637   6
  -5   2   0 889.388 26.2004   6
  -5   2   0 925.984 30.6301   3
  -5   2   0 830.660 27.6227   2
  -5   2   0 878.311 25.2626   5
   4  -2   0 508.014 18.4491   1
   4  -2   0 493.694 16.3335   6
   4  -2   0 483.123 18.9132   3
   4  -2   0 487.096 16.6707   6
  -4   2   0 461.938 16.6543   6
  -4   2   0 468.790 19.2906   3
  -4   2   0 476.540 17.4911   1
  -4   2   0 476.179 16.5593   5
  -4   2   0 492.428 16.7857   6
  -4   2   0 511.630 18.7908   2
   3  -2   0 154.892 8.25970   6
   3  -2   0 166.724 9.16813   1
   3  -2   0 136.780 9.04677   3
   3  -2   0 163.581 8.06444   6
  -3   2   0 162.476 8.40892   6
  -3   2   0 142.585 9.67744   5
  -3   2   0 147.981 8.41652   1
  -3   2   0 149.149 8.24281   6
  -3   2   0 166.190 10.3984   3
   2  -2   0 972.636 21.6416   6
   2  -2   0 969.256 21.9129   6
   2  -2   0 958.588 24.0064   3
   2  -2   0 959.346 22.6159   1
  -2   2   0 972.962 23.3538   5
  -2   2   0 1000.99 22.3341   6
  -2   2   0 1005.13 24.5202   3
  -2   2   0 998.377 22.0916   6
  -2   2   0 937.074 22.1878   1
   1  -2   0 1284.16 25.3265   6
   1  -2   0 1317.17 27.9925   3
  -1   2   0 1353.29 28.2360   5
  -1   2   0 1287.18 25.7581   6
  -1   2   0 1308.23 28.0282   3
  -1   2   0 1335.66 25.7475   6
  -1   2   0 1324.14 26.4379   1
   0  -2   0 3884.95 69.2762   3
   0  -2   0 3728.86 66.8911   4
   0   2   0 3906.09 69.0449   5
   0   2   0 3667.21 66.8576   4
   0   2   0 3684.18 68.7781   3
  -1  -2   0 430.220 11.9018   2
  -1  -2   0 403.683 11.3542   1
   1   2   0 403.106 10.9003   2
   1   2   0 422.819 11.5799   1
  -2  -2   0 88.3498 6.30159   1
  -2  -2   0 80.0305 5.07549   2
   2   2   0 81.7556 4.01561   6
   2   2   0 85.5733 6.21452   1
   2   2   0 84.9893 4.28722   6
   2   2   0 88.9467 5.05221   2
  -3  -2   0 2382.42 46.1490   6
  -3  -2   0 2429.67 48.5976   2
  -3  -2   0 2440.18 45.9434   6
  -3  -2   0 2470.14 52.5106   1
   3   2   0 2434.58 52.3309   1
   3   2   0 2410.67 48.1788   2
   3   2   0 2453.01 47.6015   6
   3   2   0 2469.18 47.8419   6
  -4  -2   0 1236.85 26.5490   6
  -4  -2   0 1128.91 32.0881   1
  -4  -2   0 1187.07 26.7035   6
  -4  -2   0 1163.19 28.7525   2
   4   2   0 1185.70 28.1875   6
   4   2   0 1130.76 31.4676   3
   4   2   0 1158.85 27.7577   6
   4   2   0 1163.86 28.2481   2
   4   2   0 1146.69 32.2754   1
  -5  -2   0 9.98524 3.88719   6
  -5  -2   0 1.81228 4.30881   1
  -5  -2   0 6.27205 4.34604   2
  -5  -2   0 6.57971 3.79926   6
   5   2   0 8.07932 4.16784   6
   5   2   0 0.91037 4.02200   2
   5   2   0 5.74871 4.15263   3
   5   2   0 3.31464 3.73218   6
   5   2   0 8.13229 5.70639   1
  -6  -2   0 785.150 25.6416   2
  -6  -2   0 777.390 23.2711   6
  -6  -2   0 790.364 22.9020   6
   6   2   0 814.456 29.6345   3
   6   2   0 743.744 29.4012   1
   6   2   0 763.029 25.1968   6
   6   2   0 758.940 24.7592   6
  -7  -2   0 6.42335 8.02405   1
  -7  -2   0 10.6054 7.17552   2
  -7  -2   0 3.72323 4.99311   6
  -7  -2   0 3.64949 5.26135   6
   7   2   0 -0.4495 5.74412   6
   7   2   0 2.41202 6.92781   1
   7   2   0 13.0645 5.84697   6
   7   2   0 0.76254 6.92788   3
  -8  -2   0 902.580 27.9602   6
   8   2   0 871.992 31.1673   6
   8   2   0 820.159 35.3678   1
   8   2   0 881.743 41.1075   3
   8   2   0 838.184 33.3682   4
   8  -3   0 61.9588 10.9059   6
   8  -3   0 84.8037 13.9211   1
  -8   3   0 90.9246 12.2783   5
  -8   3   0 91.1447 12.6760   6
  -8   3   0 104.556 14.3710   1
   7  -3   0 7.39659 8.40741   3
   7  -3   0 34.1509 8.79396   6
   7  -3   0 27.3204 7.36813   6
   7  -3   0 40.1842 9.76575   1
  -7   3   0 40.0932 10.3140   3
  -7   3   0 28.4337 7.81468   6
  -7   3   0 40.0933 8.69044   5
  -7   3   0 37.6081 9.24972   1
  -7   3   0 31.6166 8.32297   6
   6  -3   0 376.832 18.1425   6
   6  -3   0 377.720 20.2789   1
  -6   3   0 365.280 28.9904   3
  -6   3   0 369.038 17.9445   5
  -6   3   0 370.973 18.6685   1
  -6   3   0 367.849 27.2336   6
   5  -3   0 109.264 11.1988   3
   5  -3   0 133.483 12.2466   1
   5  -3   0 120.568 10.5091   6
   5  -3   0 117.507 9.57079   6
  -5   3   0 120.065 10.2814   1
  -5   3   0 123.711 11.7644   2
  -5   3   0 129.560 10.6773   6
  -5   3   0 126.885 13.7572   3
  -5   3   0 116.568 10.0038   6
  -5   3   0 131.776 10.8634   5
   4  -3   0 646.085 21.5733   1
   4  -3   0 652.532 23.3549   3
   4  -3   0 639.261 19.7538   6
   4  -3   0 694.683 20.7839   6
  -4   3   0 703.269 20.9640   6
  -4   3   0 659.915 23.2620   2
  -4   3   0 651.588 20.8613   6
  -4   3   0 693.084 24.3503   3
  -4   3   0 649.355 21.5275   5
  -4   3   0 654.521 21.0050   1
   3  -3   0 275.734 8.98909   4
   3  -3   0 277.665 12.0693   1
   3  -3   0 279.823 11.0850   6
   3  -3   0 285.338 13.3693   3
   3  -3   0 274.573 10.6312   6
  -3   3   0 284.072 11.5678   1
  -3   3   0 268.934 12.5809   5
  -3   3   0 294.977 13.7459   3
  -3   3   0 284.281 11.5214   6
  -3   3   0 271.729 11.3728   6
   2  -3   0 18.1315 4.26424   3
   2  -3   0 12.8509 3.11887   6
   2  -3   0 15.2963 2.98018   6
   2  -3   0 14.8673 3.59236   1
  -2   3   0 15.1690 3.32667   1
  -2   3   0 14.4501 3.34500   6
  -2   3   0 13.7328 3.69723   5
  -2   3   0 20.7178 3.58070   6
   1  -3   0 962.950 19.0271   6
   1  -3   0 972.897 19.3221   6
   1  -3   0 996.005 23.6031   3
  -1   3   0 997.078 20.5406   6
  -1   3   0 987.670 23.8884   3
  -1   3   0 976.583 22.0287   1
  -1   3   0 977.373 20.5302   6
   0  -3   0 4.51517 2.55599   3
   0   3   0 9.33241 2.05529   4
   0   3   0 5.99047 2.67295   3
   0   3   0 8.45562 2.41794   5
   1   3   0 161.652 7.04884   4
   1   3   0 156.269 6.74344   5
   1   3   0 161.851 7.54748   2
   1   3   0 171.177 7.47898   1
  -2  -3   0 164.622 8.61451   1
  -2  -3   0 164.575 7.58941   2
   2   3   0 181.022 9.20184   1
   2   3   0 162.379 5.19609   6
   2   3   0 161.412 7.53135   2
  -3  -3   0 746.139 22.7280   1
  -3  -3   0 769.271 20.1264   2
   3   3   0 760.538 18.3335   6
   3   3   0 793.812 18.2263   6
   3   3   0 762.620 23.1780   1
   3   3   0 772.001 19.6003   2
  -4  -3   0 537.560 17.1410   2
  -4  -3   0 545.321 20.4999   1
  -4  -3   0 519.694 12.8803   6
   4   3   0 531.668 16.2643   6
   4   3   0 516.951 15.8315   6
   4   3   0 547.250 16.7946   2
   4   3   0 557.499 20.8496   1
  -5  -3   0 25.0434 4.22593   6
  -5  -3   0 26.7640 5.46968   2
  -5  -3   0 16.5645 6.82998   1
  -5  -3   0 18.2364 3.62134   6
   5   3   0 32.9398 6.36121   6
   5   3   0 25.1273 4.67207   6
   5   3   0 26.1007 5.46418   2
   5   3   0 32.6963 8.37274   1
   5   3   0 19.3572 6.60181   3
  -6  -3   0 510.763 19.8420   2
  -6  -3   0 505.536 16.2554   6
  -6  -3   0 454.701 22.9745   1
  -6  -3   0 499.641 16.1881   6
   6   3   0 535.630 23.5985   3
   6   3   0 507.502 19.3335   6
   6   3   0 514.645 19.6533   6
  -7  -3   0 179.395 10.9330   6
  -7  -3   0 200.619 14.3298   2
  -7  -3   0 192.326 11.3684   6
  -7  -3   0 240.700 19.3816   1
   7   3   0 198.212 17.4498   3
   7   3   0 177.634 17.8612   1
   7   3   0 173.323 16.0024   4
   7   3   0 191.381 13.7836   6
   7   3   0 210.209 14.2549   6
  -8  -3   0 31.7102 6.88256   6
  -8  -3   0 39.7846 7.24696   6
   8   3   0 24.9893 9.13695   4
   8   3   0 31.4047 10.7356   1
   8   3   0 24.1044 8.16583   6
   8  -4   0 121.687 14.0820   6
   8  -4   0 154.599 17.6344   1
  -8   4   0 163.357 17.5816   1
  -8   4   0 181.107 26.4139   3
  -8   4   0 131.088 14.4563   5
  -8   4   0 137.123 16.9653   6
   7  -4   0 4.10324 7.00698   1
   7  -4   0 -4.5278 6.36298   6
   7  -4   0 5.17699 8.03536   3
   7  -4   0 -2.2621 5.60105   6
   7  -4   0 -7.4340 5.37712   4
  -7   4   0 -2.5137 7.92687   3
  -7   4   0 4.43164 6.51457   5
  -7   4   0 4.10468 6.86456   6
  -7   4   0 -11.120 8.34711   2
  -7   4   0 -7.8391 5.98761   6
  -7   4   0 -6.4095 6.65912   1
   6  -4   0 52.0375 10.9464   3
   6  -4   0 61.3226 10.7248   6
   6  -4   0 62.5441 10.8551   1
   6  -4   0 49.0318 9.17907   6
   6  -4   0 68.1897 7.96639   4
  -6   4   0 62.7268 9.82659   5
  -6   4   0 46.6444 10.7618   3
  -6   4   0 54.4899 8.70514   6
  -6   4   0 71.8524 10.2865   1
  -6   4   0 51.0149 9.34273   6
  -6   4   0 49.7538 9.86327   2
   5  -4   0 111.994 11.8912   3
   5  -4   0 122.773 10.6909   6
   5  -4   0 116.201 9.77596   6
   5  -4   0 118.772 12.1803   1
   5  -4   0 125.435 8.37212   4
  -5   4   0 130.740 13.8633   1
  -5   4   0 118.699 12.6170   2
  -5   4   0 113.099 11.0365   6
  -5   4   0 121.607 10.4866   6
  -5   4   0 135.271 13.9605   3
  -5   4   0 113.128 12.4059   5
   4  -4   0 524.786 21.2913   3
   4  -4   0 553.652 19.7655   1
   4  -4   0 518.642 17.2466   6
   4  -4   0 514.341 14.6776   4
   4  -4   0 547.931 18.1062   6
  -4   4   0 480.735 20.9547   3
  -4   4   0 537.065 18.7419   6
  -4   4   0 498.626 18.4023   6
  -4   4   0 515.400 20.3537   5
  -4   4   0 538.864 18.5248   1
   3  -4   0 2128.30 47.5228   1
   3  -4   0 2193.22 45.0526   6
   3  -4   0 2193.86 44.7203   6
   3  -4   0 2109.59 49.7581   3
   3  -4   0 2146.25 41.4011   4
  -3   4   0 2172.20 46.1551   1
  -3   4   0 2137.28 46.0416   6
  -3   4   0 2152.39 46.5490   6
  -3   4   0 2205.18 50.7259   3
  -3   4   0 2218.65 49.9229   5
   2  -4   0 425.547 15.7902   3
   2  -4   0 426.273 12.0279   6
   2  -4   0 434.938 11.8047   6
  -2   4   0 427.276 18.0351   6
  -2   4   0 422.394 16.2618   3
  -2   4   0 422.963 13.3700   1
  -2   4   0 418.991 13.2162   6
  -2   4   0 439.214 16.4604   5
   1  -4   0 158.740 8.98719   3
  -1   4   0 152.117 6.17838   6
  -1   4   0 161.617 6.43125   6
  -1   4   0 144.255 8.88896   5
  -1   4   0 147.451 9.29323   3
  -1   4   0 148.713 7.81308   1
   0  -4   0 67.8443 6.56260   3
   0   4   0 61.2884 6.06014   3
   0   4   0 79.4078 6.62375   5
   0   4   0 61.6123 4.66372   4
   1   4   0 16.1190 4.13763   3
   1   4   0 20.1952 3.66413   4
   1   4   0 10.4188 3.85253   2
   1   4   0 16.5582 3.67829   1
   1   4   0 14.6304 3.64723   5
   2   4   0 -0.6470 2.84134   2
   2   4   0 0.46932 3.20163   1
   2   4   0 -1.0424 2.72494   4
   2   4   0 1.19619 2.16845   5
  -3  -4   0 4.58453 3.77167   1
  -3  -4   0 3.01792 3.22184   2
   3   4   0 6.96495 2.43089   6
   3   4   0 7.21424 2.52249   5
   3   4   0 2.90584 2.33560   6
   3   4   0 6.63307 4.03618   4
   3   4   0 6.31884 3.42722   1
   3   4   0 4.75332 3.40104   2
  -4  -4   0 731.283 21.0085   2
  -4  -4   0 689.253 24.6479   1
   4   4   0 710.343 22.6439   2
   4   4   0 750.334 25.6275   1
   4   4   0 714.974 23.9487   4
   4   4   0 709.881 19.1109   6
   4   4   0 733.496 19.4646   6
  -5  -4   0 434.365 17.0518   2
  -5  -4   0 463.726 21.2438   1
   5   4   0 468.439 16.2869   6
   5   4   0 495.624 20.9875   4
   5   4   0 466.135 16.7732   2
   5   4   0 470.587 21.1273   3
   5   4   0 447.670 21.5529   1
   5   4   0 466.279 16.6227   6
  -6  -4   0 119.079 13.8846   1
  -6  -4   0 139.521 11.2931   2
   6   4   0 141.298 10.6513   6
   6   4   0 119.019 10.9713   6
   6   4   0 146.938 14.1137   4
   6   4   0 140.853 16.1604   1
   6   4   0 125.604 10.4528   2
   6   4   0 141.801 14.0208   3
  -7  -4   0 79.8735 12.8118   1
  -7  -4   0 101.362 11.5796   2
   7   4   0 72.0178 12.3639   1
   7   4   0 87.8436 12.1143   4
   7   4   0 103.459 11.4931   6
   7   4   0 97.1481 13.6870   3
   7   4   0 92.3753 10.8002   6
  -8  -4   0 28.5184 9.16592   2
   8   4   0 22.1074 13.7464   4
   8   4   0 24.4456 8.24697   6
   8   4   0 20.4697 12.8636   1
   8  -5   0 352.708 17.4035   4
   8  -5   0 321.190 17.5152   4
   8  -5   0 336.579 23.2335   1
   8  -5   0 378.129 21.7248   6
  -8   5   0 408.440 23.5813   6
  -8   5   0 366.293 23.4017   5
  -8   5   0 353.654 25.2823   1
  -8   5   0 352.154 26.7261   3
   7  -5   0 150.750 15.8187   1
   7  -5   0 153.311 14.2763   4
   7  -5   0 100.358 11.8007   6
   7  -5   0 146.958 13.9701   6
  -7   5   0 145.425 15.3578   1
  -7   5   0 168.131 19.4417   3
  -7   5   0 106.153 13.0439   6
  -7   5   0 125.585 14.5907   5
   6  -5   0 304.288 13.4505   4
   6  -5   0 277.449 20.2528   3
   6  -5   0 286.665 16.0819   6
   6  -5   0 283.074 18.0814   1
  -6   5   0 268.961 18.7941   6
  -6   5   0 257.193 16.0642   1
  -6   5   0 259.003 19.2084   2
  -6   5   0 302.737 17.7537   6
  -6   5   0 307.749 18.8131   5
  -6   5   0 331.199 22.0246   3
   5  -5   0 297.289 14.3664   6
   5  -5   0 323.192 15.4025   6
   5  -5   0 324.615 17.3927   1
   5  -5   0 315.261 11.9194   4
  -5   5   0 322.667 16.8527   6
  -5   5   0 312.405 18.0019   5
  -5   5   0 291.650 19.5198   3
  -5   5   0 284.548 15.9402   6
   4  -5   0 3.31782 5.78117   3
   4  -5   0 1.37646 3.67214   6
   4  -5   0 2.83354 4.20738   6
  -4   5   0 9.31259 5.60610   5
  -4   5   0 2.19554 4.26196   6
  -4   5   0 5.05299 3.80325   1
  -4   5   0 5.01716 6.00159   3
  -4   5   0 3.71586 4.06024   6
   3  -5   0 1560.43 34.1065   6
   3  -5   0 1547.45 33.5544   6
  -3   5   0 1548.50 40.7734   5
  -3   5   0 1572.37 36.4191   6
  -3   5   0 1606.82 41.6394   3
  -3   5   0 1541.70 35.7901   1
  -3   5   0 1523.40 36.4654   6
   2  -5   0 1.83944 2.06685   6
   2  -5   0 -1.1074 3.16870   3
   2  -5   0 1.61750 1.98971   6
  -2   5   0 4.50640 4.33767   3
  -2   5   0 -1.0542 2.70311   6
  -2   5   0 0.40848 3.00904   6
  -2   5   0 -4.1148 3.43808   5
  -2   5   0 -1.3126 2.74683   1
   1  -5   0 215.617 11.4428   3
  -1   5   0 192.335 7.63176   6
  -1   5   0 200.004 11.3562   5
  -1   5   0 193.394 11.3375   3
  -1   5   0 201.533 7.68263   6
   0   5   0 4968.56 95.9736   5
   0   5   0 4923.24 94.9250   3
   0   5   0 4942.55 90.8088   4
   1   5   0 77.9166 7.95956   4
   1   5   0 68.8162 6.32799   1
   1   5   0 72.3960 7.60940   3
   1   5   0 66.6050 8.54425   2
   1   5   0 72.0829 6.77875   5
   2   5   0 533.357 17.9922   2
   2   5   0 579.084 19.2563   1
   2   5   0 570.231 18.1879   4
   2   5   0 586.743 16.9950   5
   3   5   0 260.308 14.2605   1
   3   5   0 291.064 12.1596   2
   3   5   0 275.549 10.0650   5
   3   5   0 251.096 8.52742   6
   3   5   0 276.718 13.6556   4
  -4  -5   0 310.341 16.3389   1
  -4  -5   0 309.633 13.3906   2
   4   5   0 280.950 10.8020   6
   4   5   0 303.235 12.7837   2
   4   5   0 310.873 11.5345   6
   4   5   0 299.237 16.0058   4
   4   5   0 278.007 16.2763   1
  -5  -5   0 476.759 17.8971   2
   5   5   0 493.553 17.1824   2
   5   5   0 485.409 16.7084   6
   5   5   0 469.683 22.6738   1
   5   5   0 498.169 16.6699   6
   5   5   0 475.598 21.8599   4
  -6  -5   0 29.7392 8.81580   1
  -6  -5   0 43.3039 7.61392   2
   6   5   0 49.1570 7.49199   6
   6   5   0 43.6633 10.4183   3
   6   5   0 31.1999 7.04439   2
   6   5   0 38.0971 9.79739   4
   6   5   0 37.5898 9.72817   1
   6   5   0 33.0155 6.64015   6
  -7  -5   0 216.659 15.1718   2
   7   5   0 245.250 15.2873   6
   7   5   0 237.780 18.1592   4
   7   5   0 214.130 19.1508   1
   7   5   0 198.781 19.7361   3
   7   5   0 230.695 15.0591   6
  -8  -5   0 550.008 23.6388   2
   8   5   0 512.432 23.4407   6
   8   5   0 536.672 31.2996   1
   8   5   0 529.142 28.4881   4
   7  -6   0 120.665 15.5293   1
   7  -6   0 108.893 12.4111   6
   7  -6   0 106.581 12.4968   6
  -7   6   0 87.0924 12.1677   5
  -7   6   0 106.994 13.1886   6
  -7   6   0 106.375 13.7320   1
   6  -6   0 241.686 19.5928   3
   6  -6   0 255.775 15.8718   6
   6  -6   0 347.778 28.9816   6
  -6   6   0 261.660 16.4149   1
  -6   6   0 255.587 19.4360   5
  -6   6   0 283.948 18.0760   6
  -6   6   0 262.626 17.7262   6
  -6   6   0 298.311 22.2378   3
  -6   6   0 251.295 19.8917   2
   5  -6   0 692.583 29.1483   3
   5  -6   0 701.771 22.9175   6
   5  -6   0 718.930 22.6783   6
  -5   6   0 677.827 34.1599   1
  -5   6   0 659.050 29.1579   3
  -5   6   0 738.464 29.2543   5
  -5   6   0 729.225 26.2415   6
   4  -6   0 193.474 10.2176   6
   4  -6   0 112.173 16.5815   3
   4  -6   0 184.626 10.3013   6
  -4   6   0 213.057 12.9162   6
  -4   6   0 186.747 15.1075   5
  -4   6   0 176.543 12.3041   6
  -4   6   0 175.679 11.0499   1
  -4   6   0 196.998 15.4799   3
   3  -6   0 1437.81 39.6574   3
   3  -6   0 1405.86 30.0234   6
   3  -6   0 1400.03 30.6683   6
  -3   6   0 1396.86 41.6349   6
  -3   6   0 1440.55 40.1490   5
  -3   6   0 1398.14 40.0566   3
  -3   6   0 1404.71 34.6042   6
  -3   6   0 1448.73 33.7893   1
   2  -6   0 30.6383 8.00019   3
  -2   6   0 37.3786 8.19806   3
  -2   6   0 29.2739 4.85738   6
  -2   6   0 24.4334 4.49746   1
  -2   6   0 15.9727 5.41743   5
  -2   6   0 23.7595 4.79144   6
   1  -6   0 63.5462 8.28901   3
  -1   6   0 78.2653 9.39164   3
  -1   6   0 62.1052 5.28816   6
  -1   6   0 64.1374 5.46168   6
  -1   6   0 66.2757 8.54214   5
   0   6   0 4179.41 85.3648   5
   0   6   0 4260.40 80.5670   1
   0   6   0 4162.92 84.3641   3
   0   6   0 4181.00 79.3209   4
   1   6   0 180.362 11.3184   3
   1   6   0 181.705 9.63666   4
   1   6   0 186.257 10.1237   1
   1   6   0 165.834 11.2831   2
   1   6   0 206.574 11.3968   5
   2   6   0 131.283 10.6546   3
   2   6   0 137.547 10.2983   1
   2   6   0 142.471 10.7377   2
   2   6   0 136.766 9.59388   4
   2   6   0 122.722 8.92114   5
   3   6   0 2171.90 47.5617   2
   3   6   0 2102.06 49.3701   4
   3   6   0 2061.64 45.0144   5
   3   6   0 2133.55 51.0389   1
   4   6   0 14.5737 6.99685   1
   4   6   0 5.16886 3.13800   5
   4   6   0 8.02151 4.68321   2
   4   6   0 1.80088 5.63649   4
   4   6   0 11.5033 3.73284   6
   5   6   0 879.832 24.1321   6
   5   6   0 918.455 36.8926   1
   5   6   0 830.127 23.4013   6
   5   6   0 919.123 31.6457   4
   5   6   0 891.241 25.2761   2
  -6  -6   0 10.2826 5.98356   2
   6   6   0 22.4207 5.99983   6
   6   6   0 17.8683 9.18190   1
   6   6   0 0.91280 8.06850   3
   6   6   0 22.0993 6.95149   2
   6   6   0 13.9045 6.00536   6
   6   6   0 23.3183 8.38263   4
  -7  -6   0 171.591 15.2497   2
   7   6   0 132.817 16.2792   4
   7   6   0 131.825 17.0275   1
   7   6   0 137.583 12.8230   6
   7   6   0 137.281 17.5001   3
   7   6   0 163.209 14.0448   6
   7  -7   0 181.878 16.5985   6
   7  -7   0 129.513 13.4960   6
  -7   7   0 161.876 16.1715   1
  -7   7   0 104.167 13.2161   6
  -7   7   0 156.744 24.8554   5
  -7   7   0 159.498 20.4261   3
   6  -7   0 55.2669 9.71162   6
  -6   7   0 48.6496 9.09523   6
  -6   7   0 67.6305 10.7683   1
  -6   7   0 51.4193 10.8243   5
  -6   7   0 54.2564 13.3426   3
   5  -7   0 679.454 21.2334   6
   5  -7   0 687.058 21.8819   6
   5  -7   0 631.992 29.1449   3
  -5   7   0 658.133 23.6594   1
  -5   7   0 630.667 29.7014   3
  -5   7   0 697.427 29.7999   5
  -5   7   0 652.180 25.2982   6
   4  -7   0 354.251 13.4490   6
   4  -7   0 354.729 12.7685   6
   4  -7   0 364.641 20.5108   3
  -4   7   0 349.877 16.8535   6
  -4   7   0 372.604 15.6254   1
  -4   7   0 382.147 17.4597   6
  -4   7   0 376.817 21.8946   3
  -4   7   0 360.204 20.8215   5
   3  -7   0 734.476 27.8732   3
  -3   7   0 768.232 21.9839   1
  -3   7   0 732.682 23.3240   6
  -3   7   0 732.326 29.7600   5
  -3   7   0 801.230 29.4560   3
  -3   7   0 757.371 23.6233   6
   2  -7   0 168.151 12.9229   3
  -2   7   0 169.588 9.64922   6
  -2   7   0 159.277 13.6339   3
  -2   7   0 162.465 9.59201   6
  -2   7   0 166.277 9.75434   1
  -2   7   0 161.871 13.9694   5
   1  -7   0 134.470 11.6525   3
  -1   7   0 141.252 12.3092   3
  -1   7   0 155.324 7.98819   6
  -1   7   0 156.112 12.8298   5
  -1   7   0 134.927 9.39787   1
   0   7   0 3160.48 68.1925   5
   0   7   0 2934.40 62.0245   4
   0   7   0 3046.17 66.6538   3
   0   7   0 3026.65 65.0412   1
   1   7   0 15.2802 4.67163   4
   1   7   0 16.7234 5.36825   5
   1   7   0 5.54359 5.82212   2
   1   7   0 10.5775 4.34246   1
   1   7   0 21.8280 6.14609   3
   2   7   0 23.9759 5.55303   4
   2   7   0 20.6854 6.44907   2
   2   7   0 17.9639 6.24465   3
   2   7   0 20.1429 5.59974   5
   2   7   0 24.1015 6.09891   1
   3   7   0 3712.64 75.2843   2
   3   7   0 3568.97 77.9524   1
   3   7   0 3515.15 72.1172   5
   3   7   0 3543.37 77.7352   3
   3   7   0 3612.29 76.6812   4
   4   7   0 0.78984 3.46722   5
   4   7   0 5.08726 3.74027   6
   4   7   0 -4.4048 9.28068   4
   4   7   0 -4.1276 4.30918   2
   4   7   0 4.12019 6.79683   1
   5   7   0 415.698 21.9763   4
   5   7   0 412.597 23.0784   1
   5   7   0 398.873 14.7432   6
   5   7   0 417.355 15.2845   6
   5   7   0 419.221 16.9660   2
   6   7   0 372.549 24.1552   3
   6   7   0 374.422 16.4028   6
   6   7   0 384.019 23.5258   1
   6   7   0 408.921 22.6361   4
   6   7   0 390.208 16.6802   6
   6  -8   0 73.2218 8.56594   6
   6  -8   0 57.3946 9.06895   6
  -6   8   0 64.7151 11.0978   6
  -6   8   0 71.2319 9.88560   1
  -6   8   0 41.7055 11.0872   5
   5  -8   0 388.879 14.9024   6
   5  -8   0 363.683 13.8991   6
  -5   8   0 419.319 24.6878   3
  -5   8   0 365.250 17.2212   1
  -5   8   0 403.301 20.2174   6
  -5   8   0 322.724 22.2415   5
  -5   8   0 326.104 19.5098   6
   4  -8   0 541.132 28.9097   3
  -4   8   0 520.504 18.6911   1
  -4   8   0 512.028 21.9800   6
  -4   8   0 524.407 26.1544   3
  -4   8   0 475.459 24.6076   5
  -4   8   0 514.681 21.0419   6
   3  -8   0 89.3602 12.6818   3
  -3   8   0 72.7460 12.0073   5
  -3   8   0 102.445 9.62649   6
  -3   8   0 83.2178 9.39393   6
  -3   8   0 78.8291 8.28488   1
  -3   8   0 72.3704 11.8201   3
   2  -8   0 189.437 15.6018   3
  -2   8   0 232.038 10.9774   1
  -2   8   0 214.401 16.1790   3
  -2   8   0 227.429 11.5837   6
  -2   8   0 213.528 11.3182   6
  -2   8   0 209.717 16.2495   5
   1  -8   0 278.892 16.8220   3
  -1   8   0 303.047 17.5292   3
  -1   8   0 311.959 18.4911   5
  -1   8   0 298.808 13.8696   1
  -1   8   0 290.246 11.4358   6
  -1   8   0 284.293 13.4126   1
  -1   8   0 278.715 11.2874   6
   0   8   0 961.130 25.6667   4
   0   8   0 953.114 26.0482   1
   0   8   0 956.927 31.7648   5
   0   8   0 964.914 30.9771   3
   1   8   0 137.047 10.2836   1
   1   8   0 131.358 12.4501   3
   1   8   0 138.704 10.1984   4
   1   8   0 129.649 12.2042   5
   1   8   0 129.443 13.5522   2
   2   8   0 4.21090 5.05966   1
   2   8   0 13.8990 6.72246   3
   2   8   0 12.4823 5.96299   5
   2   8   0 16.5736 6.71377   2
   2   8   0 2.53362 4.59820   4
   3   8   0 558.187 19.8767   5
   3   8   0 542.804 22.9195   1
   3   8   0 523.917 21.5002   4
   3   8   0 579.510 23.5603   3
   3   8   0 557.943 21.7526   2
   4   8   0 95.0228 11.6357   4
   4   8   0 106.795 10.4056   2
   4   8   0 107.700 21.4917   1
   4   8   0 97.4335 8.80180   5
   4   8   0 96.9719 12.2364   3
   5   8   0 13.0560 5.00729   6
   5   8   0 15.6302 7.85225   1
   5   8   0 10.7722 8.64261   4
   5   8   0 20.8734 5.14488   6
   5   8   0 4.93108 8.11313   3
   6   8   0 244.198 20.4784   4
   6   8   0 244.967 20.1989   1
   6   8   0 230.141 13.3970   6
   6   8   0 234.366 13.5689   6
  -5   9   0 66.3905 12.0435   3
  -5   9   0 55.1513 9.61324   6
  -5   9   0 55.7103 12.7154   5
   4  -9   0 151.481 21.1521   3
  -4   9   0 129.727 9.33596   1
  -4   9   0 158.759 13.3207   6
  -4   9   0 93.0004 13.0453   3
  -4   9   0 117.554 13.8608   6
   3  -9   0 7.67728 8.91267   3
  -3   9   0 24.1762 6.67785   6
  -3   9   0 27.2774 9.66387   5
  -3   9   0 25.0261 9.66312   3
  -3   9   0 34.4510 8.14504   6
  -3   9   0 29.8699 6.02774   1
   2  -9   0 225.501 17.4668   3
  -2   9   0 216.450 12.2578   6
  -2   9   0 191.255 11.8722   6
  -2   9   0 223.120 18.0773   5
  -2   9   0 200.410 10.6258   1
  -2   9   0 205.364 16.5929   3
  -1   9   0 305.390 19.5874   5
  -1   9   0 329.484 13.0265   6
  -1   9   0 282.872 18.2106   3
  -1   9   0 300.051 12.7514   6
  -1   9   0 304.825 13.6841   1
  -1   9   0 289.766 12.9280   1
   0   9   0 66.8485 10.4509   5
   0   9   0 73.2453 7.91720   4
   0   9   0 86.4345 12.7814   2
   0   9   0 91.3155 9.40787   1
   0   9   0 76.0416 11.0122   3
   1   9   0 -4.2113 6.30905   2
   1   9   0 0.77960 5.91176   5
   1   9   0 5.42610 6.52427   3
   1   9   0 4.64972 5.05000   4
   1   9   0 8.32750 5.25058   1
   2   9   0 15.1345 7.22803   5
   2   9   0 16.6654 7.93448   3
   2   9   0 6.11823 6.62240   4
   2   9   0 5.07395 7.57912   2
   2   9   0 18.9689 6.84524   1
   3   9   0 695.337 26.7604   1
   3   9   0 700.244 26.4382   4
   3   9   0 729.799 28.0213   3
   3   9   0 686.653 24.4964   5
   3   9   0 743.119 26.7432   2
   4   9   0 390.757 21.5739   1
   4   9   0 390.309 16.4209   5
   4   9   0 401.332 18.6835   2
   4   9   0 418.799 22.4316   3
   4   9   0 380.935 20.8475   4
   5   9   0 33.2599 9.80168   1
   5   9   0 34.5031 10.3473   3
   5   9   0 54.9341 11.2312   4
   5   9   0 37.1370 5.42704   6
  -3  10   0 223.470 14.9853   6
  -3  10   0 198.050 18.2686   3
  -3  10   0 229.290 10.3510   1
  -3  10   0 136.467 21.8919   5
  -3  10   0 209.669 15.5380   6
  -2  10   0 10.4339 5.78966   6
  -2  10   0 13.8144 8.13630   5
  -2  10   0 16.3012 6.75050   6
  -2  10   0 4.40368 3.97095   1
  -2  10   0 6.40356 7.36851   3
  -1  10   0 162.856 10.7014   6
  -1  10   0 145.205 15.9195   5
  -1  10   0 153.569 12.7079   6
  -1  10   0 168.550 10.6579   1
  -1  10   0 176.024 10.6961   1
  -1  10   0 137.665 15.3539   3
   0  10   0 123.869 14.7515   2
   0  10   0 142.493 14.7715   3
   0  10   0 131.649 10.4273   1
   0  10   0 91.2181 12.3823   5
   1  10   0 -3.4883 5.81505   4
   1  10   0 8.50543 7.30553   3
   1  10   0 6.06515 6.37015   1
   1  10   0 -0.4181 7.84570   2
   1  10   0 -2.0770 6.61783   5
   2  10   0 4.51313 6.16744   1
   2  10   0 2.57693 7.20646   5
   2  10   0 -5.0346 8.06699   2
   2  10   0 -4.8137 6.16302   4
   2  10   0 -0.6606 7.68673   3
   3  10   0 9.87911 7.62533   1
   3  10   0 22.6192 8.85418   2
   3  10   0 15.3256 9.39140   3
   3  10   0 13.2783 7.58749   5
   3  10   0 29.8190 8.91467   4
   3  10  -1 6.20937 7.42525   4
   3  10  -1 -18.161 5.91520   2
   3  10  -1 -2.1453 7.77397   3
   2  10  -1 304.236 17.4291   4
   2  10  -1 334.361 19.1076   2
   2  10  -1 292.552 16.2193   1
   2  10  -1 272.804 20.1192   3
   2  10  -1 309.212 18.9634   5
   1  10  -1 94.4927 13.1690   3
   1  10  -1 69.6666 12.3795   2
   1  10  -1 99.5762 10.9580   4
   1  10  -1 108.481 9.81529   1
   1  10  -1 91.9353 12.3286   5
   0  10  -1 50.6565 10.8467   2
   0  10  -1 51.0253 6.81920   1
   0  10  -1 36.4512 7.29465   4
   0  10  -1 48.4517 10.6798   3
   0  10  -1 42.4719 6.44965   1
  -1  10  -1 91.9778 10.6227   6
  -1  10  -1 76.8985 12.2798   5
  -1  10  -1 87.9215 13.1484   3
  -1  10  -1 94.2164 8.97746   6
  -2  10  -1 2.30609 5.61306   6
  -2  10  -1 0.16456 5.54684   6
  -2  10  -1 3.60158 8.02806   5
  -2  10  -1 6.30822 9.43532   3
  -3  10  -1 16.6113 8.12848   6
  -3  10  -1 10.0533 6.84896   6
  -3  10  -1 -13.768 8.64815   3
  -3  10  -1 7.29818 9.60106   5
   4   9  -1 11.9307 7.22618   1
   4   9  -1 24.1006 8.11996   4
   4   9  -1 24.7593 9.38937   3
   4   9  -1 28.5873 6.88470   5
   3   9  -1 50.3693 10.2255   4
   3   9  -1 62.8908 9.36220   2
   3   9  -1 61.4584 10.3891   1
   3   9  -1 47.5028 8.31170   5
   3   9  -1 76.3186 11.6982   3
   2   9  -1 985.828 30.4781   4
   2   9  -1 945.551 31.4303   2
   2   9  -1 880.845 28.9967   1
   2   9  -1 941.453 31.6019   5
   2   9  -1 1091.13 39.8558   3
   1   9  -1 163.541 12.3567   4
   1   9  -1 130.205 21.5762   3
   1   9  -1 160.240 11.1321   1
   1   9  -1 170.609 14.8448   5
   1   9  -1 171.759 15.0795   2
   0   9  -1 65.8214 6.40055   6
   0   9  -1 83.1537 8.12019   1
   0   9  -1 84.2253 9.11508   4
   0   9  -1 72.5359 10.6330   2
   0   9  -1 63.9640 12.0490   5
  -1   9  -1 625.015 19.0934   6
  -1   9  -1 629.265 28.1619   5
  -1   9  -1 581.420 16.8931   1
  -1   9  -1 613.421 18.9094   6
  -1   9  -1 644.186 27.5475   3
  -2   9  -1 250.610 13.3193   6
  -2   9  -1 243.252 18.8012   5
  -2   9  -1 253.438 18.8294   3
  -2   9  -1 251.038 13.3691   6
   2  -9   1 231.477 18.9736   3
  -3   9  -1 172.753 13.5884   6
  -3   9  -1 162.544 13.0581   6
  -3   9  -1 132.751 15.8831   5
  -3   9  -1 182.997 17.7694   3
   3  -9   1 179.043 17.5488   3
  -4   9  -1 43.7611 12.1321   3
  -4   9  -1 45.2763 9.59291   6
  -4   9  -1 47.4215 11.4927   5
  -5   9  -1 0.47894 8.62423   5
  -5   9  -1 -2.0766 6.30183   6
  -5   9  -1 6.31904 5.06407   1
   5   8  -1 3.21840 4.30308   6
   5   8  -1 -10.291 7.39748   3
   5   8  -1 6.34960 4.55482   6
   5   8  -1 3.36668 8.07518   4
   5   8  -1 -3.8538 6.48581   1
   4   8  -1 15.9327 5.32597   5
   4   8  -1 8.38441 6.78655   4
   4   8  -1 8.55269 6.52424   3
   4   8  -1 7.17455 8.11557   1
   3   8  -1 668.869 28.1316   4
   3   8  -1 740.992 23.8363   2
   3   8  -1 671.853 25.3670   1
   3   8  -1 721.355 23.8594   5
   3   8  -1 718.210 28.2348   3
   2   8  -1 685.880 24.0299   4
   2   8  -1 653.575 24.2682   2
   2   8  -1 673.905 26.1541   3
   2   8  -1 694.538 23.4858   1
   2   8  -1 677.543 24.2559   5
   1   8  -1 253.282 15.5938   2
   1   8  -1 236.043 13.1312   4
   1   8  -1 266.358 16.7066   3
   1   8  -1 257.153 15.9592   5
   1   8  -1 239.707 12.5716   1
   0   8  -1 115.244 9.85630   4
   0   8  -1 134.267 13.0315   3
   0   8  -1 113.948 12.8122   5
  -1   8  -1 1449.99 44.1963   5
  -1   8  -1 1383.54 32.1776   6
  -1   8  -1 1411.44 41.4073   3
  -1   8  -1 1410.47 31.9535   1
  -1   8  -1 1382.18 31.8378   6
  -1   8  -1 1376.38 30.9213   1
  -2   8  -1 344.928 18.4288   6
  -2   8  -1 355.989 20.8718   5
  -2   8  -1 331.917 20.0962   3
  -2   8  -1 352.250 14.6064   6
  -3   8  -1 399.003 17.2223   6
  -3   8  -1 380.547 17.0713   6
  -3   8  -1 376.229 22.0110   3
  -3   8  -1 395.271 22.3719   5
   3  -8   1 379.656 21.2584   3
  -4   8  -1 399.803 19.5012   6
  -4   8  -1 408.940 19.0782   6
  -4   8  -1 384.439 14.2031   1
  -4   8  -1 393.579 23.7509   3
  -4   8  -1 368.020 22.5656   5
   4  -8   1 422.567 23.4591   3
  -5   8  -1 179.408 14.1418   6
  -5   8  -1 153.301 10.4423   1
  -5   8  -1 103.902 15.0535   3
  -5   8  -1 201.906 18.8833   5
  -5   8  -1 173.755 16.2235   6
  -6   8  -1 343.358 24.2306   5
  -6   8  -1 338.352 16.5743   1
  -6   8  -1 361.361 25.2750   3
   6  -8   1 368.517 16.5063   6
   6  -8   1 349.582 15.8539   6
   6   7  -1 932.941 28.1652   6
   6   7  -1 1021.83 36.7155   4
   6   7  -1 924.687 27.5340   6
   6   7  -1 981.369 37.3493   1
   5   7  -1 229.813 11.7446   6
   5   7  -1 231.530 17.2046   4
   5   7  -1 226.126 17.0350   1
   5   7  -1 246.658 11.9299   6
   4   7  -1 189.879 10.2531   5
   4   7  -1 181.820 9.15830   6
   4   7  -1 193.244 10.7604   2
   4   7  -1 179.458 9.01100   6
   4   7  -1 189.007 14.5497   1
   4   7  -1 175.910 14.5798   4
   3   7  -1 2129.60 47.4460   2
   3   7  -1 2066.70 51.2109   4
   3   7  -1 2194.59 48.2366   5
   3   7  -1 2081.35 51.5427   1
   3   7  -1 2138.12 53.8116   3
   2   7  -1 556.727 22.5518   3
   2   7  -1 592.231 20.6694   1
   2   7  -1 548.702 20.5791   4
   2   7  -1 567.517 20.5344   5
   2   7  -1 577.758 20.7940   2
   1   7  -1 25.6743 6.80715   3
   1   7  -1 27.7934 6.16102   5
   1   7  -1 38.4314 6.17570   1
   1   7  -1 16.9225 6.06154   2
   1   7  -1 31.2755 6.23302   4
   0   7  -1 588.902 23.3902   3
   0   7  -1 655.697 18.2556   1
   0   7  -1 616.285 23.6336   5
   0   7  -1 638.162 19.9653   4
  -1   7  -1 1414.34 31.5309   6
  -1   7  -1 1453.61 40.3095   3
  -1   7  -1 1422.04 31.7765   6
  -1   7  -1 1454.30 40.6344   5
  -1   7  -1 1414.40 32.2427   1
  -1   7  -1 1455.59 31.2670   1
  -1   7  -1 1453.81 32.4782   4
   1  -7   1 1456.11 40.5446   3
  -2   7  -1 1083.68 34.4911   3
  -2   7  -1 1059.34 24.7963   1
  -2   7  -1 1108.81 35.3660   5
  -2   7  -1 1061.58 27.6590   6
  -2   7  -1 1142.56 27.6296   6
   2  -7   1 1012.20 33.3416   3
  -3   7  -1 190.180 12.1038   6
  -3   7  -1 184.634 15.0182   3
  -3   7  -1 184.773 11.7550   6
  -3   7  -1 196.018 15.5658   5
  -3   7  -1 188.401 9.28108   1
  -4   7  -1 516.229 20.5806   6
  -4   7  -1 527.227 25.6666   3
  -4   7  -1 489.546 20.3585   6
  -4   7  -1 530.821 17.3463   1
   4  -7   1 491.939 24.4642   3
   4  -7   1 506.222 15.2364   6
   4  -7   1 514.784 18.5696   6
  -5   7  -1 225.944 18.5722   5
  -5   7  -1 285.744 26.9510   6
  -5   7  -1 249.311 13.4342   1
  -5   7  -1 231.906 19.5914   3
  -5   7  -1 274.652 19.7060   2
  -5   7  -1 240.335 16.0660   6
   5  -7   1 230.227 15.3880   6
   5  -7   1 264.682 13.4325   6
   5  -7   1 206.717 18.7235   3
  -6   7  -1 457.384 27.3441   3
  -6   7  -1 434.449 25.2630   5
  -6   7  -1 444.400 22.4816   6
  -6   7  -1 451.956 19.8776   1
   6  -7   1 453.828 19.4514   6
   7   6  -1 11.1307 8.45419   1
   7   6  -1 18.1416 12.4174   4
   7   6  -1 18.0139 9.68466   6
   7   6  -1 4.71633 6.29092   6
   6   6  -1 452.189 23.3133   4
   6   6  -1 450.151 24.8642   1
   6   6  -1 422.826 17.6682   6
   6   6  -1 422.505 17.8269   6
  -6  -6   1 385.094 24.0230   1
   5   6  -1 -5.0014 3.55692   6
   5   6  -1 -6.5405 6.44528   4
   5   6  -1 7.44548 5.79601   1
   5   6  -1 -0.1009 3.84388   6
   4   6  -1 338.743 12.0655   6
   4   6  -1 332.321 12.6820   5
   4   6  -1 354.028 18.4851   1
   4   6  -1 358.645 12.3127   6
   4   6  -1 342.234 17.8164   4
   4   6  -1 338.003 12.0549   5
   3   6  -1 1681.46 42.2811   2
   3   6  -1 1539.80 36.3931   5
   3   6  -1 1547.86 40.9050   1
   3   6  -1 1592.39 41.0950   4
   2   6  -1 51.7508 8.00627   3
   2   6  -1 58.0042 7.22000   2
   2   6  -1 58.0992 7.17768   5
   2   6  -1 48.2995 7.08692   1
   2   6  -1 57.5336 7.85103   4
   1   6  -1 27.0329 5.35738   4
   1   6  -1 19.8125 5.52941   3
   1   6  -1 27.1576 6.31698   2
   1   6  -1 23.7165 5.49242   5
   0   6  -1 803.982 26.5106   4
   0   6  -1 831.435 26.1367   3
   0   6  -1 841.836 26.2388   5
   0   6  -1 826.467 20.8892   1
  -1   6  -1 558.649 15.2182   6
  -1   6  -1 562.052 15.3130   6
  -1   6  -1 560.792 21.6013   5
  -1   6  -1 550.427 15.9527   1
  -1   6  -1 583.354 16.4925   4
  -1   6  -1 538.195 21.0464   3
   1  -6   1 572.358 21.4347   3
  -2   6  -1 722.890 25.5184   3
  -2   6  -1 711.640 20.1779   6
  -2   6  -1 695.504 17.9827   1
  -2   6  -1 734.045 20.1472   6
  -2   6  -1 676.887 25.0305   5
   2  -6   1 737.092 25.4698   3
  -3   6  -1 247.236 12.4472   6
  -3   6  -1 245.231 15.7732   5
  -3   6  -1 241.374 15.7671   3
  -3   6  -1 252.699 10.4912   1
   3  -6   1 252.868 9.23227   6
   3  -6   1 253.055 9.53217   6
   3  -6   1 241.429 15.5793   3
  -4   6  -1 894.407 27.4791   6
  -4   6  -1 874.148 27.6206   6
  -4   6  -1 914.304 32.9632   3
  -4   6  -1 901.513 24.7505   1
  -4   6  -1 990.305 40.8579   5
   4  -6   1 947.601 24.5484   6
   4  -6   1 909.464 23.8664   6
  -5   6  -1 877.264 30.1059   6
  -5   6  -1 914.558 35.3428   3
  -5   6  -1 866.159 46.2287   2
  -5   6  -1 934.161 27.3592   1
  -5   6  -1 954.360 30.3647   6
  -5   6  -1 936.304 33.7152   5
   5  -6   1 991.411 34.7650   3
   5  -6   1 936.652 26.5127   6
   5  -6   1 935.762 27.2509   6
  -6   6  -1 181.751 15.5304   6
  -6   6  -1 178.919 19.1085   3
  -6   6  -1 222.308 29.6263   2
  -6   6  -1 215.719 18.2886   5
  -6   6  -1 187.831 13.7159   1
  -6   6  -1 179.611 15.4714   6
   6  -6   1 174.229 17.6821   3
   6  -6   1 222.564 21.7513   6
   6  -6   1 179.319 14.5141   6
  -7   6  -1 20.3599 8.72692   6
  -7   6  -1 24.4430 12.2121   3
  -7   6  -1 38.9808 10.6126   5
  -7   6  -1 47.3396 10.3056   1
   7  -6   1 29.9620 8.94821   6
   7  -6   1 23.6858 9.11408   6
   7  -6   1 47.3686 11.1886   1
   7   5  -1 77.5170 10.1487   6
   7   5  -1 42.1461 11.5250   1
   7   5  -1 80.8784 13.4769   4
   7   5  -1 71.1424 14.3529   3
   7   5  -1 73.4067 10.4031   6
   6   5  -1 24.7097 5.97222   6
   6   5  -1 15.2169 7.15241   4
   6   5  -1 23.1076 5.93255   6
   6   5  -1 14.5756 6.12886   1
   6   5  -1 15.2932 9.36327   3
  -6  -5   1 12.3958 9.53672   1
   5   5  -1 23.6686 5.59114   6
   5   5  -1 30.7562 5.91400   6
   5   5  -1 25.9870 8.54747   4
   5   5  -1 36.1624 9.10551   1
   4   5  -1 368.502 18.5347   1
   4   5  -1 383.069 13.3473   2
   4   5  -1 381.116 13.0417   6
   4   5  -1 418.535 18.7306   4
   4   5  -1 408.607 11.7851   5
   4   5  -1 357.393 12.6023   6
  -4  -5   1 398.307 18.5939   1
   3   5  -1 1255.85 28.5215   2
   3   5  -1 1177.96 25.5327   6
   3   5  -1 1240.49 28.1708   5
   3   5  -1 1193.04 32.6335   4
   3   5  -1 1184.16 25.3669   6
   3   5  -1 1243.45 33.4804   1
  -3  -5   1 1163.13 32.6223   1
   2   5  -1 166.602 10.1558   4
   2   5  -1 163.546 10.1144   1
   2   5  -1 162.459 9.19540   2
   1   5  -1 201.152 9.95165   4
   1   5  -1 207.534 10.8078   5
   1   5  -1 214.210 9.77771   1
   1   5  -1 187.894 10.6031   2
   1   5  -1 205.020 11.5078   3
   0   5  -1 680.049 21.4825   5
   0   5  -1 671.608 18.6754   4
   0   5  -1 694.935 17.3861   1
   0   5  -1 697.843 21.9897   3
  -1   5  -1 -1.4294 2.35708   1
  -1   5  -1 -2.6111 3.13896   3
  -1   5  -1 0.77494 2.44517   6
  -1   5  -1 -2.1616 1.97671   6
  -1   5  -1 -0.9285 2.68838   4
  -1   5  -1 3.59758 3.85586   5
   1  -5   1 4.27771 2.37852   4
   1  -5   1 0.52689 3.69739   3
  -2   5  -1 237.376 13.6538   3
  -2   5  -1 246.691 9.03858   1
  -2   5  -1 239.334 10.2509   6
  -2   5  -1 266.677 14.1363   5
  -2   5  -1 269.121 10.6117   6
   2  -5   1 222.103 12.8111   3
  -3   5  -1 14.6250 4.77255   6
  -3   5  -1 13.5282 4.49420   6
  -3   5  -1 9.04371 4.99429   5
  -3   5  -1 17.9882 6.21147   3
  -3   5  -1 12.8363 4.00408   1
   3  -5   1 16.9024 6.16660   6
   3  -5   1 20.9692 3.94739   6
   3  -5   1 28.1228 6.54353   3
  -4   5  -1 419.136 15.6537   1
  -4   5  -1 434.440 17.2738   6
  -4   5  -1 460.461 20.3664   5
  -4   5  -1 417.491 17.4061   6
  -4   5  -1 426.314 20.7769   3
   4  -5   1 420.436 15.1415   6
   4  -5   1 407.505 19.8881   3
   4  -5   1 422.997 15.7465   6
  -5   5  -1 431.320 21.1181   5
  -5   5  -1 410.712 17.3222   1
  -5   5  -1 401.358 18.7690   6
  -5   5  -1 457.934 19.5311   6
   5  -5   1 460.615 17.4987   6
   5  -5   1 438.338 14.8501   4
   5  -5   1 438.527 19.3263   1
   5  -5   1 487.757 23.2508   3
   5  -5   1 463.791 18.1161   6
  -6   5  -1 2.87101 6.51648   6
  -6   5  -1 -11.614 5.72416   6
  -6   5  -1 -6.8969 6.85469   3
  -6   5  -1 -6.4435 6.02399   2
  -6   5  -1 -3.2761 4.89589   1
  -6   5  -1 1.96079 5.94844   5
   6  -5   1 6.33952 6.30301   1
   6  -5   1 1.15137 6.72957   3
   6  -5   1 0.17962 4.87408   4
   6  -5   1 5.55331 4.99031   6
   6  -5   1 0.27723 7.45420   6
  -7   5  -1 113.662 13.4885   6
  -7   5  -1 104.007 15.2722   3
  -7   5  -1 151.073 15.2079   1
  -7   5  -1 123.628 14.4549   5
   7  -5   1 142.104 16.0892   1
   7  -5   1 159.110 13.7902   6
   7  -5   1 116.979 13.1355   6
   7  -5   1 128.536 11.9476   4
  -8   5  -1 137.765 16.6574   5
  -8   5  -1 136.388 16.1594   1
  -8   5  -1 113.056 17.4599   3
   8  -5   1 128.193 14.5802   6
   8  -5   1 114.815 13.5391   4
   8  -5   1 175.612 18.7272   1
   8   4  -1 10.2874 6.34633   6
   8   4  -1 11.6700 11.2895   1
   8   4  -1 10.0292 10.2553   4
  -8  -4   1 30.5356 8.11871   2
   7   4  -1 203.838 19.1251   1
   7   4  -1 204.283 14.9020   6
   7   4  -1 204.012 17.6724   4
   7   4  -1 212.701 14.7057   6
   7   4  -1 232.403 19.6614   3
  -7  -4   1 209.380 14.5385   2
  -7  -4   1 234.902 25.5325   1
   6   4  -1 38.3435 9.39691   4
   6   4  -1 33.8347 6.39520   6
   6   4  -1 32.1053 8.96163   3
   6   4  -1 53.5382 8.14227   6
   6   4  -1 29.7222 8.61987   1
  -6  -4   1 42.5375 7.23499   2
  -6  -4   1 40.4991 8.19173   1
   5   4  -1 39.8925 5.63052   6
   5   4  -1 48.8364 7.17544   6
   5   4  -1 45.0195 9.59855   1
   5   4  -1 55.0748 6.46559   2
   5   4  -1 61.8844 10.2812   4
  -5  -4   1 37.6078 7.61537   1
  -5  -4   1 52.2539 7.02854   2
   4   4  -1 48.5180 5.49402   2
   4   4  -1 50.4422 8.41148   4
   4   4  -1 29.2203 6.59997   1
   4   4  -1 53.5880 6.20687   6
   4   4  -1 38.4121 5.04594   6
  -4  -4   1 48.9804 5.80989   2
  -4  -4   1 41.2401 7.83522   1
   3   4  -1 52.2825 7.20869   1
   3   4  -1 54.8290 5.31061   2
   3   4  -1 52.4914 4.73037   6
   3   4  -1 55.8778 4.58243   6
   3   4  -1 55.0693 8.27867   4
  -3  -4   1 50.6045 7.32899   1
   2   4  -1 2273.18 45.5008   2
   2   4  -1 2287.72 48.5764   1
   2   4  -1 2248.99 48.3670   4
  -2  -4   1 2262.84 48.5220   1
   1   4  -1 1203.37 27.7327   4
   1   4  -1 1198.94 27.3285   1
   1   4  -1 1215.26 33.2314   3
   1   4  -1 1151.56 27.7216   2
   0   4  -1 589.362 15.9970   4
   0   4  -1 594.844 14.6748   1
   0  -4   1 604.970 15.7507   4
  -1   4  -1 612.853 14.8435   6
  -1   4  -1 605.448 19.3080   3
  -1   4  -1 600.849 15.5622   4
  -1   4  -1 625.246 19.4705   5
  -1   4  -1 628.839 15.0882   6
   1  -4   1 626.526 19.4887   3
   1  -4   1 627.373 15.1083   4
  -2   4  -1 226.721 9.29207   6
  -2   4  -1 211.124 8.00923   1
  -2   4  -1 218.669 12.0294   3
  -2   4  -1 237.841 12.1507   5
   2  -4   1 230.377 7.92395   6
   2  -4   1 221.791 11.6551   3
   2  -4   1 221.980 8.06245   6
   2  -4   1 207.612 7.89950   4
  -3   4  -1 6.69367 3.78305   6
  -3   4  -1 9.60800 3.41101   1
  -3   4  -1 9.56008 4.84176   3
  -3   4  -1 2.55047 3.30656   6
  -3   4  -1 3.15574 4.30565   5
   3  -4   1 9.83062 3.16520   4
   3  -4   1 10.0653 3.67365   6
   3  -4   1 7.58739 4.49338   3
   3  -4   1 6.54791 3.91666   1
   3  -4   1 6.17755 3.16936   6
  -4   4  -1 2.93442 4.84671   5
  -4   4  -1 1.50856 4.32847   6
  -4   4  -1 1.43560 4.87152   3
  -4   4  -1 -2.4581 3.64442   6
  -4   4  -1 -3.5162 2.95772   1
  -4   4  -1 4.10813 4.22395   2
   4  -4   1 0.64936 4.32980   1
   4  -4   1 3.03091 3.09948   4
   4  -4   1 1.47575 4.19429   6
   4  -4   1 -0.8114 4.26181   3
   4  -4   1 -1.1337 3.34141   6
  -5   4  -1 421.571 19.5377   5
  -5   4  -1 420.329 21.3867   3
  -5   4  -1 428.318 17.4347   1
  -5   4  -1 407.261 18.0700   6
  -5   4  -1 396.905 17.9229   6
   5  -4   1 431.412 17.5738   6
   5  -4   1 432.178 18.6576   1
   5  -4   1 395.510 16.5251   6
   5  -4   1 421.676 14.8225   4
   5  -4   1 343.048 22.6882   3
  -6   4  -1 156.275 13.4359   6
  -6   4  -1 153.519 17.3368   3
  -6   4  -1 175.431 13.5993   6
  -6   4  -1 155.800 14.0924   5
  -6   4  -1 161.409 13.0419   1
  -6   4  -1 172.276 15.4886   2
   6  -4   1 147.770 14.5209   3
   6  -4   1 140.623 12.6926   6
   6  -4   1 165.520 11.0047   4
   6  -4   1 160.978 13.8798   1
  -7   4  -1 23.6500 8.75217   1
  -7   4  -1 30.3361 7.69646   5
  -7   4  -1 16.8538 9.09091   2
  -7   4  -1 12.1014 9.21022   3
  -7   4  -1 28.9608 8.75256   6
  -7   4  -1 15.3775 7.21725   6
   7  -4   1 16.6811 8.02996   6
   7  -4   1 22.8414 8.98716   3
   7  -4   1 48.7856 12.8383   1
   7  -4   1 21.7781 7.47240   6
   7  -4   1 37.4528 8.41905   4
  -8   4  -1 79.2385 15.2323   3
  -8   4  -1 66.4367 11.6618   6
  -8   4  -1 101.025 13.0718   5
  -8   4  -1 118.369 15.4199   1
   8  -4   1 103.308 13.7531   6
   8  -4   1 140.548 16.4966   1
   8   3  -1 77.3717 11.2296   6
   8   3  -1 59.1030 12.0724   1
   8   3  -1 53.7427 11.0087   4
  -8  -3   1 81.0308 11.5964   2
  -8  -3   1 70.7245 10.8193   6
  -8  -3   1 91.6200 9.18864   6
   7   3  -1 332.695 17.7657   6
   7   3  -1 339.879 22.2492   1
   7   3  -1 317.949 17.3143   6
   7   3  -1 336.673 20.4343   4
   7   3  -1 338.406 28.3741   3
  -7  -3   1 343.912 14.1694   6
  -7  -3   1 342.992 19.4138   2
  -7  -3   1 344.615 14.2746   6
  -7  -3   1 330.777 22.2363   1
   6   3  -1 1015.45 33.0923   4
   6   3  -1 957.082 28.6721   6
   6   3  -1 971.790 34.2797   3
   6   3  -1 1012.06 35.3928   1
   6   3  -1 950.001 28.6775   6
  -6  -3   1 947.892 24.5572   6
  -6  -3   1 985.310 28.2109   2
  -6  -3   1 989.560 34.9849   1
  -6  -3   1 990.798 24.6704   6
   5   3  -1 47.2434 6.39164   2
   5   3  -1 39.1070 6.47188   6
   5   3  -1 53.0726 9.80190   1
   5   3  -1 46.9192 9.26590   3
   5   3  -1 45.6201 8.44070   4
   5   3  -1 45.6643 6.63878   6
  -5  -3   1 41.6089 8.46982   1
  -5  -3   1 42.7491 6.26501   2
  -5  -3   1 45.8302 4.98337   6
  -5  -3   1 43.4024 4.73352   6
   4   3  -1 24.4810 4.57239   2
   4   3  -1 29.4679 6.73662   1
   4   3  -1 25.4814 4.82714   6
   4   3  -1 24.2088 4.51061   6
   4   3  -1 15.5254 5.53458   4
  -4  -3   1 17.4350 5.27513   1
  -4  -3   1 27.8943 4.64203   2
   3   3  -1 219.793 8.42643   6
   3   3  -1 219.568 11.2107   4
   3   3  -1 212.027 8.31618   6
   3   3  -1 230.932 11.9574   1
   3   3  -1 209.552 7.60863   5
   3   3  -1 216.054 8.40840   2
  -3  -3   1 235.767 12.0119   1
  -3  -3   1 217.527 8.69036   2
   2   3  -1 1451.65 29.8229   2
   2   3  -1 1499.47 33.7188   4
   2   3  -1 1469.53 33.7279   1
   2   3  -1 1495.23 28.4478   6
   2   3  -1 1432.52 28.6009   6
  -2  -3   1 1488.02 33.7065   1
   1   3  -1 373.934 11.3218   2
   1   3  -1 375.214 12.0143   4
   1   3  -1 398.414 11.7683   1
  -1  -3   1 379.288 11.5926   1
   0   3  -1 46.0343 5.74867   3
   0   3  -1 39.8019 3.13229   1
   0   3  -1 43.1374 4.21281   4
   0  -3   1 42.5970 3.86348   4
   0  -3   1 53.0612 5.81763   3
  -1   3  -1 3491.25 67.7166   3
  -1   3  -1 3459.84 62.3766   1
  -1   3  -1 3449.73 63.4681   4
  -1   3  -1 3482.41 63.0344   6
  -1   3  -1 3531.99 63.3187   6
   1  -3   1 3360.68 63.2181   4
   1  -3   1 3460.54 61.4379   6
   1  -3   1 3400.62 67.5344   3
   1  -3   1 3454.54 61.4343   6
  -2   3  -1 1896.56 37.5104   1
  -2   3  -1 1932.88 38.8494   6
  -2   3  -1 1852.23 41.7066   5
  -2   3  -1 1917.59 39.1819   6
  -2   3  -1 1893.02 42.5019   3
   2  -3   1 1896.47 42.2481   3
   2  -3   1 1862.37 38.2629   1
   2  -3   1 1934.12 37.7238   6
   2  -3   1 1889.30 36.9651   4
   2  -3   1 1950.51 38.2045   6
  -3   3  -1 7.94437 4.08777   5
  -3   3  -1 8.54929 4.25923   3
  -3   3  -1 8.45715 3.57504   6
  -3   3  -1 10.9492 3.92688   6
  -3   3  -1 8.14974 3.01571   1
   3  -3   1 4.72754 3.55443   3
   3  -3   1 6.90731 3.15100   6
   3  -3   1 12.6574 3.71263   6
   3  -3   1 3.93135 3.51914   1
   3  -3   1 8.52075 2.87338   4
  -4   3  -1 29.8396 7.76131   3
  -4   3  -1 42.2472 6.58635   5
  -4   3  -1 27.9283 5.58995   6
  -4   3  -1 29.6916 5.32580   1
  -4   3  -1 39.9758 6.35372   6
   4  -3   1 47.4232 6.77265   1
   4  -3   1 34.2739 5.75579   6
   4  -3   1 37.2791 5.53747   6
   4  -3   1 28.5579 4.32192   4
  -5   3  -1 7.92535 4.16447   1
  -5   3  -1 11.1304 6.98899   3
  -5   3  -1 -1.3617 4.91688   5
  -5   3  -1 -0.8640 3.07759   6
  -5   3  -1 -5.2951 4.29205   2
  -5   3  -1 3.62414 4.73079   6
   5  -3   1 1.19685 4.96918   6
   5  -3   1 5.16392 3.91984   6
   5  -3   1 3.58063 4.46303   1
  -6   3  -1 326.581 17.4968   1
  -6   3  -1 318.162 26.3027   6
  -6   3  -1 342.186 17.2428   5
   6  -3   1 363.014 18.9721   1
   6  -3   1 315.012 17.2062   6
  -7   3  -1 27.1992 7.99910   6
  -7   3  -1 26.0717 8.49955   1
  -7   3  -1 40.0412 10.8907   3
  -7   3  -1 43.0810 9.61010   6
  -7   3  -1 19.0582 7.41327   5
  -7   3  -1 34.1385 10.9031   2
   7  -3   1 50.7337 15.1551   1
   7  -3   1 32.4410 11.3257   3
   7  -3   1 22.1960 7.87101   6
   7  -3   1 28.2453 8.33224   6
  -8   3  -1 23.4379 8.83153   6
  -8   3  -1 36.0256 9.25014   5
  -8   3  -1 13.0904 9.19982   1
  -8   3  -1 51.7716 11.8856   3
   8  -3   1 35.8342 10.8982   1
   8  -3   1 25.6910 8.64015   6
   8   2  -1 30.2575 9.10869   1
   8   2  -1 40.9251 11.1320   4
   8   2  -1 34.8666 8.44429   6
  -8  -2   1 36.4009 8.01247   6
   7   2  -1 292.539 17.0201   6
   7   2  -1 291.659 23.2592   3
   7   2  -1 259.472 19.8810   1
   7   2  -1 303.865 19.2172   4
   7   2  -1 276.759 16.1505   6
  -7  -2   1 272.417 14.1355   6
  -7  -2   1 318.777 15.3639   6
  -7  -2   1 307.063 16.9152   2
  -7  -2   1 275.221 20.6383   1
   6   2  -1 675.110 23.0291   6
   6   2  -1 695.431 23.8069   6
   6   2  -1 617.596 26.7908   3
   6   2  -1 749.866 32.1089   1
   6   2  -1 679.500 25.9895   4
  -6  -2   1 675.847 21.4672   6
  -6  -2   1 706.377 21.5029   6
  -6  -2   1 694.973 23.3285   2
   5   2  -1 106.848 11.0690   3
   5   2  -1 108.074 9.17202   6
   5   2  -1 91.2341 10.5472   1
  -5  -2   1 98.0037 7.86252   6
  -5  -2   1 97.1231 7.51142   6
  -5  -2   1 91.5313 8.17322   2
  -5  -2   1 107.787 10.8590   1
   4   2  -1 311.242 12.0137   6
   4   2  -1 314.749 15.3303   1
   4   2  -1 309.965 11.6341   2
   4   2  -1 305.183 11.9833   6
  -4  -2   1 299.862 11.7624   2
  -4  -2   1 305.634 14.9955   1
  -4  -2   1 285.949 10.6520   6
  -4  -2   1 308.802 10.9242   6
   3   2  -1 2094.02 42.0746   6
   3   2  -1 2132.21 41.4140   2
   3   2  -1 2086.18 46.6783   1
   3   2  -1 2098.56 45.5651   4
   3   2  -1 2004.72 41.6569   5
   3   2  -1 2172.48 42.2845   6
  -3  -2   1 2052.28 46.7197   1
  -3  -2   1 2096.66 41.7080   2
  -3  -2   1 2131.65 40.5366   6
  -3  -2   1 2101.99 40.6028   6
   2   2  -1 1006.92 24.4410   4
   2   2  -1 1065.53 25.1895   1
   2   2  -1 991.909 21.2534   6
   2   2  -1 1034.63 21.3040   6
  -2  -2   1 1025.06 25.0848   1
   1   2  -1 309.009 9.79094   4
   1   2  -1 315.821 9.63751   1
  -1  -2   1 316.352 9.68319   1
   0   2  -1 663.908 14.9763   4
   0   2  -1 645.510 13.3019   1
   0   2  -1 645.573 16.4651   3
   0  -2   1 645.823 14.7553   4
   0  -2   1 650.998 16.6345   3
  -1   2  -1 5748.09 99.0627   4
  -1   2  -1 5561.90 97.7427   1
  -1   2  -1 5523.30 102.302   3
  -1   2  -1 5633.75 99.3659   6
  -1   2  -1 5681.04 99.0969   6
   1  -2   1 5497.08 100.372   6
   1  -2   1 5498.13 99.2856   4
   1  -2   1 5615.04 102.164   3
   1  -2   1 5602.55 98.6377   6
  -2   2  -1 2680.10 51.2906   1
  -2   2  -1 2703.43 55.0273   3
  -2   2  -1 2679.65 52.4891   6
  -2   2  -1 2722.47 54.0718   5
  -2   2  -1 2724.53 52.1779   6
   2  -2   1 2704.82 50.5581   4
   2  -2   1 2660.44 51.5868   1
   2  -2   1 2760.79 55.0462   3
   2  -2   1 2761.74 52.1045   6
   2  -2   1 2782.93 51.8271   6
  -3   2  -1 491.173 15.2740   6
  -3   2  -1 481.524 17.5106   3
  -3   2  -1 498.618 15.5278   6
  -3   2  -1 513.582 15.3465   1
  -3   2  -1 468.116 16.6406   2
   3  -2   1 484.541 15.3274   1
   3  -2   1 504.311 15.3420   6
   3  -2   1 489.174 17.1785   3
   3  -2   1 497.083 14.7740   6
  -4   2  -1 1589.28 36.1419   6
  -4   2  -1 1488.79 36.1294   6
  -4   2  -1 1566.32 36.0723   5
  -4   2  -1 1473.52 36.0044   1
   4  -2   1 1564.38 35.9902   6
   4  -2   1 1523.04 36.8400   1
   4  -2   1 1458.69 38.3483   3
   4  -2   1 1465.01 34.8653   6
  -5   2  -1 770.309 25.0099   1
  -5   2  -1 785.093 27.9625   3
  -5   2  -1 740.435 24.1546   6
  -5   2  -1 744.756 25.8038   2
  -5   2  -1 769.911 23.5865   5
  -5   2  -1 801.073 24.3858   6
   5  -2   1 764.035 23.4898   6
   5  -2   1 770.132 24.0956   6
   5  -2   1 799.877 25.7713   1
   5  -2   1 743.643 26.7181   3
  -6   2  -1 1345.98 42.1214   3
  -6   2  -1 1279.58 39.3043   2
  -6   2  -1 1341.82 38.5503   1
  -6   2  -1 1334.98 35.2312   5
  -6   2  -1 1319.46 36.5580   6
   6  -2   1 1277.26 38.4515   1
   6  -2   1 1352.16 36.9162   6
  -7   2  -1 6.39789 6.09954   6
  -7   2  -1 11.3785 7.69053   1
  -7   2  -1 -0.1522 8.33418   3
  -7   2  -1 -1.6052 5.82694   5
  -7   2  -1 21.6256 7.56743   6
  -7   2  -1 5.66455 7.10395   2
   7  -2   1 19.3654 16.1683   1
   7  -2   1 -0.5228 6.20683   6
  -8   2  -1 2.43424 6.98628   6
  -8   2  -1 -8.5700 7.01486   1
  -8   2  -1 0.24763 9.06812   2
  -8   2  -1 2.86012 7.22083   5
   8  -2   1 -1.8512 7.07922   6
   8  -2   1 -2.1704 7.89706   1
  -9   2  -1 386.669 22.7421   6
  -9   2  -1 361.610 20.2115   5
   9  -2   1 380.343 25.9692   1
   8   1  -1 166.423 16.4529   4
   8   1  -1 178.161 15.3608   6
   8   1  -1 137.472 16.6190   1
  -8  -1   1 186.794 15.0924   6
  -8  -1   1 185.789 20.6121   2
  -8  -1   1 191.210 14.2981   6
   7   1  -1 189.731 14.7531   6
   7   1  -1 206.925 16.4742   1
   7   1  -1 181.112 16.8934   3
   7   1  -1 197.518 14.5004   6
   7   1  -1 188.141 15.3967   4
  -7  -1   1 174.830 12.5109   6
  -7  -1   1 218.709 21.1730   1
  -7  -1   1 185.078 14.7669   2
  -7  -1   1 207.553 13.6917   6
   6   1  -1 2827.11 62.4222   6
   6   1  -1 2758.76 68.1409   3
   6   1  -1 2782.75 62.2381   6
   6   1  -1 2824.76 68.5634   1
  -6  -1   1 2814.10 55.3147   5
  -6  -1   1 2761.32 61.0894   6
  -6  -1   1 2840.16 60.3043   6
  -6  -1   1 2920.42 62.7982   2
   5   1  -1 135.776 11.8093   3
   5   1  -1 119.702 9.68915   6
   5   1  -1 126.783 6.52218   5
   5   1  -1 109.825 8.51110   6
   5   1  -1 125.638 12.1487   1
  -5  -1   1 116.489 8.60072   6
  -5  -1   1 128.626 9.16348   6
  -5  -1   1 126.940 7.28081   5
  -5  -1   1 136.173 9.57633   2
  -5  -1   1 115.412 10.7925   1
   4   1  -1 296.674 9.31493   5
   4   1  -1 311.387 12.0798   6
   4   1  -1 311.810 12.4416   6
   4   1  -1 285.374 14.2712   3
   4   1  -1 306.787 14.8718   1
  -4  -1   1 287.975 9.59255   5
  -4  -1   1 295.527 11.6514   6
  -4  -1   1 297.623 14.3670   1
  -4  -1   1 313.212 12.1897   2
  -4  -1   1 291.025 11.5885   6
   3   1  -1 6598.97 126.273   1
   3   1  -1 6772.88 119.408   5
   3   1  -1 6739.45 122.375   6
   3   1  -1 6730.67 122.413   6
  -3  -1   1 6813.91 121.970   6
  -3  -1   1 6721.79 119.587   5
  -3  -1   1 6829.25 121.556   6
  -3  -1   1 6767.30 121.999   2
  -3  -1   1 6827.62 126.604   1
   2   1  -1 298.328 8.10888   5
   2   1  -1 310.055 8.53306   2
   2   1  -1 318.674 11.2867   1
   2   1  -1 295.203 8.94243   6
   2   1  -1 310.594 9.16745   6
  -2  -1   1 298.757 10.9205   1
  -2  -1   1 310.725 9.50637   2
  -2  -1   1 305.542 8.30556   5
  -2  -1   1 310.388 8.85284   6
  -2  -1   1 309.838 8.80893   6
   1   1  -1 1596.44 31.7559   1
   1   1  -1 1574.88 29.8702   6
   1   1  -1 1616.53 29.6688   6
   1   1  -1 1618.84 31.7470   4
  -1  -1   1 1630.82 31.8969   1
  -1  -1   1 1607.87 29.2849   6
  -1  -1   1 1609.55 29.4628   6
   0   1  -1 5150.67 92.7345   3
   0   1  -1 5160.10 90.3279   6
   0   1  -1 5226.91 91.7300   4
   0  -1   1 5159.16 91.6500   4
   0  -1   1 5288.09 89.7641   6
  -1   1  -1 2901.65 52.2151   4
  -1   1  -1 2880.06 52.4544   6
  -1   1  -1 2898.66 54.2607   3
  -1   1  -1 2872.79 53.8683   2
  -1   1  -1 2943.30 53.0478   6
  -1   1  -1 2874.35 51.5401   1
   1  -1   1 2836.11 54.0183   3
   1  -1   1 2943.10 52.6526   6
   1  -1   1 2908.35 52.2026   4
   1  -1   1 2911.54 51.6376   1
  -2   1  -1 2782.99 53.5506   1
  -2   1  -1 2899.14 55.7891   3
  -2   1  -1 2870.61 53.9004   5
  -2   1  -1 2771.63 55.0662   2
  -2   1  -1 2887.05 53.5533   6
  -2   1  -1 2816.14 53.9166   6
   2  -1   1 2764.18 55.3515   3
   2  -1   1 2836.31 53.7471   6
   2  -1   1 2819.39 53.3204   6
   2  -1   1 2862.63 53.7750   1
  -3   1  -1 625.611 17.9819   1
  -3   1  -1 664.726 17.6166   6
  -3   1  -1 624.513 16.8926   5
  -3   1  -1 632.127 17.7186   6
   3  -1   1 666.939 18.2834   6
   3  -1   1 648.494 18.4362   1
   3  -1   1 626.726 17.1222   6
   3  -1   1 626.439 19.2898   3
  -4   1  -1 2300.20 52.3488   3
  -4   1  -1 2241.86 49.0000   6
  -4   1  -1 2257.45 47.1216   5
  -4   1  -1 2258.49 50.8189   2
  -4   1  -1 2300.15 50.2789   1
  -4   1  -1 2292.98 48.4397   6
   4  -1   1 2283.37 50.5587   1
   4  -1   1 2306.87 48.8398   6
   4  -1   1 2281.88 51.5348   3
   4  -1   1 2300.08 48.2453   6
  -5   1  -1 1630.60 43.4343   3
  -5   1  -1 1589.30 40.8296   1
  -5   1  -1 1573.35 39.1001   6
  -5   1  -1 1619.53 36.6698   5
  -5   1  -1 1658.32 39.0964   6
   5  -1   1 1612.54 39.2154   6
   5  -1   1 1567.43 38.2343   6
   5  -1   1 1605.06 41.2262   1
   5  -1   1 1551.29 41.7214   3
  -6   1  -1 570.699 19.5577   5
  -6   1  -1 538.926 21.2216   6
  -6   1  -1 564.186 25.4760   3
  -6   1  -1 604.426 24.0285   2
  -6   1  -1 600.991 24.1782   1
  -6   1  -1 602.248 22.0826   6
   6  -1   1 603.577 24.4133   1
   6  -1   1 581.579 24.6086   3
   6  -1   1 584.865 22.1068   6
  -7   1  -1 81.4029 9.12451   5
  -7   1  -1 89.9162 11.3917   6
  -7   1  -1 65.7809 10.8082   2
  -7   1  -1 63.7164 9.03368   6
  -7   1  -1 78.3359 12.0891   1
   7  -1   1 63.3740 8.60979   6
   7  -1   1 86.4225 12.6893   3
   7  -1   1 60.8570 11.1440   1
   7  -1   1 63.0976 10.2220   6
  -8   1  -1 59.1824 10.6786   6
  -8   1  -1 57.1076 11.4204   1
  -8   1  -1 48.1998 9.96006   2
  -8   1  -1 46.3940 8.20967   5
  -8   1  -1 58.9599 10.0473   6
   8  -1   1 44.0160 10.5025   6
   8  -1   1 65.7894 12.9964   1
  -9   1  -1 532.540 25.1499   6
  -9   1  -1 517.373 20.7346   5
   9  -1   1 491.459 31.1793   1
   8   0  -1 247.002 18.8104   4
   8   0  -1 269.229 21.8862   1
   8   0  -1 264.170 18.0562   6
  -8   0   1 242.067 17.5922   6
  -8   0   1 255.103 19.2433   2
  -8   0   1 255.222 16.8746   6
  -8   0   1 251.366 13.6929   5
   7   0  -1 7.92077 5.82546   6
   7   0  -1 4.26623 6.97504   1
   7   0  -1 6.10106 8.19017   3
   7   0  -1 11.6537 7.02545   6
   7   0  -1 -1.0313 5.95177   4
  -7   0   1 9.16624 6.67861   6
  -7   0   1 18.6523 8.09531   1
  -7   0   1 18.9391 8.17617   6
  -7   0   1 6.04551 4.70416   5
  -7   0   1 17.2134 6.72434   2
   6   0  -1 680.414 27.2719   1
   6   0  -1 647.119 22.9696   6
   6   0  -1 628.853 26.3520   3
   6   0  -1 652.838 23.5970   6
  -6   0   1 677.293 23.0742   6
  -6   0   1 667.914 19.6291   5
  -6   0   1 669.225 26.6507   1
  -6   0   1 640.948 22.8673   6
  -6   0   1 668.608 23.8692   2
   5   0  -1 74.3190 10.8327   1
   5   0  -1 70.0571 10.4682   3
   5   0  -1 68.0047 8.19459   6
   5   0  -1 94.4131 9.26521   6
   5   0  -1 63.9284 6.31828   5
  -5   0   1 72.9895 10.4077   1
  -5   0   1 67.9241 6.69212   5
  -5   0   1 85.8063 8.49902   6
  -5   0   1 60.2304 7.73167   6
  -5   0   1 71.8597 8.38773   2
   4   0  -1 2734.63 60.0189   1
   4   0  -1 2636.10 60.1520   3
   4   0  -1 2796.97 56.6340   6
   4   0  -1 2713.40 56.3126   6
   4   0  -1 2774.92 53.6399   5
  -4   0   1 2732.18 53.5663   5
  -4   0   1 2848.55 56.1918   6
  -4   0   1 2780.10 56.6224   6
  -4   0   1 2710.30 56.7737   2
  -4   0   1 2678.17 59.8768   1
   3   0  -1 7914.55 146.482   3
   3   0  -1 7946.77 140.808   5
   3   0  -1 8086.09 146.256   1
   3   0  -1 7846.55 142.834   6
  -3   0   1 7746.79 145.888   1
  -3   0   1 8109.89 140.948   5
  -3   0   1 7823.60 142.875   6
  -3   0   1 7884.89 142.881   2
  -3   0   1 7978.79 142.596   6
   2   0  -1 7903.55 136.609   5
   2   0  -1 7780.25 139.809   1
   2   0  -1 7843.17 137.585   6
   2   0  -1 7841.56 137.630   6
   2   0  -1 7619.68 140.057   3
  -2   0   1 7715.53 137.281   2
  -2   0   1 7719.11 136.393   5
  -2   0   1 7628.51 137.423   6
  -2   0   1 7888.21 137.432   6
  -2   0   1 7599.05 139.707   1
   1   0  -1 50.5003 3.65727   1
   1   0  -1 48.6823 2.96635   6
   1   0  -1 50.9916 2.99583   5
   1   0  -1 49.7750 3.07616   4
   1   0  -1 53.8937 3.57443   6
  -1   0   1 52.6573 2.99028   6
  -1   0   1 48.1747 2.99912   6
  -1   0   1 49.2616 3.01977   5
  -1   0   1 52.3961 4.34314   1
  -1   0  -1 2476.93 44.9116   6
  -1   0  -1 2460.09 45.7743   2
  -1   0  -1 2495.11 45.2733   1
  -1   0  -1 2499.15 45.1866   6
  -1   0  -1 2509.04 45.5728   3
   1   0   1 2467.55 45.1823   6
   1   0   1 2482.45 45.8432   2
   1   0   1 2446.93 45.2735   1
   1   0   1 2502.43 45.5445   3
   1   0   1 2485.06 44.8609   6
  -2   0  -1 739.947 17.9800   1
  -2   0  -1 744.033 15.7487   5
  -2   0  -1 731.599 17.1188   6
  -2   0  -1 721.596 18.2243   3
  -2   0  -1 746.578 16.8283   6
  -2   0  -1 723.412 17.8154   2
   2   0   1 744.104 16.7945   6
   2   0   1 729.673 17.8476   2
   2   0   1 733.181 17.9356   1
   2   0   1 733.909 17.2270   6
   2   0   1 722.969 18.0510   3
  -3   0  -1 749.516 20.8907   3
  -3   0  -1 704.193 18.6987   6
  -3   0  -1 739.022 19.9224   2
  -3   0  -1 713.994 20.1591   1
  -3   0  -1 748.487 16.9074   5
  -3   0  -1 733.870 18.4900   6
   3   0   1 749.377 19.9654   2
   3   0   1 717.291 20.2423   1
   3   0   1 726.358 20.4711   3
   3   0   1 692.633 18.2159   6
   3   0   1 729.743 18.9722   6
  -4   0  -1 1859.32 40.6294   6
  -4   0  -1 1813.79 42.8750   1
  -4   0  -1 1849.14 40.0371   6
  -4   0  -1 1813.08 37.2569   5
  -4   0  -1 1806.66 43.5127   3
  -4   0  -1 1860.11 42.1029   2
   4   0   1 1858.08 40.8123   6
   4   0   1 1883.22 43.3059   1
   4   0   1 1773.51 39.7820   6
  -5   0  -1 1916.44 44.8750   6
  -5   0  -1 2026.07 44.7003   6
  -5   0  -1 1927.05 46.7353   2
  -5   0  -1 1975.21 40.9620   5
  -5   0  -1 1975.94 49.1743   3
   5   0   1 1994.51 45.4536   6
   5   0   1 2017.81 48.6875   1
   5   0   1 1929.96 44.2907   6
  -6   0  -1 283.744 14.8174   6
  -6   0  -1 291.681 16.8775   1
  -6   0  -1 288.051 15.0119   6
  -6   0  -1 326.863 18.8639   5
  -6   0  -1 276.039 16.1709   2
   6   0   1 314.456 17.6625   3
   6   0   1 304.803 15.8958   6
   6   0   1 307.188 18.2094   1
   6   0   1 294.188 14.6023   6
  -7   0  -1 200.746 14.2662   6
  -7   0  -1 202.731 11.2338   5
   7   0   1 177.489 15.8035   3
   7   0   1 194.927 16.6869   1
   7   0   1 200.988 14.0245   6
   7   0   1 215.994 15.2833   6
  -8   0  -1 387.517 21.1205   6
  -8   0  -1 377.157 20.1237   6
  -8   0  -1 359.849 24.2884   2
  -8   0  -1 400.369 24.6986   1
  -8   0  -1 401.935 15.5316   5
   8   0   1 406.214 25.3841   3
   8   0   1 415.089 24.4197   1
   8   0   1 389.221 21.2925   6
  -9   0  -1 336.889 20.5442   6
   9   0   1 321.452 21.5926   6
   8  -1  -1 418.100 22.0619   6
   8  -1  -1 430.285 26.1718   1
   8  -1  -1 422.268 22.0830   4
  -8   1   1 427.329 22.0499   6
  -8   1   1 429.812 22.0271   6
  -8   1   1 418.667 19.1287   5
   7  -1  -1 73.6122 10.5136   6
   7  -1  -1 76.3290 12.7181   1
  -7   1   1 79.5655 12.6842   1
  -7   1   1 73.4469 10.0887   6
  -7   1   1 66.7922 8.40002   5
  -7   1   1 68.6261 9.82616   6
   6  -1  -1 526.379 23.7376   1
   6  -1  -1 471.173 19.9048   6
  -6   1   1 477.545 22.3244   1
  -6   1   1 481.369 20.8428   2
  -6   1   1 486.250 19.9664   6
  -6   1   1 473.380 17.7105   5
  -6   1   1 507.975 20.1563   6
   5  -1  -1 5.53767 4.28928   6
   5  -1  -1 -1.1890 4.55705   1
   5  -1  -1 -2.2824 4.74669   3
   5  -1  -1 -6.9465 3.78589   6
   5  -1  -1 4.80297 3.20648   5
  -5   1   1 3.67330 4.16382   2
  -5   1   1 8.20691 4.49540   6
  -5   1   1 5.00463 4.49551   1
  -5   1   1 10.8583 4.86089   5
  -5   1   1 3.03635 3.96138   6
   4  -1  -1 27.0769 5.16258   6
   4  -1  -1 24.3113 4.74349   5
   4  -1  -1 25.9451 5.14539   6
   4  -1  -1 16.6156 4.85712   3
   4  -1  -1 13.9673 5.07929   1
  -4   1   1 12.4571 4.42100   6
  -4   1   1 22.0725 4.61863   6
  -4   1   1 21.2768 4.58361   5
  -4   1   1 20.4311 5.21881   1
  -4   1   1 27.7230 5.58118   2
   3  -1  -1 1726.07 39.9443   3
   3  -1  -1 1767.67 36.7856   5
   3  -1  -1 1717.51 37.0877   6
   3  -1  -1 1724.85 42.9677   1
   3  -1  -1 1766.06 37.4401   6
  -3   1   1 1734.31 37.1241   6
  -3   1   1 1711.06 37.3971   6
  -3   1   1 1782.00 36.7744   5
  -3   1   1 1746.33 40.3567   3
  -3   1   1 1737.94 39.4127   1
  -3   1   1 1766.03 38.4311   2
   2  -1  -1 2895.85 55.6402   6
   2  -1  -1 2964.13 58.0776   3
   2  -1  -1 2979.50 55.9591   6
   2  -1  -1 2991.32 55.9434   5
   2  -1  -1 2948.55 57.6928   1
  -2   1   1 2945.81 55.7067   6
  -2   1   1 2929.22 58.0267   3
  -2   1   1 2975.80 55.8785   5
  -2   1   1 2962.18 55.9766   6
  -2   1   1 2874.56 57.4015   1
   1  -1  -1 4286.97 77.0533   5
   1  -1  -1 4387.73 77.8256   3
   1  -1  -1 4269.03 76.3076   6
   1  -1  -1 4272.62 75.0551   4
   1  -1  -1 4240.97 76.2336   6
   1  -1  -1 4218.47 77.7676   1
  -1   1   1 4259.86 77.7667   1
  -1   1   1 4249.35 77.5016   3
  -1   1   1 4322.22 77.0861   5
  -1   1   1 4204.33 76.3166   6
  -1   1   1 4333.29 76.3199   6
   0  -1  -1 762.753 15.1250   5
   0  -1  -1 736.129 13.8520   3
   0  -1  -1 731.535 13.9772   6
   0  -1  -1 737.868 13.8358   6
   0   1   1 754.011 13.8718   3
   0   1   1 761.032 15.0991   5
   0   1   1 717.592 14.1683   6
   0   1   1 761.074 13.9961   6
   0   1   1 730.750 13.7071   4
  -1  -1  -1 1172.08 21.4308   6
  -1  -1  -1 1132.42 21.6484   6
  -1  -1  -1 1150.87 25.0521   1
  -1  -1  -1 1157.36 23.4890   2
   1   1   1 1152.73 21.5795   6
   1   1   1 1188.67 23.8701   1
   1   1   1 1164.40 21.9084   6
   1   1   1 1159.06 23.4438   2
   1   1   1 1162.70 22.2704   3
  -2  -1  -1 3458.05 64.9361   2
  -2  -1  -1 3493.87 62.8977   6
  -2  -1  -1 3436.38 63.2306   6
  -2  -1  -1 3423.12 65.8968   1
   2   1   1 3471.43 63.6371   6
   2   1   1 3403.91 64.7876   3
   2   1   1 3497.25 64.8666   2
   2   1   1 3516.80 66.1471   1
   2   1   1 3481.44 63.2026   6
  -3  -1  -1 400.534 11.8651   6
  -3  -1  -1 381.009 12.0273   6
  -3  -1  -1 403.765 13.3986   2
   3   1   1 410.012 13.4721   2
   3   1   1 403.825 12.2082   6
   3   1   1 389.975 12.5871   6
   3   1   1 398.131 14.0073   3
  -4  -1  -1 56.5735 7.67055   1
  -4  -1  -1 41.9247 5.90233   2
  -4  -1  -1 47.1405 5.67984   6
  -4  -1  -1 35.2934 3.57898   5
  -4  -1  -1 50.0397 5.75197   6
   4   1   1 52.3815 6.45035   2
   4   1   1 47.4880 6.88823   3
   4   1   1 43.6388 5.65527   6
   4   1   1 40.2200 5.29105   6
   4   1   1 48.4410 6.86314   1
  -5  -1  -1 1313.04 32.9714   6
  -5  -1  -1 1356.29 32.5248   6
  -5  -1  -1 1325.78 34.9212   2
  -5  -1  -1 1349.03 37.3613   1
   5   1   1 1308.27 38.6035   6
   5   1   1 1365.22 34.0460   6
   5   1   1 1358.43 37.5392   1
   5   1   1 1358.06 34.8105   2
   5   1   1 1390.14 37.0935   3
  -6  -1  -1 25.1598 5.70177   6
  -6  -1  -1 27.6708 7.24443   2
  -6  -1  -1 18.4594 5.64216   6
  -6  -1  -1 24.6035 6.49929   1
   6   1   1 33.4930 7.00496   6
   6   1   1 26.9715 5.89279   6
   6   1   1 32.1575 7.72408   3
   6   1   1 18.2663 7.63165   1
  -7  -1  -1 325.823 20.6567   1
  -7  -1  -1 297.384 15.8351   6
  -7  -1  -1 339.626 16.4695   6
  -7  -1  -1 309.271 17.7378   2
   7   1   1 353.231 21.5780   1
   7   1   1 275.012 18.8802   3
   7   1   1 286.597 16.2346   6
   7   1   1 314.346 17.3893   6
  -8  -1  -1 403.181 23.4966   2
  -8  -1  -1 475.870 21.0928   6
  -8  -1  -1 519.243 22.3511   6
   8   1   1 434.625 25.6763   1
   8   1   1 450.739 22.4328   6
   8   1   1 455.848 26.5604   3
   8   1   1 421.784 23.6525   6
  -9  -1  -1 111.578 15.6712   2
  -9  -1  -1 92.4777 12.3661   6
  -9  -1  -1 87.6034 13.6769   6
   9   1   1 78.6290 12.6430   6
   9   1   1 54.5537 11.6414   1
   8  -2  -1 24.2928 10.7978   1
   8  -2  -1 12.1571 7.98544   6
   8  -2  -1 12.1973 7.62612   4
  -8   2   1 7.39463 7.31108   5
  -8   2   1 15.0936 8.58348   6
  -8   2   1 9.47647 9.75611   2
   7  -2  -1 142.736 15.4770   1
   7  -2  -1 164.472 16.2525   3
   7  -2  -1 107.104 12.1942   6
   7  -2  -1 106.089 11.5441   6
  -7   2   1 159.049 13.9606   6
  -7   2   1 145.887 14.1464   2
  -7   2   1 155.823 13.0263   5
  -7   2   1 169.463 22.8386   6
  -7   2   1 129.713 15.9415   1
   6  -2  -1 235.174 16.8956   1
   6  -2  -1 234.828 14.2682   6
  -6   2   1 229.341 15.4663   2
  -6   2   1 230.957 14.0056   5
  -6   2   1 215.596 14.3359   6
  -6   2   1 209.960 15.4293   1
   5  -2  -1 52.7274 8.77976   3
   5  -2  -1 51.8021 7.07003   6
   5  -2  -1 58.0233 7.79125   6
   5  -2  -1 63.4746 9.68449   1
  -5   2   1 61.1624 7.79901   5
  -5   2   1 51.8872 8.83322   3
  -5   2   1 59.9585 8.04460   6
  -5   2   1 43.4941 6.73610   6
  -5   2   1 59.0821 8.26157   1
  -5   2   1 49.5498 7.74297   2
   4  -2  -1 12.3963 4.16697   6
   4  -2  -1 14.1422 5.21766   1
   4  -2  -1 21.1246 4.84008   6
   4  -2  -1 17.5960 4.29440   5
   4  -2  -1 17.5531 4.77903   3
  -4   2   1 22.6045 5.21776   2
  -4   2   1 16.0571 4.68700   6
  -4   2   1 18.6421 5.81832   3
  -4   2   1 19.9330 4.98092   1
  -4   2   1 20.1679 5.19858   5
  -4   2   1 15.0785 4.21609   6
   3  -2  -1 1242.55 29.5636   5
   3  -2  -1 1232.51 28.6735   6
   3  -2  -1 1244.42 28.5060   6
   3  -2  -1 1220.50 31.2373   3
   3  -2  -1 1250.62 34.0842   1
  -3   2   1 1250.25 31.8923   3
  -3   2   1 1192.23 30.2661   1
  -3   2   1 1212.53 28.9366   6
  -3   2   1 1261.35 28.9858   6
   2  -2  -1 784.489 19.9981   5
   2  -2  -1 788.735 20.5053   1
   2  -2  -1 788.764 18.5710   6
   2  -2  -1 777.983 18.6694   6
   2  -2  -1 796.365 20.8720   3
  -2   2   1 797.315 21.0789   3
  -2   2   1 792.322 18.8683   6
  -2   2   1 780.485 20.1850   1
  -2   2   1 780.434 18.9713   6
  -2   2   1 765.888 19.8105   5
   1  -2  -1 314.873 10.3675   5
   1  -2  -1 333.932 10.2880   3
   1  -2  -1 342.380 8.72742   6
   1  -2  -1 353.749 9.03702   6
  -1   2   1 335.112 8.98322   6
  -1   2   1 340.177 10.7555   1
  -1   2   1 345.946 10.3677   3
  -1   2   1 344.989 9.14356   6
  -1   2   1 338.324 10.6312   5
   0  -2  -1 2583.77 48.4124   3
   0  -2  -1 2656.77 49.7397   5
   0   2   1 2715.11 49.7975   5
   0   2   1 2652.06 48.4216   3
   0   2   1 2704.84 46.6241   6
  -1  -2  -1 2591.27 47.6354   5
  -1  -2  -1 2648.63 50.2682   2
   1   2   1 2716.63 50.5249   1
   1   2   1 2595.20 47.6714   5
   1   2   1 2624.25 50.4143   2
  -2  -2  -1 28.4731 4.05043   1
  -2  -2  -1 31.2121 3.95411   2
  -2  -2  -1 34.5360 2.45541   6
   2   2   1 31.4824 2.86044   6
   2   2   1 35.2322 3.15605   6
   2   2   1 34.9654 4.13641   2
   2   2   1 35.1414 4.42340   1
  -3  -2  -1 88.3269 6.47774   2
  -3  -2  -1 82.2102 4.91165   6
  -3  -2  -1 89.5117 7.20665   1
  -3  -2  -1 90.8005 5.06866   6
   3   2   1 83.2974 6.51789   2
   3   2   1 77.9019 5.28390   6
   3   2   1 87.4575 7.06784   3
   3   2   1 85.3766 7.71749   1
   3   2   1 78.8914 5.79022   6
  -4  -2  -1 803.369 24.9479   1
  -4  -2  -1 802.650 19.8027   6
  -4  -2  -1 800.499 22.8136   2
  -4  -2  -1 785.436 20.1307   6
   4   2   1 827.902 25.4683   1
   4   2   1 801.750 21.6919   6
   4   2   1 791.213 23.8673   3
   4   2   1 799.130 22.4912   2
   4   2   1 799.420 21.0682   6
  -5  -2  -1 1253.09 30.4356   6
  -5  -2  -1 1243.45 33.3271   2
  -5  -2  -1 1246.17 29.8097   6
   5   2   1 1276.04 31.6508   6
   5   2   1 1294.93 35.7087   3
   5   2   1 1268.76 32.2650   6
   5   2   1 1282.06 36.8474   1
   5   2   1 1303.32 33.1034   2
  -6  -2  -1 2.93381 3.99171   6
  -6  -2  -1 2.31473 6.30176   2
  -6  -2  -1 -4.7075 4.33944   6
   6   2   1 7.66397 5.57419   2
   6   2   1 8.27576 6.86510   1
   6   2   1 -0.5389 5.07219   3
   6   2   1 1.56615 5.14189   6
   6   2   1 0.83618 4.33185   6
  -7  -2  -1 32.2111 6.86502   6
  -7  -2  -1 26.6626 8.38847   2
  -7  -2  -1 47.6438 12.3505   1
  -7  -2  -1 32.3836 6.69455   6
   7   2   1 31.8574 7.15706   6
   7   2   1 40.1938 9.99112   1
   7   2   1 22.4478 6.82738   6
   7   2   1 16.2882 8.16952   3
  -8  -2  -1 188.306 13.8103   6
  -8  -2  -1 227.428 18.6813   2
   8   2   1 205.180 19.6802   1
   8   2   1 199.342 16.2170   6
   8   2   1 218.609 20.3567   3
   8   2   1 194.205 15.8489   6
  -9  -2  -1 15.9801 9.23491   6
  -9  -2  -1 12.9981 8.20152   6
  -9  -2  -1 4.61895 10.4008   2
   9   2   1 8.40847 8.20026   1
   9   2   1 13.4092 8.36611   4
   9   2   1 2.57246 7.51064   6
   8  -3  -1 32.1891 8.98038   6
   8  -3  -1 21.1113 9.84630   1
   8  -3  -1 14.4816 8.17597   4
  -8   3   1 30.8160 9.72118   5
  -8   3   1 29.8591 9.51279   6
   7  -3  -1 314.466 20.9562   1
   7  -3  -1 305.885 20.6266   3
   7  -3  -1 274.127 16.8335   6
   7  -3  -1 307.511 18.0166   6
  -7   3   1 269.135 18.8754   1
  -7   3   1 295.409 18.0154   6
  -7   3   1 269.637 16.7796   5
  -7   3   1 265.089 17.4320   6
  -7   3   1 292.005 20.6367   2
   6  -3  -1 390.097 20.8302   1
   6  -3  -1 365.512 20.9695   6
   6  -3  -1 396.906 19.2726   6
  -6   3   1 400.976 19.6432   6
  -6   3   1 365.755 23.0472   3
  -6   3   1 393.898 18.4753   5
  -6   3   1 371.970 19.5012   1
   5  -3  -1 28.8155 6.30421   6
   5  -3  -1 35.9035 7.24757   6
   5  -3  -1 37.2768 7.16045   1
   5  -3  -1 33.8097 6.81892   3
  -5   3   1 34.8095 8.77039   3
  -5   3   1 34.5062 7.41165   1
  -5   3   1 19.7855 5.71128   6
  -5   3   1 26.0412 6.72591   5
  -5   3   1 25.0318 6.90482   2
   4  -3  -1 285.135 14.5371   1
   4  -3  -1 273.463 13.3070   5
   4  -3  -1 290.162 12.7260   6
   4  -3  -1 313.413 13.4245   6
  -4   3   1 285.200 14.0369   6
  -4   3   1 309.219 13.5040   6
  -4   3   1 293.580 13.8384   5
  -4   3   1 296.430 14.0801   1
  -4   3   1 311.583 16.0288   3
   3  -3  -1 155.665 8.24510   6
   3  -3  -1 150.272 10.1705   3
   3  -3  -1 154.631 8.52599   6
   3  -3  -1 162.854 10.1399   1
   3  -3  -1 155.754 9.41267   5
  -3   3   1 167.348 10.0229   5
  -3   3   1 167.206 9.00194   6
  -3   3   1 174.135 9.84576   1
  -3   3   1 169.887 9.04103   6
  -3   3   1 169.724 10.9090   3
   2  -3  -1 725.228 17.8634   6
   2  -3  -1 710.825 20.3552   1
   2  -3  -1 744.334 17.6793   6
   2  -3  -1 730.214 20.4184   5
   2  -3  -1 713.243 20.3740   3
  -2   3   1 703.954 18.1569   6
  -2   3   1 724.537 20.7802   3
  -2   3   1 720.817 20.3828   5
  -2   3   1 740.036 19.8268   1
  -2   3   1 729.059 18.4268   6
   1  -3  -1 737.536 15.6563   6
   1  -3  -1 703.180 18.8891   5
   1  -3  -1 714.052 15.2936   6
   1  -3  -1 722.203 18.3317   3
  -1   3   1 728.036 19.1426   5
  -1   3   1 708.233 16.1190   6
  -1   3   1 723.552 18.4978   3
  -1   3   1 688.566 18.7213   1
  -1   3   1 709.531 16.0382   6
   0  -3  -1 482.263 13.6642   5
   0  -3  -1 477.922 12.9057   3
   0   3   1 484.179 12.7640   3
   0   3   1 491.357 10.8905   4
   0   3   1 506.625 13.9445   5
   1   3   1 3710.90 69.9256   3
   1   3   1 3818.08 69.7297   5
   1   3   1 3816.85 71.5483   1
   1   3   1 3825.32 72.2562   2
  -2  -3  -1 526.653 15.5139   2
   2   3   1 540.814 11.9023   6
   2   3   1 529.609 15.6193   2
   2   3   1 542.210 16.7402   1
   2   3   1 527.736 11.5969   6
   2   3   1 547.658 12.2555   5
  -3  -3  -1 90.3648 6.93084   2
  -3  -3  -1 74.8479 7.19921   1
   3   3   1 72.7250 7.69601   1
   3   3   1 79.2701 5.47155   6
   3   3   1 78.7818 5.08663   6
   3   3   1 83.9670 6.68380   2
  -4  -3  -1 188.943 11.9008   1
  -4  -3  -1 190.066 7.19816   6
  -4  -3  -1 197.741 7.14468   6
  -4  -3  -1 191.490 10.5437   2
   4   3   1 187.854 10.3064   2
   4   3   1 207.515 9.14502   6
   4   3   1 208.291 9.84872   6
   4   3   1 204.035 12.5620   1
   4   3   1 202.584 11.7402   3
  -5  -3  -1 57.4113 5.65897   6
  -5  -3  -1 36.7347 6.28272   1
  -5  -3  -1 49.6979 6.99370   2
  -5  -3  -1 55.6066 5.46268   6
   5   3   1 51.5968 9.42587   1
   5   3   1 54.1488 6.81163   6
   5   3   1 43.9899 7.50276   3
   5   3   1 64.2860 6.94545   6
   5   3   1 60.9299 8.08602   2
  -6  -3  -1 311.988 18.2564   2
  -6  -3  -1 310.205 12.8740   6
  -6  -3  -1 335.440 13.0554   6
   6   3   1 333.976 15.1478   6
   6   3   1 337.111 19.9373   1
   6   3   1 340.388 18.4608   3
   6   3   1 369.102 16.4597   6
   6   3   1 332.952 16.1533   2
  -7  -3  -1 163.165 14.1659   2
  -7  -3  -1 163.079 10.6195   6
  -7  -3  -1 173.678 10.8251   6
  -7  -3  -1 171.466 17.1862   1
   7   3   1 144.527 15.4866   3
   7   3   1 151.945 16.2837   1
   7   3   1 172.199 13.3581   6
   7   3   1 176.197 13.3424   6
  -8  -3  -1 177.460 18.9246   2
  -8  -3  -1 191.033 12.8481   6
  -8  -3  -1 181.864 12.6393   6
   8   3   1 191.016 19.0780   3
   8   3   1 194.626 20.0146   1
   8   3   1 163.992 14.7296   6
   8   3   1 185.677 15.1133   6
   8  -4  -1 36.6692 10.5243   6
   8  -4  -1 67.1158 12.5049   1
   8  -4  -1 33.3333 10.5600   4
  -8   4   1 40.5000 9.88635   5
   7  -4  -1 199.144 15.7154   6
   7  -4  -1 206.125 13.4062   4
   7  -4  -1 213.702 17.9406   1
   7  -4  -1 193.800 18.5808   3
   7  -4  -1 195.929 15.1868   6
  -7   4   1 235.736 19.7546   2
  -7   4   1 242.055 16.7810   5
  -7   4   1 225.057 20.0272   3
  -7   4   1 214.759 16.1970   6
  -7   4   1 204.038 17.5108   1
  -7   4   1 183.673 15.6803   6
   6  -4  -1 949.242 33.2018   1
   6  -4  -1 918.221 29.3567   6
   6  -4  -1 936.082 34.2570   3
  -6   4   1 918.331 30.3501   6
  -6   4   1 902.720 30.8224   6
  -6   4   1 999.262 36.7280   3
  -6   4   1 947.354 31.3550   5
  -6   4   1 879.772 31.3241   1
  -6   4   1 897.665 33.3073   2
   5  -4  -1 87.4516 9.36047   6
   5  -4  -1 88.3214 9.82093   6
   5  -4  -1 87.8414 11.7462   1
   5  -4  -1 87.8581 10.5297   3
  -5   4   1 79.0765 9.02406   6
  -5   4   1 116.738 11.5445   6
  -5   4   1 93.3219 11.5025   2
  -5   4   1 86.7560 10.2501   5
  -5   4   1 97.5772 12.6212   3
  -5   4   1 71.0064 9.26908   1
   4  -4  -1 14.7942 5.40584   3
   4  -4  -1 18.0719 5.24481   6
   4  -4  -1 21.2729 6.16238   1
   4  -4  -1 20.4626 4.86236   6
  -4   4   1 12.2746 5.31995   5
  -4   4   1 14.9527 6.15139   3
  -4   4   1 23.1419 5.72207   1
  -4   4   1 29.4759 6.29648   6
  -4   4   1 31.5473 5.91894   6
   3  -4  -1 1685.52 36.6204   6
   3  -4  -1 1693.86 41.1872   3
   3  -4  -1 1621.87 36.0116   6
   3  -4  -1 1669.37 40.2850   1
  -3   4   1 1664.56 41.3655   3
  -3   4   1 1675.10 40.6084   5
  -3   4   1 1640.37 37.3332   6
  -3   4   1 1650.17 37.6818   6
  -3   4   1 1647.70 38.7297   1
   2  -4  -1 111.508 8.40602   3
   2  -4  -1 113.835 6.02488   6
   2  -4  -1 122.762 6.52654   6
   2  -4  -1 119.423 8.70869   5
  -2   4   1 107.829 8.54481   3
  -2   4   1 121.689 11.0220   6
  -2   4   1 110.543 7.86413   1
  -2   4   1 114.869 6.87406   6
  -2   4   1 111.342 8.65058   5
   1  -4  -1 449.673 14.8624   3
  -1   4   1 478.939 12.3722   6
  -1   4   1 477.929 12.3081   6
  -1   4   1 469.645 15.2876   3
  -1   4   1 484.200 16.1639   5
   0  -4  -1 331.416 11.7283   3
   0   4   1 323.388 12.0736   5
   0   4   1 317.245 8.91604   4
   0   4   1 327.960 11.2525   3
   1   4   1 2784.33 53.8966   5
   1   4   1 2749.31 52.9881   4
   1   4   1 2719.71 53.7062   3
   1   4   1 2753.85 54.9294   1
   1   4   1 2693.31 56.2033   2
  -2  -4  -1 2142.89 44.9751   2
   2   4   1 2134.87 41.6502   5
   2   4   1 2085.19 45.2843   2
   2   4   1 2111.40 46.3526   1
  -3  -4  -1 -0.4297 3.40546   2
   3   4   1 10.2972 4.68581   1
   3   4   1 1.10918 2.33580   6
   3   4   1 3.16649 3.63430   2
   3   4   1 4.24214 2.12244   6
  -4  -4  -1 539.579 21.2802   1
  -4  -4  -1 526.958 18.2859   2
   4   4   1 555.292 21.6053   1
   4   4   1 540.547 16.1430   6
   4   4   1 534.258 15.6066   6
   4   4   1 552.764 18.1509   2
  -5  -4  -1 590.015 20.4099   2
  -5  -4  -1 578.282 23.7043   1
   5   4   1 607.870 24.8678   1
   5   4   1 553.761 18.2183   6
   5   4   1 601.663 19.0496   6
   5   4   1 581.994 20.1905   2
  -6  -4  -1 263.964 15.3730   2
   6   4   1 283.605 17.6220   3
   6   4   1 271.734 14.9198   2
   6   4   1 278.726 14.0525   6
   6   4   1 278.244 18.7778   1
   6   4   1 296.657 15.1249   6
  -7  -4  -1 48.4829 9.19891   2
  -7  -4  -1 57.1069 10.4374   1
   7   4   1 41.9393 9.16090   2
   7   4   1 56.1953 12.0266   3
   7   4   1 49.3600 11.0058   1
   7   4   1 68.2584 9.90642   6
   7   4   1 58.5652 8.37774   6
   8   4   1 13.9776 7.92126   4
   8   4   1 -0.6893 9.99150   3
   8   4   1 0.52222 9.41409   1
   8   4   1 0.90347 7.86176   6
   8   4   1 -7.7482 6.35136   6
   8  -5  -1 210.394 15.0428   4
   8  -5  -1 261.816 21.3663   1
   8  -5  -1 279.314 15.9361   4
   8  -5  -1 194.007 17.9457   6
  -8   5   1 246.973 18.8378   6
  -8   5   1 239.066 19.9244   5
   7  -5  -1 3.00290 7.77326   1
   7  -5  -1 1.76807 6.24824   6
   7  -5  -1 4.38526 6.77870   6
   7  -5  -1 5.76050 6.00585   4
   7  -5  -1 31.1984 12.9939   4
  -7   5   1 -3.7777 6.25027   6
  -7   5   1 6.80950 10.4707   3
  -7   5   1 9.11209 7.79814   5
  -7   5   1 1.15561 8.03548   1
   6  -5  -1 977.279 31.1251   6
   6  -5  -1 972.262 25.2004   4
   6  -5  -1 993.855 34.6496   1
   6  -5  -1 890.296 28.8669   6
   6  -5  -1 913.517 24.9548   4
   6  -5  -1 812.636 37.3514   3
  -6   5   1 993.170 39.5208   2
  -6   5   1 984.865 37.5418   3
  -6   5   1 895.419 31.8331   6
  -6   5   1 948.654 33.3742   5
  -6   5   1 962.186 31.6809   6
  -6   5   1 955.654 32.1983   1
   5  -5  -1 30.1153 4.88192   4
   5  -5  -1 22.4299 6.56445   6
   5  -5  -1 18.7016 5.61756   6
   5  -5  -1 24.5462 7.37826   1
  -5   5   1 21.6812 6.63836   6
  -5   5   1 27.3863 7.16636   6
  -5   5   1 26.3485 6.39989   1
  -5   5   1 26.2137 9.00165   3
  -5   5   1 20.5256 7.23357   5
   4  -5  -1 218.545 11.5968   6
   4  -5  -1 197.422 10.7525   6
   4  -5  -1 202.826 14.4581   3
  -4   5   1 210.006 12.5538   6
  -4   5   1 195.411 11.9171   6
  -4   5   1 232.081 15.7324   3
  -4   5   1 192.280 13.7830   5
  -4   5   1 204.830 12.5065   1
   3  -5  -1 2932.33 57.4639   6
   3  -5  -1 2845.82 63.7050   3
   3  -5  -1 2867.25 56.8573   6
  -3   5   1 2798.90 59.4888   6
  -3   5   1 2889.64 60.6369   1
  -3   5   1 2898.39 64.1906   5
  -3   5   1 2893.25 64.5453   3
  -3   5   1 2872.98 59.3674   6
   2  -5  -1 515.780 13.6810   6
   2  -5  -1 491.904 18.1646   3
   2  -5  -1 510.487 12.9603   6
  -2   5   1 534.253 15.7919   6
  -2   5   1 530.558 17.4553   1
  -2   5   1 509.386 15.5731   6
  -2   5   1 507.953 18.8938   3
  -2   5   1 536.628 19.6531   5
   1  -5  -1 677.082 20.4925   3
  -1   5   1 667.490 16.3511   6
  -1   5   1 707.198 20.7955   3
  -1   5   1 653.888 16.3497   6
  -1   5   1 660.053 21.3536   5
   0  -5  -1 2266.82 48.2982   3
   0   5   1 2264.08 49.0842   5
   0   5   1 2236.12 43.4544   4
   0   5   1 2282.84 47.6371   3
   1   5   1 819.173 21.9980   3
   1   5   1 837.940 24.9434   5
   1   5   1 829.939 20.6911   4
   1   5   1 826.325 24.4603   2
   2   5   1 1369.13 30.8488   5
   2   5   1 1411.00 33.3907   3
   2   5   1 1399.65 32.8532   4
   2   5   1 1425.92 34.7730   1
   2   5   1 1304.02 33.9278   2
  -3  -5  -1 132.560 9.45685   2
   3   5   1 127.401 10.6209   1
   3   5   1 123.976 9.26183   2
   3   5   1 135.026 6.76853   5
   3   5   1 132.204 5.69644   6
  -4  -5  -1 1642.84 39.8727   2
   4   5   1 1665.20 35.5186   6
   4   5   1 1715.49 39.9340   2
   4   5   1 1710.91 44.6941   1
  -5  -5  -1 1291.62 34.1323   2
   5   5   1 1318.80 33.6389   2
   5   5   1 1271.07 39.1375   1
   5   5   1 1235.73 36.5534   3
   5   5   1 1234.34 31.0808   6
   5   5   1 1280.65 31.0119   6
  -6  -5  -1 505.620 24.7400   1
  -6  -5  -1 451.419 28.1535   2
   6   5   1 533.934 26.2932   1
   6   5   1 528.051 23.7164   3
   6   5   1 472.183 18.2973   6
   6   5   1 517.623 19.3116   6
   6   5   1 504.210 23.7042   4
   6   5   1 506.005 19.8642   2
  -7  -5  -1 73.9652 10.7485   2
   7   5   1 64.4979 13.7481   1
   7   5   1 84.2189 14.1011   3
   7   5   1 65.0530 9.51171   6
   7   5   1 61.0118 9.46992   6
   7   5   1 56.0792 10.9832   4
   7   5   1 56.5247 9.73878   2
   8   5   1 92.8794 14.6541   1
   8   5   1 124.332 13.4912   6
   8   5   1 81.0570 14.7200   4
   7  -6  -1 16.7487 7.50199   6
   7  -6  -1 4.41928 7.22373   6
   7  -6  -1 7.98822 8.90417   1
  -7   6   1 4.97331 8.04845   6
  -7   6   1 13.4448 10.9023   3
  -7   6   1 6.51629 7.47322   5
   6  -6  -1 640.499 23.9543   6
   6  -6  -1 624.560 24.3442   6
   6  -6  -1 642.442 29.7457   3
  -6   6   1 661.312 31.4965   3
  -6   6   1 639.005 29.8901   2
  -6   6   1 646.259 26.1400   6
  -6   6   1 643.726 26.6161   6
  -6   6   1 669.514 28.8740   5
  -6   6   1 635.003 25.6357   1
   5  -6  -1 91.8722 9.23095   6
   5  -6  -1 93.8458 12.7475   3
   5  -6  -1 119.411 10.6721   6
  -5   6   1 104.009 10.9352   1
  -5   6   1 127.858 14.6221   3
  -5   6   1 89.4806 12.5614   5
  -5   6   1 104.311 11.6616   6
  -5   6   1 118.328 11.2708   6
   4  -6  -1 -3.6801 3.64807   6
   4  -6  -1 4.44444 6.18761   3
   4  -6  -1 -4.6247 3.51964   6
  -4   6   1 7.56285 5.08681   6
  -4   6   1 1.96954 5.88214   3
  -4   6   1 5.04951 5.06589   1
  -4   6   1 0.30456 6.16360   5
  -4   6   1 6.75081 4.52432   6
   3  -6  -1 3324.90 72.1868   3
   3  -6  -1 3058.14 66.7650   6
   3  -6  -1 3255.55 62.2305   6
  -3   6   1 3205.59 72.7753   5
  -3   6   1 3383.30 73.3737   3
  -3   6   1 3322.93 67.0497   6
  -3   6   1 3250.75 67.7479   1
   2  -6  -1 35.7565 7.53869   3
  -2   6   1 33.7021 5.26852   6
  -2   6   1 41.8801 7.65600   3
  -2   6   1 42.9721 5.56414   6
  -2   6   1 50.8656 8.66742   5
  -2   6   1 34.8345 5.60471   1
   1  -6  -1 60.5996 7.78544   3
  -1   6   1 54.5700 5.27175   6
  -1   6   1 71.2201 8.96322   5
  -1   6   1 69.6836 8.13754   3
  -1   6   1 60.3289 5.37081   6
   0   6   1 3728.63 69.5971   4
   0   6   1 3796.22 76.9271   5
   0   6   1 3637.83 74.5169   3
   1   6   1 1109.03 33.8187   4
   1   6   1 1026.83 30.5160   2
   1   6   1 1039.58 27.7411   3
   1   6   1 1083.82 28.6335   5
   1   6   1 1084.04 28.3141   1
   2   6   1 2085.60 45.0177   5
   2   6   1 2041.34 45.6670   4
   2   6   1 2088.97 46.6128   3
   2   6   1 2035.28 48.6634   2
   2   6   1 2090.67 48.1022   1
   3   6   1 672.290 22.3854   4
   3   6   1 639.797 18.0397   5
   3   6   1 645.411 23.7468   1
   3   6   1 657.782 22.0356   2
   4   6   1 319.863 14.9023   2
   4   6   1 343.803 18.3916   1
   4   6   1 320.333 11.5276   6
   4   6   1 340.715 17.2111   4
   4   6   1 310.479 11.0685   6
  -5  -6  -1 1292.73 34.6763   2
   5   6   1 1296.01 38.5116   4
   5   6   1 1231.15 33.3335   2
   5   6   1 1243.08 30.4089   6
   5   6   1 1256.06 30.8532   6
  -6  -6  -1 47.4455 9.30208   2
   6   6   1 52.7943 10.9308   3
   6   6   1 34.8300 7.02134   6
   6   6   1 38.9821 7.44571   2
   6   6   1 23.2343 8.12630   4
   6   6   1 44.3936 11.3724   1
   6   6   1 26.5982 6.66199   6
  -7  -6  -1 222.729 16.7481   2
   7   6   1 218.561 14.9429   6
   7   6   1 229.383 15.7852   2
   7   6   1 225.016 14.7065   6
   7   6   1 225.497 19.7784   1
   7  -7  -1 43.4280 9.39012   6
   7  -7  -1 32.4609 9.44862   6
  -7   7   1 30.7127 13.0659   3
  -7   7   1 30.3196 10.1670   1
  -7   7   1 27.7100 9.99547   6
   6  -7  -1 144.868 19.0600   6
   6  -7  -1 213.848 15.6410   6
  -6   7   1 183.532 18.0962   5
  -6   7   1 210.487 15.7671   1
  -6   7   1 209.441 16.2967   6
  -6   7   1 164.362 18.8932   3
   5  -7  -1 62.8026 8.30430   6
   5  -7  -1 68.0482 8.51010   6
   5  -7  -1 78.8230 12.3114   3
  -5   7   1 45.9360 10.8297   3
  -5   7   1 64.3849 11.7502   5
  -5   7   1 67.8984 10.3317   6
  -5   7   1 69.6166 9.95798   1
   4  -7  -1 -5.8084 5.89532   3
   4  -7  -1 -1.7448 4.28753   6
   4  -7  -1 -0.9640 3.53639   6
  -4   7   1 1.51583 4.72800   1
  -4   7   1 2.71744 6.94774   5
  -4   7   1 1.72215 5.20812   6
  -4   7   1 5.74675 5.68227   6
   3  -7  -1 1332.14 38.3972   3
  -3   7   1 1249.28 33.1820   6
  -3   7   1 1285.06 33.2550   6
  -3   7   1 1278.77 33.5749   1
  -3   7   1 1310.77 38.8784   3
   2  -7  -1 -1.4371 4.66165   3
  -2   7   1 3.22175 4.20312   1
  -2   7   1 -0.5376 5.56348   3
  -2   7   1 6.09143 4.09510   6
  -2   7   1 2.50321 3.65129   6
  -2   7   1 -0.5926 5.40950   5
   1  -7  -1 199.238 13.4113   3
  -1   7   1 222.349 13.6182   3
  -1   7   1 193.182 12.3665   1
  -1   7   1 231.659 12.1824   6
  -1   7   1 213.411 9.18751   6
  -1   7   1 251.549 15.1214   5
   0   7   1 1833.58 38.5025   4
   0   7   1 1844.82 45.9497   5
   0   7   1 1839.93 44.0478   3
   1   7   1 281.758 13.5941   1
   1   7   1 296.192 12.3282   4
   1   7   1 301.451 14.4620   3
   1   7   1 279.659 16.1805   2
   1   7   1 315.396 14.9710   5
   2   7   1 44.8020 7.21805   1
   2   7   1 28.7143 7.78729   2
   2   7   1 34.7473 6.68264   5
   2   7   1 35.6535 7.24645   3
   2   7   1 30.2914 5.92214   4
   3   7   1 446.144 20.2365   1
   3   7   1 467.284 19.6040   2
   3   7   1 466.612 18.6148   3
   3   7   1 458.386 18.7396   4
   3   7   1 440.482 15.8903   5
   4   7   1 647.884 24.6068   4
   4   7   1 635.682 22.3874   2
   4   7   1 651.683 26.1656   1
   4   7   1 604.348 16.4344   6
   5   7   1 1161.80 29.0261   6
   5   7   1 1194.59 39.6356   1
   5   7   1 1189.32 29.5146   6
   5   7   1 1218.18 38.2546   4
   5   7   1 1226.33 33.3935   2
   6   7   1 37.6209 10.4189   1
   6   7   1 65.9038 11.7211   3
   6   7   1 41.6432 10.9584   4
   6   7   1 51.7346 9.00610   2
   6   7   1 58.0611 8.02979   6
   6   7   1 62.4983 8.38614   6
   7   7   1 25.7547 12.7225   1
   7   7   1 30.3013 7.35831   6
   7   7   1 29.5872 7.92929   2
   7   7   1 40.2205 12.9464   4
   7   7   1 21.3885 11.1344   3
   7   7   1 25.5600 7.67698   6
   6  -8  -1 -2.6404 6.26210   6
  -6   8   1 -11.825 5.98739   6
  -6   8   1 5.96302 7.44959   1
  -6   8   1 5.70580 10.6239   3
  -6   8   1 -2.7120 10.1521   5
   5  -8  -1 25.2818 9.88773   3
   5  -8  -1 41.6081 7.32178   6
   5  -8  -1 38.9095 6.38177   6
  -5   8   1 36.6713 9.18232   6
  -5   8   1 30.4117 8.39975   6
  -5   8   1 46.9699 8.88619   1
  -5   8   1 50.5497 10.6014   5
  -5   8   1 32.1558 10.7396   3
   4  -8  -1 9.37775 8.11093   3
  -4   8   1 12.2614 6.42385   6
  -4   8   1 14.9656 9.23038   3
  -4   8   1 12.7787 6.23983   5
  -4   8   1 4.40343 6.60176   6
  -3   8   1 484.829 18.8694   6
  -3   8   1 472.501 18.6198   6
  -3   8   1 472.371 18.3488   1
  -3   8   1 471.871 23.6565   3
  -3   8   1 521.154 24.6785   5
   2  -8  -1 75.2572 10.8632   3
  -2   8   1 81.9425 8.09967   6
  -2   8   1 85.7367 8.91434   1
  -2   8   1 90.0368 10.9851   3
  -2   8   1 87.0375 8.59759   6
  -2   8   1 69.0248 10.6537   5
   1  -8  -1 8.73503 5.38672   3
  -1   8   1 12.6280 6.65104   3
  -1   8   1 7.36442 3.92944   6
  -1   8   1 1.36056 3.33552   6
  -1   8   1 10.9909 5.47559   1
  -1   8   1 7.59530 6.47182   5
   0   8   1 638.991 25.8904   2
   0   8   1 659.203 21.2271   1
   0   8   1 602.200 24.2536   5
   0   8   1 653.407 23.4704   3
   1   8   1 696.183 24.6937   5
   1   8   1 633.042 22.9470   3
   1   8   1 672.036 22.6232   1
   1   8   1 681.576 26.6507   2
   1   8   1 651.193 20.2412   4
   2   8   1 -10.301 5.48523   2
   2   8   1 5.38728 5.68674   3
   2   8   1 -3.1494 4.81816   5
   2   8   1 0.16633 4.44005   4
   2   8   1 5.33107 4.98334   1
   3   8   1 20.1775 6.24937   4
   3   8   1 48.6131 8.17363   2
   3   8   1 24.2510 5.68752   5
   3   8   1 34.5617 7.64278   3
   3   8   1 45.9143 8.58224   1
   4   8   1 -1.5131 6.08351   4
   4   8   1 -5.4885 4.24644   5
   4   8   1 3.42963 6.41879   2
   4   8   1 0.81980 7.27830   1
   4   8   1 4.98823 6.79076   3
   5   8   1 403.829 14.6753   6
   5   8   1 390.462 22.7543   1
   5   8   1 399.593 21.8320   4
   5   8   1 391.091 18.5418   2
   5   8   1 381.927 14.2953   6
   5   8   1 423.083 21.3779   3
   6   8   1 13.9843 8.36472   1
   6   8   1 -4.6982 9.45864   3
   6   8   1 7.09138 5.45593   6
   6   8   1 16.2841 8.34685   4
   6   8   1 5.70378 6.27572   2
   6   8   1 0.56961 4.88655   6
  -5   9   1 12.5596 9.53719   3
  -5   9   1 -0.3496 5.89566   1
  -5   9   1 1.70333 9.21271   5
  -5   9   1 8.36257 7.29689   6
   4  -9  -1 40.5612 11.2531   3
  -4   9   1 26.2381 7.58861   6
  -4   9   1 18.9635 9.97285   3
  -4   9   1 33.6179 7.43877   1
  -4   9   1 18.4862 7.75880   6
  -4   9   1 18.2449 9.01390   5
   3  -9  -1 25.6588 9.65551   3
  -3   9   1 18.2492 6.65162   6
  -3   9   1 13.8003 7.78789   5
  -3   9   1 31.6127 6.49416   1
  -3   9   1 22.6353 8.23029   3
  -3   9   1 18.7335 7.03867   6
  -2   9   1 53.8794 11.7593   3
  -2   9   1 63.1047 12.2165   5
  -2   9   1 89.7172 9.62645   1
  -2   9   1 71.6234 7.77609   6
  -2   9   1 86.4841 8.95819   6
  -1   9   1 150.912 15.8545   5
  -1   9   1 157.819 13.9749   3
  -1   9   1 136.216 9.01383   6
  -1   9   1 144.630 9.30548   6
  -1   9   1 120.922 11.0996   1
   0   9   1 289.000 18.1118   5
   0   9   1 304.704 17.5150   3
   0   9   1 300.532 14.5443   1
   0   9   1 320.421 19.9144   2
   1   9   1 126.254 14.7458   2
   1   9   1 125.664 11.0257   1
   1   9   1 139.859 10.0557   4
   1   9   1 146.583 12.8402   5
   1   9   1 132.519 12.6593   3
   2   9   1 12.1981 6.99052   3
   2   9   1 4.03663 5.90567   5
   2   9   1 7.87003 5.51360   4
   2   9   1 8.99970 7.07142   2
   2   9   1 6.15377 6.40578   1
   3   9   1 258.031 14.9001   5
   3   9   1 262.042 16.5826   3
   3   9   1 278.078 17.9334   1
   3   9   1 262.646 15.7452   4
   3   9   1 261.827 17.5344   2
   4   9   1 114.735 11.8024   2
   4   9   1 100.264 11.4442   3
   4   9   1 90.6718 12.7998   1
   4   9   1 98.0954 12.8088   4
   4   9   1 88.4375 9.17408   5
   5   9   1 64.5992 10.1268   2
   5   9   1 48.7135 10.5306   1
   5   9   1 54.8989 11.0067   3
   5   9   1 47.2999 10.1418   4
   3 -10  -1 162.422 17.9979   3
  -3  10   1 170.451 13.6941   6
  -3  10   1 154.901 10.9899   1
  -3  10   1 92.5001 16.8118   5
  -3  10   1 141.292 13.8135   6
  -3  10   1 127.295 15.5077   3
   2 -10  -1 94.9966 21.1058   3
  -2  10   1 58.3798 12.4336   3
  -2  10   1 87.2957 12.9219   5
  -2  10   1 83.7493 9.91219   6
  -2  10   1 78.8692 8.63761   1
  -2  10   1 88.1721 9.64046   6
  -1  10   1 22.2334 7.23375   1
  -1  10   1 23.6984 6.64287   6
  -1  10   1 21.2873 7.91649   3
  -1  10   1 23.5711 8.91071   5
  -1  10   1 38.1816 6.87906   1
  -1  10   1 39.1543 10.4872   2
  -1  10   1 19.3051 5.12312   6
   0  10   1 14.4734 5.80547   1
   0  10   1 18.6827 4.40503   6
   0  10   1 25.9775 9.05152   2
   0  10   1 28.7815 9.93586   5
   0  10   1 16.3935 7.80481   3
   1  10   1 385.102 22.8953   2
   1  10   1 460.518 20.0169   1
   1  10   1 404.519 21.0289   5
   1  10   1 416.209 16.8056   4
   1  10   1 400.256 20.5900   3
   2  10   1 354.258 19.5669   3
   2  10   1 329.206 22.0307   5
   2  10   1 380.786 19.5465   1
   2  10   1 322.700 16.6966   4
   3  10   1 1.11394 7.99459   2
   3  10   1 11.0663 7.05643   4
   3  10   1 -5.6096 6.45289   5
   3  10   1 0.70258 6.74551   1
   3  10   1 1.82357 7.16861   3
   4  10   1 67.5930 11.0104   2
   4  10   1 86.2756 13.2964   3
   4  10   1 95.7465 13.1963   4
   4  10   1 98.2667 13.6420   1
   4  10   1 84.7877 9.93828   5
  -1  11   1 101.293 9.73073   6
  -1  11   1 85.6393 9.35386   1
  -1  11   1 95.4366 14.0510   5
  -1  11   1 107.957 15.6550   2
  -1  11   1 97.1271 9.32267   6
  -1  11   1 68.9118 11.8573   3
  -1  11   1 112.419 12.0901   1
   0  11   1 279.476 15.1553   1
   0  11   1 292.014 20.5593   3
   0  11   1 319.685 23.0949   2
   0  11   1 294.851 20.8401   5
   0  11   1 304.687 16.7806   1
   1  11   1 108.920 13.5161   3
   1  11   1 125.194 16.6082   2
   1  11   1 141.053 11.8992   4
   1  11   1 115.390 13.7015   5
   1  11   1 124.181 11.9471   1
   2  10  -2 315.698 21.8750   3
   2  10  -2 316.065 19.8477   5
   2  10  -2 294.792 17.1169   2
   2  10  -2 319.167 18.8399   4
   2  10  -2 267.695 14.7908   1
   1  10  -2 -4.8714 7.86961   3
   1  10  -2 6.50969 7.20203   4
   1  10  -2 0.37776 8.11995   2
   1  10  -2 2.42010 4.67528   1
   1  10  -2 -5.6557 6.77770   5
   0  10  -2 260.696 11.7081   6
   0  10  -2 291.484 20.9235   3
   0  10  -2 319.572 20.9451   2
   0  10  -2 272.600 15.8690   4
   0  10  -2 288.408 20.0409   5
  -1  10  -2 15.5085 5.84941   6
  -1  10  -2 4.42597 5.23885   6
  -1  10  -2 3.65119 8.99473   3
  -1  10  -2 2.24019 7.06723   5
  -2  10  -2 55.7367 8.73509   6
  -2  10  -2 62.5407 12.6111   3
  -2  10  -2 64.1289 9.31579   6
   4   9  -2 20.9185 7.50980   5
   4   9  -2 2.10214 8.99014   3
   4   9  -2 21.9314 8.83674   4
   4   9  -2 17.9456 8.28506   1
   3   9  -2 17.3937 7.36059   1
   3   9  -2 22.4655 9.27596   3
   3   9  -2 23.2419 7.40260   4
   3   9  -2 21.2780 7.41509   5
   2   9  -2 1234.81 34.7551   2
   2   9  -2 1233.46 44.5553   4
   2   9  -2 1252.30 41.1477   3
   2   9  -2 1176.07 33.3335   1
   1   9  -2 75.8892 7.99428   1
   1   9  -2 68.5870 10.3603   5
   1   9  -2 68.9168 11.1854   2
   1   9  -2 69.6940 10.2746   4
   1   9  -2 71.9442 13.1412   3
   0   9  -2 376.287 21.4228   3
   0   9  -2 404.909 22.4412   5
   0   9  -2 392.680 17.8505   4
   0   9  -2 400.016 21.5617   2
   0   9  -2 380.425 13.6416   6
  -1   9  -2 314.180 20.6462   3
  -1   9  -2 299.216 13.3175   6
  -1   9  -2 301.681 20.7548   5
  -1   9  -2 296.767 13.2140   6
  -2   9  -2 18.6829 6.06091   6
  -2   9  -2 19.6616 7.89426   5
  -2   9  -2 17.3411 5.68363   6
  -2   9  -2 15.0342 8.43987   3
  -3   9  -2 1010.48 38.6796   3
  -3   9  -2 971.801 37.6932   6
  -3   9  -2 939.861 37.8173   5
  -3   9  -2 987.264 30.7679   6
   3  -9   2 1020.53 40.0469   3
  -4   9  -2 36.2027 8.84879   6
  -4   9  -2 22.1293 8.25824   6
  -4   9  -2 20.3979 9.99120   3
  -4   9  -2 -10.088 11.5495   5
   5   8  -2 533.204 26.2235   1
   5   8  -2 580.330 27.6176   4
   5   8  -2 563.206 28.0771   3
   5   8  -2 549.228 18.5249   6
   5   8  -2 532.480 18.3205   6
   4   8  -2 72.4379 12.8722   3
   4   8  -2 73.3348 13.2229   1
   4   8  -2 48.7025 5.74326   6
   4   8  -2 45.5081 10.1091   4
   4   8  -2 58.2328 6.12369   6
   4   8  -2 51.7035 7.56088   5
   3   8  -2 53.8681 8.23184   5
   3   8  -2 52.8622 9.21306   4
   3   8  -2 45.4435 10.3541   3
   3   8  -2 40.7730 7.78043   1
   2   8  -2 1405.00 39.0702   5
   2   8  -2 1440.07 36.8549   2
   2   8  -2 1390.67 42.5635   3
   2   8  -2 1317.66 35.3593   1
   2   8  -2 1351.05 38.0513   4
   1   8  -2 148.485 12.7451   2
   1   8  -2 160.139 13.7053   5
   1   8  -2 191.412 15.8645   3
   1   8  -2 141.896 9.30404   1
   1   8  -2 156.381 12.5704   4
   0   8  -2 206.564 15.3432   3
   0   8  -2 206.999 12.4021   6
   0   8  -2 186.183 9.04735   1
   0   8  -2 191.682 16.5736   5
   0   8  -2 200.106 9.42447   6
   0   8  -2 227.605 13.3056   4
  -1   8  -2 990.916 34.2646   5
  -1   8  -2 950.381 24.9301   6
  -1   8  -2 1003.20 36.1278   3
  -1   8  -2 995.196 24.8820   6
  -1   8  -2 941.279 26.1183   4
  -2   8  -2 36.9231 9.86112   3
  -2   8  -2 51.9545 10.7078   5
  -2   8  -2 48.5556 7.24129   6
  -2   8  -2 32.6776 6.36487   6
   2  -8   2 50.8583 9.54351   3
  -3   8  -2 1148.09 31.1513   6
  -3   8  -2 1037.39 37.9969   3
  -3   8  -2 1078.88 31.2899   6
  -3   8  -2 1042.68 38.2559   5
  -4   8  -2 27.6014 10.4629   2
  -4   8  -2 29.6637 6.99346   6
  -4   8  -2 32.7422 10.6241   3
  -4   8  -2 15.3352 8.96795   5
  -4   8  -2 35.0525 8.19527   6
   4  -8   2 31.4051 11.3518   3
  -5   8  -2 4.66132 6.86265   6
  -5   8  -2 -1.4942 7.03361   5
  -5   8  -2 -19.234 7.45721   3
  -5   8  -2 -0.2982 7.89673   6
   6   7  -2 241.278 20.9824   4
   6   7  -2 218.672 13.6351   6
   6   7  -2 243.173 14.0023   6
   6   7  -2 206.737 18.0931   1
   5   7  -2 335.034 20.4489   4
   5   7  -2 342.715 14.2465   6
   5   7  -2 286.219 13.4994   6
   5   7  -2 296.882 19.5589   1
   4   7  -2 5.43374 6.30978   4
   4   7  -2 0.34848 3.61194   6
   4   7  -2 14.5274 7.45699   1
   4   7  -2 4.78938 3.47161   6
   4   7  -2 5.72832 4.72478   5
   4   7  -2 7.18168 5.12008   5
   3   7  -2 60.1527 10.7505   3
   3   7  -2 57.3095 8.09177   5
   3   7  -2 55.6057 9.08498   4
   3   7  -2 46.0302 8.75237   1
   2   7  -2 1290.15 32.8779   2
   2   7  -2 1282.82 34.8569   5
   2   7  -2 1209.58 32.7732   1
   2   7  -2 1283.17 38.2737   3
   2   7  -2 1250.17 34.8930   4
   1   7  -2 558.354 20.0108   4
   1   7  -2 543.370 17.4013   1
   1   7  -2 571.758 23.5008   3
   1   7  -2 480.598 19.7636   2
   1   7  -2 534.123 21.2438   5
   0   7  -2 85.5712 11.1250   3
   0   7  -2 103.597 6.63201   1
   0   7  -2 101.217 12.0887   5
   0   7  -2 97.9045 9.36338   4
  -1   7  -2 806.496 29.5287   5
  -1   7  -2 864.852 30.3121   3
  -1   7  -2 860.875 21.9589   6
  -1   7  -2 903.396 24.2819   4
  -1   7  -2 879.079 22.4594   6
  -2   7  -2 202.158 11.1097   6
  -2   7  -2 228.613 11.6875   6
  -2   7  -2 204.310 16.0096   3
  -2   7  -2 225.302 10.1861   4
  -2   7  -2 227.327 17.9011   5
   2  -7   2 230.582 10.2351   4
   2  -7   2 211.449 15.8831   3
  -3   7  -2 457.225 17.9190   6
  -3   7  -2 489.224 18.7323   6
  -3   7  -2 462.240 23.2394   5
   3  -7   2 441.718 22.6142   3
  -4   7  -2 235.574 14.7833   6
  -4   7  -2 217.057 17.2916   5
  -4   7  -2 256.672 19.2303   3
  -4   7  -2 230.489 10.0210   1
  -4   7  -2 198.947 17.2939   2
  -4   7  -2 241.517 15.1157   6
   4  -7   2 225.865 12.8095   6
   4  -7   2 264.568 18.9192   3
  -5   7  -2 9.72602 7.46548   5
  -5   7  -2 4.32533 8.96290   2
  -5   7  -2 -6.5429 4.05818   1
  -5   7  -2 -1.6048 4.94779   6
  -5   7  -2 9.33822 6.41410   6
  -5   7  -2 4.91497 8.68810   3
   5  -7   2 11.6081 8.08330   3
   5  -7   2 -0.0103 8.00053   6
   5  -7   2 1.70726 4.93531   6
  -6   7  -2 991.494 32.9903   1
  -6   7  -2 1021.54 40.8267   3
  -6   7  -2 1045.24 39.8219   5
   6  -7   2 1045.58 30.6374   6
   7   6  -2 79.0800 14.2139   4
   7   6  -2 86.1783 15.6902   1
   7   6  -2 75.1784 10.2362   6
   7   6  -2 80.8771 11.3844   6
   6   6  -2 197.423 18.3686   1
   6   6  -2 258.077 19.3333   4
   6   6  -2 244.350 14.2335   6
   6   6  -2 250.696 13.6998   6
  -6  -6   2 225.019 20.0016   1
   5   6  -2 9.70642 6.30926   4
   5   6  -2 20.6889 5.91100   6
   5   6  -2 -1.6180 6.59159   1
   5   6  -2 17.5176 4.95713   6
  -5  -6   2 9.74291 7.04873   1
   4   6  -2 19.5651 4.41742   6
   4   6  -2 26.3849 5.11686   5
   4   6  -2 22.0928 5.15024   5
   4   6  -2 28.6890 7.88733   1
   4   6  -2 27.0255 5.16837   6
   4   6  -2 30.3129 9.47407   4
  -4  -6   2 25.1525 6.86042   1
   3   6  -2 33.3266 7.10114   1
   3   6  -2 23.6650 4.38111   6
   3   6  -2 28.4652 7.29923   4
   3   6  -2 30.9562 3.88313   6
   2   6  -2 336.134 14.4852   1
   2   6  -2 320.378 15.5710   4
   2   6  -2 341.517 13.6799   2
   2   6  -2 303.629 16.6103   3
   1   6  -2 364.250 15.6379   2
   1   6  -2 384.497 18.2127   3
   1   6  -2 406.568 14.0164   1
   1   6  -2 399.549 15.9791   4
   0   6  -2 14.8443 3.34723   1
   0   6  -2 19.0482 6.28794   5
   0   6  -2 14.0909 3.02605   6
   0   6  -2 6.69763 4.01543   4
   0   6  -2 13.4011 2.86347   6
   0   6  -2 6.43660 5.48484   3
  -1   6  -2 1351.25 33.3763   6
  -1   6  -2 1379.59 30.2698   6
  -1   6  -2 1391.99 37.9465   5
  -1   6  -2 1371.78 38.0756   3
   1  -6   2 1305.79 37.7073   3
   1  -6   2 1364.31 31.2615   4
  -2   6  -2 517.829 16.4501   6
  -2   6  -2 476.625 16.1721   6
  -2   6  -2 485.922 21.6632   3
  -2   6  -2 488.279 21.4122   5
  -2   6  -2 522.179 15.2484   4
   2  -6   2 486.124 21.1469   3
   2  -6   2 490.472 14.9406   4
  -3   6  -2 145.625 13.1315   5
  -3   6  -2 137.818 9.89657   6
  -3   6  -2 137.407 13.7562   3
  -3   6  -2 150.049 10.2855   6
   3  -6   2 140.916 12.3301   3
   3  -6   2 141.860 8.31484   4
  -4   6  -2 66.9533 9.83451   2
  -4   6  -2 82.1988 9.71280   6
  -4   6  -2 69.2962 6.88767   1
  -4   6  -2 78.2683 9.70563   6
  -4   6  -2 82.1160 11.3996   5
   4  -6   2 78.5302 7.59820   6
   4  -6   2 68.5447 10.5662   3
   4  -6   2 84.2710 7.23555   4
   4  -6   2 72.7441 7.42872   6
  -5   6  -2 22.2538 7.25026   6
  -5   6  -2 25.7097 7.92927   6
  -5   6  -2 15.2226 5.44285   1
  -5   6  -2 24.9377 8.94689   3
  -5   6  -2 24.3581 16.2693   2
  -5   6  -2 28.7371 9.20435   5
   5  -6   2 26.1254 5.28443   4
   5  -6   2 19.3397 6.13070   6
   5  -6   2 25.1575 6.86670   6
  -6   6  -2 115.529 13.2367   6
  -6   6  -2 127.046 11.3496   1
  -6   6  -2 109.932 12.5268   6
  -6   6  -2 97.8841 15.6243   3
  -6   6  -2 123.695 14.8582   5
   6  -6   2 114.813 9.63385   4
   6  -6   2 117.466 11.8809   6
   6  -6   2 157.557 26.5879   3
  -7   6  -2 -0.6015 7.00000   6
  -7   6  -2 -6.1612 6.65706   1
  -7   6  -2 -12.505 7.14023   5
  -7   6  -2 0.41854 11.5986   3
   7  -6   2 4.77672 9.51195   4
   7  -6   2 0.04486 7.54344   6
   7  -6   2 11.6833 7.35061   6
   7   5  -2 36.3081 11.2000   6
   7   5  -2 21.9648 10.6117   1
   7   5  -2 26.5338 8.11014   6
   7   5  -2 44.5972 10.6071   4
   6   5  -2 102.942 13.5270   1
   6   5  -2 103.445 13.1897   4
   6   5  -2 110.487 10.2190   6
   6   5  -2 99.8802 10.0982   6
  -6  -5   2 92.7123 13.3785   1
   5   5  -2 545.887 18.2686   6
   5   5  -2 506.242 23.1638   4
   5   5  -2 506.379 22.3987   6
   5   5  -2 535.596 25.2924   1
   4   5  -2 92.3528 10.7920   1
   4   5  -2 107.635 8.09621   5
   4   5  -2 120.109 12.1260   4
   4   5  -2 113.983 7.68957   6
   4   5  -2 102.860 7.62619   6
  -4  -5   2 107.066 10.8560   1
   3   5  -2 13.7796 5.29228   4
   3   5  -2 14.3905 3.39994   6
   3   5  -2 15.1193 3.12338   6
   3   5  -2 18.4713 5.90317   1
  -3  -5   2 16.5920 5.03803   1
   2   5  -2 106.877 9.00113   4
   2   5  -2 105.803 8.58259   1
   1   5  -2 397.213 14.7638   4
   1   5  -2 357.158 16.3869   3
   1   5  -2 365.105 12.6874   1
   1   5  -2 363.763 13.7228   2
   0   5  -2 297.721 12.2375   4
   0   5  -2 287.608 8.60999   6
   0   5  -2 289.551 8.79569   6
   0   5  -2 280.952 14.3188   3
   0   5  -2 281.468 9.20506   1
   0  -5   2 287.330 11.5422   4
  -1   5  -2 137.120 6.77003   6
  -1   5  -2 128.978 7.98458   4
  -1   5  -2 126.513 10.4721   3
  -1   5  -2 130.461 6.90451   6
   1  -5   2 133.546 7.63119   4
   1  -5   2 121.841 10.2519   3
  -2   5  -2 619.284 22.3305   5
  -2   5  -2 618.468 17.6675   6
  -2   5  -2 605.878 16.5565   4
  -2   5  -2 622.750 22.7891   3
  -2   5  -2 596.022 17.6554   6
   2  -5   2 585.462 16.5716   4
   2  -5   2 601.790 22.9368   3
  -3   5  -2 497.388 17.1643   6
  -3   5  -2 503.286 17.2462   6
  -3   5  -2 453.391 20.7422   3
  -3   5  -2 482.674 13.5365   1
  -3   5  -2 521.541 20.9809   5
   3  -5   2 473.906 20.3664   3
   3  -5   2 470.305 14.1175   6
   3  -5   2 473.612 14.7692   4
  -4   5  -2 104.618 11.5950   5
  -4   5  -2 119.911 7.98869   1
  -4   5  -2 100.289 9.25185   6
  -4   5  -2 97.9710 12.2903   3
  -4   5  -2 112.663 10.3801   6
  -4   5  -2 88.6806 11.2980   2
   4  -5   2 101.681 8.32263   6
   4  -5   2 118.167 11.8158   3
   4  -5   2 106.349 8.87729   6
   4  -5   2 117.951 8.20276   4
  -5   5  -2 54.2331 10.0438   5
  -5   5  -2 63.6080 10.6426   2
  -5   5  -2 67.6104 9.96095   6
  -5   5  -2 66.7516 9.11559   6
  -5   5  -2 52.4145 7.37514   1
  -5   5  -2 42.1484 10.6658   3
   5  -5   2 59.5585 7.63337   6
   5  -5   2 47.5520 9.84356   3
   5  -5   2 53.1714 8.18559   6
   5  -5   2 50.7592 6.39658   4
   5  -5   2 47.4743 8.30683   1
  -6   5  -2 35.5003 8.24016   6
  -6   5  -2 34.2081 9.17461   5
  -6   5  -2 41.5354 7.62361   1
  -6   5  -2 47.8129 11.1557   2
  -6   5  -2 26.5022 7.77923   6
  -6   5  -2 43.4002 11.1545   3
   6  -5   2 30.7245 8.54710   3
   6  -5   2 24.8144 7.81280   6
   6  -5   2 40.3144 8.59995   6
   6  -5   2 42.0862 8.95572   1
   6  -5   2 46.3593 7.17630   4
  -7   5  -2 76.4070 11.7300   6
  -7   5  -2 79.6228 12.2675   5
  -7   5  -2 88.6186 11.9683   1
  -7   5  -2 95.6611 15.6903   3
   7  -5   2 97.9463 12.1432   6
   7  -5   2 100.088 13.3479   1
   7  -5   2 92.7706 11.3823   6
   7  -5   2 110.753 11.0109   4
  -8   5  -2 11.7423 8.40270   6
  -8   5  -2 10.3024 9.49924   5
  -8   5  -2 20.5259 12.7231   3
  -8   5  -2 21.9788 8.99717   1
   8  -5   2 4.51654 8.40976   6
   8  -5   2 7.14546 9.24489   1
   8   4  -2 85.5934 14.3114   4
   8   4  -2 81.2173 11.2947   6
   8   4  -2 70.2051 13.7213   1
   7   4  -2 9.86048 9.86983   3
   7   4  -2 -2.9534 8.19893   1
   7   4  -2 -2.2520 5.41873   6
   7   4  -2 6.78970 6.57326   4
   6   4  -2 59.9215 11.7647   1
   6   4  -2 63.0355 10.5478   4
   6   4  -2 52.0340 8.39248   6
   6   4  -2 67.3774 11.3377   3
   6   4  -2 55.3324 8.01674   6
  -6  -4   2 67.6604 12.9802   1
   5   4  -2 1501.47 36.8753   6
   5   4  -2 1548.64 40.1962   6
   5   4  -2 1536.01 44.2125   1
   5   4  -2 1623.66 56.6834   4
   4   4  -2 133.465 7.64415   5
   4   4  -2 140.860 12.0041   1
   4   4  -2 134.846 11.6053   4
   4   4  -2 124.295 8.52878   6
   4   4  -2 113.412 7.88270   6
  -4  -4   2 130.280 11.1718   1
   3   4  -2 -0.4398 3.65535   1
   3   4  -2 0.02341 2.68332   6
   3   4  -2 1.88923 2.94044   5
   3   4  -2 2.67565 2.92467   6
   3   4  -2 1.40689 4.25774   4
  -3  -4   2 -2.8351 3.17838   1
   2   4  -2 1101.05 24.0479   6
   2   4  -2 1157.79 23.3926   6
   2   4  -2 1139.62 29.4592   4
   2   4  -2 1149.41 28.8100   1
  -2  -4   2 1177.23 28.9589   1
   1   4  -2 7.55293 3.34404   2
   1   4  -2 4.80051 4.10242   3
   1   4  -2 8.53455 3.10484   1
   1   4  -2 8.06882 3.64921   4
  -1  -4   2 3.43836 2.97230   4
   0   4  -2 170.618 10.4661   3
   0   4  -2 161.439 8.77537   4
   0   4  -2 167.511 6.16802   6
   0   4  -2 165.517 6.18984   1
   0   4  -2 164.092 5.85245   6
   0  -4   2 165.602 8.09737   4
  -1   4  -2 48.3638 4.55689   6
  -1   4  -2 38.4807 4.95241   4
  -1   4  -2 56.2394 5.01692   6
  -1   4  -2 50.7151 7.76766   3
   1  -4   2 50.3520 5.14888   4
   1  -4   2 55.6672 7.15375   3
  -2   4  -2 610.385 13.4871   1
  -2   4  -2 613.880 21.0919   3
  -2   4  -2 595.079 17.0458   6
  -2   4  -2 615.806 16.8724   6
  -2   4  -2 604.336 16.0058   4
   2  -4   2 575.564 20.2838   3
   2  -4   2 592.666 14.7842   6
   2  -4   2 584.586 16.2667   4
   2  -4   2 603.314 15.0763   6
  -3   4  -2 968.376 29.7181   3
  -3   4  -2 972.601 28.6680   5
  -3   4  -2 975.165 25.7559   6
  -3   4  -2 942.181 28.5371   2
  -3   4  -2 937.308 22.2806   1
  -3   4  -2 1008.40 25.6282   6
   3  -4   2 967.294 23.5134   6
   3  -4   2 960.106 23.6088   1
   3  -4   2 1004.17 24.3222   6
   3  -4   2 930.369 22.8755   4
   3  -4   2 972.931 28.9807   3
  -4   4  -2 14.8437 5.22900   6
  -4   4  -2 24.7742 7.90340   3
  -4   4  -2 23.8898 6.55871   5
  -4   4  -2 12.3314 4.15532   1
  -4   4  -2 22.9036 5.34816   6
  -4   4  -2 22.6048 6.63607   2
   4  -4   2 21.4105 6.05506   3
   4  -4   2 16.9945 4.68353   6
   4  -4   2 9.71661 4.85211   6
   4  -4   2 15.7592 4.02523   4
  -5   4  -2 191.169 12.8753   6
  -5   4  -2 162.032 13.4962   5
  -5   4  -2 181.058 11.2313   1
  -5   4  -2 149.424 11.3821   6
  -5   4  -2 158.175 14.5816   3
   5  -4   2 156.599 11.4711   1
   5  -4   2 164.113 11.2058   6
   5  -4   2 169.352 12.3047   6
   5  -4   2 173.677 10.1892   4
  -6   4  -2 287.350 16.0343   1
  -6   4  -2 307.806 17.5107   6
  -6   4  -2 294.913 19.1495   2
  -6   4  -2 307.687 20.8272   3
  -6   4  -2 329.441 18.9197   5
  -6   4  -2 296.803 17.1013   6
   6  -4   2 300.455 17.2298   1
   6  -4   2 306.194 19.1924   3
   6  -4   2 317.645 14.7705   4
   6  -4   2 293.130 16.8201   6
  -7   4  -2 24.8028 8.35510   6
  -7   4  -2 40.5158 8.54302   5
  -7   4  -2 36.1661 8.63691   6
  -7   4  -2 52.5715 10.0860   1
  -7   4  -2 25.7609 9.50751   2
  -7   4  -2 18.7466 10.1750   3
   7  -4   2 32.2943 8.09218   6
   7  -4   2 31.2627 7.51578   4
   7  -4   2 42.4183 12.8376   3
   7  -4   2 35.2669 9.36865   1
   7  -4   2 40.8046 8.46755   6
  -8   4  -2 37.9422 10.4971   1
  -8   4  -2 20.6283 9.25801   5
  -8   4  -2 40.9502 14.6904   3
  -8   4  -2 21.8056 12.6780   6
   8  -4   2 43.7730 10.1611   4
   8  -4   2 33.3894 9.33757   6
   8  -4   2 51.7091 12.3140   1
   8   3  -2 158.232 28.0818   1
   8   3  -2 192.957 15.7408   6
  -8  -3   2 185.202 14.9890   2
  -8  -3   2 172.644 11.6767   6
   7   3  -2 52.4734 9.24072   6
   7   3  -2 36.5095 10.3784   1
   7   3  -2 69.9894 11.8980   4
   7   3  -2 40.6562 10.9708   3
  -7  -3   2 49.2604 6.55167   6
  -7  -3   2 67.2485 12.3560   1
  -7  -3   2 43.3140 6.62105   6
  -7  -3   2 64.6718 8.78003   2
   6   3  -2 111.838 10.2522   6
   6   3  -2 141.777 11.5193   6
   6   3  -2 123.480 13.2105   4
   6   3  -2 115.016 14.1594   1
   6   3  -2 114.844 14.5714   3
  -6  -3   2 136.910 8.74070   6
  -6  -3   2 117.329 13.9800   1
  -6  -3   2 130.314 9.69945   2
  -6  -3   2 120.194 8.05016   6
   5   3  -2 1524.57 37.4007   6
   5   3  -2 1527.49 41.7354   4
   5   3  -2 1568.90 37.6333   6
   5   3  -2 1590.59 44.3468   1
  -5  -3   2 1560.26 33.0115   6
  -5  -3   2 1592.96 35.3923   2
  -5  -3   2 1481.48 43.3831   1
  -5  -3   2 1559.65 32.8947   6
   4   3  -2 279.416 11.6585   6
   4   3  -2 283.363 14.6277   4
   4   3  -2 259.184 15.0897   1
   4   3  -2 281.890 11.5721   6
   4   3  -2 275.154 9.81046   5
  -4  -3   2 294.458 15.7609   1
   3   3  -2 3.93676 3.93207   1
   3   3  -2 1.21448 3.60570   4
   3   3  -2 1.58275 2.64228   6
   3   3  -2 6.85103 2.94942   5
   3   3  -2 1.07730 2.89963   6
  -3  -3   2 3.76943 3.50352   1
   2   3  -2 4717.64 85.6861   6
   2   3  -2 4759.34 90.1493   1
   2   3  -2 4617.41 90.3437   4
   2   3  -2 4775.93 85.0416   6
  -2  -3   2 4727.12 90.3664   1
   1   3  -2 546.321 11.9776   6
   1   3  -2 558.939 12.3857   6
   1   3  -2 560.085 15.0271   1
   1   3  -2 575.570 16.3879   4
  -1  -3   2 542.800 14.8225   1
  -1  -3   2 541.248 16.1311   4
   0   3  -2 2312.02 42.2835   1
   0   3  -2 2271.65 48.6863   3
   0   3  -2 2251.13 42.6608   6
   0   3  -2 2341.17 46.2033   4
   0  -3   2 2285.68 45.7311   4
  -1   3  -2 357.378 11.5442   4
  -1   3  -2 352.181 10.1403   6
  -1   3  -2 360.858 10.4660   6
   1  -3   2 372.244 8.98783   6
   1  -3   2 358.056 11.3706   4
   1  -3   2 355.894 13.5850   3
  -2   3  -2 238.459 9.41795   6
  -2   3  -2 244.697 9.80906   6
  -2   3  -2 239.535 12.1699   3
  -2   3  -2 252.133 9.14312   4
  -2   3  -2 256.310 7.51371   1
   2  -3   2 250.702 9.12139   6
   2  -3   2 253.714 9.35710   4
   2  -3   2 246.839 8.02234   1
   2  -3   2 251.614 8.71783   6
   2  -3   2 261.234 11.9386   3
  -3   3  -2 3729.36 77.5102   3
  -3   3  -2 3829.08 73.2559   6
  -3   3  -2 3716.97 70.7042   1
  -3   3  -2 3736.45 76.5632   2
  -3   3  -2 3776.34 73.9229   6
  -3   3  -2 3767.13 76.1216   5
   3  -3   2 3750.41 71.3971   1
   3  -3   2 3769.81 70.9004   4
   3  -3   2 3686.18 76.9613   3
   3  -3   2 3765.16 72.4629   6
   3  -3   2 3729.58 71.7830   6
  -4   3  -2 3.03556 4.10990   2
  -4   3  -2 8.01637 4.26814   6
  -4   3  -2 4.24759 4.31033   6
  -4   3  -2 1.79487 5.43362   3
  -4   3  -2 5.09119 3.70513   1
  -4   3  -2 9.56073 4.62490   5
   4  -3   2 5.75839 3.60938   1
   4  -3   2 5.49654 3.30775   4
   4  -3   2 8.21483 4.82165   3
   4  -3   2 0.77936 3.48191   6
   4  -3   2 6.95772 3.70681   6
  -5   3  -2 7.33165 5.64413   3
  -5   3  -2 4.87784 5.33155   5
  -5   3  -2 12.1582 6.32458   2
  -5   3  -2 7.49708 4.05594   1
  -5   3  -2 9.77736 4.85259   6
  -5   3  -2 4.55224 4.95745   6
   5  -3   2 14.4660 4.63135   4
   5  -3   2 16.3825 5.86524   1
   5  -3   2 11.7230 4.68465   6
   5  -3   2 18.3143 5.92792   6
  -6   3  -2 1226.98 35.5889   5
  -6   3  -2 1230.41 37.5713   6
  -6   3  -2 1173.50 34.8464   1
  -6   3  -2 1236.42 44.9571   3
   6  -3   2 1254.83 36.4972   1
   6  -3   2 1207.05 33.1856   4
   6  -3   2 1183.68 34.7951   6
  -7   3  -2 4.60071 6.07409   6
  -7   3  -2 10.5789 6.34589   1
  -7   3  -2 7.26519 6.29191   6
  -7   3  -2 11.7989 8.58407   2
  -7   3  -2 26.8572 11.0782   3
  -7   3  -2 11.5658 6.93247   5
   7  -3   2 12.5721 6.72187   6
   7  -3   2 8.87420 6.90565   1
   7  -3   2 3.20903 5.61734   4
   7  -3   2 8.50321 8.49548   3
   7  -3   2 4.10348 6.60926   6
  -8   3  -2 4.90266 7.49323   1
  -8   3  -2 6.36103 7.41661   6
  -8   3  -2 10.3931 9.57782   3
  -8   3  -2 -0.6243 7.50019   5
   8  -3   2 9.92541 8.03343   4
   8  -3   2 18.5151 9.29628   1
   8  -3   2 8.73190 8.69589   6
   8   2  -2 11.7035 8.50697   1
   8   2  -2 25.5155 9.67549   4
   8   2  -2 6.92828 6.49277   6
  -8  -2   2 7.30422 6.60247   6
  -8  -2   2 -0.2326 7.55455   2
   7   2  -2 66.7204 12.1302   1
   7   2  -2 64.2883 11.5829   3
   7   2  -2 62.9995 9.15405   6
   7   2  -2 101.164 13.6818   4
  -7  -2   2 66.0456 8.12432   6
  -7  -2   2 40.6456 8.43570   1
  -7  -2   2 66.1687 11.3232   2
  -7  -2   2 67.6339 8.49694   6
   6   2  -2 634.066 28.5860   4
   6   2  -2 691.172 28.4586   1
   6   2  -2 665.442 22.9198   6
   6   2  -2 626.797 27.7018   3
   6   2  -2 646.138 23.3274   6
  -6  -2   2 664.074 20.8105   6
  -6  -2   2 659.712 28.1911   1
  -6  -2   2 657.460 22.0855   2
  -6  -2   2 662.175 21.2408   6
   5   2  -2 788.007 23.9412   6
   5   2  -2 767.389 28.5840   3
   5   2  -2 844.911 27.3446   4
   5   2  -2 844.302 24.6851   6
   5   2  -2 862.222 29.5123   1
  -5  -2   2 780.735 22.0880   6
  -5  -2   2 805.762 28.9965   1
  -5  -2   2 847.306 23.0532   2
  -5  -2   2 839.317 22.4027   6
   4   2  -2 437.417 18.6837   1
   4   2  -2 417.038 12.2540   5
   4   2  -2 424.514 14.7139   6
   4   2  -2 432.940 14.9641   6
   4   2  -2 436.051 17.3477   4
  -4  -2   2 432.662 13.6355   2
  -4  -2   2 434.393 13.5525   6
  -4  -2   2 435.111 13.5660   6
  -4  -2   2 441.993 18.5295   1
   3   2  -2 159.800 10.2350   1
   3   2  -2 136.386 7.21517   6
   3   2  -2 143.271 7.44318   6
   3   2  -2 126.612 6.63814   5
   3   2  -2 147.223 9.45843   4
  -3  -2   2 129.971 6.38212   6
  -3  -2   2 143.467 9.57948   1
  -3  -2   2 136.493 6.31373   6
   2   2  -2 5385.64 97.6034   6
   2   2  -2 5449.18 97.1917   6
   2   2  -2 5457.63 101.058   4
   2   2  -2 5389.46 101.230   1
   2   2  -2 5253.50 98.1391   5
  -2  -2   2 5430.87 95.8099   6
  -2  -2   2 5536.96 101.545   1
  -2  -2   2 5343.40 95.4781   6
   1   2  -2 1240.33 26.5144   1
   1   2  -2 1230.44 23.9895   6
   1   2  -2 1239.30 27.4412   4
  -1  -2   2 1220.93 26.4506   1
  -1  -2   2 1268.50 27.8299   4
   0   2  -2 629.692 17.6312   3
   0   2  -2 654.803 16.2611   4
   0   2  -2 637.942 13.1664   1
   0   2  -2 648.178 13.9021   6
   0   2  -2 610.529 14.0238   6
   0  -2   2 641.572 13.1316   1
   0  -2   2 640.404 16.0844   4
  -1   2  -2 4376.26 79.0844   6
  -1   2  -2 4486.74 79.5626   6
  -1   2  -2 4405.64 82.8622   3
  -1   2  -2 4484.82 80.4254   4
   1  -2   2 4357.95 78.4845   6
   1  -2   2 4471.03 78.7351   6
   1  -2   2 4270.50 80.2573   4
   1  -2   2 4255.26 82.6015   3
  -2   2  -2 151.384 6.56503   1
  -2   2  -2 141.403 8.55117   3
  -2   2  -2 145.805 8.23071   2
  -2   2  -2 132.831 6.85596   6
  -2   2  -2 136.452 7.01670   6
   2  -2   2 147.242 6.94877   6
   2  -2   2 141.530 5.86247   1
   2  -2   2 171.542 8.72773   3
   2  -2   2 145.318 6.60198   6
   2  -2   2 149.325 6.64288   4
  -3   2  -2 5155.01 95.8420   1
  -3   2  -2 5182.83 100.842   3
  -3   2  -2 5111.48 99.7958   2
  -3   2  -2 5196.00 96.9784   6
  -3   2  -2 5136.10 97.8365   6
  -3   2  -2 5321.75 98.8706   5
   3  -2   2 5203.85 96.2749   1
   3  -2   2 5264.79 100.570   3
   3  -2   2 5168.48 97.0571   6
   3  -2   2 5176.70 96.4317   6
   3  -2   2 5193.40 95.5933   4
  -4   2  -2 231.760 11.1548   1
  -4   2  -2 226.884 11.5430   5
  -4   2  -2 239.525 12.6997   2
  -4   2  -2 245.967 13.8151   3
  -4   2  -2 256.897 11.9725   6
  -4   2  -2 250.827 11.8216   6
   4  -2   2 235.674 13.0450   3
   4  -2   2 232.124 11.5943   1
   4  -2   2 250.819 11.2137   6
   4  -2   2 250.424 11.9296   6
   4  -2   2 235.702 10.5381   4
  -5   2  -2 9.86948 4.82842   6
  -5   2  -2 9.51472 6.66831   3
  -5   2  -2 12.9692 4.88974   5
  -5   2  -2 1.27994 4.64525   2
  -5   2  -2 1.86981 3.78899   1
  -5   2  -2 10.3992 4.69966   6
   5  -2   2 8.72740 4.21151   6
   5  -2   2 6.79029 5.09346   6
   5  -2   2 10.9761 5.06012   3
   5  -2   2 12.3013 5.14861   1
  -6   2  -2 2126.66 53.1282   1
  -6   2  -2 2246.60 51.2231   5
  -6   2  -2 2185.59 52.1988   6
  -6   2  -2 2192.71 57.5870   3
   6  -2   2 2187.38 52.2344   6
   6  -2   2 2208.53 54.4949   1
   6  -2   2 2107.71 55.8742   3
  -7   2  -2 9.12255 6.75345   1
  -7   2  -2 3.46577 6.44128   6
  -7   2  -2 3.02322 6.05263   5
  -7   2  -2 19.3470 8.15164   2
  -7   2  -2 2.61985 6.14547   6
  -7   2  -2 1.73383 8.05726   3
   7  -2   2 -4.4542 6.64975   1
   7  -2   2 0.68097 5.82945   6
  -8   2  -2 20.9271 7.87702   6
  -8   2  -2 24.5404 10.3753   3
  -8   2  -2 20.5982 7.94360   5
  -8   2  -2 37.9385 12.4268   2
  -8   2  -2 43.6443 9.81220   1
   8  -2   2 21.6775 8.47173   6
   8  -2   2 40.4392 11.5656   1
  -9   2  -2 296.430 22.2095   5
  -9   2  -2 305.179 21.3279   6
   9  -2   2 343.790 25.3674   1
   8   1  -2 105.082 16.0889   1
   8   1  -2 92.5855 12.8245   6
   8   1  -2 101.776 12.9109   4
  -8  -1   2 80.2187 11.2842   6
  -8  -1   2 112.008 11.8802   6
   7   1  -2 228.544 19.4169   3
   7   1  -2 245.099 15.8498   6
   7   1  -2 280.728 19.3758   1
   7   1  -2 239.087 16.8067   4
  -7  -1   2 214.292 12.0613   5
  -7  -1   2 192.308 13.4830   6
  -7  -1   2 228.210 19.1992   1
  -7  -1   2 232.573 14.9261   2
  -7  -1   2 231.994 14.2777   6
   6   1  -2 1941.24 57.9692   1
   6   1  -2 1998.34 50.1501   4
   6   1  -2 1920.22 41.4705   5
   6   1  -2 1990.57 48.0888   6
   6   1  -2 1945.64 53.9402   3
   6   1  -2 1889.13 47.3853   6
  -6  -1   2 2007.74 46.9975   2
  -6  -1   2 2058.35 46.2289   6
  -6  -1   2 2025.65 42.1750   5
  -6  -1   2 1956.15 46.4320   6
   5   1  -2 1360.77 39.2194   3
   5   1  -2 1347.51 35.8484   4
   5   1  -2 1351.47 38.8397   1
   5   1  -2 1313.93 29.5280   5
   5   1  -2 1354.96 34.2913   6
   5   1  -2 1311.58 33.6687   6
  -5  -1   2 1285.66 38.1295   1
  -5  -1   2 1362.20 33.1217   2
  -5  -1   2 1333.67 32.5833   6
  -5  -1   2 1304.43 33.0101   6
  -5  -1   2 1335.72 30.1703   5
   4   1  -2 9.78320 4.01675   6
   4   1  -2 17.7330 5.85773   1
   4   1  -2 11.1090 5.11725   3
   4   1  -2 12.6728 3.64298   6
   4   1  -2 12.9007 3.18910   5
   4   1  -2 19.3732 5.32735   4
  -4  -1   2 8.58282 3.72985   6
  -4  -1   2 13.6672 3.49872   5
  -4  -1   2 11.4562 4.43461   1
  -4  -1   2 8.60047 3.46533   6
  -4  -1   2 14.7617 4.37274   2
   3   1  -2 2855.20 58.0565   4
   3   1  -2 2759.93 53.9141   5
   3   1  -2 2917.41 56.7628   6
   3   1  -2 2812.60 55.8296   6
   3   1  -2 2817.48 59.6681   1
  -3  -1   2 2865.85 55.3211   6
  -3  -1   2 2865.89 55.2711   6
  -3  -1   2 2794.99 54.2211   5
  -3  -1   2 2839.27 59.9121   1
  -3  -1   2 2854.24 54.1803   2
   2   1  -2 6236.87 111.287   5
   2   1  -2 6130.91 113.447   4
   2   1  -2 6202.33 111.517   6
   2   1  -2 6221.83 114.561   1
   2   1  -2 6208.11 111.251   6
  -2  -1   2 6278.25 110.818   6
  -2  -1   2 6232.34 110.959   6
  -2  -1   2 6175.10 114.568   1
   1   1  -2 3356.55 63.3870   4
   1   1  -2 3427.00 61.3600   6
   1   1  -2 3404.88 62.9434   5
   1   1  -2 3432.55 63.3121   1
   1   1  -2 3354.52 61.8598   6
  -1  -1   2 3324.62 63.5342   4
  -1  -1   2 3365.60 63.2609   1
  -1  -1   2 3355.20 61.3446   6
  -1  -1   2 3560.10 62.4535   6
   0   1  -2 70.6574 3.23106   1
   0   1  -2 68.7973 3.18489   2
   0   1  -2 64.2241 3.76195   6
   0   1  -2 66.5149 3.34529   6
   0   1  -2 67.1234 4.56416   4
   0   1  -2 65.3203 4.80639   3
   0  -1   2 63.5924 3.01680   1
   0  -1   2 68.6179 3.24228   6
   0  -1   2 62.5955 3.43150   6
   0  -1   2 72.6818 4.52729   4
  -1   1  -2 5851.29 105.039   2
  -1   1  -2 5894.44 106.053   3
  -1   1  -2 5920.84 104.365   6
  -1   1  -2 5858.98 103.851   6
  -1   1  -2 5837.27 104.418   4
   1  -1   2 5957.01 104.138   6
   1  -1   2 5692.72 103.553   6
   1  -1   2 5892.74 105.206   2
   1  -1   2 5942.90 101.995   1
   1  -1   2 5809.06 104.388   4
  -2   1  -2 1393.92 28.7096   6
  -2   1  -2 1363.26 30.5511   3
  -2   1  -2 1368.25 29.0368   6
  -2   1  -2 1364.94 27.8125   1
  -2   1  -2 1357.03 30.2714   2
   2  -1   2 1312.55 28.0786   4
   2  -1   2 1356.76 28.3214   6
   2  -1   2 1370.07 28.9584   6
   2  -1   2 1343.86 30.3244   2
   2  -1   2 1360.14 27.8471   1
  -3   1  -2 2665.01 52.7505   1
  -3   1  -2 2572.90 52.9052   6
  -3   1  -2 2605.59 54.8514   2
  -3   1  -2 2629.28 52.4406   6
  -3   1  -2 2614.16 55.2583   3
   3  -1   2 2667.99 52.8893   1
   3  -1   2 2686.33 53.0482   6
   3  -1   2 2581.57 52.0062   6
  -4   1  -2 323.054 13.3749   1
  -4   1  -2 304.349 14.9636   3
  -4   1  -2 297.549 14.1530   2
  -4   1  -2 346.745 14.6212   5
  -4   1  -2 316.011 12.9428   6
  -4   1  -2 313.880 12.9911   6
   4  -1   2 305.851 12.3008   6
   4  -1   2 314.327 14.3865   3
   4  -1   2 331.012 13.7984   1
   4  -1   2 321.042 13.1988   6
  -5   1  -2 24.6007 7.07507   3
  -5   1  -2 22.2135 5.36628   1
  -5   1  -2 28.2078 6.06974   6
  -5   1  -2 37.0078 5.98085   6
  -5   1  -2 25.9712 5.47528   5
  -5   1  -2 30.7340 6.57706   2
   5  -1   2 29.8987 6.44747   1
   5  -1   2 30.4672 7.02556   3
   5  -1   2 20.9276 5.18668   6
   5  -1   2 27.1689 6.09276   6
  -6   1  -2 2264.04 55.9009   2
  -6   1  -2 2195.45 52.0625   6
  -6   1  -2 2227.11 57.9441   3
  -6   1  -2 2281.19 55.0598   1
  -6   1  -2 2154.12 52.7191   6
  -6   1  -2 2263.11 49.5107   5
   6  -1   2 2224.30 52.7044   6
   6  -1   2 2405.86 56.1444   1
   6  -1   2 2037.27 55.2446   3
  -7   1  -2 22.1613 9.39806   3
  -7   1  -2 21.8533 8.01144   1
  -7   1  -2 26.4408 7.17325   6
  -7   1  -2 13.2576 5.98752   5
  -7   1  -2 26.2913 8.64658   2
  -7   1  -2 21.1225 7.37584   6
   7  -1   2 33.7775 8.13259   6
   7  -1   2 7.43653 7.09663   3
   7  -1   2 31.4214 11.8034   1
   7  -1   2 30.9370 6.33443   6
  -8   1  -2 21.2220 6.91715   5
  -8   1  -2 24.2460 8.73810   6
  -8   1  -2 42.5478 9.03230   6
  -8   1  -2 19.0170 8.69860   1
  -8   1  -2 33.6260 9.92930   2
   8  -1   2 25.9226 11.2427   3
   8  -1   2 21.6791 8.84645   6
   8  -1   2 22.6282 10.1005   1
  -9   1  -2 492.841 20.5234   5
   9  -1   2 505.632 28.8372   1
   8   0  -2 25.2721 10.2551   1
   8   0  -2 33.9784 9.42233   4
   8   0  -2 20.5808 7.95489   6
  -8   0   2 28.0958 6.84446   5
  -8   0   2 31.6775 8.96195   6
  -8   0   2 36.7544 8.49805   6
  -8   0   2 46.3367 10.6938   2
   7   0  -2 146.942 13.5643   4
   7   0  -2 167.107 17.2540   1
   7   0  -2 153.123 16.9778   3
   7   0  -2 176.641 15.1575   6
   7   0  -2 148.297 13.2224   6
  -7   0   2 161.750 13.9307   2
  -7   0   2 112.987 14.6782   1
  -7   0   2 126.132 12.2675   6
  -7   0   2 144.457 10.4327   5
   6   0  -2 222.726 14.0106   6
   6   0  -2 208.714 16.2667   1
   6   0  -2 199.929 13.8272   4
   6   0  -2 221.406 10.9121   5
   6   0  -2 230.342 17.0558   3
   6   0  -2 205.303 13.2126   6
  -6   0   2 178.681 12.5481   6
  -6   0   2 218.534 11.9156   5
  -6   0   2 208.540 13.2085   6
   5   0  -2 14.8958 4.21833   5
   5   0  -2 17.0408 6.36018   1
   5   0  -2 17.6627 6.41517   3
   5   0  -2 13.4683 4.53332   6
   5   0  -2 13.6589 5.44342   6
   5   0  -2 21.4408 6.29277   4
  -5   0   2 19.5753 5.63968   2
  -5   0   2 10.4976 5.01885   6
  -5   0   2 17.5125 6.28905   1
   4   0  -2 1095.63 31.5569   1
   4   0  -2 1074.56 31.4936   3
   4   0  -2 1151.67 28.5868   6
   4   0  -2 1074.50 27.8121   6
   4   0  -2 1085.69 25.8891   5
   4   0  -2 1103.14 28.7465   4
  -4   0   2 1140.58 27.9258   6
  -4   0   2 1093.75 31.3921   1
  -4   0   2 1140.47 26.3150   5
  -4   0   2 1118.20 27.8463   2
  -4   0   2 1076.84 27.7450   6
   3   0  -2 200.948 11.2650   1
   3   0  -2 190.996 8.26245   5
   3   0  -2 213.116 9.38031   6
   3   0  -2 216.781 9.85611   4
   3   0  -2 206.894 9.14118   6
   3   0  -2 214.417 11.4191   3
  -3   0   2 199.384 8.80044   2
  -3   0   2 194.579 10.6040   1
  -3   0   2 212.883 9.28618   6
  -3   0   2 193.276 8.63785   5
   2   0  -2 1923.10 39.8188   1
   2   0  -2 1855.66 37.0778   6
   2   0  -2 1842.98 37.1163   6
   2   0  -2 1842.54 37.6799   4
   2   0  -2 1817.47 36.6047   5
  -2   0   2 1819.97 39.4589   1
  -2   0   2 1857.27 36.9955   6
  -2   0   2 1808.24 36.8699   6
  -2   0   2 1864.44 36.8208   5
   1   0  -2 229.466 7.05980   6
   1   0  -2 233.785 8.19096   1
   1   0  -2 229.707 7.19158   6
   1   0  -2 219.861 7.46849   5
   1   0  -2 222.446 7.30919   4
  -1   0   2 215.836 6.93373   6
  -1   0   2 215.916 8.09009   1
  -1   0   2 227.668 7.43002   4
  -1   0   2 229.718 7.54903   5
  -1   0   2 233.314 7.16015   6
   0   0  -2 14.9770 2.17353   6
   0   0  -2 21.5910 3.09674   5
   0   0  -2 17.4433 2.09204   2
   0   0  -2 15.2143 2.24889   6
   0   0  -2 16.7039 2.53772   4
   0   0   2 17.3272 2.52519   4
   0   0   2 14.8119 2.24790   1
   0   0   2 15.0843 2.16138   6
   0   0   2 17.8576 2.15371   6
   0   0   2 16.1856 1.92663   2
  -1   0  -2 3434.04 63.1899   2
  -1   0  -2 3495.09 62.7080   3
  -1   0  -2 3448.96 62.6162   4
  -1   0  -2 3386.94 62.0735   6
  -1   0  -2 3403.02 62.5758   6
   1   0   2 3515.55 63.3535   2
   1   0   2 3377.48 62.0508   6
   1   0   2 3494.96 63.9412   3
   1   0   2 3505.44 62.6895   6
   1   0   2 3421.06 62.4697   4
  -2   0  -2 4742.41 87.9269   2
  -2   0  -2 4716.88 87.3764   3
  -2   0  -2 4757.30 86.8344   1
  -2   0  -2 4779.60 86.1451   6
  -2   0  -2 4743.36 86.6558   6
   2   0   2 4629.74 86.5875   6
   2   0   2 4722.76 87.1922   3
   2   0   2 4804.31 88.1420   2
   2   0   2 4710.03 85.9810   6
   2   0   2 4888.31 87.2199   1
  -3   0  -2 120.520 7.92693   2
  -3   0  -2 112.992 6.75499   6
  -3   0  -2 122.209 8.12816   3
  -3   0  -2 106.549 6.71706   6
  -3   0  -2 114.816 7.38357   1
   3   0   2 114.050 7.83846   2
   3   0   2 102.478 6.26008   6
   3   0   2 106.359 7.46536   3
   3   0   2 107.158 7.32438   1
  -4   0  -2 566.095 17.2873   6
  -4   0  -2 540.957 15.1988   5
  -4   0  -2 545.451 17.5509   6
  -4   0  -2 584.731 19.9566   3
  -4   0  -2 551.604 18.7234   1
   4   0   2 538.988 17.7391   6
   4   0   2 536.340 17.0388   6
   4   0   2 554.464 19.0960   3
   4   0   2 582.964 19.3095   2
   4   0   2 586.175 19.4039   1
  -5   0  -2 123.412 11.8953   3
  -5   0  -2 122.567 10.2214   1
  -5   0  -2 123.779 9.52407   6
  -5   0  -2 139.340 10.7517   2
  -5   0  -2 127.522 7.83604   5
  -5   0  -2 106.221 8.86340   6
   5   0   2 135.319 9.30120   6
   5   0   2 104.005 10.3010   1
   5   0   2 104.227 9.58052   6
   5   0   2 121.160 10.7542   3
  -6   0  -2 1357.51 39.2694   1
  -6   0  -2 1374.16 39.1492   2
  -6   0  -2 1344.35 40.8722   3
  -6   0  -2 1403.03 36.9850   6
  -6   0  -2 1420.43 36.2627   6
  -6   0  -2 1432.99 39.6994   5
   6   0   2 1357.48 36.1194   6
   6   0   2 1352.01 36.9020   6
   6   0   2 1378.79 40.0819   1
   6   0   2 1287.08 39.1109   3
  -7   0  -2 23.5659 5.60544   5
  -7   0  -2 31.4068 7.77433   6
  -7   0  -2 13.9189 7.46194   1
   7   0   2 27.3093 7.21384   6
   7   0   2 24.0853 8.45693   3
   7   0   2 17.7145 8.66552   1
   7   0   2 31.6884 7.91016   6
  -8   0  -2 8.07838 7.25578   1
  -8   0  -2 -2.3074 7.83327   2
  -8   0  -2 4.77204 5.00831   5
  -8   0  -2 4.65537 6.22663   6
  -8   0  -2 -1.2627 6.66382   6
   8   0   2 -3.6752 9.13016   3
   8   0   2 3.87633 7.29069   1
   8   0   2 4.98856 6.57793   6
   8   0   2 7.64090 9.62221   6
  -9   0  -2 640.351 27.2993   6
   9   0   2 569.761 32.0114   1
   8  -1  -2 -10.696 6.36163   6
   8  -1  -2 -6.8454 6.52191   4
   8  -1  -2 10.1798 8.48355   1
  -8   1   2 1.51649 6.79336   6
  -8   1   2 3.94509 6.91604   5
  -8   1   2 21.4588 10.1124   2
  -8   1   2 3.54885 7.12575   6
   7  -1  -2 31.5305 7.50714   6
   7  -1  -2 32.8303 10.1729   1
   7  -1  -2 27.4586 8.32729   3
   7  -1  -2 30.3531 7.77331   6
  -7   1   2 15.8995 6.87771   6
  -7   1   2 18.6711 8.89202   1
  -7   1   2 27.3787 7.30623   5
  -7   1   2 26.2183 7.33562   6
   6  -1  -2 708.766 22.5188   5
   6  -1  -2 802.279 30.4759   1
   6  -1  -2 762.018 25.3281   4
   6  -1  -2 720.812 25.2944   6
  -6   1   2 712.166 24.7476   6
  -6   1   2 740.506 28.8625   1
  -6   1   2 760.587 23.3600   5
  -6   1   2 690.096 24.7246   6
  -6   1   2 718.449 26.1245   2
   5  -1  -2 562.932 19.4593   4
   5  -1  -2 536.649 19.3686   6
   5  -1  -2 567.465 19.9317   6
   5  -1  -2 548.732 23.0764   1
   5  -1  -2 544.394 18.0597   5
  -5   1   2 559.791 22.6748   1
  -5   1   2 573.586 19.8277   6
  -5   1   2 559.060 20.4064   2
  -5   1   2 534.482 19.6054   6
  -5   1   2 548.697 18.4779   5
   4  -1  -2 8.51266 4.00417   6
   4  -1  -2 3.60713 3.62095   4
   4  -1  -2 8.42300 4.78716   1
   4  -1  -2 0.99322 3.15755   5
   4  -1  -2 -1.0585 2.70669   6
   4  -1  -2 5.94708 4.37444   3
  -4   1   2 -0.3009 2.76674   1
  -4   1   2 -3.1370 2.94338   6
  -4   1   2 4.40504 3.33973   2
  -4   1   2 1.35006 2.95281   6
  -4   1   2 4.75209 4.24407   5
   3  -1  -2 84.1500 6.23728   6
   3  -1  -2 83.8264 7.87715   1
   3  -1  -2 76.2358 7.62088   3
   3  -1  -2 91.0361 6.94842   6
   3  -1  -2 80.8224 6.13842   4
   3  -1  -2 95.1826 6.49092   5
  -3   1   2 78.9322 7.36777   1
  -3   1   2 88.3680 6.48845   6
  -3   1   2 79.2143 6.57722   5
  -3   1   2 87.8501 6.67076   6
   2  -1  -2 289.006 11.1455   3
   2  -1  -2 283.582 9.66897   6
   2  -1  -2 299.242 11.4981   1
   2  -1  -2 282.134 9.84606   5
   2  -1  -2 286.125 9.71325   6
   2  -1  -2 268.438 9.01603   4
  -2   1   2 291.941 9.71603   6
  -2   1   2 290.981 11.3074   1
  -2   1   2 284.979 9.99831   5
  -2   1   2 287.042 9.74389   6
   1  -1  -2 398.136 10.0015   4
   1  -1  -2 412.991 12.3826   1
   1  -1  -2 409.858 11.3768   5
   1  -1  -2 392.068 10.5797   6
   1  -1  -2 407.921 10.7656   6
   1  -1  -2 424.000 11.6919   3
  -1   1   2 406.895 10.7836   6
  -1   1   2 499.546 14.6237   1
  -1   1   2 402.968 10.0327   4
  -1   1   2 426.813 11.4956   5
  -1   1   2 408.734 10.7973   6
   0  -1  -2 143.793 4.84453   6
   0  -1  -2 144.190 4.66599   4
   0  -1  -2 144.391 5.07411   6
   0  -1  -2 149.481 6.58444   2
   0   1   2 142.390 4.67260   4
   0   1   2 143.734 5.25598   6
   0   1   2 153.205 5.83901   2
   0   1   2 145.546 5.55749   5
   0   1   2 140.688 4.90086   6
  -1  -1  -2 585.435 12.4533   6
  -1  -1  -2 571.840 14.2592   2
  -1  -1  -2 559.971 12.5622   5
  -1  -1  -2 586.173 11.8599   3
   1   1   2 571.571 12.6489   5
   1   1   2 580.854 14.2582   2
   1   1   2 577.044 13.0499   6
   1   1   2 583.321 11.7709   3
  -2  -1  -2 3791.13 71.4090   1
  -2  -1  -2 3834.15 68.7572   6
  -2  -1  -2 3796.08 71.3895   2
  -2  -1  -2 3717.81 69.2622   6
  -2  -1  -2 3776.48 69.8027   3
   2   1   2 3804.79 69.6627   6
   2   1   2 3774.22 71.5351   1
   2   1   2 3709.76 69.5548   3
   2   1   2 3765.89 68.9510   6
   2   1   2 3827.03 71.3055   2
  -3  -1  -2 88.2669 5.80029   6
  -3  -1  -2 86.1815 5.91837   6
  -3  -1  -2 80.0125 6.97194   3
  -3  -1  -2 100.064 7.16450   2
  -3  -1  -2 95.5946 6.86579   1
   3   1   2 85.1906 8.39758   1
   3   1   2 83.2093 6.21905   6
   3   1   2 94.2429 5.84026   6
   3   1   2 86.3658 6.59926   3
   3   1   2 97.5148 7.20902   2
  -4  -1  -2 1100.18 26.6394   6
  -4  -1  -2 1054.61 28.4266   2
  -4  -1  -2 1095.63 29.3772   1
  -4  -1  -2 1130.91 26.2325   6
  -4  -1  -2 1059.03 22.1976   5
  -4  -1  -2 1044.66 28.8609   3
   4   1   2 1042.77 26.1604   6
   4   1   2 1063.77 28.2046   2
   4   1   2 1074.45 28.5064   3
   4   1   2 1063.34 29.5512   1
   4   1   2 1094.81 27.4076   6
  -5  -1  -2 565.124 18.1155   6
  -5  -1  -2 528.940 18.2259   6
  -5  -1  -2 546.633 20.3556   2
  -5  -1  -2 526.189 21.2417   1
   5   1   2 536.947 21.2736   1
   5   1   2 514.851 20.1681   3
   5   1   2 525.359 24.9237   6
   5   1   2 534.355 19.9695   2
   5   1   2 539.192 18.8661   6
  -6  -1  -2 139.342 10.8426   6
  -6  -1  -2 115.716 11.7342   1
  -6  -1  -2 110.806 9.82180   6
  -6  -1  -2 121.547 11.7060   2
   6   1   2 110.626 12.7198   3
   6   1   2 91.3263 9.39827   6
   6   1   2 133.319 13.1906   1
   6   1   2 114.363 11.3744   6
  -7  -1  -2 49.7920 8.30879   6
  -7  -1  -2 44.1273 9.17286   1
  -7  -1  -2 43.3030 8.18165   6
   7   1   2 61.8335 10.5447   3
   7   1   2 57.2796 9.57625   6
   7   1   2 54.6760 8.67254   6
   7   1   2 57.7181 11.9886   1
  -8  -1  -2 11.4267 6.81568   6
  -8  -1  -2 14.1774 8.82533   2
  -8  -1  -2 7.90261 7.60733   6
  -8  -1  -2 -1.9953 8.96952   1
   8   1   2 17.1000 10.3182   3
   8   1   2 6.07682 8.27351   1
   8   1   2 5.98675 6.66561   6
   8   1   2 6.01116 7.39320   6
  -9  -1  -2 181.022 15.9804   6
  -9  -1  -2 189.742 17.2156   6
   9   1   2 194.671 18.0087   6
   8  -2  -2 200.196 16.9008   4
   8  -2  -2 229.944 17.4306   6
   8  -2  -2 216.234 21.1465   1
  -8   2   2 186.932 15.8340   5
  -8   2   2 285.813 22.2633   2
  -8   2   2 196.057 17.4649   6
   7  -2  -2 7.92568 7.49744   1
   7  -2  -2 13.6639 5.80577   6
   7  -2  -2 13.5926 6.39405   4
   7  -2  -2 7.49985 6.03949   6
   7  -2  -2 4.23218 8.40848   3
  -7   2   2 6.16926 8.49348   1
  -7   2   2 6.19243 7.13659   6
  -7   2   2 14.0175 7.22304   2
  -7   2   2 7.40397 6.54488   6
  -7   2   2 0.42076 6.01756   5
   6  -2  -2 14.2090 7.66322   1
   6  -2  -2 9.46632 5.84064   4
   6  -2  -2 16.4028 5.60640   5
   6  -2  -2 19.4691 7.94058   6
  -6   2   2 5.59312 6.36675   1
  -6   2   2 12.8124 5.72040   2
  -6   2   2 1.87447 4.99453   6
  -6   2   2 11.2095 5.64641   5
   5  -2  -2 819.518 23.3452   4
   5  -2  -2 750.787 27.3356   1
   5  -2  -2 788.523 24.3737   6
   5  -2  -2 764.280 27.6442   3
   5  -2  -2 722.355 23.4016   5
   5  -2  -2 790.474 24.6523   6
  -5   2   2 767.211 23.7883   5
  -5   2   2 760.732 24.6547   6
  -5   2   2 762.053 24.3673   6
  -5   2   2 775.829 29.7800   2
  -5   2   2 793.410 27.4204   1
   4  -2  -2 254.074 12.0236   6
   4  -2  -2 235.907 10.6527   4
   4  -2  -2 254.162 11.9986   5
   4  -2  -2 248.304 13.8819   1
   4  -2  -2 254.274 11.6139   6
   4  -2  -2 279.104 14.1770   3
  -4   2   2 245.662 12.0629   6
  -4   2   2 260.332 14.8531   3
  -4   2   2 250.855 12.2013   6
  -4   2   2 243.409 12.0183   5
  -4   2   2 239.171 13.3393   1
   3  -2  -2 197.439 11.0603   1
   3  -2  -2 194.300 10.9111   3
   3  -2  -2 191.762 8.04512   4
   3  -2  -2 167.343 8.66722   6
   3  -2  -2 178.441 9.14330   6
   3  -2  -2 183.700 9.42655   5
  -3   2   2 197.891 10.7716   1
  -3   2   2 178.119 9.66395   5
  -3   2   2 179.121 10.9572   3
  -3   2   2 173.096 9.17709   6
  -3   2   2 179.430 9.17143   6
   2  -2  -2 1914.29 38.9393   6
   2  -2  -2 1918.60 40.4378   5
   2  -2  -2 1903.44 36.6552   4
   2  -2  -2 1915.46 41.1202   3
   2  -2  -2 1924.22 39.0744   6
   2  -2  -2 1916.54 41.9566   1
  -2   2   2 1937.48 40.5200   5
  -2   2   2 1961.44 42.0170   1
  -2   2   2 1921.88 41.3342   3
  -2   2   2 1924.62 39.2433   6
  -2   2   2 1916.23 39.4372   6
   1  -2  -2 8.27552 2.17982   6
   1  -2  -2 12.6333 2.25963   6
   1  -2  -2 7.33590 2.38046   3
   1  -2  -2 11.2450 3.06373   5
  -1   2   2 9.94939 2.90520   3
  -1   2   2 10.3095 2.32613   6
  -1   2   2 12.6923 2.48417   6
  -1   2   2 10.4222 3.03566   5
  -1   2   2 11.7719 3.39511   1
   0  -2  -2 856.298 19.1940   5
   0  -2  -2 851.126 16.9948   3
   0  -2  -2 892.997 16.9772   6
   0  -2  -2 866.907 17.1478   6
   0   2   2 850.828 17.0482   3
   0   2   2 882.098 20.5342   2
   0   2   2 833.463 17.8650   6
   0   2   2 901.430 17.5476   6
   0   2   2 884.512 19.4503   5
   0   2   2 844.128 16.7363   4
  -1  -2  -2 34.5781 4.22997   2
  -1  -2  -2 26.1704 2.67874   5
   1   2   2 29.5607 2.88362   5
   1   2   2 27.4498 2.55582   6
   1   2   2 31.2867 2.30947   6
   1   2   2 30.5585 3.94898   2
  -2  -2  -2 444.937 13.7953   2
  -2  -2  -2 451.723 14.2873   6
  -2  -2  -2 419.651 10.1810   6
   2   2   2 448.994 13.8323   2
   2   2   2 436.782 11.4471   6
   2   2   2 449.606 11.0189   6
   2   2   2 444.187 11.8079   3
  -3  -2  -2 510.703 13.4774   6
  -3  -2  -2 506.259 13.0405   6
  -3  -2  -2 497.669 16.7293   1
  -3  -2  -2 464.588 15.7127   2
   3   2   2 491.930 13.6129   6
   3   2   2 507.214 15.4792   3
   3   2   2 502.942 15.9914   2
   3   2   2 511.088 17.2903   1
   3   2   2 504.860 14.3789   6
  -4  -2  -2 191.751 8.80556   6
  -4  -2  -2 192.133 10.7633   2
  -4  -2  -2 176.785 10.9534   1
  -4  -2  -2 203.514 8.84284   6
   4   2   2 171.964 11.3611   1
   4   2   2 192.453 10.7827   3
   4   2   2 201.844 10.0030   6
   4   2   2 206.577 11.0295   2
   4   2   2 192.842 9.14216   6
  -5  -2  -2 502.606 19.5723   2
  -5  -2  -2 526.119 21.2150   1
  -5  -2  -2 564.640 17.1354   6
  -5  -2  -2 497.538 16.8430   6
   5   2   2 543.528 20.3841   3
   5   2   2 538.783 17.7921   6
   5   2   2 536.653 18.8159   6
   5   2   2 552.332 19.9234   2
   5   2   2 545.085 21.9630   1
  -6  -2  -2 474.685 23.6911   1
  -6  -2  -2 537.274 18.5673   6
  -6  -2  -2 497.665 21.0722   2
  -6  -2  -2 521.464 18.0263   6
   6   2   2 505.424 20.0933   6
   6   2   2 514.040 21.0283   2
   6   2   2 505.498 21.9426   3
   6   2   2 482.950 18.9107   6
   6   2   2 538.452 23.8207   1
  -7  -2  -2 -0.0425 5.45219   6
  -7  -2  -2 -2.1575 5.38739   2
  -7  -2  -2 -4.9788 4.87504   1
  -7  -2  -2 2.14764 4.92807   6
   7   2   2 11.5341 5.81904   6
   7   2   2 6.14644 6.45034   3
   7   2   2 5.24565 5.69034   6
   7   2   2 0.32265 6.80457   1
  -8  -2  -2 -1.5310 7.59532   2
  -8  -2  -2 -7.2466 5.92472   6
   8   2   2 -11.215 6.12826   6
   8   2   2 -8.5411 7.74796   3
   8   2   2 -1.2390 6.36909   6
   8   2   2 2.32710 8.39526   1
  -9  -2  -2 67.5937 13.6676   2
  -9  -2  -2 46.1273 9.71942   6
   9   2   2 50.8383 12.6995   1
   9   2   2 37.4337 10.1182   6
   8  -3  -2 62.1300 10.3885   4
   8  -3  -2 65.0313 11.4462   6
   8  -3  -2 83.3584 13.9493   1
  -8   3   2 66.6715 10.9163   5
  -8   3   2 86.0429 12.8728   6
   7  -3  -2 61.7058 10.2848   6
   7  -3  -2 62.4120 11.2924   3
   7  -3  -2 61.0108 9.41038   4
   7  -3  -2 42.2208 8.18099   6
   7  -3  -2 60.9243 11.8912   1
  -7   3   2 44.4757 8.44550   6
  -7   3   2 57.1355 14.1878   1
  -7   3   2 57.8439 10.0095   6
  -7   3   2 56.4961 10.3561   2
  -7   3   2 84.9850 11.6004   5
   6  -3  -2 68.8957 12.1702   3
   6  -3  -2 88.1230 10.1541   6
   6  -3  -2 107.530 13.6858   1
   6  -3  -2 69.9702 10.2760   6
   6  -3  -2 82.7724 8.87428   4
  -6   3   2 93.4858 10.9478   5
  -6   3   2 78.2620 10.0225   6
  -6   3   2 73.5221 11.6051   6
  -6   3   2 86.3148 11.3438   1
   5  -3  -2 1075.38 34.9098   3
   5  -3  -2 1157.67 35.4934   1
   5  -3  -2 1123.37 28.6743   4
   5  -3  -2 1181.28 31.9937   6
   5  -3  -2 1113.36 31.1436   6
   5  -3  -2 1118.60 31.9797   5
  -5   3   2 1175.40 32.2308   6
  -5   3   2 1177.03 32.7284   5
  -5   3   2 1114.72 34.3569   1
  -5   3   2 1126.60 36.3696   3
  -5   3   2 1121.74 34.3558   2
   4  -3  -2 457.735 19.1231   1
   4  -3  -2 429.058 17.0447   5
   4  -3  -2 430.267 16.0163   6
   4  -3  -2 472.920 16.9276   6
   4  -3  -2 450.271 23.5386   3
   4  -3  -2 446.140 14.0279   4
  -4   3   2 460.750 19.5574   6
  -4   3   2 455.491 17.5442   5
  -4   3   2 464.652 16.9410   6
  -4   3   2 442.494 19.6432   3
  -4   3   2 454.710 18.4386   1
   3  -3  -2 -2.3384 3.48202   1
   3  -3  -2 1.51033 2.22792   4
   3  -3  -2 -2.9040 2.16240   6
   3  -3  -2 -0.3924 2.79302   5
   3  -3  -2 0.21025 3.12251   6
   3  -3  -2 2.37174 4.12249   3
  -3   3   2 -3.0841 2.59665   1
  -3   3   2 2.63136 3.29495   6
  -3   3   2 3.93088 3.74731   5
  -3   3   2 3.67497 3.15377   6
  -3   3   2 5.16548 4.75219   3
   2  -3  -2 3006.69 60.4679   3
   2  -3  -2 2966.77 57.5639   6
   2  -3  -2 2959.01 61.8470   1
   2  -3  -2 2983.09 57.3239   6
   2  -3  -2 3007.71 60.7341   5
  -2   3   2 2979.11 58.3417   6
  -2   3   2 3080.26 61.5009   1
  -2   3   2 2974.18 60.3468   5
  -2   3   2 3006.75 60.8031   3
  -2   3   2 2906.91 60.3749   6
   1  -3  -2 181.743 7.93460   3
   1  -3  -2 184.049 6.39210   6
   1  -3  -2 187.694 8.75577   5
   1  -3  -2 184.100 6.97898   6
  -1   3   2 193.673 7.26575   6
  -1   3   2 188.590 7.10205   6
  -1   3   2 189.645 8.15612   3
  -1   3   2 195.100 8.91336   5
   0  -3  -2 438.368 13.2744   5
   0   3   2 460.504 13.3999   5
   0   3   2 487.682 10.6466   6
   0   3   2 459.611 11.1838   6
   0   3   2 483.188 11.7044   3
  -1  -3  -2 808.544 20.9701   2
  -1  -3  -2 814.290 18.5527   5
   1   3   2 803.546 17.0035   3
   1   3   2 823.499 18.6598   5
   1   3   2 806.882 21.3549   2
  -2  -3  -2 0.71535 2.39870   2
  -2  -3  -2 3.88610 1.73190   5
   2   3   2 1.44154 1.78792   6
   2   3   2 3.71412 1.85035   5
   2   3   2 0.35062 2.70395   1
   2   3   2 3.07096 1.59855   6
   2   3   2 3.90804 3.07201   2
  -3  -3  -2 2189.36 47.4776   2
   3   3   2 2227.32 49.6025   1
   3   3   2 2306.65 48.0864   2
   3   3   2 2234.92 44.0567   6
   3   3   2 2181.23 43.1482   6
   3   3   2 2196.45 46.0534   3
  -4  -3  -2 182.430 10.8894   2
  -4  -3  -2 194.380 11.9334   1
  -4  -3  -2 205.177 8.04266   6
  -4  -3  -2 208.925 7.77097   6
   4   3   2 224.140 11.6271   2
   4   3   2 220.079 9.39473   6
   4   3   2 204.744 12.6629   1
   4   3   2 211.262 9.96978   6
   4   3   2 214.502 11.2359   3
  -5  -3  -2 56.2448 6.56506   6
  -5  -3  -2 67.1255 6.01837   6
  -5  -3  -2 39.3301 7.07365   1
  -5  -3  -2 40.5410 7.25012   2
   5   3   2 80.7583 8.95896   2
   5   3   2 89.7592 9.24523   6
   5   3   2 61.6940 6.97763   6
   5   3   2 54.3262 8.99839   1
   5   3   2 60.2327 8.52560   3
  -6  -3  -2 593.321 22.9870   2
  -6  -3  -2 623.097 18.6978   6
  -6  -3  -2 619.571 19.1790   6
   6   3   2 609.556 24.2522   3
   6   3   2 607.566 26.4922   1
   6   3   2 629.551 22.1992   6
   6   3   2 645.957 23.2219   2
   6   3   2 638.898 21.1980   6
  -7  -3  -2 11.7295 4.71837   6
  -7  -3  -2 -12.512 5.31038   2
  -7  -3  -2 8.60740 6.72704   1
  -7  -3  -2 -0.6726 4.96345   6
   7   3   2 0.44908 7.96840   3
   7   3   2 -2.4243 6.23038   1
   7   3   2 -4.6450 5.17155   6
   7   3   2 4.74372 4.52522   6
   7   3   2 -2.2321 6.15443   2
  -8  -3  -2 21.1277 9.86365   2
  -8  -3  -2 24.3396 7.05341   6
  -8  -3  -2 19.5355 6.92388   6
   8   3   2 32.7635 9.20438   1
   8   3   2 19.0810 8.37424   6
   8   3   2 16.6605 9.69320   3
   8   3   2 17.3288 8.26573   6
   8  -4  -2 51.0426 10.9885   6
   8  -4  -2 69.2287 14.1107   1
  -8   4   2 48.6250 10.6533   5
  -8   4   2 51.1070 15.9907   6
   7  -4  -2 179.826 20.0965   3
   7  -4  -2 168.699 12.9985   4
   7  -4  -2 176.845 17.5627   1
   7  -4  -2 168.612 14.8434   6
   7  -4  -2 147.568 13.8199   6
  -7   4   2 178.678 16.7926   1
  -7   4   2 146.142 21.0309   6
  -7   4   2 165.406 14.1744   6
  -7   4   2 170.485 14.6952   5
  -7   4   2 198.619 17.4906   2
   6  -4  -2 745.565 25.6609   6
   6  -4  -2 687.695 29.4867   3
   6  -4  -2 702.612 22.3553   4
   6  -4  -2 763.436 26.4361   6
   6  -4  -2 739.313 30.2052   1
  -6   4   2 715.024 26.6017   6
  -6   4   2 754.449 29.6905   2
  -6   4   2 746.823 31.6268   3
  -6   4   2 716.070 28.3945   1
  -6   4   2 769.007 27.9835   5
  -6   4   2 740.447 27.0662   6
   5  -4  -2 995.127 25.4944   4
   5  -4  -2 1075.34 30.1632   6
   5  -4  -2 1000.33 31.5661   5
   5  -4  -2 1031.57 34.0042   3
   5  -4  -2 992.639 29.1944   6
   5  -4  -2 1053.40 33.8506   1
  -5   4   2 1040.72 31.8215   5
  -5   4   2 1040.19 35.1791   3
  -5   4   2 993.829 32.2981   1
  -5   4   2 1029.07 30.3405   6
  -5   4   2 1021.37 30.7445   6
   4  -4  -2 315.165 16.2428   3
   4  -4  -2 281.824 13.1978   6
   4  -4  -2 281.225 14.5345   5
   4  -4  -2 298.210 13.6323   6
   4  -4  -2 280.134 10.0765   4
   4  -4  -2 289.758 15.8808   1
  -4   4   2 271.797 14.8285   5
  -4   4   2 278.970 16.2077   3
  -4   4   2 295.045 13.7932   6
  -4   4   2 267.978 13.3775   6
  -4   4   2 281.110 15.0242   1
   3  -4  -2 578.043 20.9562   1
   3  -4  -2 565.894 20.2044   3
   3  -4  -2 537.170 16.7341   6
   3  -4  -2 578.976 17.5075   6
  -3   4   2 563.906 18.1668   6
  -3   4   2 581.088 21.0234   3
  -3   4   2 600.879 18.4619   6
  -3   4   2 594.167 20.2258   1
  -3   4   2 588.867 20.3581   5
   2  -4  -2 3968.29 78.6281   3
   2  -4  -2 4017.66 74.2363   6
   2  -4  -2 3909.47 74.7446   6
  -2   4   2 4068.58 79.2186   3
  -2   4   2 3977.00 75.7622   6
  -2   4   2 3959.95 79.5500   5
  -2   4   2 3961.29 79.4650   1
  -2   4   2 4038.17 76.2007   6
   1  -4  -2 1830.88 40.9674   5
   1  -4  -2 1815.05 35.2040   6
   1  -4  -2 1835.09 34.3984   6
   1  -4  -2 1828.36 38.8644   3
  -1   4   2 1853.43 40.9166   5
  -1   4   2 1823.62 36.4195   6
  -1   4   2 1843.83 36.7436   6
  -1   4   2 1833.19 39.1537   3
   0  -4  -2 553.735 14.9904   3
   0  -4  -2 556.202 16.7156   5
   0   4   2 568.300 16.8583   5
   0   4   2 566.721 12.4782   6
   0   4   2 575.178 15.0641   3
  -1  -4  -2 2201.26 44.6219   5
   1   4   2 2251.92 48.2764   2
   1   4   2 2247.83 44.8930   5
   1   4   2 2187.73 43.0068   3
  -2  -4  -2 449.772 15.8998   2
   2   4   2 469.903 16.5080   2
   2   4   2 471.797 16.3724   1
   2   4   2 431.975 12.3699   5
  -3  -4  -2 3796.94 76.1425   2
   3   4   2 3804.62 69.8896   6
   3   4   2 3839.33 78.6223   1
   3   4   2 3759.28 70.4858   6
   3   4   2 3821.21 76.1771   2
  -4  -4  -2 59.0827 7.69907   2
   4   4   2 70.0337 6.86164   6
   4   4   2 62.5019 7.32315   3
   4   4   2 72.1377 8.10399   2
   4   4   2 58.0353 8.09522   1
   4   4   2 61.7290 5.67868   6
  -5  -4  -2 91.5368 9.62731   2
  -5  -4  -2 95.3368 11.9693   1
   5   4   2 92.0396 10.7455   3
   5   4   2 92.1708 7.84516   6
   5   4   2 83.8031 9.49813   2
   5   4   2 95.2190 8.86870   6
   5   4   2 94.2054 12.5149   1
  -6  -4  -2 2387.66 62.2575   1
  -6  -4  -2 2438.69 57.8512   2
   6   4   2 2502.47 63.3116   1
   6   4   2 2380.75 53.8870   6
   6   4   2 2469.53 59.4301   3
   6   4   2 2538.94 57.4680   2
   6   4   2 2448.80 55.2090   6
  -7  -4  -2 42.5344 8.73146   2
  -7  -4  -2 28.3623 8.54009   1
   7   4   2 30.0257 9.03444   3
   7   4   2 26.6204 7.55609   6
   7   4   2 25.8986 7.33033   2
   7   4   2 38.3057 10.8260   1
   7   4   2 35.9431 7.30278   6
  -8  -4  -2 35.1381 9.99851   2
   8   4   2 44.6179 10.1818   6
   8   4   2 44.6638 12.9619   1
   8   4   2 51.8489 11.4739   3
   8   4   2 51.9489 9.13653   6
   8  -5  -2 47.4362 13.1238   1
   8  -5  -2 44.6624 8.89131   4
   8  -5  -2 24.7192 7.73636   4
   8  -5  -2 10.1686 10.6055   6
  -8   5   2 36.0736 9.33851   5
  -8   5   2 17.9055 7.48833   6
   7  -5  -2 31.1756 11.4416   1
   7  -5  -2 49.7973 7.70016   4
   7  -5  -2 52.7113 10.2515   6
   7  -5  -2 46.7357 8.88856   6
  -7   5   2 30.1173 10.1209   1
  -7   5   2 43.1525 11.5634   3
  -7   5   2 48.0112 9.78156   6
  -7   5   2 51.4307 10.6543   5
   6  -5  -2 817.581 22.6625   4
   6  -5  -2 854.799 28.5757   6
   6  -5  -2 787.161 33.5925   3
   6  -5  -2 855.046 32.8406   1
   6  -5  -2 813.011 27.3135   6
  -6   5   2 832.824 34.7369   3
  -6   5   2 809.648 29.0532   6
  -6   5   2 783.549 30.4673   1
  -6   5   2 771.266 29.2608   6
  -6   5   2 792.435 30.3710   5
  -6   5   2 841.633 36.8997   2
   5  -5  -2 271.420 10.6024   4
   5  -5  -2 242.163 13.6421   6
   5  -5  -2 265.907 17.4460   1
   5  -5  -2 260.880 14.5078   6
  -5   5   2 268.464 18.0748   6
  -5   5   2 257.576 18.8236   3
  -5   5   2 253.541 14.9596   6
  -5   5   2 259.885 16.6721   5
  -5   5   2 229.387 15.4082   1
   4  -5  -2 8.02642 4.81956   6
   4  -5  -2 15.2731 5.80359   3
   4  -5  -2 14.5796 4.34359   6
  -4   5   2 -2.8932 5.43538   5
  -4   5   2 11.0979 5.60790   6
  -4   5   2 7.66076 7.03149   3
  -4   5   2 6.70448 4.08828   6
  -4   5   2 18.5767 6.53709   1
   3  -5  -2 1288.51 29.8481   6
   3  -5  -2 1277.21 35.0193   3
   3  -5  -2 1296.30 30.5067   6
   3  -5  -2 1274.02 35.4563   5
  -3   5   2 1263.41 31.8926   6
  -3   5   2 1321.77 35.9212   3
  -3   5   2 1308.29 32.0946   6
  -3   5   2 1269.86 35.5311   5
  -3   5   2 1290.60 34.3309   1
   2  -5  -2 2843.34 54.2223   6
   2  -5  -2 2782.97 61.0978   5
   2  -5  -2 2729.40 52.9684   6
   2  -5  -2 2797.53 59.3662   3
  -2   5   2 2814.72 60.0199   3
  -2   5   2 2843.88 56.0900   6
  -2   5   2 2752.11 59.8903   1
  -2   5   2 2777.42 56.1464   6
  -2   5   2 2815.29 61.1652   5
   1  -5  -2 1984.22 45.3452   5
   1  -5  -2 1998.52 43.0634   3
  -1   5   2 1982.06 45.3476   5
  -1   5   2 1967.49 39.6962   6
  -1   5   2 1982.31 39.5239   6
   0  -5  -2 357.345 12.9413   3
   0  -5  -2 361.239 13.9466   5
   0   5   2 350.718 9.76287   6
   0   5   2 368.914 9.38024   6
   0   5   2 362.118 12.5406   3
   0   5   2 364.842 14.2149   5
   1   5   2 2538.50 50.3975   3
   1   5   2 2544.82 55.8788   2
   2   5   2 1156.96 31.0135   2
   2   5   2 1133.27 27.0665   3
   2   5   2 1135.79 26.4155   5
   2   5   2 1180.18 30.7654   1
  -3  -5  -2 1224.50 32.2080   2
   3   5   2 1240.43 32.4113   2
   3   5   2 1249.11 25.2912   6
   3   5   2 1212.85 33.8371   1
   3   5   2 1192.17 25.6061   6
   3   5   2 1222.86 26.0612   5
  -4  -5  -2 340.359 15.3277   2
   4   5   2 360.567 18.1227   1
   4   5   2 342.462 15.6997   2
   4   5   2 359.663 16.0145   6
   4   5   2 337.559 11.7263   6
  -5  -5  -2 3.30189 5.47625   2
   5   5   2 6.82159 4.32919   6
   5   5   2 1.45049 4.23779   6
   5   5   2 2.33960 6.10011   1
   5   5   2 1.94907 4.78068   3
   5   5   2 9.51760 5.23970   2
  -6  -5  -2 1905.31 47.3951   2
   6   5   2 1766.66 42.5338   6
   6   5   2 1768.50 43.3799   6
   6   5   2 1797.35 52.5634   1
   6   5   2 1768.93 47.7877   3
   6   5   2 1838.44 46.0219   2
  -7  -5  -2 13.2316 8.08747   2
   7   5   2 5.77319 7.91103   3
   7   5   2 -1.4712 6.32921   2
   7   5   2 -6.3462 7.03948   1
   7   5   2 -6.2022 5.24833   6
   7   5   2 8.17935 5.54367   6
  -8  -5  -2 -3.3124 10.3656   2
   8   5   2 10.1284 12.3955   1
   8   5   2 7.89121 7.57781   4
   8   5   2 -5.1624 6.87826   2
   8   5   2 13.0417 7.67295   6
   8   5   2 -3.9913 7.40740   6
   8   5   2 5.13439 10.9712   3
   7  -6  -2 49.9347 10.2618   6
   7  -6  -2 72.6395 11.1517   6
  -7   6   2 63.1712 14.3197   3
  -7   6   2 39.0984 11.3002   1
  -7   6   2 61.8470 12.0543   5
  -7   6   2 74.5355 11.8950   6
   6  -6  -2 843.400 27.9139   6
   6  -6  -2 809.412 27.5674   6
   6  -6  -2 800.999 33.9414   3
  -6   6   2 805.395 32.0806   5
  -6   6   2 813.583 33.8744   2
  -6   6   2 875.117 30.6619   6
  -6   6   2 874.625 36.2249   3
  -6   6   2 842.655 31.3034   1
  -6   6   2 758.633 29.8289   6
   5  -6  -2 107.441 10.0792   6
   5  -6  -2 103.256 13.2864   3
   5  -6  -2 105.822 10.6831   6
  -5   6   2 111.605 13.4869   5
  -5   6   2 123.878 12.2986   6
  -5   6   2 128.709 12.2412   6
  -5   6   2 120.542 15.4275   3
  -5   6   2 114.081 12.1828   1
   4  -6  -2 26.9006 6.19857   6
   4  -6  -2 33.9377 5.58937   6
   4  -6  -2 32.4962 7.89615   3
  -4   6   2 46.4391 7.89613   6
  -4   6   2 52.7417 9.66103   1
  -4   6   2 45.1578 7.42110   6
  -4   6   2 31.4775 8.17002   5
  -4   6   2 31.7925 8.61364   3
   3  -6  -2 1216.87 35.0025   3
   3  -6  -2 1219.44 28.7348   6
   3  -6  -2 1216.21 27.7850   6
  -3   6   2 1183.07 31.4069   6
  -3   6   2 1154.77 35.2897   5
  -3   6   2 1218.05 31.4212   6
  -3   6   2 1211.11 35.5037   3
  -3   6   2 1253.85 33.9084   1
   2  -6  -2 1805.15 42.5208   3
  -2   6   2 1797.91 38.5848   6
  -2   6   2 1758.11 42.8229   3
  -2   6   2 1686.28 38.1061   6
  -2   6   2 1680.16 43.9653   5
  -2   6   2 1681.92 42.1814   1
   1  -6  -2 309.221 13.7719   3
  -1   6   2 317.454 15.2143   5
  -1   6   2 314.308 14.0478   3
  -1   6   2 316.654 10.7291   6
  -1   6   2 304.788 10.6648   6
   0  -6  -2 712.255 21.3711   3
   0   6   2 718.069 16.0383   6
   0   6   2 721.934 22.7779   5
   0   6   2 705.186 23.2173   3
   0   6   2 697.047 16.2492   6
   1   6   2 2529.05 51.6350   3
   1   6   2 2556.22 54.0902   5
   1   6   2 2480.82 50.2754   4
   1   6   2 2462.05 57.3140   2
   2   6   2 2350.37 53.0983   1
   2   6   2 2239.39 53.9066   2
   2   6   2 2291.03 49.2788   3
   2   6   2 2370.12 49.9121   4
   2   6   2 2355.45 49.1433   5
   3   6   2 255.406 14.1013   2
   3   6   2 230.891 14.4158   1
   3   6   2 233.100 9.93464   5
  -4  -6  -2 299.567 15.0343   2
   4   6   2 310.260 15.1476   2
   4   6   2 275.663 10.3672   6
   4   6   2 276.690 11.9085   6
   4   6   2 285.504 17.3295   1
   5   6   2 249.384 12.1464   6
   5   6   2 241.927 14.3422   2
   5   6   2 227.307 14.6702   3
   5   6   2 235.627 11.3713   6
  -6  -6  -2 840.295 28.8685   2
   6   6   2 806.771 25.5223   6
   6   6   2 817.871 24.5626   6
   6   6   2 869.042 28.3411   2
   6   6   2 803.190 32.9993   1
   6   6   2 822.646 29.3817   3
  -7  -6  -2 63.0526 10.8650   2
   7   6   2 31.0398 10.2618   4
   7   6   2 40.6056 11.6530   1
   7   6   2 54.8055 9.27111   6
   7   6   2 49.4360 9.14985   2
   7   6   2 54.0555 11.7226   3
   7   6   2 54.3606 9.12265   6
   7  -7  -2 13.9721 8.40388   6
   7  -7  -2 -0.5565 7.44997   6
  -7   7   2 6.86363 10.1977   3
  -7   7   2 -1.3875 9.04528   1
  -7   7   2 -4.8925 8.45676   6
   6  -7  -2 260.850 15.8579   6
   6  -7  -2 265.333 15.9722   6
  -6   7   2 235.613 19.5019   5
  -6   7   2 248.459 22.1247   3
  -6   7   2 236.263 18.4152   1
  -6   7   2 253.377 18.2042   6
   5  -7  -2 79.6309 8.55845   6
   5  -7  -2 93.1224 9.82693   6
  -5   7   2 88.3723 13.1509   5
  -5   7   2 73.3503 10.4866   1
  -5   7   2 70.3628 11.3684   6
  -5   7   2 82.8210 11.1737   6
  -5   7   2 53.2327 10.7632   3
   4  -7  -2 59.3366 7.29132   6
   4  -7  -2 58.4198 6.57344   6
  -4   7   2 56.0278 11.0310   5
  -4   7   2 55.4813 11.3338   3
  -4   7   2 50.2875 8.39738   6
  -4   7   2 63.6631 9.29096   1
  -4   7   2 51.2390 8.47725   6
   3  -7  -2 181.153 13.5484   3
  -3   7   2 128.473 19.2217   5
  -3   7   2 180.389 11.6041   6
  -3   7   2 162.344 11.0014   6
  -3   7   2 166.666 12.3111   1
  -3   7   2 168.083 14.0466   3
   2  -7  -2 16.9072 6.98436   3
  -2   7   2 25.8562 6.90247   3
  -2   7   2 14.1996 7.03760   5
  -2   7   2 23.6752 5.21914   6
  -2   7   2 22.3763 6.00942   1
  -2   7   2 18.8435 4.71122   6
   1  -7  -2 0.28559 5.10312   3
  -1   7   2 10.1617 3.32883   6
  -1   7   2 6.46912 3.30229   6
  -1   7   2 9.13153 5.97702   5
  -1   7   2 4.71625 5.26798   3
   0   7   2 89.7687 10.6445   5
   0   7   2 72.1452 9.96912   2
   0   7   2 72.7205 5.27518   6
   0   7   2 71.3492 8.22990   3
   1   7   2 676.830 22.5165   5
   1   7   2 663.532 20.8167   3
   1   7   2 663.712 25.0781   2
   1   7   2 663.775 18.8163   4
   1   7   2 657.852 22.2051   1
   2   7   2 719.999 21.8820   4
   2   7   2 716.467 26.1916   2
   2   7   2 722.291 24.4707   1
   2   7   2 699.714 22.1924   5
   2   7   2 758.000 22.3544   3
   3   7   2 1.65552 4.50349   3
   3   7   2 8.70292 6.21325   2
   3   7   2 5.29508 5.06597   4
   3   7   2 2.20161 5.28985   1
   3   7   2 3.29966 3.99245   5
   4   7   2 321.616 17.1999   4
   4   7   2 324.638 10.9900   6
   4   7   2 320.514 16.9062   2
   4   7   2 336.778 18.9079   1
   4   7   2 332.200 11.5758   6
   5   7   2 677.792 24.9923   2
   5   7   2 688.697 20.0351   6
   5   7   2 696.865 29.5869   1
   5   7   2 706.963 20.9051   6
   5   7   2 710.927 27.9524   4
  -6  -7  -2 62.6341 10.5634   2
   6   7   2 63.8386 8.01277   6
   6   7   2 61.6587 11.2521   1
   6   7   2 72.2472 8.90700   6
   6   7   2 73.8539 11.9134   3
   6   7   2 69.3184 10.6409   2
   6   7   2 57.3346 9.96401   4
   7   7   2 6.22325 7.57285   2
   7   7   2 29.7526 6.98620   6
   7   7   2 17.7797 10.1208   1
   7   7   2 -6.2564 11.2452   4
   7   7   2 15.0311 7.17581   6
   7   7   2 20.6351 11.3170   3
   6  -8  -2 2.95227 6.84362   6
  -6   8   2 6.07295 11.3154   5
  -6   8   2 9.94013 9.13113   6
  -6   8   2 13.2137 8.35563   1
  -6   8   2 6.30405 10.3877   3
   5  -8  -2 78.9347 13.9066   3
   5  -8  -2 66.7858 9.92622   6
   5  -8  -2 41.1938 7.30296   6
  -5   8   2 57.3180 10.0983   6
  -5   8   2 54.1330 12.1581   3
  -5   8   2 61.4225 10.6167   6
  -5   8   2 69.5476 12.1081   5
  -5   8   2 80.3805 10.8983   1
   4  -8  -2 42.2791 9.66343   3
  -4   8   2 27.7834 8.07838   1
  -4   8   2 18.3182 8.48198   5
  -4   8   2 49.5010 12.1892   3
  -4   8   2 38.8005 8.26422   6
  -4   8   2 44.7322 8.25625   6
  -3   8   2 402.190 22.3165   5
  -3   8   2 439.614 17.8287   6
  -3   8   2 403.230 21.0948   1
  -3   8   2 443.025 22.1683   3
   2  -8  -2 312.767 17.5917   3
  -2   8   2 323.139 20.1659   6
  -2   8   2 330.625 16.4903   1
  -2   8   2 326.845 14.1736   6
  -2   8   2 317.786 17.8733   3
  -2   8   2 331.254 18.8441   5
   1  -8  -2 101.934 11.7219   3
  -1   8   2 106.065 12.0066   5
  -1   8   2 105.751 7.62591   6
  -1   8   2 104.407 11.3233   1
  -1   8   2 110.853 7.46210   6
  -1   8   2 104.245 10.7664   3
   0   8   2 8.28189 3.41467   6
   0   8   2 5.30360 4.45869   3
   0   8   2 2.47619 6.82910   2
   0   8   2 11.8767 6.16155   5
   1   8   2 56.3905 8.37533   1
   1   8   2 49.2949 8.28071   5
   1   8   2 41.4794 9.48507   2
   1   8   2 42.3993 6.00367   4
   1   8   2 46.5087 7.21930   3
   2   8   2 589.320 20.1286   4
   2   8   2 603.889 20.9245   3
   2   8   2 586.075 21.0057   5
   2   8   2 598.328 25.3447   2
   2   8   2 588.448 22.9911   1
   3   8   2 162.249 13.9991   2
   3   8   2 166.546 11.6664   4
   3   8   2 141.891 10.5499   5
   3   8   2 167.300 12.0825   3
   3   8   2 159.996 14.0874   1
   4   8   2 287.484 17.2278   5
   4   8   2 310.218 16.2551   3
   4   8   2 263.406 17.1421   2
   4   8   2 278.886 19.1931   1
   5   8   2 382.513 14.2780   6
   5   8   2 346.784 20.3436   4
   5   8   2 366.337 13.9876   6
   5   8   2 380.111 22.4835   1
   5   8   2 361.669 18.9412   2
   5   8   2 376.678 19.7855   3
   6   8   2 2.97180 4.92345   6
   6   8   2 0.83961 7.34667   1
   6   8   2 3.66351 7.41537   2
   6   8   2 -1.2614 5.16365   6
   6   8   2 5.21776 7.01741   4
   6   8   2 9.35480 9.58204   3
  -5   9   2 373.951 19.9415   1
  -5   9   2 383.916 24.5882   3
  -5   9   2 353.487 24.8811   5
   4  -9  -2 69.7540 13.2501   3
  -4   9   2 80.7922 10.6691   6
  -4   9   2 60.6492 10.8715   3
  -4   9   2 57.3567 9.48539   6
  -4   9   2 89.5632 10.8610   1
  -4   9   2 55.9985 11.8928   5
   3  -9  -2 32.4451 10.3327   3
  -3   9   2 24.2861 6.72054   6
  -3   9   2 27.9735 7.13263   6
  -3   9   2 34.2680 7.00845   1
  -3   9   2 32.0543 9.37961   3
  -3   9   2 17.8251 8.94187   5
  -2   9   2 332.675 19.2411   3
  -2   9   2 356.724 21.1489   5
  -2   9   2 327.596 20.7866   1
  -2   9   2 340.541 15.1973   6
  -2   9   2 391.997 16.2452   6
   1  -9  -2 330.015 18.6695   3
  -1   9   2 310.940 12.8106   6
  -1   9   2 300.070 16.9638   1
  -1   9   2 322.634 17.6044   3
  -1   9   2 318.161 13.1101   6
  -1   9   2 299.441 19.3183   5
   0   9   2 2.52818 5.45443   6
   0   9   2 4.83672 3.58759   6
   0   9   2 0.50476 4.74468   1
   0   9   2 -11.167 8.31796   5
   0   9   2 2.71668 10.7594   2
   0   9   2 -3.8774 5.42098   3
   1   9   2 91.3618 10.7715   5
   1   9   2 93.8814 8.48048   4
   1   9   2 63.6977 8.73893   1
   1   9   2 74.7127 9.61794   3
   1   9   2 69.9824 11.7736   2
   2   9   2 20.7462 6.86528   5
   2   9   2 14.0539 6.01276   3
   2   9   2 26.2843 8.83958   2
   2   9   2 16.9235 7.08556   1
   2   9   2 18.2105 6.12348   4
   3   9   2 313.072 16.8189   3
   3   9   2 303.340 18.9024   1
   3   9   2 319.846 19.7051   2
   3   9   2 290.846 16.5695   4
   3   9   2 294.723 15.6411   5
   4   9   2 69.2528 12.4174   1
   4   9   2 66.0231 10.8495   3
   4   9   2 52.9261 10.2664   2
   4   9   2 66.6903 7.67220   5
   4   9   2 64.5820 10.1024   4
   5   9   2 40.7109 10.1631   4
   5   9   2 45.1861 12.2918   1
   5   9   2 60.8068 10.8491   3
   5   9   2 64.4950 10.3489   2
   5   9   2 26.1944 5.23123   6
  -4  10   2 10.9194 7.03031   6
  -4  10   2 9.88206 9.06366   5
  -4  10   2 3.89456 6.80230   1
  -4  10   2 22.0652 10.3107   3
   3 -10  -2 84.0425 13.3411   3
  -3  10   2 77.9135 14.1099   3
  -3  10   2 54.0887 9.55939   6
  -3  10   2 74.2833 9.17307   1
  -3  10   2 72.0109 9.76008   6
  -3  10   2 43.2730 11.4900   5
   2 -10  -2 598.984 28.0398   3
  -2  10   2 673.620 24.4405   1
  -2  10   2 645.823 30.0942   5
  -2  10   2 650.503 27.6202   3
  -2  10   2 637.817 22.1264   6
  -2  10   2 660.053 22.5054   6
  -1  10   2 302.246 13.6979   6
  -1  10   2 317.565 22.0182   2
  -1  10   2 273.079 16.0436   1
  -1  10   2 255.894 19.3268   5
  -1  10   2 281.516 18.0700   3
   0  10   2 154.674 13.9485   3
   0  10   2 138.578 12.0845   1
   0  10   2 153.483 16.7409   2
   0  10   2 128.984 14.1702   5
   0  10   2 158.045 9.05827   6
   1  10   2 388.465 15.7139   4
   1  10   2 462.341 24.8507   2
   1  10   2 426.720 20.4382   3
   1  10   2 448.164 22.1645   5
   1  10   2 414.065 19.8206   1
   2  10   2 143.938 13.3253   3
   2  10   2 193.461 15.3251   1
   2  10   2 145.979 16.7386   5
   2  10   2 164.760 12.6904   4
   2  10   2 167.542 17.1389   2
   3  10   2 335.016 21.0812   2
   3  10   2 315.760 19.8373   1
   3  10   2 299.471 17.3837   5
   3  10   2 294.399 17.3796   3
   4  10   2 -1.1679 7.73079   3
   4  10   2 9.11553 8.66690   1
   4  10   2 -4.4542 7.09571   4
   4  10   2 -7.3095 7.76588   2
   4  10   2 -7.5101 5.48120   5
  -1  11   2 334.344 14.8365   6
  -1  11   2 280.721 15.8101   1
  -1  11   2 280.130 21.5054   5
  -1  11   2 283.794 22.2744   2
  -1  11   2 294.814 17.3193   1
  -1  11   2 298.930 20.2437   3
  -1  11   2 318.693 14.7703   6
   0  11   2 222.592 10.9557   6
   0  11   2 199.292 10.2683   6
   0  11   2 197.835 17.7897   5
   0  11   2 227.558 16.9140   1
   0  11   2 222.542 14.6596   1
   0  11   2 198.819 19.2149   2
   0  11   2 224.937 17.5552   3
   1  11   2 448.128 24.0530   5
   1  11   2 468.016 26.6642   2
   1  11   2 439.980 24.6349   3
   1  11   2 511.698 22.6812   1
   2  11   2 366.831 20.8771   1
   2  11   2 296.331 22.0424   2
   2  11   2 372.260 21.1003   5
   2  11   2 345.226 19.4548   3
   2  11   2 319.230 16.1313   4
   1  10  -3 110.793 12.5162   4
   1  10  -3 170.230 16.5558   5
   1  10  -3 131.404 13.6925   2
   1  10  -3 114.012 15.8601   3
   0  10  -3 821.957 32.1293   2
   0  10  -3 791.606 33.9095   3
   0  10  -3 773.559 22.7349   6
   0  10  -3 774.981 27.3126   4
   0  10  -3 812.297 33.4527   5
  -1  10  -3 111.539 10.5529   6
  -1  10  -3 77.0299 8.86511   6
  -1  10  -3 103.016 15.2176   3
  -1  10  -3 105.771 10.3222   4
  -1  10  -3 70.9784 12.8023   5
  -2  10  -3 9.69706 7.44490   6
  -2  10  -3 5.95620 9.65173   3
  -2  10  -3 27.5051 10.5775   5
   3   9  -3 222.008 14.8916   1
   3   9  -3 170.533 17.3802   3
   3   9  -3 167.403 17.4287   5
   3   9  -3 210.302 16.6856   4
   2   9  -3 211.602 15.8819   4
   2   9  -3 190.224 12.5473   1
   2   9  -3 196.543 15.5691   5
   2   9  -3 224.414 18.4184   3
   1   9  -3 239.224 16.2501   4
   1   9  -3 279.825 18.5172   5
   1   9  -3 222.296 15.9108   2
   1   9  -3 219.772 18.5496   3
   0   9  -3 1008.10 25.2444   6
   0   9  -3 1032.66 36.7752   5
   0   9  -3 970.952 37.0363   3
   0   9  -3 1006.23 30.9131   4
   0   9  -3 1005.04 34.0098   2
   0   9  -3 982.262 25.8310   6
  -1   9  -3 150.445 11.8386   4
  -1   9  -3 161.972 16.8929   3
  -1   9  -3 148.881 13.3171   6
  -1   9  -3 129.797 10.4110   6
  -1   9  -3 140.828 15.9148   5
  -2   9  -3 95.5358 9.32880   4
  -2   9  -3 71.7040 12.8042   3
  -2   9  -3 81.3070 9.54791   6
  -2   9  -3 88.1274 9.60724   6
  -2   9  -3 74.8454 13.2571   5
  -3   9  -3 601.832 29.2444   2
  -3   9  -3 676.585 24.3656   6
  -3   9  -3 605.858 30.4791   5
  -3   9  -3 635.336 30.6948   3
  -3   9  -3 702.265 25.5324   6
  -4   9  -3 156.555 14.7865   6
  -4   9  -3 118.570 16.8915   3
  -4   9  -3 96.2372 13.9775   5
  -4   9  -3 145.852 13.5432   6
   5   8  -3 714.581 21.9404   6
   5   8  -3 740.874 30.8065   1
   5   8  -3 659.906 22.0757   6
   5   8  -3 797.522 46.8393   4
   5   8  -3 758.848 33.5852   3
   4   8  -3 42.1060 9.10702   1
   4   8  -3 42.8847 9.89040   4
   4   8  -3 47.7772 11.5988   3
   4   8  -3 51.5246 6.58087   6
   4   8  -3 40.4482 5.33300   6
   4   8  -3 55.3841 8.27394   5
   4   8  -3 49.4641 8.10568   5
   3   8  -3 29.5006 7.64412   5
   3   8  -3 31.3491 8.51453   4
   3   8  -3 40.0383 8.14487   1
   3   8  -3 37.5448 9.91126   3
   2   8  -3 318.071 15.1499   1
   2   8  -3 356.992 21.3169   3
   2   8  -3 298.057 20.6612   4
   2   8  -3 340.413 18.0496   5
   1   8  -3 32.4770 8.84770   3
   1   8  -3 53.9872 8.24035   1
   1   8  -3 56.1569 10.0701   5
   1   8  -3 36.5811 8.21216   4
   1   8  -3 45.2295 7.88368   2
   0   8  -3 1007.22 25.1071   6
   0   8  -3 997.808 30.2036   4
   0   8  -3 1028.17 34.6201   5
   0   8  -3 978.818 24.1914   6
   0   8  -3 961.899 34.6349   3
  -1   8  -3 49.9067 11.2667   3
  -1   8  -3 60.4466 7.18266   6
  -1   8  -3 62.5944 7.81341   4
  -1   8  -3 51.3712 10.0195   5
  -1   8  -3 62.7175 7.23052   6
  -2   8  -3 138.195 10.4294   4
  -2   8  -3 106.413 14.2507   3
  -2   8  -3 115.478 9.79661   6
  -2   8  -3 102.677 12.9226   5
  -2   8  -3 115.924 10.2223   6
   2  -8   3 116.658 14.9727   3
  -3   8  -3 1109.24 39.2540   5
  -3   8  -3 1043.87 38.6215   3
  -3   8  -3 1055.66 30.5321   6
  -3   8  -3 1018.79 30.7803   6
  -3   8  -3 1036.56 51.4829   2
   3  -8   3 1036.33 37.7600   3
  -4   8  -3 39.3132 10.1244   5
  -4   8  -3 50.5409 9.51133   6
  -4   8  -3 30.0363 11.5720   3
  -4   8  -3 66.7235 10.0549   6
  -4   8  -3 46.7533 11.8235   2
  -5   8  -3 40.7099 13.9845   5
  -5   8  -3 28.9170 7.71085   6
  -5   8  -3 28.6969 10.8198   3
   6   7  -3 11.0535 9.97180   4
   6   7  -3 29.0859 8.23890   6
   6   7  -3 15.8063 6.97750   6
   6   7  -3 3.15626 8.68559   1
   5   7  -3 314.999 13.3668   5
   5   7  -3 315.993 14.7897   6
   5   7  -3 332.109 20.3756   1
   5   7  -3 278.891 14.3830   6
   5   7  -3 308.897 20.7663   4
   4   7  -3 272.756 12.3764   6
   4   7  -3 274.022 14.0450   5
   4   7  -3 249.113 17.8775   4
   4   7  -3 255.090 11.7802   6
   4   7  -3 234.618 16.3031   1
   4   7  -3 273.833 14.2289   5
   4   7  -3 316.974 20.5703   3
   3   7  -3 31.1393 5.31775   6
   3   7  -3 48.2453 8.23169   5
   3   7  -3 37.3748 8.68754   4
   3   7  -3 27.2782 7.02060   1
   3   7  -3 28.7600 10.7255   3
   3   7  -3 42.4727 5.32079   6
   2   7  -3 520.010 18.8796   1
   2   7  -3 552.731 21.9342   4
   2   7  -3 523.294 24.0094   3
   1   7  -3 73.0623 8.58535   1
   1   7  -3 68.7451 11.2276   3
   1   7  -3 65.1444 9.41211   5
   1   7  -3 58.0793 8.89115   4
   1   7  -3 73.7821 8.72962   2
   0   7  -3 371.829 19.9554   3
   0   7  -3 332.361 12.1189   6
   0   7  -3 352.675 16.1661   4
   0   7  -3 339.958 18.3967   5
  -1   7  -3 16.2941 4.39440   6
  -1   7  -3 14.2244 4.55405   6
  -1   7  -3 7.19444 4.93105   4
  -1   7  -3 6.53084 6.26975   5
  -1   7  -3 10.3480 6.88928   3
   1  -7   3 5.43671 4.29414   4
  -2   7  -3 234.296 12.1084   6
  -2   7  -3 231.676 17.5608   3
  -2   7  -3 245.315 17.2490   5
  -2   7  -3 240.341 11.9309   4
  -2   7  -3 245.645 12.2834   6
   2  -7   3 224.392 11.0345   4
  -3   7  -3 714.238 30.2199   3
  -3   7  -3 754.288 28.6343   2
  -3   7  -3 744.576 30.3456   5
  -3   7  -3 777.229 24.7266   6
  -3   7  -3 752.419 23.8368   6
   3  -7   3 760.383 21.1258   4
   3  -7   3 784.959 30.2215   3
  -4   7  -3 6.79204 8.07893   6
  -4   7  -3 18.2043 7.22201   6
  -4   7  -3 -5.8339 6.54108   3
  -4   7  -3 14.3550 7.85642   5
   4  -7   3 16.0712 9.47997   3
  -5   7  -3 22.5705 13.0760   2
  -5   7  -3 9.59398 8.71436   3
  -5   7  -3 41.3736 10.4081   5
  -5   7  -3 21.8775 7.80736   6
  -5   7  -3 23.6631 7.78671   6
   5  -7   3 17.2776 6.04601   6
   5  -7   3 25.8572 6.62863   6
  -6   7  -3 434.629 16.0886   1
  -6   7  -3 424.659 27.6506   3
  -6   7  -3 411.024 21.8666   6
  -6   7  -3 413.201 25.5711   5
   6  -7   3 413.570 21.3915   6
   6  -7   3 449.409 19.3031   6
   6   6  -3 37.2738 8.11377   6
   6   6  -3 42.1351 10.4299   4
   6   6  -3 29.2675 10.4259   1
  -6  -6   3 29.2895 10.2860   1
   5   6  -3 8.18933 6.78326   4
   5   6  -3 13.6911 6.44389   1
   5   6  -3 6.09817 4.81993   6
   5   6  -3 11.2199 4.78625   5
   5   6  -3 1.78424 4.77188   6
  -5  -6   3 0.77174 6.67657   1
   4   6  -3 274.988 12.2759   6
   4   6  -3 285.467 16.5284   1
   4   6  -3 263.043 17.3448   4
   4   6  -3 300.311 13.9240   5
   4   6  -3 271.205 11.5830   6
  -4  -6   3 297.630 16.8777   1
   3   6  -3 380.615 13.5285   6
   3   6  -3 388.759 12.6617   6
   3   6  -3 404.595 17.9845   1
   3   6  -3 379.013 18.7281   4
   2   6  -3 296.384 9.72607   6
   2   6  -3 287.147 15.4247   4
   2   6  -3 298.768 17.1285   3
   2   6  -3 305.201 13.6960   1
   2   6  -3 280.089 10.4929   6
   1   6  -3 286.772 11.5579   1
   1   6  -3 299.110 10.1612   6
   1   6  -3 284.975 14.4526   4
   1   6  -3 292.529 16.9532   3
   0   6  -3 67.6262 5.74978   6
   0   6  -3 78.0950 5.89857   6
   0   6  -3 74.9551 8.78446   4
   0   6  -3 76.1564 10.6026   3
   0  -6   3 75.5384 8.14455   4
  -1   6  -3 9.20612 3.90052   6
  -1   6  -3 9.57717 4.94365   4
  -1   6  -3 7.79191 3.71761   6
  -1   6  -3 1.51216 5.35060   3
   1  -6   3 -4.6614 2.63828   4
  -2   6  -3 21.4723 4.86861   6
  -2   6  -3 2.69471 5.28623   5
  -2   6  -3 7.67951 4.25931   6
  -2   6  -3 1.46857 6.02634   3
  -2   6  -3 11.6617 4.75053   4
   2  -6   3 10.7684 6.26070   3
   2  -6   3 9.26211 4.38658   4
  -3   6  -3 244.678 12.7003   6
  -3   6  -3 201.996 15.5937   5
  -3   6  -3 213.237 16.3571   3
  -3   6  -3 232.549 15.3815   2
  -3   6  -3 217.901 12.3004   6
   3  -6   3 235.855 11.0269   4
  -4   6  -3 542.988 25.0479   5
  -4   6  -3 577.341 21.3059   6
  -4   6  -3 548.561 21.1948   6
  -4   6  -3 525.971 24.2328   2
  -4   6  -3 561.865 26.4555   3
   4  -6   3 557.199 25.2523   3
   4  -6   3 575.280 17.8069   6
   4  -6   3 549.534 17.8726   4
   4  -6   3 556.635 17.1651   6
  -5   6  -3 119.361 11.8905   6
  -5   6  -3 118.711 13.0176   6
  -5   6  -3 93.7123 13.2938   5
  -5   6  -3 83.4794 13.0922   2
  -5   6  -3 111.184 14.4511   3
  -5   6  -3 108.334 8.53780   1
   5  -6   3 121.686 9.83381   6
   5  -6   3 115.600 10.5832   6
   5  -6   3 107.855 14.9670   3
   5  -6   3 97.6457 9.28891   4
  -6   6  -3 53.8507 7.67431   1
  -6   6  -3 23.9846 9.06508   6
  -6   6  -3 41.8432 10.0034   6
  -6   6  -3 48.5169 12.0004   3
  -6   6  -3 35.1767 10.5286   5
   6  -6   3 47.6878 9.11647   6
   6  -6   3 46.5519 7.90312   4
  -7   6  -3 16.7928 9.80664   5
  -7   6  -3 4.25545 5.03104   1
  -7   6  -3 24.6469 10.8850   3
   7  -6   3 -3.0331 7.87241   6
   7  -6   3 15.9345 6.59552   4
   7  -6   3 10.3156 7.67686   6
   7   5  -3 -2.4456 6.72012   4
   7   5  -3 8.82791 6.86369   6
   7   5  -3 3.73358 6.70939   1
   7   5  -3 0.11941 5.13382   6
   6   5  -3 5.03115 6.51796   1
   6   5  -3 -1.7619 7.54564   4
   6   5  -3 9.60708 6.10242   6
   6   5  -3 6.62312 5.72651   6
  -6  -5   3 -6.1414 7.62230   1
   5   5  -3 210.645 11.8958   6
   5   5  -3 204.031 15.9178   4
   5   5  -3 186.025 16.5584   1
   5   5  -3 231.785 12.4530   6
  -5  -5   3 197.035 16.1497   1
   4   5  -3 467.594 15.6187   6
   4   5  -3 464.214 21.4164   4
   4   5  -3 461.670 20.7938   1
   4   5  -3 471.286 16.2563   6
   4   5  -3 463.327 16.4544   5
  -4  -5   3 457.013 20.6622   1
   3   5  -3 440.047 14.4096   6
   3   5  -3 436.438 14.1106   6
   3   5  -3 429.188 18.0250   1
   3   5  -3 422.489 18.8396   4
  -3  -5   3 404.165 17.6078   1
   2   5  -3 3.17819 3.86641   1
   2   5  -3 -2.1687 4.21988   3
   2   5  -3 3.65487 4.61855   4
   2   5  -3 4.92558 2.65322   6
   2   5  -3 5.13131 2.83581   6
  -2  -5   3 2.91994 3.20438   1
   1   5  -3 1124.64 30.4252   4
   1   5  -3 1180.72 27.3461   1
   1   5  -3 1203.04 34.3473   3
   1   5  -3 1203.14 25.2502   6
   1   5  -3 1139.20 24.7985   6
  -1  -5   3 1150.08 30.5755   4
   0   5  -3 1208.11 25.9338   6
   0   5  -3 1168.38 34.0393   3
   0   5  -3 1199.20 30.7994   4
   0   5  -3 1194.56 24.5299   1
   0   5  -3 1195.04 26.0011   6
   0  -5   3 1174.78 29.7324   4
  -1   5  -3 60.9342 7.23027   4
  -1   5  -3 66.2648 5.66637   6
  -1   5  -3 67.6428 9.34407   3
  -1   5  -3 65.0200 6.23219   6
   1  -5   3 85.3387 11.6267   3
   1  -5   3 69.7211 6.82594   4
  -2   5  -3 32.1452 5.14168   6
  -2   5  -3 34.0049 6.05675   4
  -2   5  -3 20.7932 6.47885   3
  -2   5  -3 34.0037 5.33130   6
   2  -5   3 18.9617 4.51207   4
   2  -5   3 36.0042 6.59132   3
  -3   5  -3 64.7066 9.09058   2
  -3   5  -3 75.9940 8.01344   6
  -3   5  -3 67.8855 7.62020   6
  -3   5  -3 66.5049 9.05439   5
  -3   5  -3 67.2425 10.3427   3
   3  -5   3 59.7470 9.66109   3
   3  -5   3 55.1239 6.15693   4
   3  -5   3 62.9650 5.91995   6
  -4   5  -3 410.258 19.9624   2
  -4   5  -3 444.194 17.8560   6
  -4   5  -3 417.466 13.2329   1
  -4   5  -3 401.710 21.4359   3
  -4   5  -3 402.109 20.2483   5
  -4   5  -3 411.088 17.4711   6
   4  -5   3 436.816 15.9030   6
   4  -5   3 412.898 15.1421   4
   4  -5   3 418.821 14.9634   6
  -5   5  -3 57.9252 6.87632   1
  -5   5  -3 65.8166 9.79502   6
  -5   5  -3 58.2948 14.5701   6
  -5   5  -3 43.4620 10.3883   2
  -5   5  -3 45.3544 9.52435   3
  -5   5  -3 48.4267 9.95803   5
   5  -5   3 41.1953 9.41808   3
   5  -5   3 63.4955 8.02458   6
   5  -5   3 58.0416 8.11516   6
   5  -5   3 50.4863 7.05359   1
   5  -5   3 61.2865 7.19984   4
  -6   5  -3 134.105 15.2954   2
  -6   5  -3 121.709 10.7822   1
  -6   5  -3 125.067 13.5915   6
  -6   5  -3 112.015 15.7516   3
  -6   5  -3 104.808 13.2610   5
  -6   5  -3 118.401 13.2319   6
   6  -5   3 90.3125 12.7002   3
   6  -5   3 134.028 12.3772   1
   6  -5   3 133.299 16.5419   4
   6  -5   3 128.842 14.0656   6
   6  -5   3 103.881 13.4234   6
  -7   5  -3 372.953 22.4827   5
  -7   5  -3 353.684 25.4602   3
  -7   5  -3 353.452 18.4429   1
  -7   5  -3 376.067 20.8015   6
   7  -5   3 349.154 19.8813   1
   7  -5   3 330.307 19.4822   6
   7  -5   3 358.508 17.8382   4
   7  -5   3 383.233 19.9090   6
   7   4  -3 7.13353 6.35853   6
   7   4  -3 8.85887 6.48990   6
   7   4  -3 0.92820 7.19282   1
   7   4  -3 3.81444 8.14614   4
   6   4  -3 10.1545 8.56023   4
   6   4  -3 5.39415 11.2921   3
   6   4  -3 5.92435 5.38619   6
   6   4  -3 1.07047 5.17444   6
   6   4  -3 -1.5370 6.71826   1
  -6  -4   3 6.06438 7.92241   1
   5   4  -3 884.006 21.6471   5
   5   4  -3 797.121 24.6918   6
   5   4  -3 883.354 31.3371   1
   5   4  -3 852.492 25.0313   6
   5   4  -3 867.335 30.3646   4
   4   4  -3 72.5591 7.03133   5
   4   4  -3 71.8174 10.0685   4
   4   4  -3 80.7608 10.8384   1
   4   4  -3 62.7515 7.09726   6
   4   4  -3 73.5053 7.23226   6
  -4  -4   3 73.7659 9.47111   1
   3   4  -3 1025.33 24.3044   6
   3   4  -3 1012.06 29.6518   4
   3   4  -3 1053.38 29.6675   1
   3   4  -3 982.423 24.6903   6
   3   4  -3 1027.84 26.4081   5
  -3  -4   3 1036.69 29.7498   1
   2   4  -3 26.4878 3.95636   6
   2   4  -3 27.2899 3.71253   6
   2   4  -3 29.6193 5.96103   4
   2   4  -3 35.1281 5.71488   1
  -2  -4   3 27.5689 5.36555   1
   1   4  -3 251.590 13.4780   3
   1   4  -3 250.523 8.49918   6
   1   4  -3 264.398 10.0297   1
   1   4  -3 268.682 8.43212   6
   1   4  -3 258.255 11.9861   4
  -1  -4   3 247.208 9.71188   1
  -1  -4   3 239.762 11.5951   4
   0   4  -3 2728.01 59.6093   3
   0   4  -3 2604.54 51.3136   6
   0   4  -3 2742.18 51.2956   6
   0   4  -3 2659.73 49.6660   1
   0   4  -3 2768.66 56.2638   4
   0  -4   3 2674.82 55.3259   4
  -1   4  -3 6.39364 2.95926   6
  -1   4  -3 2.15647 3.30900   4
  -1   4  -3 8.52013 2.95340   6
  -1   4  -3 7.62821 4.56574   3
   1  -4   3 4.62854 4.42687   3
   1  -4   3 4.26836 3.37372   4
  -2   4  -3 243.346 13.5116   3
  -2   4  -3 204.478 11.2851   2
  -2   4  -3 202.392 9.55725   6
  -2   4  -3 221.715 9.85076   6
  -2   4  -3 215.541 9.85169   4
   2  -4   3 216.368 12.5248   3
   2  -4   3 192.201 9.57567   4
   2  -4   3 201.361 7.98693   6
   2  -4   3 202.611 8.03013   6
  -3   4  -3 1272.10 36.2647   3
  -3   4  -3 1233.82 31.5171   6
  -3   4  -3 1253.11 34.6852   2
  -3   4  -3 1290.30 26.3781   1
  -3   4  -3 1292.57 31.5083   6
   3  -4   3 1294.98 29.2268   6
   3  -4   3 1321.63 30.3094   4
   3  -4   3 1253.57 35.4372   3
   3  -4   3 1278.39 29.7015   6
  -4   4  -3 644.766 18.1640   1
  -4   4  -3 627.992 23.7464   5
  -4   4  -3 670.580 21.7402   6
  -4   4  -3 658.297 25.6108   3
  -4   4  -3 627.469 21.4903   6
  -4   4  -3 656.583 24.2463   2
   4  -4   3 670.262 19.9467   6
   4  -4   3 615.756 18.9224   4
   4  -4   3 663.893 20.6075   6
   4  -4   3 658.357 24.7911   3
   4  -4   3 643.302 19.0443   1
  -5   4  -3 140.839 11.4369   6
  -5   4  -3 142.739 9.75024   1
  -5   4  -3 137.354 14.0421   3
  -5   4  -3 177.927 12.9565   6
  -5   4  -3 143.579 13.1012   5
   5  -4   3 144.403 10.2952   6
   5  -4   3 134.868 10.4412   1
   5  -4   3 127.626 9.63643   4
   5  -4   3 138.626 11.3992   6
  -6   4  -3 99.3407 13.7451   2
  -6   4  -3 80.7179 13.2456   3
  -6   4  -3 94.7333 12.0775   1
  -6   4  -3 70.5077 11.5836   5
  -6   4  -3 86.6885 11.3378   6
  -6   4  -3 83.0461 11.1005   6
   6  -4   3 75.4821 8.63558   4
   6  -4   3 53.7390 9.56721   6
   6  -4   3 77.8908 10.2623   1
   6  -4   3 76.3353 10.9320   6
   6  -4   3 76.7503 11.8038   3
  -7   4  -3 446.675 21.6824   6
  -7   4  -3 373.047 19.5466   1
  -7   4  -3 392.856 25.0008   3
  -7   4  -3 400.366 21.7710   5
  -7   4  -3 441.383 36.0887   2
   7  -4   3 418.823 21.4240   6
   7  -4   3 400.130 21.0495   1
   7  -4   3 409.847 20.2542   6
   7  -4   3 430.355 19.1906   4
  -8   4  -3 217.057 20.9954   1
  -8   4  -3 248.223 18.4038   5
  -8   4  -3 166.594 25.1786   6
   8  -4   3 216.168 18.2918   6
   8  -4   3 240.246 17.5035   4
   8  -4   3 225.578 19.3473   1
   8   3  -3 531.904 30.3405   1
   8   3  -3 514.730 27.3666   4
  -8  -3   3 544.498 18.4971   6
   7   3  -3 32.4374 7.90507   6
   7   3  -3 35.6282 9.76032   1
   7   3  -3 27.5697 11.6199   3
   7   3  -3 31.8454 8.03074   6
   7   3  -3 36.8778 10.5461   4
  -7  -3   3 39.0499 6.19411   6
  -7  -3   3 25.2227 5.86567   6
   6   3  -3 6.85022 5.29685   6
   6   3  -3 -0.6560 6.32133   1
   6   3  -3 -3.3791 5.64537   4
   6   3  -3 -6.6743 6.74086   3
   6   3  -3 0.98218 4.50663   6
  -6  -3   3 0.41767 6.17440   1
  -6  -3   3 4.09222 3.70676   6
  -6  -3   3 3.21929 3.85583   6
   5   3  -3 1884.93 43.3412   6
   5   3  -3 1856.58 38.5455   5
   5   3  -3 1890.23 50.1187   1
   5   3  -3 1899.26 48.0571   4
   5   3  -3 1830.02 43.3235   6
  -5  -3   3 1821.35 38.0448   6
  -5  -3   3 1711.87 49.6315   1
  -5  -3   3 1829.19 37.9775   6
   4   3  -3 10.7338 4.08708   5
   4   3  -3 7.03992 4.09830   6
   4   3  -3 13.0991 4.17054   6
   4   3  -3 10.9627 5.08630   4
   4   3  -3 21.8330 6.59164   1
  -4  -3   3 11.1621 5.09226   1
   3   3  -3 1001.68 25.2312   6
   3   3  -3 1019.11 25.7311   5
   3   3  -3 1076.85 24.9404   6
   3   3  -3 1065.79 29.4472   4
   3   3  -3 1057.10 29.5584   1
  -3  -3   3 1082.42 29.9024   1
   2   3  -3 1787.04 36.2182   6
   2   3  -3 1882.21 44.3318   1
   2   3  -3 1830.51 41.3141   4
   2   3  -3 1754.50 37.1894   6
  -2  -3   3 1811.60 40.6547   1
   1   3  -3 316.511 10.9018   1
   1   3  -3 305.884 9.58394   6
   1   3  -3 320.211 9.31570   6
   1   3  -3 317.363 12.4867   4
  -1  -3   3 323.886 12.6438   4
  -1  -3   3 308.949 10.6997   1
   0   3  -3 8240.00 146.915   4
   0   3  -3 7984.69 149.470   3
   0   3  -3 7867.48 142.726   6
   0   3  -3 7998.06 140.735   1
   0   3  -3 8044.58 142.281   6
   0  -3   3 8089.01 146.171   4
   0  -3   3 8121.05 140.700   1
  -1   3  -3 754.460 22.7037   3
  -1   3  -3 784.917 20.3255   2
  -1   3  -3 798.787 18.7991   6
  -1   3  -3 779.984 18.5078   6
  -1   3  -3 738.076 20.4404   4
   1  -3   3 717.851 19.9000   4
   1  -3   3 788.368 16.8131   6
   1  -3   3 769.327 17.2461   6
   1  -3   3 750.304 22.4483   3
  -2   3  -3 198.688 10.3001   2
  -2   3  -3 185.788 8.68735   6
  -2   3  -3 195.548 8.93744   4
  -2   3  -3 191.934 11.3184   3
  -2   3  -3 186.070 8.73548   6
   2  -3   3 202.047 8.01747   6
   2  -3   3 194.936 9.07082   4
   2  -3   3 206.155 8.38207   6
   2  -3   3 188.681 10.7055   3
  -3   3  -3 4245.68 78.0127   1
  -3   3  -3 4107.46 84.8870   2
  -3   3  -3 4264.58 82.6589   6
  -3   3  -3 4437.79 82.4805   6
  -3   3  -3 4183.32 86.6633   3
   3  -3   3 4163.94 85.7345   3
   3  -3   3 4242.46 78.5029   1
   3  -3   3 4206.82 80.4670   4
   3  -3   3 4293.19 81.2839   6
   3  -3   3 4217.73 80.3791   6
  -4   3  -3 413.469 16.0580   6
  -4   3  -3 381.746 18.4019   3
  -4   3  -3 406.722 16.1733   6
  -4   3  -3 396.138 16.9094   5
  -4   3  -3 392.921 13.8594   1
   4  -3   3 362.148 14.3496   6
   4  -3   3 402.876 15.5885   6
   4  -3   3 393.815 14.4944   1
   4  -3   3 410.491 14.4720   4
   4  -3   3 391.676 17.8391   3
  -5   3  -3 63.9005 7.94213   1
  -5   3  -3 54.8827 7.64893   6
  -5   3  -3 63.6700 8.24510   6
  -5   3  -3 44.6031 8.48714   3
  -5   3  -3 56.1960 8.42785   5
   5  -3   3 57.0985 7.44664   6
   5  -3   3 69.3445 8.50255   1
   5  -3   3 51.3556 6.34360   4
   5  -3   3 58.4961 8.23394   6
  -6   3  -3 347.826 18.0575   6
  -6   3  -3 367.712 18.9494   5
  -6   3  -3 332.971 21.0364   3
  -6   3  -3 370.364 17.2146   1
   6  -3   3 353.643 20.1172   3
   6  -3   3 353.958 16.0123   4
   6  -3   3 367.538 18.1650   6
   6  -3   3 376.507 18.3624   1
  -7   3  -3 424.203 21.8057   6
  -7   3  -3 413.989 23.5675   2
  -7   3  -3 457.125 26.5929   3
  -7   3  -3 418.090 20.9962   5
  -7   3  -3 411.778 20.8250   1
  -7   3  -3 451.092 21.5771   6
   7  -3   3 446.571 20.6891   6
   7  -3   3 423.261 19.3212   4
   7  -3   3 423.949 23.7982   3
   7  -3   3 449.108 21.7927   6
   7  -3   3 418.676 21.7247   1
  -8   3  -3 226.717 22.1079   3
  -8   3  -3 243.697 18.7496   6
  -8   3  -3 250.261 18.0579   5
   8  -3   3 259.270 18.0089   4
   8  -3   3 301.888 20.7147   1
   8  -3   3 258.275 18.7311   6
   8   2  -3 411.562 24.0589   4
   8   2  -3 385.698 20.6317   6
  -8  -2   3 393.622 18.8308   6
  -8  -2   3 448.490 20.0375   2
   7   2  -3 77.7605 11.8706   4
   7   2  -3 70.2611 10.1450   6
   7   2  -3 74.5537 10.5205   6
   7   2  -3 76.5112 14.8393   1
   7   2  -3 88.4612 14.2210   3
  -7  -2   3 31.3371 9.03984   1
  -7  -2   3 85.0075 9.83316   2
  -7  -2   3 63.9444 8.28484   6
  -7  -2   3 68.6287 8.69924   6
   6   2  -3 64.5820 11.2665   3
   6   2  -3 68.1235 10.7187   4
   6   2  -3 67.7224 11.9949   1
   6   2  -3 76.0827 6.48090   5
   6   2  -3 62.7192 9.28789   6
   6   2  -3 75.5877 9.40700   6
  -6  -2   3 66.0103 7.85738   6
  -6  -2   3 70.8235 7.95785   6
  -6  -2   3 61.1061 9.82885   1
  -6  -2   3 84.5272 8.42619   2
   5   2  -3 2203.50 50.0925   6
   5   2  -3 2159.66 50.1271   6
   5   2  -3 2194.99 57.5700   3
   5   2  -3 2234.94 53.5814   4
   5   2  -3 2246.88 56.2254   1
   5   2  -3 2296.68 45.8250   5
  -5  -2   3 2253.90 47.6690   6
  -5  -2   3 2170.14 47.3715   6
  -5  -2   3 2167.54 55.9735   1
  -5  -2   3 2321.97 47.0886   2
   4   2  -3 347.679 15.8296   4
   4   2  -3 347.597 12.2226   5
   4   2  -3 349.206 13.7211   6
   4   2  -3 355.086 13.8711   6
   4   2  -3 367.277 17.1333   1
  -4  -2   3 336.712 17.0227   1
  -4  -2   3 340.855 12.2623   6
   3   2  -3 241.458 12.7889   1
   3   2  -3 245.117 10.2374   5
   3   2  -3 274.223 10.7909   6
   3   2  -3 245.419 12.1012   4
   3   2  -3 244.853 10.1818   6
  -3  -2   3 248.830 9.24939   6
  -3  -2   3 269.944 12.9428   1
  -3  -2   3 248.961 9.00937   6
   2   2  -3 1897.97 41.8137   4
   2   2  -3 1902.80 39.0466   6
   2   2  -3 1961.34 42.0499   1
   2   2  -3 1871.63 39.9269   5
   2   2  -3 1944.09 38.3148   6
  -2  -2   3 1854.53 36.8796   6
  -2  -2   3 1951.81 36.6074   6
  -2  -2   3 1899.43 41.8330   1
   1   2  -3 146.898 6.56157   6
   1   2  -3 152.987 6.23186   6
   1   2  -3 148.018 7.98183   4
   1   2  -3 156.663 7.36892   1
  -1  -2   3 155.542 5.03653   6
  -1  -2   3 157.763 5.25431   6
  -1  -2   3 145.500 8.02466   4
  -1  -2   3 153.139 7.17930   1
   0   2  -3 4589.58 84.1416   6
   0   2  -3 4671.94 83.6779   2
   0   2  -3 4644.47 82.8644   1
   0   2  -3 4618.19 89.2548   3
   0   2  -3 4825.86 87.7079   4
   0   2  -3 4570.33 84.6762   6
   0  -2   3 4678.51 87.2109   4
   0  -2   3 4666.17 82.7448   6
   0  -2   3 4677.55 82.6822   1
  -1   2  -3 646.255 15.8450   6
  -1   2  -3 638.116 17.2862   4
  -1   2  -3 636.630 16.7136   2
  -1   2  -3 632.658 15.9845   6
  -1   2  -3 638.591 18.8664   3
   1  -2   3 670.483 15.5224   6
   1  -2   3 639.965 15.3066   6
   1  -2   3 665.878 18.8378   3
   1  -2   3 643.665 17.3571   4
  -2   2  -3 760.686 21.8233   3
  -2   2  -3 773.658 19.6696   6
  -2   2  -3 763.668 19.1338   6
  -2   2  -3 747.100 20.6911   2
  -2   2  -3 750.264 19.1279   4
   2  -2   3 790.800 21.7674   3
   2  -2   3 772.237 19.1055   6
   2  -2   3 773.350 19.1898   4
   2  -2   3 726.572 18.1992   6
   2  -2   3 734.365 16.1905   1
  -3   2  -3 4389.84 84.5777   6
  -3   2  -3 4443.33 84.0425   6
  -3   2  -3 4304.42 86.6132   2
  -3   2  -3 4399.35 87.7985   3
  -3   2  -3 4397.50 81.4872   1
   3  -2   3 4385.29 83.7429   6
   3  -2   3 4407.26 82.8770   4
   3  -2   3 4359.56 82.8555   6
   3  -2   3 4399.61 81.8702   1
  -4   2  -3 201.313 12.0711   2
  -4   2  -3 192.886 10.0275   1
  -4   2  -3 214.089 11.6480   5
  -4   2  -3 229.124 13.4865   3
  -4   2  -3 180.764 10.5503   6
  -4   2  -3 220.339 11.2737   6
   4  -2   3 234.345 11.0330   6
   4  -2   3 212.063 11.2888   6
   4  -2   3 202.209 10.1528   4
   4  -2   3 206.481 12.5080   3
   4  -2   3 218.226 12.9335   1
  -5   2  -3 4.10590 4.18818   2
  -5   2  -3 -0.2999 3.09207   1
  -5   2  -3 -3.3458 4.09566   5
  -5   2  -3 0.08196 5.67800   3
  -5   2  -3 -5.5097 3.88239   6
  -5   2  -3 -2.8064 3.08645   6
   5  -2   3 -1.5102 3.82889   4
   5  -2   3 -1.2475 4.08950   6
   5  -2   3 -3.1437 3.26248   6
   5  -2   3 3.94396 4.53369   1
   5  -2   3 2.08053 5.04241   3
  -6   2  -3 1330.95 37.0958   1
  -6   2  -3 1299.68 36.5736   6
  -6   2  -3 1339.11 41.9554   3
  -6   2  -3 1353.84 36.1269   5
   6  -2   3 1303.27 36.9557   6
   6  -2   3 1304.70 35.0517   4
   6  -2   3 1358.56 37.8085   1
   6  -2   3 1281.41 40.0669   3
  -7   2  -3 238.706 15.0434   5
  -7   2  -3 222.496 20.0393   3
  -7   2  -3 199.478 15.3314   6
  -7   2  -3 201.933 23.0335   2
  -7   2  -3 196.951 15.5702   1
   7  -2   3 244.005 16.8245   6
   7  -2   3 209.189 16.4710   1
  -8   2  -3 486.336 23.7644   6
  -8   2  -3 437.876 27.3771   3
  -8   2  -3 462.374 21.4581   5
  -8   2  -3 455.885 24.6891   1
   8  -2   3 478.336 23.3312   4
   8  -2   3 444.780 23.2666   6
   8  -2   3 514.297 26.3446   1
  -9   2  -3 116.691 14.7262   6
   9  -2   3 95.8058 13.7633   6
   9  -2   3 101.359 16.2645   1
   8   1  -3 251.189 22.5441   1
   8   1  -3 242.987 19.1694   4
   8   1  -3 271.011 18.8476   6
  -8  -1   3 262.564 18.1581   2
  -8  -1   3 253.543 17.0597   6
  -8  -1   3 231.926 16.1821   6
   7   1  -3 73.8964 11.5094   4
   7   1  -3 93.2987 13.8774   1
   7   1  -3 80.2448 7.21382   5
   7   1  -3 75.1569 10.6627   6
   7   1  -3 68.4062 12.9411   3
   7   1  -3 74.9035 10.2427   6
  -7  -1   3 41.7167 9.37120   1
  -7  -1   3 66.8829 9.29068   6
  -7  -1   3 58.9169 9.59041   2
   6   1  -3 10.1061 6.60467   3
   6   1  -3 7.92035 4.01592   5
   6   1  -3 1.07575 6.23459   1
   6   1  -3 14.0149 6.11835   6
   6   1  -3 15.2184 5.50239   6
   6   1  -3 6.46487 7.46276   4
  -6  -1   3 18.6674 5.30722   6
  -6  -1   3 14.3864 5.06659   6
  -6  -1   3 -5.0350 8.78377   1
  -6  -1   3 6.63913 5.36945   2
  -6  -1   3 7.57833 4.72555   5
   5   1  -3 2232.61 56.1351   3
   5   1  -3 2217.67 49.6102   6
   5   1  -3 2123.07 54.8605   1
   5   1  -3 2124.23 49.4909   6
   5   1  -3 2154.21 45.3692   5
   5   1  -3 2151.37 51.4150   4
  -5  -1   3 2247.14 48.3260   6
  -5  -1   3 2113.54 46.8559   2
  -5  -1   3 2195.79 48.3371   6
  -5  -1   3 2168.45 46.7630   5
  -5  -1   3 2129.22 54.7643   1
   4   1  -3 198.358 9.48064   5
   4   1  -3 225.971 13.7659   1
   4   1  -3 220.328 10.7111   6
   4   1  -3 222.095 12.2432   4
   4   1  -3 204.261 10.8303   6
  -4  -1   3 236.448 10.3811   5
  -4  -1   3 220.539 10.4955   6
  -4  -1   3 198.241 14.6682   1
  -4  -1   3 228.578 10.4757   6
  -4  -1   3 213.542 9.55963   2
   3   1  -3 11.7554 4.56997   4
   3   1  -3 8.97218 3.31190   6
   3   1  -3 22.0116 5.21340   1
   3   1  -3 14.0861 3.82202   5
   3   1  -3 14.7796 3.79137   6
  -3  -1   3 8.59602 3.08135   6
  -3  -1   3 11.4525 3.47550   6
  -3  -1   3 8.90479 4.01693   1
  -3  -1   3 10.4472 3.55102   5
   2   1  -3 2442.78 48.1781   6
   2   1  -3 2441.47 47.6881   6
   2   1  -3 2428.07 50.3767   4
   2   1  -3 2435.52 48.4634   5
   2   1  -3 2436.97 50.8267   1
  -2  -1   3 2467.91 47.5350   6
  -2  -1   3 2441.22 47.1259   6
  -2  -1   3 2388.52 50.1402   4
  -2  -1   3 2477.72 50.9711   1
   1   1  -3 225.926 7.61622   6
   1   1  -3 209.669 8.51218   1
   1   1  -3 208.060 8.63855   5
   1   1  -3 214.953 7.88373   6
   1   1  -3 223.078 8.91018   4
  -1  -1   3 211.137 7.07602   6
  -1  -1   3 208.676 8.41154   1
  -1  -1   3 210.343 7.40743   6
  -1  -1   3 214.160 8.94768   4
   0   1  -3 1880.16 35.6595   2
   0   1  -3 1949.57 39.3886   4
   0   1  -3 1892.51 37.6368   6
   0   1  -3 1987.61 37.0141   1
   0   1  -3 1888.38 37.1534   6
   0  -1   3 1816.49 36.8485   6
   0  -1   3 1915.48 36.7617   6
   0  -1   3 1923.92 36.4151   1
   0  -1   3 1948.44 35.7817   2
   0  -1   3 1940.31 39.1338   4
  -1   1  -3 504.078 13.5107   2
  -1   1  -3 513.164 13.9774   4
  -1   1  -3 518.160 13.2356   6
  -1   1  -3 491.894 14.6370   3
  -1   1  -3 525.400 13.1264   6
   1  -1   3 492.617 13.5879   4
   1  -1   3 498.475 12.6480   6
   1  -1   3 505.487 13.0387   6
   1  -1   3 511.955 13.6447   2
   1  -1   3 493.629 14.4003   3
  -2   1  -3 277.061 9.84527   4
  -2   1  -3 278.341 10.7301   2
  -2   1  -3 265.352 10.9119   3
  -2   1  -3 269.674 9.89800   6
  -2   1  -3 260.319 9.45580   6
   2  -1   3 260.640 9.11587   6
   2  -1   3 277.930 8.52651   1
   2  -1   3 274.440 9.91810   6
   2  -1   3 260.703 10.4916   3
   2  -1   3 279.257 10.9628   2
   2  -1   3 260.416 9.44623   4
  -3   1  -3 4608.52 87.0071   6
  -3   1  -3 4632.19 89.1017   3
  -3   1  -3 4597.37 86.3165   6
  -3   1  -3 4522.65 88.5854   2
  -3   1  -3 4572.10 85.4209   1
   3  -1   3 4610.43 86.8782   6
   3  -1   3 4545.19 88.4684   3
   3  -1   3 4557.98 88.8933   2
   3  -1   3 4601.17 85.8570   1
   3  -1   3 4497.14 85.7340   6
   3  -1   3 4471.47 85.8812   4
  -4   1  -3 14.0706 4.18433   1
  -4   1  -3 8.85369 4.32312   2
  -4   1  -3 10.1981 4.01785   6
  -4   1  -3 9.67170 4.74044   3
  -4   1  -3 10.7346 3.92824   6
   4  -1   3 8.18409 4.04435   1
   4  -1   3 10.6826 4.18096   3
   4  -1   3 13.4491 4.06667   6
   4  -1   3 4.87074 3.58246   6
  -5   1  -3 9.84388 5.74246   3
  -5   1  -3 1.71940 3.78990   5
  -5   1  -3 12.6975 4.72250   6
  -5   1  -3 4.06621 4.33225   2
  -5   1  -3 4.28365 3.84873   1
  -5   1  -3 5.29692 4.70282   6
   5  -1   3 6.29660 4.37472   6
   5  -1   3 -0.7556 4.33040   1
   5  -1   3 8.25009 3.67779   6
   5  -1   3 7.48358 4.59108   3
  -6   1  -3 1257.03 38.0465   2
  -6   1  -3 1242.90 32.4142   5
  -6   1  -3 1259.01 35.4095   6
  -6   1  -3 1242.93 36.2532   1
  -6   1  -3 1282.96 35.0837   6
  -6   1  -3 1293.10 39.6342   3
   6  -1   3 1285.45 37.4522   1
   6  -1   3 1219.96 35.1539   6
   6  -1   3 1220.98 37.5353   3
  -7   1  -3 41.1054 10.9144   3
  -7   1  -3 43.0190 9.32919   1
  -7   1  -3 32.2377 8.40278   6
  -7   1  -3 30.6216 9.38034   2
  -7   1  -3 46.4563 8.00361   5
  -7   1  -3 26.6918 7.73560   6
   7  -1   3 29.3181 9.42280   1
   7  -1   3 35.5584 8.00195   3
   7  -1   3 35.4392 8.35953   6
   7  -1   3 27.7687 6.63682   6
  -8   1  -3 139.069 17.8993   3
  -8   1  -3 138.404 12.3087   5
  -8   1  -3 123.262 15.4416   2
  -8   1  -3 94.8646 12.4723   6
  -8   1  -3 118.820 14.1287   6
  -8   1  -3 102.147 12.8981   1
   8  -1   3 125.043 14.5290   1
   8  -1   3 154.283 16.5399   3
   8  -1   3 105.248 12.5683   6
  -9   1  -3 128.501 14.8727   6
  -9   1  -3 157.468 13.9179   5
   9  -1   3 153.362 18.6761   1
   9  -1   3 122.744 14.9010   6
   8   0  -3 225.243 20.9228   1
   8   0  -3 208.584 17.3479   4
   8   0  -3 230.696 17.1551   6
  -8   0   3 195.280 19.6248   2
  -8   0   3 236.936 13.7210   5
  -8   0   3 214.742 16.6221   6
  -8   0   3 212.798 16.2452   6
   7   0  -3 13.4586 6.48180   6
   7   0  -3 -4.3632 8.11833   3
   7   0  -3 9.52864 9.07083   1
   7   0  -3 3.91266 5.67175   6
   7   0  -3 5.59908 6.35591   4
   7   0  -3 4.37015 4.50341   5
  -7   0   3 -5.2683 5.17974   6
  -7   0   3 7.98046 5.67199   5
  -7   0   3 6.69096 6.49827   2
  -7   0   3 -0.5798 7.01655   1
  -7   0   3 1.19768 5.44448   6
   6   0  -3 146.274 9.68699   5
   6   0  -3 135.798 12.2988   4
   6   0  -3 140.444 11.4414   6
   6   0  -3 158.453 14.8122   6
   6   0  -3 111.286 13.3013   3
   6   0  -3 166.236 16.0122   1
  -6   0   3 151.903 11.6909   6
  -6   0   3 152.944 10.9673   5
  -6   0   3 144.349 11.8853   2
  -6   0   3 148.354 11.9565   6
   5   0  -3 52.0952 8.33946   4
   5   0  -3 37.7317 8.81920   1
   5   0  -3 48.6303 6.43227   5
   5   0  -3 47.5429 9.36152   3
   5   0  -3 30.4157 5.69265   6
   5   0  -3 29.3791 6.20618   6
  -5   0   3 34.1511 6.16171   6
  -5   0   3 44.3148 6.84750   2
  -5   0   3 51.1215 10.7119   1
  -5   0   3 41.7256 6.95768   6
  -5   0   3 47.3114 6.74424   5
   4   0  -3 339.219 16.5793   1
   4   0  -3 332.774 12.3394   5
   4   0  -3 311.604 15.8905   3
   4   0  -3 297.444 13.0869   6
   4   0  -3 333.572 14.1243   4
   4   0  -3 304.389 13.1006   6
  -4   0   3 317.553 12.4936   2
  -4   0   3 335.278 13.2927   6
  -4   0   3 344.377 13.0928   5
  -4   0   3 311.745 15.5285   1
  -4   0   3 316.802 13.1163   6
   3   0  -3 390.447 13.3267   6
   3   0  -3 394.737 13.9096   4
   3   0  -3 381.122 15.7437   1
   3   0  -3 360.522 12.5308   5
   3   0  -3 375.925 13.2478   6
  -3   0   3 384.416 12.9991   5
  -3   0   3 364.798 12.0389   2
  -3   0   3 392.737 15.5607   1
  -3   0   3 375.173 12.9834   6
  -3   0   3 391.806 13.3202   6
   2   0  -3 1140.74 26.0389   5
   2   0  -3 1139.43 28.2492   1
   2   0  -3 1135.42 25.9841   6
   2   0  -3 1145.10 26.5340   4
   2   0  -3 1177.57 25.9382   6
  -2   0   3 1156.89 25.7823   6
  -2   0   3 1179.08 26.8378   4
  -2   0   3 1177.62 26.3686   5
  -2   0   3 1182.73 25.9554   6
  -2   0   3 1123.33 28.2433   1
   1   0  -3 3937.92 74.7690   1
   1   0  -3 3994.57 73.2302   6
   1   0  -3 3911.16 73.5734   4
   1   0  -3 4018.17 72.9531   6
   1   0  -3 3932.54 73.8575   5
  -1   0   3 3964.86 74.9225   1
  -1   0   3 4001.20 73.0742   6
  -1   0   3 4000.26 70.9530   2
  -1   0   3 3999.64 72.9007   6
  -1   0   3 4036.44 74.0648   4
  -1   0   3 3888.32 73.8206   5
   0   0  -3 137.343 6.10624   6
   0   0  -3 141.849 5.35505   2
   0   0  -3 141.215 5.99649   6
   0   0  -3 135.803 6.43672   4
   0   0  -3 143.783 6.61103   5
   0   0   3 134.542 6.07857   6
   0   0   3 150.847 5.41786   2
   0   0   3 140.785 6.46254   4
   0   0   3 132.837 6.30438   1
   0   0   3 151.066 5.99134   6
  -1   0  -3 38.1740 3.98832   4
  -1   0  -3 33.8901 3.82107   2
  -1   0  -3 23.5696 2.96208   6
  -1   0  -3 34.5102 3.41668   6
  -1   0  -3 41.1449 4.15567   3
   1   0   3 27.9193 3.46334   6
   1   0   3 29.4176 3.75466   2
   1   0   3 35.2186 3.57164   6
   1   0   3 31.4838 3.50489   3
   1   0   3 31.2413 3.43162   4
  -2   0  -3 50.5700 5.34702   2
  -2   0  -3 56.6158 4.66980   6
  -2   0  -3 57.0409 4.44263   6
  -2   0  -3 49.7922 4.89926   3
   2   0   3 48.0241 4.53289   6
   2   0   3 46.0100 4.42064   4
   2   0   3 45.2317 4.07732   6
   2   0   3 52.7412 5.31342   2
   2   0   3 51.8066 4.64309   3
   2   0   3 48.7952 4.33411   1
  -3   0  -3 1210.34 28.2866   6
  -3   0  -3 1223.42 30.0103   2
  -3   0  -3 1213.39 29.5243   3
  -3   0  -3 1218.06 27.7794   6
  -3   0  -3 1215.35 28.5465   1
   3   0   3 1230.50 28.8271   1
   3   0   3 1207.62 27.6320   6
   3   0   3 1193.01 29.8198   2
   3   0   3 1212.00 29.0673   3
   3   0   3 1232.32 28.7132   6
  -4   0  -3 115.488 9.49470   3
  -4   0  -3 118.156 8.23956   6
  -4   0  -3 105.164 9.18114   2
  -4   0  -3 109.932 7.98283   6
  -4   0  -3 126.047 8.42195   1
   4   0   3 108.092 8.67318   1
   4   0   3 123.641 9.47966   2
   4   0   3 116.062 8.59471   6
   4   0   3 126.613 9.02995   3
   4   0   3 116.909 7.67917   6
  -5   0  -3 258.634 12.8317   6
  -5   0  -3 244.366 10.6722   5
  -5   0  -3 256.271 14.7882   3
  -5   0  -3 244.728 13.4231   1
   5   0   3 252.426 13.2127   6
   5   0   3 241.847 13.8511   3
   5   0   3 258.287 14.1606   1
   5   0   3 257.023 12.4318   6
   5   0   3 240.048 14.2396   2
  -6   0  -3 873.757 28.0607   6
  -6   0  -3 919.230 32.1091   3
  -6   0  -3 928.022 27.8835   6
  -6   0  -3 887.706 29.9169   1
  -6   0  -3 918.399 24.2722   5
  -6   0  -3 942.000 31.0565   2
   6   0   3 931.960 31.0322   1
   6   0   3 911.289 28.7336   6
   6   0   3 927.730 30.8343   3
  -7   0  -3 21.2212 12.7975   6
  -7   0  -3 25.7310 7.46584   6
  -7   0  -3 17.8819 9.70640   3
  -7   0  -3 23.1565 5.93794   5
  -7   0  -3 7.19902 6.29078   1
  -7   0  -3 5.98751 7.07182   2
   7   0   3 21.5157 7.44652   6
   7   0   3 11.4694 5.63833   6
   7   0   3 19.1010 8.03539   3
  -8   0  -3 8.59555 7.42732   6
  -8   0  -3 4.31281 7.10462   6
  -8   0  -3 -3.9608 7.68441   2
  -8   0  -3 8.11505 5.50776   5
  -8   0  -3 6.39152 7.64049   1
   8   0   3 10.2195 7.26010   6
   8   0   3 12.5752 9.10087   3
   8   0   3 0.06703 7.68697   1
  -9   0  -3 74.4480 11.0908   6
  -9   0  -3 83.3428 8.53485   5
   9   0   3 66.7716 11.8120   6
   9   0   3 75.7389 14.7733   1
   8  -1  -3 123.320 14.1925   4
   8  -1  -3 91.9899 12.0616   6
   8  -1  -3 88.4003 14.7323   1
  -8   1   3 151.748 13.7157   5
  -8   1   3 107.764 12.5347   6
  -8   1   3 126.956 14.6870   2
  -8   1   3 112.043 17.6284   6
   7  -1  -3 -3.8628 5.89136   4
   7  -1  -3 13.9079 8.39226   1
   7  -1  -3 5.08331 5.30178   6
   7  -1  -3 -0.4224 4.85751   5
   7  -1  -3 -4.9468 6.00169   6
   7  -1  -3 -9.4558 7.50665   3
  -7   1   3 7.08752 6.53255   2
  -7   1   3 -0.7714 5.43777   5
  -7   1   3 -2.4872 5.75161   6
  -7   1   3 -0.6282 5.45325   6
  -7   1   3 4.29614 6.82074   1
   6  -1  -3 109.036 11.4052   4
   6  -1  -3 137.341 10.1784   5
   6  -1  -3 107.120 17.0400   6
  -6   1   3 131.347 10.9019   5
  -6   1   3 110.403 10.9370   2
  -6   1   3 143.946 17.2049   1
  -6   1   3 132.025 11.9895   6
   5  -1  -3 354.330 18.8431   1
   5  -1  -3 341.094 19.1019   3
   5  -1  -3 328.887 15.3839   4
   5  -1  -3 349.552 14.5671   5
   5  -1  -3 342.978 15.7167   6
   5  -1  -3 349.699 15.3007   6
  -5   1   3 342.433 15.7517   6
  -5   1   3 340.652 15.2734   6
  -5   1   3 356.134 18.4907   1
  -5   1   3 354.385 15.1262   5
  -5   1   3 367.589 16.0366   2
   4  -1  -3 721.823 20.5698   5
   4  -1  -3 667.709 23.9471   3
   4  -1  -3 722.667 21.0685   4
   4  -1  -3 694.690 21.2227   6
   4  -1  -3 682.589 21.0372   6
   4  -1  -3 735.667 24.4648   1
  -4   1   3 660.228 23.8403   1
  -4   1   3 697.214 20.7420   5
  -4   1   3 699.330 21.2834   6
  -4   1   3 722.648 21.4298   6
  -4   1   3 686.539 21.2379   2
   3  -1  -3 1295.30 33.9089   1
   3  -1  -3 1312.58 30.7983   5
   3  -1  -3 1302.03 30.9644   6
   3  -1  -3 1366.48 31.1636   6
   3  -1  -3 1320.86 33.9381   3
  -3   1   3 1298.64 34.0425   1
  -3   1   3 1365.81 31.1661   6
  -3   1   3 1312.07 31.0278   6
  -3   1   3 1391.75 31.2517   5
   2  -1  -3 322.285 10.9790   6
   2  -1  -3 327.153 11.0005   6
   2  -1  -3 326.873 10.5798   4
   2  -1  -3 309.832 12.7605   1
   2  -1  -3 323.583 12.6472   3
   2  -1  -3 317.222 11.3826   5
  -2   1   3 319.427 11.4585   5
  -2   1   3 325.589 12.8909   1
  -2   1   3 322.522 11.0344   6
  -2   1   3 318.414 11.0336   6
   1  -1  -3 1347.89 30.4606   1
   1  -1  -3 1306.18 27.8487   6
   1  -1  -3 1337.11 27.4066   4
   1  -1  -3 1313.49 28.5805   5
  -1   1   3 1341.04 28.7373   5
  -1   1   3 1354.55 27.9692   6
  -1   1   3 1305.71 27.3344   4
  -1   1   3 1297.17 30.0620   1
  -1   1   3 1359.18 28.1317   6
   0  -1  -3 845.952 18.7047   6
   0  -1  -3 802.278 18.8856   6
   0  -1  -3 848.438 19.5793   5
   0  -1  -3 842.082 18.6450   4
   0  -1  -3 860.846 19.5706   2
   0   1   3 872.399 19.7302   5
   0   1   3 868.482 18.9199   6
   0   1   3 888.984 19.6032   2
   0   1   3 853.325 18.7813   4
  -1  -1  -3 1022.86 22.1299   5
  -1  -1  -3 1055.24 22.1955   4
  -1  -1  -3 1020.80 21.2778   6
  -1  -1  -3 981.732 21.8310   6
  -1  -1  -3 1052.14 23.4386   2
  -1  -1  -3 1041.19 20.4057   3
   1   1   3 1059.11 22.3957   5
   1   1   3 1043.12 20.4123   3
   1   1   3 1044.89 22.0313   4
   1   1   3 1014.60 21.3004   6
   1   1   3 1005.15 23.1427   2
   1   1   3 1039.01 22.2532   6
  -2  -1  -3 110.151 6.87208   2
  -2  -1  -3 116.360 5.86931   6
  -2  -1  -3 116.702 5.81231   3
  -2  -1  -3 120.812 5.75358   6
   2   1   3 123.399 5.76012   3
   2   1   3 122.982 7.21735   2
   2   1   3 123.746 5.83393   6
   2   1   3 130.527 6.43947   6
   2   1   3 121.618 6.67084   1
  -3  -1  -3 10.2200 3.60508   2
  -3  -1  -3 7.11979 3.56766   3
  -3  -1  -3 6.97578 2.69838   6
  -3  -1  -3 5.57296 2.86934   6
  -3  -1  -3 4.47923 2.86096   1
   3   1   3 3.55939 3.82058   2
   3   1   3 1.18617 4.96350   6
   3   1   3 5.50157 3.60661   1
   3   1   3 10.0226 2.98533   6
   3   1   3 7.75922 3.45751   3
  -4  -1  -3 760.712 23.5640   1
  -4  -1  -3 787.578 23.8804   2
  -4  -1  -3 818.384 21.4894   6
  -4  -1  -3 794.422 23.6329   3
  -4  -1  -3 828.201 22.1246   6
   4   1   3 784.746 22.9496   3
   4   1   3 852.297 24.8910   1
   4   1   3 803.909 21.5377   6
   4   1   3 822.693 24.4560   2
   4   1   3 790.679 22.5953   6
  -5  -1  -3 193.091 10.8081   6
  -5  -1  -3 145.389 9.96905   6
  -5  -1  -3 157.012 12.2855   3
  -5  -1  -3 164.230 7.50084   5
  -5  -1  -3 161.733 11.6222   2
   5   1   3 183.080 12.6622   1
   5   1   3 163.774 11.4017   3
   5   1   3 164.596 10.8536   6
   5   1   3 169.168 11.1355   6
   5   1   3 189.117 12.3911   2
  -6  -1  -3 131.221 12.5058   2
  -6  -1  -3 133.921 7.42635   5
  -6  -1  -3 146.578 10.8505   6
  -6  -1  -3 126.194 11.7625   1
  -6  -1  -3 113.242 10.6411   6
   6   1   3 126.275 11.4643   6
   6   1   3 127.342 12.7811   1
   6   1   3 140.475 10.7287   6
   6   1   3 131.412 12.5694   2
   6   1   3 126.169 11.6489   3
  -7  -1  -3 542.720 21.2734   6
  -7  -1  -3 536.880 24.8653   1
  -7  -1  -3 477.253 29.9984   6
   7   1   3 539.913 22.9942   6
   7   1   3 568.054 22.2179   6
   7   1   3 590.829 26.7365   1
   7   1   3 530.120 24.4421   3
  -8  -1  -3 25.7031 10.5823   2
  -8  -1  -3 26.4483 7.87958   6
  -8  -1  -3 16.6639 10.0410   1
  -8  -1  -3 19.5951 7.50569   6
   8   1   3 29.6328 8.45490   6
   8   1   3 27.5919 7.79691   6
   8   1   3 29.1257 9.51050   3
   8   1   3 43.1002 10.6347   1
  -9  -1  -3 -5.3276 7.29387   6
  -9  -1  -3 -8.0609 8.01382   6
   9   1   3 -8.1639 10.2659   1
   9   1   3 11.0833 8.63963   6
   8  -2  -3 610.730 31.7090   1
   8  -2  -3 591.671 25.7193   4
   8  -2  -3 652.629 27.1234   6
  -8   2   3 608.643 25.3492   5
  -8   2   3 572.644 29.0550   2
   7  -2  -3 21.4210 9.19895   1
   7  -2  -3 25.4354 7.40712   6
   7  -2  -3 7.23405 8.11584   3
   7  -2  -3 43.6831 8.72146   4
   7  -2  -3 24.4481 8.10142   6
  -7   2   3 32.2659 8.06949   6
  -7   2   3 25.7929 8.41736   6
  -7   2   3 23.0438 8.48473   2
  -7   2   3 15.5329 8.88387   1
  -7   2   3 18.4510 7.08197   5
   6  -2  -3 8.07342 5.99926   6
   6  -2  -3 4.69714 5.02708   5
   6  -2  -3 -0.4551 4.98939   4
  -6   2   3 -0.8643 11.1759   6
  -6   2   3 6.25855 5.90766   5
  -6   2   3 3.08044 4.96974   6
  -6   2   3 15.2864 6.61727   2
  -6   2   3 3.95435 5.90276   1
   5  -2  -3 1029.24 27.5677   4
   5  -2  -3 946.248 32.1385   3
   5  -2  -3 1017.79 32.9781   1
   5  -2  -3 947.260 28.5198   6
   5  -2  -3 959.908 31.0618   6
   5  -2  -3 970.117 28.0476   5
  -5   2   3 967.487 28.9208   6
  -5   2   3 965.787 31.9548   1
  -5   2   3 962.547 28.1722   5
  -5   2   3 962.219 28.5938   6
   4  -2  -3 48.4524 6.78576   6
   4  -2  -3 43.3404 5.91557   4
   4  -2  -3 34.0717 6.89711   3
   4  -2  -3 41.1744 7.62340   1
   4  -2  -3 47.1116 6.94906   6
   4  -2  -3 50.7111 6.54069   5
  -4   2   3 50.6967 6.74674   6
  -4   2   3 49.2209 7.55846   6
  -4   2   3 38.9972 7.06807   1
  -4   2   3 41.7914 6.61715   5
   3  -2  -3 472.588 15.4476   6
   3  -2  -3 483.338 17.8329   3
   3  -2  -3 453.436 15.7380   5
   3  -2  -3 478.536 18.3303   1
   3  -2  -3 481.209 15.7147   6
   3  -2  -3 478.478 14.1184   4
  -3   2   3 459.375 17.6787   1
  -3   2   3 459.280 15.5536   6
  -3   2   3 481.998 15.7859   6
  -3   2   3 464.377 16.2929   5
   2  -2  -3 351.623 13.2786   3
   2  -2  -3 339.759 11.7433   6
   2  -2  -3 353.556 15.8102   1
   2  -2  -3 357.090 11.7916   6
   2  -2  -3 350.812 10.4107   4
   2  -2  -3 383.907 13.0312   5
  -2   2   3 364.717 12.2448   6
  -2   2   3 348.043 13.7908   1
  -2   2   3 357.552 13.0187   5
   1  -2  -3 2511.71 49.0981   3
   1  -2  -3 2476.08 48.1439   6
   1  -2  -3 2523.33 48.8297   6
   1  -2  -3 2559.19 50.3061   5
   1  -2  -3 2513.51 46.9909   4
  -1   2   3 2567.69 50.3604   5
  -1   2   3 2546.09 49.0010   6
  -1   2   3 2425.04 51.9443   1
  -1   2   3 2567.86 48.5648   6
   0  -2  -3 5312.87 95.5987   6
   0  -2  -3 5521.83 94.6961   3
   0  -2  -3 5329.44 97.7731   5
   0  -2  -3 5409.64 95.2047   4
   0  -2  -3 5338.04 96.1543   6
   0   2   3 5344.21 96.1470   6
   0   2   3 5332.58 99.0117   2
   0   2   3 5649.10 98.1760   5
   0   2   3 5172.23 96.7259   6
  -1  -2  -3 18.4334 3.68235   2
  -1  -2  -3 30.1623 2.77476   6
  -1  -2  -3 24.1818 2.68771   6
  -1  -2  -3 31.8455 3.47914   5
   1   2   3 27.5007 4.05210   2
   1   2   3 27.1301 3.37096   5
   1   2   3 26.2353 3.01859   6
   1   2   3 34.5886 3.06487   6
  -2  -2  -3 432.773 10.9451   6
  -2  -2  -3 410.208 11.3884   6
  -2  -2  -3 431.285 11.5231   5
   2   2   3 442.509 14.3200   2
   2   2   3 435.457 11.0237   5
   2   2   3 434.548 11.4470   6
   2   2   3 427.444 14.0823   1
   2   2   3 408.023 11.9607   6
  -3  -2  -3 1721.49 34.8549   6
  -3  -2  -3 1664.61 35.3307   6
   3   2   3 1742.83 36.3684   3
   3   2   3 1727.73 39.7025   1
   3   2   3 1718.58 40.0323   2
   3   2   3 1740.19 35.5901   6
   3   2   3 1702.24 36.4267   6
  -4  -2  -3 572.478 16.5109   6
  -4  -2  -3 531.970 16.2823   6
   4   2   3 547.483 17.9270   3
   4   2   3 530.381 16.3148   6
   4   2   3 553.271 17.4607   6
   4   2   3 520.478 18.7757   2
   4   2   3 566.656 20.0441   1
  -5  -2  -3 182.892 10.1698   6
  -5  -2  -3 169.169 11.9546   2
  -5  -2  -3 183.373 10.2321   6
   5   2   3 199.198 10.8184   6
   5   2   3 173.710 12.0947   2
   5   2   3 195.199 11.3512   6
   5   2   3 187.033 13.4827   1
   5   2   3 198.471 12.0092   3
  -6  -2  -3 0.25108 5.64795   2
  -6  -2  -3 -5.1107 4.36257   6
  -6  -2  -3 5.94155 5.88222   1
  -6  -2  -3 2.75489 7.17887   6
   6   2   3 3.58900 5.05958   1
   6   2   3 3.56360 4.34073   6
   6   2   3 12.7149 6.03057   2
   6   2   3 4.48423 4.97151   6
   6   2   3 0.09529 5.22525   3
  -7  -2  -3 505.347 19.3646   6
  -7  -2  -3 477.372 19.4511   6
   7   2   3 469.968 20.3438   6
   7   2   3 487.974 21.5807   6
   7   2   3 528.455 22.8999   2
   7   2   3 490.157 23.7944   3
   7   2   3 512.384 25.3812   1
  -8  -2  -3 99.0143 11.2168   6
  -8  -2  -3 90.9801 14.5221   2
   8   2   3 101.449 14.8734   1
   8   2   3 103.647 11.4606   6
   8   2   3 125.605 16.9926   3
   8   2   3 101.511 12.7427   6
  -9  -2  -3 4.54641 10.0859   6
  -9  -2  -3 26.1357 9.01999   6
   9   2   3 18.5988 9.93984   6
   9   2   3 13.1159 11.0809   1
   8  -3  -3 371.844 20.7673   4
   8  -3  -3 426.254 27.2692   1
   8  -3  -3 456.673 23.8365   6
  -8   3   3 392.183 33.6780   2
  -8   3   3 406.308 22.1420   5
   7  -3  -3 12.9257 6.53813   6
   7  -3  -3 29.4263 10.6570   3
   7  -3  -3 19.4748 9.34714   1
   7  -3  -3 6.82980 6.83345   6
   7  -3  -3 9.07409 6.19707   4
  -7   3   3 26.6562 8.59160   5
  -7   3   3 14.8119 8.61945   2
  -7   3   3 11.9197 7.16486   6
  -7   3   3 25.9143 7.83217   6
  -7   3   3 23.1827 9.49965   1
   6  -3  -3 38.5492 7.04176   6
   6  -3  -3 58.0625 9.36838   6
   6  -3  -3 47.8349 7.27820   4
   6  -3  -3 51.5643 9.38802   3
   6  -3  -3 46.4622 8.34922   5
  -6   3   3 37.7410 8.03287   6
  -6   3   3 39.0513 10.1153   1
  -6   3   3 49.7733 9.07082   5
  -6   3   3 50.2628 9.24643   6
   5  -3  -3 1838.06 46.4262   5
   5  -3  -3 1891.69 50.2422   3
   5  -3  -3 1952.58 46.0730   6
   5  -3  -3 1858.01 45.4601   6
   5  -3  -3 1909.10 42.4790   4
   5  -3  -3 1947.18 51.0881   1
  -5   3   3 1927.42 46.8693   5
  -5   3   3 1872.28 45.9742   6
  -5   3   3 1871.29 49.8447   1
   4  -3  -3 76.2400 9.51801   6
   4  -3  -3 80.6653 9.22058   5
   4  -3  -3 77.6633 10.0297   1
   4  -3  -3 80.3190 8.66481   6
   4  -3  -3 90.8245 12.9743   3
  -4   3   3 92.4008 11.5690   3
  -4   3   3 69.1358 8.26066   6
  -4   3   3 84.4515 9.71194   5
  -4   3   3 69.4446 8.02310   6
  -4   3   3 94.9508 11.0693   1
   3  -3  -3 719.298 17.8346   4
   3  -3  -3 757.067 20.8029   6
   3  -3  -3 741.944 24.2018   1
   3  -3  -3 734.696 20.7783   6
   3  -3  -3 733.795 22.4287   5
   3  -3  -3 748.386 23.3717   3
  -3   3   3 728.785 22.3093   5
  -3   3   3 740.611 23.9166   1
  -3   3   3 751.118 23.7365   3
  -3   3   3 728.266 21.0002   6
  -3   3   3 726.123 21.2349   6
   2  -3  -3 1450.65 34.3314   6
   2  -3  -3 1509.10 31.5848   6
   2  -3  -3 1445.88 34.0629   5
   2  -3  -3 1402.33 33.3850   3
  -2   3   3 1429.63 32.0989   6
  -2   3   3 1398.27 33.7935   5
  -2   3   3 1396.38 33.6143   3
  -2   3   3 1400.96 35.1686   1
  -2   3   3 1466.62 31.9942   6
   1  -3  -3 39.3188 4.59427   3
   1  -3  -3 42.9263 4.62003   6
   1  -3  -3 40.3756 5.26698   5
   1  -3  -3 38.6942 3.83430   6
  -1   3   3 32.3919 5.39482   1
  -1   3   3 47.6386 4.54924   6
  -1   3   3 65.3970 6.02586   3
  -1   3   3 43.9642 4.56294   6
  -1   3   3 49.7187 5.88921   5
   0  -3  -3 6691.36 118.157   6
   0  -3  -3 6750.39 118.309   3
   0  -3  -3 6586.25 119.224   6
   0  -3  -3 6869.17 122.418   5
   0   3   3 6666.29 122.324   5
   0   3   3 6752.49 124.327   2
   0   3   3 6578.60 118.002   4
   0   3   3 6834.96 118.497   3
   0   3   3 6847.13 119.204   6
  -1  -3  -3 59.3398 4.54689   5
  -1  -3  -3 57.6491 6.78715   2
   1   3   3 55.3266 4.70055   5
   1   3   3 59.8297 3.84052   6
   1   3   3 50.5074 3.33952   6
   1   3   3 54.6778 6.28636   2
  -2  -3  -3 52.7593 3.95681   5
  -2  -3  -3 54.1391 6.38552   2
   2   3   3 47.9793 6.05984   2
   2   3   3 43.6128 4.16796   6
   2   3   3 52.1565 4.35178   5
   2   3   3 58.3549 3.99292   6
  -3  -3  -3 5028.74 87.8176   6
  -3  -3  -3 4794.81 88.2636   6
   3   3   3 4960.03 96.4739   1
   3   3   3 4920.61 91.0893   3
   3   3   3 4857.73 90.8035   6
   3   3   3 4907.54 95.1970   2
   3   3   3 4907.70 89.9087   6
  -4  -3  -3 27.7544 5.89520   2
  -4  -3  -3 38.2983 4.30275   6
  -4  -3  -3 37.7006 4.47777   6
   4   3   3 46.2911 5.92656   6
   4   3   3 50.4357 5.70635   6
   4   3   3 41.7459 6.01762   3
   4   3   3 41.4826 7.04899   1
   4   3   3 54.5003 7.52872   2
  -5  -3  -3 54.1802 7.78378   2
  -5  -3  -3 63.6068 7.94854   1
  -5  -3  -3 58.1236 6.20701   6
  -5  -3  -3 71.4673 6.58392   6
   5   3   3 82.2013 8.52909   3
   5   3   3 79.6574 7.80052   6
   5   3   3 62.6175 8.99948   1
   5   3   3 75.0766 8.59042   6
   5   3   3 72.0258 9.09440   2
  -6  -3  -3 425.231 15.2468   6
  -6  -3  -3 402.928 15.2342   6
  -6  -3  -3 400.588 19.2735   2
   6   3   3 423.334 17.3998   6
   6   3   3 395.666 18.9568   2
   6   3   3 410.718 19.0960   3
   6   3   3 395.451 21.0311   1
   6   3   3 436.039 18.5730   6
  -7  -3  -3 631.148 20.5199   6
  -7  -3  -3 508.134 32.3130   1
   7   3   3 592.065 25.8831   3
   7   3   3 586.406 22.7246   6
   7   3   3 625.008 28.4676   1
   7   3   3 601.879 23.9326   6
   7   3   3 589.090 24.7284   2
  -8  -3  -3 533.483 26.0723   2
  -8  -3  -3 533.555 21.1056   6
  -8  -3  -3 496.938 19.9886   6
   8   3   3 504.695 23.4309   6
   8   3   3 575.857 29.5505   3
   8   3   3 490.145 23.4326   6
  -9  -3  -3 22.6607 9.35393   6
   9   3   3 45.3691 12.0532   6
   9   3   3 21.4071 12.5712   1
   8  -4  -3 415.830 21.4112   4
   8  -4  -3 435.131 27.7856   1
  -8   4   3 444.590 24.3470   6
  -8   4   3 450.593 25.0808   5
   7  -4  -3 0.60481 7.15050   6
   7  -4  -3 -8.7515 5.45258   4
   7  -4  -3 7.68076 9.16220   1
   7  -4  -3 -1.2896 6.23215   6
  -7   4   3 1.46752 8.49978   2
  -7   4   3 3.50810 6.93462   5
  -7   4   3 7.52915 6.76270   6
  -7   4   3 8.70662 9.39304   1
   6  -4  -3 174.598 14.5805   5
   6  -4  -3 174.717 11.4229   4
   6  -4  -3 140.095 16.2918   3
   6  -4  -3 173.444 12.6504   6
   6  -4  -3 182.981 14.3946   6
   6  -4  -3 197.282 17.3456   1
  -6   4   3 175.431 16.0452   2
  -6   4   3 161.575 14.7683   5
  -6   4   3 188.346 15.9992   1
  -6   4   3 147.679 13.3228   6
  -6   4   3 171.579 19.2850   6
   5  -4  -3 1948.48 51.8422   1
   5  -4  -3 1613.95 50.4750   3
   5  -4  -3 1968.26 46.7058   6
   5  -4  -3 1922.76 46.0243   6
   5  -4  -3 2024.11 42.1097   4
   5  -4  -3 1912.88 48.6294   5
  -5   4   3 1922.83 47.2533   6
  -5   4   3 1952.67 52.6303   3
  -5   4   3 1977.88 49.3048   5
  -5   4   3 1953.38 51.0571   1
   4  -4  -3 251.819 12.3120   6
   4  -4  -3 249.621 9.82180   4
   4  -4  -3 239.914 15.4121   1
   4  -4  -3 242.810 13.8040   5
   4  -4  -3 222.525 14.3421   3
   4  -4  -3 257.282 13.0692   6
  -4   4   3 247.396 13.1888   6
  -4   4   3 259.636 16.1262   3
  -4   4   3 263.779 14.8269   5
  -4   4   3 278.474 17.3351   1
  -4   4   3 243.814 13.0075   6
   3  -4  -3 390.067 16.4955   3
   3  -4  -3 407.964 14.3320   6
   3  -4  -3 424.350 17.0452   5
   3  -4  -3 407.725 14.6245   6
  -3   4   3 432.631 15.4524   6
  -3   4   3 423.208 17.7300   1
  -3   4   3 407.669 15.2265   6
  -3   4   3 382.560 16.6804   5
  -3   4   3 394.183 17.2449   3
   2  -4  -3 2388.98 48.6369   6
   2  -4  -3 2416.80 52.6095   5
   2  -4  -3 2389.26 51.0699   3
   2  -4  -3 2352.14 47.4167   6
  -2   4   3 2343.02 53.4199   1
  -2   4   3 2430.52 51.5943   3
  -2   4   3 2404.75 48.9729   6
  -2   4   3 2381.67 49.1355   6
  -2   4   3 2364.51 52.0975   5
   1  -4  -3 0.33271 2.52663   6
   1  -4  -3 1.03381 2.10066   6
   1  -4  -3 1.44259 3.10015   5
   1  -4  -3 3.80120 3.06404   3
  -1   4   3 4.34080 2.66223   6
  -1   4   3 0.52926 2.40793   6
  -1   4   3 1.35234 3.00903   3
  -1   4   3 3.78034 3.77583   5
   0  -4  -3 4096.34 78.8283   5
   0  -4  -3 4049.45 74.7281   3
   0   4   3 4126.67 81.2014   2
   0   4   3 4105.96 74.1237   6
   0   4   3 4106.81 79.7836   5
   0   4   3 4029.82 74.7307   3
  -1  -4  -3 1445.02 31.8065   5
   1   4   3 1448.86 27.9028   6
   1   4   3 1450.64 32.0000   5
   1   4   3 1450.23 35.6804   2
   1   4   3 1484.81 28.3103   6
  -2  -4  -3 260.712 9.13508   5
  -2  -4  -3 278.274 12.6835   2
   2   4   3 273.421 9.49867   5
   2   4   3 252.116 8.46440   6
   2   4   3 271.268 7.83897   6
   2   4   3 254.087 12.0884   1
   2   4   3 279.311 13.0114   2
  -3  -4  -3 8194.12 154.193   2
   3   4   3 8479.90 155.892   1
   3   4   3 8239.68 154.336   2
   3   4   3 8213.03 147.990   6
   3   4   3 8340.83 147.108   6
   3   4   3 8215.70 148.947   3
  -4  -4  -3 194.558 12.2638   2
   4   4   3 188.137 12.8289   1
   4   4   3 194.566 11.9426   2
   4   4   3 188.985 8.73573   6
   4   4   3 185.162 10.2851   3
   4   4   3 197.329 9.87234   6
  -5  -4  -3 14.8404 5.75674   2
   5   4   3 15.7623 5.66399   3
   5   4   3 17.0688 7.12904   1
   5   4   3 15.9756 4.65393   6
   5   4   3 20.3822 6.20765   2
   5   4   3 15.0017 5.24041   6
  -6  -4  -3 1511.40 41.7144   2
  -6  -4  -3 1485.81 31.7309   6
  -6  -4  -3 1494.10 32.5593   6
   6   4   3 1503.54 40.9386   2
   6   4   3 1465.90 37.5371   6
   6   4   3 1555.50 39.0672   6
   6   4   3 1468.23 45.1052   1
   6   4   3 1489.81 40.7106   3
  -7  -4  -3 144.807 15.7352   1
  -7  -4  -3 150.950 9.45054   6
  -7  -4  -3 139.430 9.15554   6
   7   4   3 154.437 13.2423   6
   7   4   3 159.236 12.9926   6
   7   4   3 125.595 14.2900   3
   7   4   3 150.320 17.9676   1
   7   4   3 155.404 14.1433   2
  -8  -4  -3 313.576 13.5983   6
  -8  -4  -3 291.261 21.5806   2
   8   4   3 311.327 18.3639   6
   8   4   3 323.221 23.6066   1
   8   4   3 321.232 21.8105   3
   8   4   3 261.452 18.0593   6
   8   4   3 336.798 20.7368   2
   7  -5  -3 4.77431 5.85960   4
   7  -5  -3 13.0423 7.71962   6
   7  -5  -3 25.6504 13.0455   6
   7  -5  -3 11.6678 8.53139   1
  -7   5   3 24.9569 9.83914   1
  -7   5   3 10.3288 8.10090   5
  -7   5   3 11.0709 7.26669   6
   6  -5  -3 72.9840 7.94871   4
   6  -5  -3 48.6413 7.97919   6
   6  -5  -3 56.3545 11.5391   1
   6  -5  -3 68.5234 10.2296   6
   6  -5  -3 67.5796 12.7402   3
  -6   5   3 70.7175 13.1804   3
  -6   5   3 65.6705 9.89998   6
  -6   5   3 59.4934 9.88240   6
  -6   5   3 70.4751 11.8524   1
  -6   5   3 50.0599 10.0409   5
   5  -5  -3 1496.50 43.7478   5
   5  -5  -3 1597.36 47.0273   1
   5  -5  -3 1593.89 40.1554   6
   5  -5  -3 1567.62 40.3786   6
  -5   5   3 1633.90 47.6758   3
  -5   5   3 1633.05 45.3536   1
  -5   5   3 1548.78 42.2013   6
  -5   5   3 1536.36 43.9101   6
  -5   5   3 1645.16 44.6868   5
   4  -5  -3 181.782 11.2441   6
   4  -5  -3 153.528 12.9544   3
   4  -5  -3 175.387 10.5793   6
  -4   5   3 170.433 12.0714   6
  -4   5   3 181.006 14.4068   3
  -4   5   3 172.041 13.1391   1
  -4   5   3 198.297 14.0986   5
  -4   5   3 179.238 11.4062   6
   3  -5  -3 479.325 19.0012   3
   3  -5  -3 473.238 15.9665   6
   3  -5  -3 477.159 15.5844   6
   3  -5  -3 469.540 19.4702   5
  -3   5   3 463.492 19.8420   5
  -3   5   3 452.719 17.5505   6
  -3   5   3 470.142 19.5570   3
  -3   5   3 446.307 16.6445   6
  -3   5   3 481.634 19.7495   1
   2  -5  -3 2323.16 46.5569   6
   2  -5  -3 2269.28 45.0682   6
   2  -5  -3 2273.86 50.1117   3
   2  -5  -3 2335.55 52.6566   5
  -2   5   3 2284.52 47.5334   6
  -2   5   3 2282.78 47.8473   6
  -2   5   3 2207.00 52.5238   1
  -2   5   3 2208.77 51.8943   5
  -2   5   3 2241.40 50.3308   3
   1  -5  -3 813.017 23.9834   5
   1  -5  -3 772.849 20.9957   3
  -1   5   3 783.828 19.4096   6
  -1   5   3 761.041 19.5147   6
  -1   5   3 767.826 23.5927   5
  -1   5   3 777.252 21.4322   3
   0  -5  -3 1158.95 26.4157   3
   0  -5  -3 1142.57 29.3762   5
   0   5   3 1145.27 26.0513   3
   0   5   3 1161.83 31.8032   2
   0   5   3 1129.39 25.0139   6
   0   5   3 1162.36 29.6233   5
   0   5   3 1177.32 24.2976   6
  -1  -5  -3 164.517 9.15936   5
   1   5   3 190.649 11.3834   5
   1   5   3 181.997 7.36791   3
   1   5   3 179.713 11.7580   2
  -2  -5  -3 56.7255 5.61110   5
   2   5   3 58.6387 5.22203   3
   2   5   3 72.8802 7.81980   1
   2   5   3 58.2382 7.86122   2
   2   5   3 58.7037 5.88244   5
  -3  -5  -3 2402.07 53.7177   2
   3   5   3 2352.73 46.0197   5
   3   5   3 2367.19 53.9759   2
   3   5   3 2383.05 45.5534   6
   3   5   3 2360.57 46.3423   6
   3   5   3 2335.90 54.6391   1
  -4  -5  -3 10.8324 5.00132   2
   4   5   3 -2.0974 4.30293   2
   4   5   3 6.42188 5.31723   1
   4   5   3 3.83944 3.72417   3
   4   5   3 1.81691 2.79339   6
   4   5   3 7.19354 3.70903   6
  -5  -5  -3 125.100 11.7352   2
   5   5   3 118.754 10.4707   3
   5   5   3 113.534 8.42349   6
   5   5   3 123.044 13.3155   1
   5   5   3 111.770 11.6880   2
   5   5   3 126.427 9.32580   6
  -6  -5  -3 1381.51 40.3535   2
   6   5   3 1405.80 39.2538   2
   6   5   3 1379.60 36.6538   6
   6   5   3 1365.69 35.5787   6
   6   5   3 1453.06 45.0355   1
   6   5   3 1432.74 39.6550   3
   7   5   3 7.49100 7.45795   3
   7   5   3 2.45074 5.75757   6
   7   5   3 -3.5339 6.73630   1
   7   5   3 -7.8651 5.79937   2
   7   5   3 0.78013 5.89361   6
  -8  -5  -3 185.516 17.8873   2
   8   5   3 171.762 17.8534   3
   8   5   3 123.061 13.0637   6
   8   5   3 166.879 16.5851   2
   8   5   3 152.348 26.9662   1
   8   5   3 119.214 13.5696   6
   7  -6  -3 27.3232 8.03296   6
  -7   6   3 40.0790 11.1197   5
  -7   6   3 50.5408 11.4831   1
   6  -6  -3 33.9656 8.12182   6
   6  -6  -3 33.0144 7.64077   6
   6  -6  -3 44.2969 10.9378   3
  -6   6   3 40.3869 9.60610   1
  -6   6   3 29.0188 9.53563   5
  -6   6   3 31.2491 8.29871   6
  -6   6   3 30.4167 11.2950   3
  -6   6   3 26.8706 9.04878   6
   5  -6  -3 267.563 15.0863   6
   5  -6  -3 272.058 14.3848   6
   5  -6  -3 332.455 20.1965   3
  -5   6   3 274.876 18.5895   5
  -5   6   3 301.804 16.9862   6
  -5   6   3 309.111 20.7233   3
  -5   6   3 306.014 18.6841   1
  -5   6   3 269.267 16.5719   6
   4  -6  -3 41.6830 9.08043   3
   4  -6  -3 27.0132 7.94111   5
   4  -6  -3 37.0171 6.62907   6
   4  -6  -3 43.6352 9.52289   6
  -4   6   3 41.5711 7.56351   6
  -4   6   3 32.9901 6.18701   6
  -4   6   3 33.2028 7.94552   1
  -4   6   3 34.7854 8.19491   5
  -4   6   3 40.3039 9.32395   3
   3  -6  -3 172.813 9.98037   6
   3  -6  -3 160.592 8.59642   6
   3  -6  -3 187.937 12.6938   3
  -3   6   3 156.691 12.9510   3
  -3   6   3 203.237 13.1455   1
  -3   6   3 170.296 10.7232   6
  -3   6   3 151.320 13.5661   5
  -3   6   3 171.413 11.2747   6
   2  -6  -3 1564.39 41.7520   5
   2  -6  -3 1629.56 39.8454   3
   2  -6  -3 1617.41 32.5425   6
   2  -6  -3 1605.91 33.5840   6
  -2   6   3 1691.82 40.7060   3
  -2   6   3 1578.48 36.6007   6
  -2   6   3 1588.20 41.8148   1
  -2   6   3 1662.98 36.9789   6
  -2   6   3 1630.07 42.3162   5
   1  -6  -3 198.941 10.6695   3
  -1   6   3 182.722 8.61246   6
  -1   6   3 190.924 12.2592   5
  -1   6   3 184.699 8.50038   6
  -1   6   3 171.628 10.1585   3
   0  -6  -3 295.720 13.7542   5
   0  -6  -3 277.928 11.8191   3
   0   6   3 279.702 9.64445   6
   0   6   3 271.866 11.2259   3
   0   6   3 265.198 14.9083   2
   0   6   3 279.815 9.13960   6
   0   6   3 276.436 13.7074   5
   1   6   3 438.599 13.7366   3
   1   6   3 440.894 16.5297   5
   1   6   3 432.394 19.0929   2
   2   6   3 197.214 13.7076   2
   2   6   3 196.743 12.1779   1
   2   6   3 218.808 9.44894   3
   2   6   3 198.406 10.4864   5
   3   6   3 1197.71 25.0203   6
   3   6   3 1190.11 34.7084   1
   3   6   3 1200.06 29.0254   3
   3   6   3 1201.59 34.5475   2
   3   6   3 1178.71 27.4721   5
  -4  -6  -3 81.7580 11.6554   2
   4   6   3 78.3658 7.09453   6
   4   6   3 81.0047 10.6349   2
   4   6   3 81.5965 6.34513   6
   4   6   3 88.7842 12.0321   1
  -5  -6  -3 13.4593 6.87414   2
   5   6   3 16.4833 4.84322   6
   5   6   3 18.0030 5.46229   6
   5   6   3 6.09946 11.2713   1
   5   6   3 18.2344 6.62595   3
   5   6   3 3.33727 6.20547   2
  -6  -6  -3 992.228 32.6928   2
   6   6   3 976.006 28.7669   6
   6   6   3 957.576 27.7486   6
   6   6   3 955.109 31.3507   3
   6   6   3 963.781 31.5443   2
   6   6   3 976.350 36.6764   1
   7   6   3 50.3825 9.07554   6
   7   6   3 41.8256 8.57815   6
   7   6   3 80.5780 13.0331   2
   7   6   3 63.3741 11.7394   3
   7   6   3 51.6100 12.1514   1
  -8  -6  -3 28.6954 15.3257   2
   8   6   3 12.9398 8.17672   6
   8   6   3 31.0329 12.6575   6
   8   6   3 41.4418 10.0100   2
   8   6   3 26.8280 10.9865   1
   8   6   3 16.1333 11.7088   3
   6  -7  -3 38.8714 8.67397   6
   6  -7  -3 42.0243 8.75570   6
  -6   7   3 54.1777 13.1054   3
  -6   7   3 28.8576 8.92153   6
  -6   7   3 41.0245 12.0687   1
  -6   7   3 36.9028 11.8198   5
   5  -7  -3 142.127 10.6472   6
   5  -7  -3 152.269 12.6092   6
  -5   7   3 150.412 13.4185   6
  -5   7   3 132.073 15.2483   3
  -5   7   3 140.233 14.7632   1
  -5   7   3 150.327 14.8296   6
  -5   7   3 112.426 13.4055   5
   4  -7  -3 237.505 11.5970   6
   4  -7  -3 239.475 12.6691   6
  -4   7   3 268.007 16.7757   1
  -4   7   3 275.506 17.5686   6
  -4   7   3 247.650 18.5432   5
  -4   7   3 267.654 18.3832   3
  -4   7   3 222.734 14.2035   6
   3  -7  -3 270.084 15.6368   3
   3  -7  -3 256.088 9.98300   6
  -3   7   3 243.022 14.4333   1
  -3   7   3 271.306 13.6595   6
  -3   7   3 246.335 13.5303   6
  -3   7   3 261.497 16.4392   3
   2  -7  -3 -6.0599 4.23823   3
  -2   7   3 -1.0928 3.23621   6
  -2   7   3 -4.3857 5.34471   5
  -2   7   3 -1.7929 5.03372   1
  -2   7   3 4.50706 5.45725   3
  -2   7   3 4.01588 4.07562   6
   1  -7  -3 894.589 26.7027   3
  -1   7   3 918.496 29.4696   5
  -1   7   3 894.117 23.0164   6
  -1   7   3 957.149 27.1438   3
  -1   7   3 961.841 23.5485   6
   0  -7  -3 372.228 15.5783   3
   0   7   3 403.396 19.6870   2
   0   7   3 397.209 12.1126   6
   0   7   3 376.859 14.9731   3
   0   7   3 420.973 12.0681   6
   0   7   3 376.748 17.4798   5
   1   7   3 120.299 9.77083   3
   1   7   3 114.998 7.42095   4
   1   7   3 124.012 10.4099   5
   1   7   3 126.247 12.5851   2
   2   7   3 212.197 11.9211   5
   2   7   3 219.743 13.6740   1
   2   7   3 203.744 11.2371   4
   2   7   3 198.324 14.7020   2
   2   7   3 209.827 10.8375   3
   3   7   3 156.476 13.0201   2
   3   7   3 163.887 10.2938   3
   3   7   3 167.282 10.0765   5
   3   7   3 167.853 13.4081   1
   4   7   3 101.757 12.0817   1
   4   7   3 118.741 12.5712   2
   4   7   3 102.501 6.89485   6
  -5  -7  -3 13.8299 7.42232   2
   5   7   3 17.4099 5.18119   6
   5   7   3 19.3434 7.23120   2
   5   7   3 9.87479 8.21114   1
   5   7   3 19.9877 7.43904   3
   5   7   3 17.9252 5.25083   6
  -6  -7  -3 208.934 16.5947   2
   6   7   3 199.990 15.4964   2
   6   7   3 202.786 18.5371   1
   6   7   3 220.075 13.5444   6
   6   7   3 228.972 15.9140   3
   6   7   3 209.758 12.5093   6
  -7  -7  -3 113.817 14.6086   2
   7   7   3 117.137 11.6091   6
   7   7   3 146.607 15.5796   3
   7   7   3 116.122 12.9856   2
   7   7   3 140.795 12.8441   6
   7   7   3 115.890 14.5791   4
   7   7   3 113.543 14.9817   1
   6  -8  -3 -1.9691 7.32461   6
   6  -8  -3 -12.789 6.93560   6
  -6   8   3 -2.2255 8.33469   1
  -6   8   3 4.06705 11.3355   6
  -6   8   3 13.0402 9.86135   3
  -6   8   3 -2.6078 9.30270   5
   5  -8  -3 122.780 10.9743   6
   5  -8  -3 170.854 17.2580   3
   5  -8  -3 117.721 11.0594   6
  -5   8   3 121.051 16.0220   5
  -5   8   3 165.171 16.5376   1
  -5   8   3 114.929 12.5433   6
  -5   8   3 125.485 12.8188   6
  -5   8   3 132.323 16.5645   3
   4  -8  -3 0.71746 4.06754   6
   4  -8  -3 -0.6657 6.91000   3
  -4   8   3 -5.8885 5.44350   6
  -4   8   3 -3.4725 5.50685   1
  -4   8   3 -9.4685 7.02431   3
  -4   8   3 0.35045 5.66455   6
  -4   8   3 6.36451 7.86921   5
   3  -8  -3 18.6294 6.97550   3
  -3   8   3 21.8988 5.81974   6
  -3   8   3 11.0308 6.73363   3
  -3   8   3 12.1839 5.76139   6
  -3   8   3 13.5145 7.78356   5
  -3   8   3 6.96990 5.81709   1
   2  -8  -3 -0.7852 4.80345   3
  -2   8   3 16.0434 7.91057   1
  -2   8   3 5.63392 6.43627   5
  -2   8   3 3.45150 5.68060   3
  -2   8   3 8.21893 4.85128   6
  -2   8   3 21.7616 4.97108   6
   1  -8  -3 546.853 21.5142   3
  -1   8   3 630.310 25.0663   1
  -1   8   3 594.309 17.9239   6
  -1   8   3 597.642 24.4429   5
  -1   8   3 584.671 17.7216   6
  -1   8   3 590.508 21.7138   3
   0   8   3 663.055 24.9839   5
   0   8   3 636.913 17.2703   6
   0   8   3 674.902 21.9811   3
   0   8   3 690.378 17.9533   6
   0   8   3 680.054 28.2328   2
   1   8   3 96.1989 7.56636   4
   1   8   3 105.975 13.0799   2
   1   8   3 101.808 11.1895   1
   1   8   3 94.9604 10.6364   5
   1   8   3 96.3239 8.55697   3
   2   8   3 109.975 11.1423   1
   2   8   3 96.3005 8.68731   4
   2   8   3 90.8352 12.1066   2
   2   8   3 102.083 10.3864   5
   2   8   3 111.355 9.12302   3
   3   8   3 242.556 13.6701   4
   3   8   3 224.851 12.5959   3
   3   8   3 218.236 15.5691   1
   3   8   3 215.256 16.3639   2
   3   8   3 214.465 12.2066   5
   4   8   3 4.52387 7.26159   2
   4   8   3 3.42132 6.56737   5
   4   8   3 3.73897 5.30933   3
   4   8   3 -1.9904 5.21522   4
   4   8   3 -4.3097 6.15954   1
   5   8   3 49.0799 9.60000   3
   5   8   3 56.6902 9.58692   2
   5   8   3 41.2030 6.11877   6
   5   8   3 24.4465 8.24723   4
   5   8   3 50.7503 6.82590   6
   5   8   3 55.0540 11.5082   1
   5   8   3 73.5736 9.87515   3
   6   8   3 28.5656 11.4631   1
   6   8   3 25.7846 9.92954   2
   6   8   3 41.2740 7.08289   6
   6   8   3 36.4803 9.91895   3
   6   8   3 32.1940 9.31388   4
   6   8   3 48.5827 7.62643   6
  -5   9   3 624.680 27.4564   1
  -5   9   3 647.498 31.0955   3
   4  -9  -3 62.6364 11.9420   3
  -4   9   3 77.4471 10.3735   6
  -4   9   3 65.1193 9.90278   6
  -4   9   3 54.4702 11.0921   3
  -4   9   3 55.4239 9.89781   1
  -4   9   3 61.6434 12.5558   5
   3  -9  -3 289.825 18.8764   3
  -3   9   3 272.025 19.0536   3
  -3   9   3 305.617 23.5569   6
  -3   9   3 263.166 19.6933   5
  -3   9   3 260.391 15.4756   6
  -3   9   3 258.915 17.0446   1
   2  -9  -3 268.186 16.9605   3
  -2   9   3 250.469 13.2348   6
  -2   9   3 247.345 18.3863   5
  -2   9   3 287.549 17.1532   1
  -2   9   3 289.534 14.6324   6
  -2   9   3 266.970 16.8508   3
   1  -9  -3 3.45083 6.33357   3
  -1   9   3 9.58508 6.49905   1
  -1   9   3 3.89224 7.01433   5
  -1   9   3 1.47019 4.03452   6
  -1   9   3 3.68409 8.45203   2
  -1   9   3 7.01682 4.35454   6
  -1   9   3 -3.0871 5.86593   3
   0   9   3 964.514 23.4833   6
   0   9   3 938.193 23.1452   6
   0   9   3 985.085 29.3036   3
   0   9   3 918.479 35.2289   2
   1   9   3 3.40803 4.88301   3
   1   9   3 1.63684 5.96878   5
   1   9   3 5.10165 7.30090   2
   1   9   3 -1.6515 3.80141   4
   1   9   3 2.19090 4.88152   1
   2   9   3 104.649 9.60715   4
   2   9   3 150.084 10.7927   3
   2   9   3 142.734 16.1635   2
   2   9   3 110.815 11.5599   5
   2   9   3 127.764 12.6636   1
   3   9   3 1554.14 55.1954   1
   3   9   3 1476.69 44.9581   2
   3   9   3 1518.10 38.6819   5
   3   9   3 1485.38 37.7732   3
   3   9   3 1432.57 39.1874   4
   4   9   3 46.9097 7.97158   3
   4   9   3 21.1481 8.01245   2
   4   9   3 25.4869 6.19420   5
   4   9   3 36.0663 8.30810   4
   4   9   3 31.3173 9.68969   1
   5   9   3 48.4365 8.58753   3
   5   9   3 57.1361 9.64612   3
   5   9   3 35.5635 9.44356   4
   5   9   3 46.4608 6.52359   6
   5   9   3 33.2988 9.41767   1
  -4  10   3 61.3562 10.9869   1
  -4  10   3 26.2917 10.3128   3
  -4  10   3 21.1887 8.28040   5
  -4  10   3 41.4599 8.94948   6
   3 -10  -3 201.645 28.3802   3
  -3  10   3 161.284 14.0715   6
  -3  10   3 189.290 17.3047   3
  -3  10   3 209.824 19.7042   5
  -3  10   3 196.434 14.9610   6
  -3  10   3 194.842 16.0139   1
   2 -10  -3 704.560 30.4643   3
  -2  10   3 695.037 23.0815   6
  -2  10   3 709.588 24.1292   6
  -2  10   3 701.287 33.0953   3
  -2  10   3 709.625 31.8453   5
  -2  10   3 671.432 26.8496   1
  -1  10   3 67.7441 13.4202   2
  -1  10   3 65.0352 8.38204   6
  -1  10   3 66.4931 11.0147   3
  -1  10   3 70.7985 7.27474   6
  -1  10   3 45.0544 11.1286   5
  -1  10   3 77.8754 11.0239   1
   0  10   3 777.296 21.4223   6
   0  10   3 832.496 34.2703   2
   0  10   3 828.000 32.0688   5
   0  10   3 821.013 21.7730   6
   0  10   3 783.140 27.5948   3
   0  10   3 824.002 28.0784   1
   1  10   3 32.9689 9.65101   2
   1  10   3 50.1023 9.01053   1
   1  10   3 51.0660 9.02207   3
   1  10   3 60.0378 10.3621   5
   2  10   3 5.88370 6.50380   3
   2  10   3 -2.3274 6.52337   5
   2  10   3 2.63960 7.76435   2
   2  10   3 5.79035 5.92605   4
   3  10   3 1454.03 46.3469   2
   3  10   3 1449.17 38.3151   3
   3  10   3 1419.83 39.3471   4
   3  10   3 1493.48 45.1958   1
   3  10   3 1432.58 39.6200   5
   4  10   3 3.85064 6.80768   3
   4  10   3 8.75856 8.01127   1
   4  10   3 -6.2179 7.79408   2
   4  10   3 0.58981 5.71244   5
   4  10   3 5.50748 7.83775   4
   2 -11  -3 686.756 48.6923   3
  -2  11   3 683.799 24.6797   6
  -2  11   3 611.261 43.2484   2
  -2  11   3 661.065 29.2065   3
  -2  11   3 655.182 24.1458   6
  -2  11   3 650.856 31.9557   5
  -2  11   3 664.572 25.8840   1
  -1  11   3 104.335 13.0841   1
  -1  11   3 108.685 14.5016   5
  -1  11   3 113.733 13.7741   3
  -1  11   3 83.7278 11.0744   1
  -1  11   3 83.2287 14.5673   2
  -1  11   3 90.6939 9.39797   6
   0  11   3 372.722 19.3764   1
   0  11   3 397.968 23.1415   5
   0  11   3 399.259 20.3349   3
   0  11   3 340.375 13.5958   6
   0  11   3 366.478 24.4063   2
   1  11   3 166.098 18.5432   2
   1  11   3 165.610 16.0810   5
   1  11   3 141.536 13.3195   3
   1  11   3 140.978 16.9647   1
   2  11   3 3.94711 8.43628   2
   2  11   3 5.58261 7.26424   3
   2  11   3 12.2807 7.40447   1
   2  11   3 10.6982 6.15271   4
   2  11   3 17.2141 9.12508   5
   3   9  -4 363.872 21.0852   4
   3   9  -4 359.841 19.8916   5
   3   9  -4 356.571 14.1152   6
   3   9  -4 333.416 17.1300   1
   3   9  -4 327.185 23.2830   3
   2   9  -4 45.0753 10.4950   4
   2   9  -4 24.3279 9.48489   5
   2   9  -4 32.8993 6.16424   1
   2   9  -4 33.9802 11.2438   3
   1   9  -4 272.126 18.7848   5
   1   9  -4 266.726 19.8121   3
   1   9  -4 254.250 17.5296   4
   1   9  -4 265.331 12.2292   6
   1   9  -4 267.802 11.9074   6
   1   9  -4 276.052 16.1418   2
   0   9  -4 453.655 21.0362   4
   0   9  -4 446.179 25.2639   3
   0   9  -4 420.989 19.6324   2
   0   9  -4 406.238 23.4627   5
   0   9  -4 442.636 16.2720   6
   0   9  -4 428.283 16.0745   6
   0   9  -4 466.480 22.3573   2
  -1   9  -4 216.491 16.3782   2
  -1   9  -4 237.339 18.7106   5
  -1   9  -4 214.234 12.6887   6
  -1   9  -4 238.500 13.6092   6
  -1   9  -4 237.913 20.3635   3
  -1   9  -4 234.230 15.4697   4
  -2   9  -4 9.32286 6.44826   4
  -2   9  -4 10.2581 10.0757   5
  -2   9  -4 0.66172 8.32373   3
  -2   9  -4 10.3657 10.4645   2
  -2   9  -4 -1.0222 5.89122   6
  -2   9  -4 10.5922 6.95877   6
  -3   9  -4 136.303 14.3378   6
  -3   9  -4 70.6205 16.2776   5
  -3   9  -4 131.774 17.0665   3
  -3   9  -4 138.614 13.0807   6
   4   8  -4 9.74317 9.15703   3
   4   8  -4 17.2336 7.18699   5
   4   8  -4 9.09834 5.39931   6
   4   8  -4 13.8211 8.38628   4
   4   8  -4 9.91296 7.29997   1
   4   8  -4 10.8762 6.29743   5
   4   8  -4 10.8458 5.30824   6
   3   8  -4 238.829 15.4137   5
   3   8  -4 221.281 11.2432   6
   3   8  -4 230.576 16.9077   4
   3   8  -4 207.234 11.2580   6
   3   8  -4 242.888 14.6526   1
   3   8  -4 203.797 18.1484   3
   2   8  -4 12.8375 4.10680   6
   2   8  -4 -0.8650 7.25753   5
   2   8  -4 1.34167 4.88262   1
   2   8  -4 1.58932 4.42022   6
   2   8  -4 5.20048 6.21725   4
   2   8  -4 9.73520 7.51513   3
   1   8  -4 318.039 12.5728   6
   1   8  -4 335.951 12.8559   6
   1   8  -4 308.445 11.8094   1
   1   8  -4 348.964 21.4654   3
   1   8  -4 314.478 18.7098   5
   1   8  -4 282.982 17.5028   4
   0   8  -4 551.949 25.3047   5
   0   8  -4 539.425 22.3889   4
   0   8  -4 559.097 17.8904   6
   0   8  -4 555.539 26.7781   3
   0   8  -4 561.756 17.5060   6
  -1   8  -4 46.7347 7.96141   4
  -1   8  -4 44.6259 9.68583   5
  -1   8  -4 63.8139 10.1062   6
  -1   8  -4 50.7554 6.84309   6
  -1   8  -4 34.0529 10.1088   3
  -1   8  -4 50.0764 8.27956   2
  -2   8  -4 1.49336 4.95108   6
  -2   8  -4 4.47654 5.75958   4
  -2   8  -4 11.6831 6.79559   2
  -2   8  -4 0.99898 7.29260   3
  -2   8  -4 0.13721 7.40143   5
  -2   8  -4 23.3285 6.53066   6
   2  -8   4 1.32224 4.79556   4
  -3   8  -4 245.856 19.9838   5
  -3   8  -4 259.938 21.7753   6
  -3   8  -4 271.281 16.0900   6
  -3   8  -4 260.114 21.2555   3
  -3   8  -4 238.945 30.4078   2
   3  -8   4 283.920 13.2814   4
   3  -8   4 239.720 19.8859   3
  -4   8  -4 140.050 16.7763   5
  -4   8  -4 219.890 30.1402   2
  -4   8  -4 192.744 14.8192   6
  -4   8  -4 195.499 15.2330   6
  -4   8  -4 207.710 20.0882   3
  -5   8  -4 136.483 22.4548   3
  -5   8  -4 115.223 15.9889   5
  -5   8  -4 94.9308 11.6375   6
   5   7  -4 5.47141 4.70366   5
   5   7  -4 8.96362 5.74629   6
   5   7  -4 16.1311 6.00602   6
   5   7  -4 7.55680 5.62940   5
   5   7  -4 21.0216 9.33674   4
   5   7  -4 6.59339 7.39847   1
   4   7  -4 13.6741 7.90548   3
   4   7  -4 8.20388 7.71519   4
   4   7  -4 0.34917 5.47173   1
   4   7  -4 20.0319 6.48973   5
   4   7  -4 4.64910 4.80348   6
   3   7  -4 144.109 8.94697   6
   3   7  -4 122.895 13.1571   4
   3   7  -4 135.147 9.36564   6
   3   7  -4 144.446 15.1037   3
   3   7  -4 139.748 11.7775   1
   2   7  -4 69.6855 6.94275   6
   2   7  -4 71.7847 10.7840   4
   2   7  -4 81.9864 8.67170   1
   2   7  -4 59.1458 11.0075   3
   1   7  -4 79.0180 8.37667   2
   1   7  -4 72.9348 6.99616   1
   1   7  -4 76.3647 10.1113   4
   1   7  -4 72.7759 6.68356   6
   1   7  -4 73.1768 6.69502   6
   0   7  -4 143.684 17.3792   3
   0   7  -4 111.584 8.14365   6
   0   7  -4 107.405 7.98746   6
   0   7  -4 139.037 11.7047   4
   0  -7   4 137.751 11.0610   4
  -1   7  -4 331.130 19.9654   5
  -1   7  -4 345.371 13.4179   6
  -1   7  -4 273.148 28.4534   3
  -1   7  -4 337.297 14.0296   6
  -1   7  -4 366.246 16.8914   2
  -1   7  -4 329.405 16.0002   4
   1  -7   4 327.153 15.2994   4
  -2   7  -4 231.658 13.2182   4
  -2   7  -4 242.656 17.9589   5
  -2   7  -4 216.155 14.7032   2
  -2   7  -4 248.932 18.1597   3
  -2   7  -4 250.643 12.9214   6
  -2   7  -4 239.004 12.6392   6
   2  -7   4 221.347 16.9795   3
   2  -7   4 229.773 12.2244   4
  -3   7  -4 29.6133 7.02812   6
  -3   7  -4 33.6243 9.56009   5
  -3   7  -4 44.6645 6.92491   4
  -3   7  -4 34.2873 10.8077   3
  -3   7  -4 25.1743 8.60401   2
  -3   7  -4 40.0450 7.60224   6
   3  -7   4 32.6396 5.96110   4
   3  -7   4 28.0540 10.5237   3
  -4   7  -4 42.3988 11.0749   3
  -4   7  -4 55.1150 9.11691   6
  -4   7  -4 45.0968 9.90409   2
  -4   7  -4 39.5138 10.7934   5
  -4   7  -4 56.7319 9.13196   6
   4  -7   4 45.4654 10.7897   3
   4  -7   4 59.2308 7.73050   4
  -5   7  -4 11.9126 7.43969   6
  -5   7  -4 11.7533 7.58721   6
  -5   7  -4 3.29707 7.58915   5
  -5   7  -4 15.2761 9.42895   3
   5  -7   4 8.89796 5.73036   6
   5  -7   4 19.6619 5.72488   6
   5  -7   4 4.59809 4.98478   4
  -6   7  -4 -0.6901 11.8069   5
  -6   7  -4 21.7105 13.5697   3
  -6   7  -4 1.85556 7.61440   6
   6  -7   4 11.6273 7.44235   6
   6  -7   4 13.5348 7.08051   6
   6   6  -4 216.225 18.6015   1
   6   6  -4 186.470 23.9481   4
   6   6  -4 222.287 14.6727   6
   6   6  -4 208.890 15.5989   6
   5   6  -4 -0.3443 6.50611   4
   5   6  -4 11.8715 7.10083   1
   5   6  -4 -6.4870 4.46382   6
   5   6  -4 1.14212 5.56780   5
   5   6  -4 8.18091 5.10960   6
  -5  -6   4 3.94386 7.71502   1
   4   6  -4 454.880 18.3323   5
   4   6  -4 449.141 22.2293   4
   4   6  -4 425.305 17.1927   6
   4   6  -4 450.539 16.1039   6
   4   6  -4 459.546 21.1549   1
  -4  -6   4 441.242 20.9505   1
   3   6  -4 143.694 21.0969   4
   3   6  -4 152.467 9.60299   6
   3   6  -4 157.159 12.3431   1
   3   6  -4 161.686 9.14326   6
  -3  -6   4 167.370 12.0704   1
   2   6  -4 557.756 16.9273   6
   2   6  -4 538.007 18.9557   1
   2   6  -4 565.429 24.8228   3
   2   6  -4 546.682 15.9938   6
   2   6  -4 525.369 21.6343   4
   1   6  -4 179.111 8.97108   1
   1   6  -4 148.334 11.9712   4
   1   6  -4 168.801 8.57230   6
   1   6  -4 170.172 14.2448   3
   1   6  -4 181.420 10.5129   6
   0   6  -4 115.073 10.7550   4
   0   6  -4 116.716 7.71481   6
   0   6  -4 118.736 12.5267   3
   0   6  -4 110.366 7.31711   6
   0  -6   4 121.525 9.92163   4
  -1   6  -4 912.648 23.6670   6
  -1   6  -4 902.113 26.7673   2
  -1   6  -4 901.098 31.8561   3
  -1   6  -4 915.094 24.2553   6
  -1   6  -4 1022.66 28.3420   4
   1  -6   4 895.516 25.9802   4
  -2   6  -4 8.55284 4.06988   6
  -2   6  -4 16.3423 7.47248   3
  -2   6  -4 11.3518 4.85328   6
  -2   6  -4 11.9906 5.19291   4
  -2   6  -4 10.4733 5.01623   2
   2  -6   4 9.92186 4.28536   4
   2  -6   4 7.74898 5.85294   3
  -3   6  -4 14.3542 6.27584   2
  -3   6  -4 20.7830 5.60646   4
  -3   6  -4 8.58775 5.31526   6
  -3   6  -4 25.5212 7.95486   5
  -3   6  -4 24.4363 5.95210   6
   3  -6   4 11.9076 6.96413   3
   3  -6   4 16.1423 4.98981   4
  -4   6  -4 691.445 29.9358   3
  -4   6  -4 666.627 28.6199   5
  -4   6  -4 614.566 26.3243   2
  -4   6  -4 721.535 24.3868   6
  -4   6  -4 658.057 24.5561   6
   4  -6   4 692.284 21.4045   4
   4  -6   4 671.269 19.7451   6
   4  -6   4 666.000 28.5263   3
   4  -6   4 668.361 19.2792   6
  -5   6  -4 -1.4920 7.01131   5
  -5   6  -4 -0.6675 6.06000   6
  -5   6  -4 22.5041 9.54845   2
  -5   6  -4 2.52971 10.2934   6
  -5   6  -4 -3.6751 8.18872   3
   5  -6   4 1.93366 5.54981   6
   5  -6   4 -2.1332 7.16794   3
   5  -6   4 8.45905 4.99580   4
   5  -6   4 4.91600 5.39522   6
  -6   6  -4 116.348 17.5085   3
  -6   6  -4 89.5869 14.1944   5
  -6   6  -4 87.2167 11.7350   6
  -6   6  -4 117.020 9.26189   1
   6  -6   4 133.636 11.8091   4
   6  -6   4 127.741 12.5553   6
  -7   6  -4 -6.5617 7.75313   5
  -7   6  -4 -1.9426 7.12068   6
  -7   6  -4 -7.2588 5.44131   1
  -7   6  -4 -1.5830 10.1003   3
   7  -6   4 -4.0656 6.87471   4
   7  -6   4 6.30539 8.04138   6
   7  -6   4 -5.2842 7.53523   6
   7   5  -4 270.188 20.9291   4
   7   5  -4 247.141 16.9099   6
   6   5  -4 232.405 15.3764   6
   6   5  -4 180.486 12.9750   6
   6   5  -4 247.319 18.7172   4
   6   5  -4 190.709 18.2619   1
  -6  -5   4 192.959 18.6250   1
   5   5  -4 1.68170 6.59853   4
   5   5  -4 0.06936 5.70109   1
   5   5  -4 -1.6390 4.03309   5
   5   5  -4 -4.5134 4.59561   6
   5   5  -4 -0.9759 4.68358   6
  -5  -5   4 -2.9866 5.92814   1
   4   5  -4 883.351 25.6120   5
   4   5  -4 812.794 29.1598   1
   4   5  -4 877.967 24.0759   6
   4   5  -4 842.567 24.7062   6
   4   5  -4 887.458 30.8001   4
  -4  -5   4 866.806 29.4912   1
   3   5  -4 578.168 21.8269   1
   3   5  -4 612.045 23.3072   4
   3   5  -4 589.772 20.9247   5
   3   5  -4 594.786 17.4731   6
   3   5  -4 588.278 18.7118   6
  -3  -5   4 648.160 23.2791   1
   2   5  -4 268.821 14.6063   4
   2   5  -4 258.996 16.0751   3
   2   5  -4 249.138 12.4803   1
   2   5  -4 249.346 10.9086   6
  -2  -5   4 258.013 12.0306   1
   1   5  -4 122.424 7.12840   6
   1   5  -4 130.072 12.2820   3
   1   5  -4 134.038 10.7849   4
   1   5  -4 120.465 7.53520   1
  -1  -5   4 137.065 11.7032   4
   0   5  -4 126.128 7.60754   6
   0   5  -4 125.904 11.5608   3
   0   5  -4 131.769 7.59550   6
   0   5  -4 118.032 10.0200   4
   0  -5   4 126.141 9.26070   4
  -1   5  -4 2710.22 54.0597   6
  -1   5  -4 2771.01 58.3118   4
  -1   5  -4 2648.09 56.8418   2
  -1   5  -4 2661.74 54.3076   6
  -1   5  -4 2694.11 62.7566   3
   1  -5   4 2628.43 56.6282   4
  -2   5  -4 460.196 18.0581   2
  -2   5  -4 436.959 15.5277   6
  -2   5  -4 462.867 16.0684   6
  -2   5  -4 428.831 20.3856   3
  -2   5  -4 466.008 16.9405   4
   2  -5   4 435.439 15.9914   4
   2  -5   4 442.230 20.0643   3
  -3   5  -4 0.34218 3.87302   4
  -3   5  -4 5.13164 5.01104   2
  -3   5  -4 -1.6246 3.73104   6
  -3   5  -4 8.73955 5.99883   3
  -3   5  -4 -5.7951 3.96875   6
   3  -5   4 -1.5815 3.40659   6
   3  -5   4 9.39052 4.17088   4
   3  -5   4 2.01239 5.21850   3
   3  -5   4 1.13262 3.45643   6
  -4   5  -4 546.006 25.3389   3
  -4   5  -4 538.754 20.6264   6
  -4   5  -4 622.490 25.1200   5
  -4   5  -4 555.831 20.9897   6
  -4   5  -4 548.407 23.3292   2
   4  -5   4 595.233 19.1118   6
   4  -5   4 544.385 17.8635   6
   4  -5   4 541.118 18.9209   4
  -5   5  -4 6.60139 8.25205   3
  -5   5  -4 1.27171 3.58618   1
  -5   5  -4 8.43091 6.08950   6
  -5   5  -4 4.73887 6.99608   5
  -5   5  -4 5.80043 5.83081   6
  -5   5  -4 7.12509 7.61165   2
   5  -5   4 9.82640 7.75899   3
   5  -5   4 -0.9772 4.62675   4
   5  -5   4 -2.4697 4.80669   6
   5  -5   4 1.97373 5.28305   6
   5  -5   4 7.64801 4.99871   1
  -6   5  -4 72.9981 12.0577   5
  -6   5  -4 78.7956 8.86104   1
  -6   5  -4 72.6181 10.8160   6
  -6   5  -4 86.2841 11.2839   6
  -6   5  -4 117.361 15.3258   2
  -6   5  -4 88.5624 14.2859   3
   6  -5   4 88.8384 17.8572   6
   6  -5   4 89.2423 10.6763   6
   6  -5   4 89.4667 10.0383   4
   6  -5   4 88.3548 10.2704   1
   6  -5   4 74.7898 12.8260   3
  -7   5  -4 105.040 14.1892   5
  -7   5  -4 124.098 17.7623   3
  -7   5  -4 154.156 13.4472   1
  -7   5  -4 122.037 14.1152   6
   7  -5   4 127.747 13.7811   6
   7  -5   4 143.780 13.7211   6
   7  -5   4 130.418 12.2384   4
   7  -5   4 140.092 13.9238   1
   7   4  -4 85.2826 14.9704   1
   7   4  -4 151.841 13.9589   6
   7   4  -4 115.036 12.4139   6
   6   4  -4 287.753 19.3302   4
   6   4  -4 304.961 16.5577   6
   6   4  -4 277.360 15.6238   6
   6   4  -4 354.838 22.0423   1
  -6  -4   4 324.644 21.3474   1
   5   4  -4 248.533 12.9403   6
   5   4  -4 223.583 13.0762   6
   5   4  -4 244.028 16.9969   4
   5   4  -4 244.511 11.8018   5
  -5  -4   4 223.830 17.5563   1
   4   4  -4 630.871 19.5320   6
   4   4  -4 627.866 24.0050   1
   4   4  -4 590.964 19.8287   6
   4   4  -4 644.140 24.3228   4
   4   4  -4 626.435 20.1278   5
  -4  -4   4 579.223 23.7168   1
   3   4  -4 2696.88 56.7186   6
   3   4  -4 2724.82 60.9161   1
   3   4  -4 2798.24 58.6519   5
   3   4  -4 2858.84 62.7500   4
   3   4  -4 2788.37 55.6077   6
  -3  -4   4 2716.15 61.3516   1
   2   4  -4 238.042 10.4650   6
   2   4  -4 265.929 13.8128   4
   2   4  -4 261.619 12.1854   1
   2   4  -4 259.712 10.4385   6
  -2  -4   4 239.627 11.7887   1
   1   4  -4 260.609 10.4102   1
   1   4  -4 240.853 9.58285   6
   1   4  -4 251.043 9.69697   6
   1   4  -4 274.179 14.8392   3
   1   4  -4 239.907 12.5685   4
  -1  -4   4 253.595 12.6698   4
  -1  -4   4 257.413 10.0645   1
   0   4  -4 1739.08 40.2916   4
   0   4  -4 1652.68 42.9344   3
   0   4  -4 1688.56 35.7274   6
   0   4  -4 1694.45 35.4825   6
   0   4  -4 1633.41 35.4971   2
   0  -4   4 1738.91 39.6419   4
  -1   4  -4 2286.92 54.1000   3
  -1   4  -4 2296.65 50.5870   4
  -1   4  -4 2359.81 49.1788   2
  -1   4  -4 2354.17 47.5503   6
  -1   4  -4 2454.41 50.3779   6
   1  -4   4 2247.02 53.6430   3
   1  -4   4 2254.16 49.6024   4
  -2   4  -4 130.691 9.57148   2
  -2   4  -4 142.518 9.17711   4
  -2   4  -4 111.831 10.7892   3
  -2   4  -4 129.087 8.41724   6
  -2   4  -4 122.123 8.21679   6
   2  -4   4 122.559 6.79947   6
   2  -4   4 113.073 8.33726   4
   2  -4   4 123.146 6.75756   6
  -3   4  -4 93.0189 10.6817   3
  -3   4  -4 83.2060 11.6524   2
  -3   4  -4 87.2286 8.74150   6
  -3   4  -4 84.6077 8.32989   6
  -3   4  -4 101.136 8.47326   4
   3  -4   4 88.9783 6.86400   6
   3  -4   4 65.8897 8.41109   3
   3  -4   4 93.2089 7.55921   6
   3  -4   4 93.5997 7.91327   4
  -4   4  -4 2510.38 57.3533   6
  -4   4  -4 2556.42 56.5783   6
  -4   4  -4 2621.72 61.0693   5
  -4   4  -4 2585.20 60.6548   2
  -4   4  -4 2586.47 62.7608   3
  -4   4  -4 2535.51 50.4494   1
   4  -4   4 2615.25 55.2602   6
   4  -4   4 2578.42 51.4817   1
   4  -4   4 2533.99 54.5420   4
   4  -4   4 2594.88 54.1865   6
  -5   4  -4 407.635 18.4286   6
  -5   4  -4 369.465 18.0473   6
  -5   4  -4 403.138 14.7413   1
  -5   4  -4 384.117 20.1950   5
  -5   4  -4 423.907 31.8392   3
   5  -4   4 367.799 15.4588   1
   5  -4   4 400.568 16.6473   6
   5  -4   4 366.752 15.7717   4
   5  -4   4 395.702 17.5742   6
  -6   4  -4 330.966 15.3911   1
  -6   4  -4 290.500 25.9098   2
  -6   4  -4 340.877 18.5962   6
  -6   4  -4 312.549 19.9486   5
  -6   4  -4 311.077 20.9203   3
   6  -4   4 327.788 16.5516   1
   6  -4   4 304.721 16.2423   6
   6  -4   4 304.578 15.5454   4
   6  -4   4 360.320 28.4852   6
   6  -4   4 265.589 22.6007   3
  -7   4  -4 226.909 17.7920   5
  -7   4  -4 231.548 16.6981   6
  -7   4  -4 205.343 20.1393   3
  -7   4  -4 233.657 15.5081   1
   7  -4   4 211.666 15.3383   6
   7  -4   4 236.547 16.7747   6
   7  -4   4 234.785 16.5028   1
   7  -4   4 169.916 14.1382   4
  -8   4  -4 13.5009 8.04315   5
  -8   4  -4 25.8884 9.67283   1
  -8   4  -4 9.39555 11.1046   3
  -8   4  -4 18.3221 8.49658   6
   8  -4   4 39.7345 10.3830   1
   8  -4   4 4.26928 8.69149   4
   8  -4   4 18.2661 7.90634   6
   7   3  -4 1.13117 7.58313   1
   7   3  -4 28.7899 7.60344   6
   7   3  -4 8.67579 8.30712   4
   7   3  -4 18.8015 7.33945   6
  -7  -3   4 16.8254 5.49977   6
   6   3  -4 142.656 17.0128   3
   6   3  -4 132.156 15.2054   4
   6   3  -4 145.128 8.59900   5
   6   3  -4 124.537 11.8479   6
   6   3  -4 131.414 11.8817   6
   6   3  -4 95.0967 13.3406   1
  -6  -3   4 130.042 15.9837   1
  -6  -3   4 128.984 8.47376   6
  -6  -3   4 120.660 8.62044   6
   5   3  -4 324.220 15.3002   6
   5   3  -4 388.407 19.4215   4
   5   3  -4 338.134 19.9989   1
   5   3  -4 344.905 13.6310   5
   5   3  -4 363.612 15.7745   6
  -5  -3   4 359.407 12.0025   6
  -5  -3   4 362.878 12.1958   6
   4   3  -4 760.888 21.8514   6
   4   3  -4 706.077 21.2176   5
   4   3  -4 718.243 26.0103   1
   4   3  -4 728.946 25.6474   4
   4   3  -4 745.529 22.3280   6
  -4  -3   4 751.115 26.7041   1
   3   3  -4 1792.92 40.6490   5
   3   3  -4 1848.17 38.9995   6
   3   3  -4 1799.78 43.7556   4
   3   3  -4 1830.49 43.8771   1
   3   3  -4 1717.28 39.4107   6
  -3  -3   4 1736.98 43.2465   1
   2   3  -4 591.412 19.0783   1
   2   3  -4 593.495 19.9512   4
   2   3  -4 591.949 16.3031   6
   2   3  -4 614.966 19.1918   5
   2   3  -4 569.145 16.9483   6
  -2  -3   4 620.043 20.6816   4
  -2  -3   4 604.254 19.0491   1
   1   3  -4 1774.23 40.5344   4
   1   3  -4 1762.28 37.4389   1
   1   3  -4 1794.88 36.9748   6
   1   3  -4 1717.81 36.2682   6
  -1  -3   4 1768.07 37.2757   1
  -1  -3   4 1814.66 41.0589   4
   0   3  -4 3832.12 70.9661   6
   0   3  -4 3738.97 71.1916   6
   0   3  -4 3874.27 75.3432   4
   0   3  -4 3762.01 69.8937   2
   0   3  -4 3697.36 68.4086   1
   0   3  -4 3786.53 77.9650   3
   0  -3   4 3703.54 74.5328   4
   0  -3   4 3752.22 68.4689   1
  -1   3  -4 1741.06 36.3441   6
  -1   3  -4 1661.52 38.7382   4
  -1   3  -4 1721.53 36.1491   6
  -1   3  -4 1757.09 41.9767   3
  -1   3  -4 1704.52 36.9979   2
   1  -3   4 1683.62 38.2868   4
   1  -3   4 1698.73 33.9993   6
   1  -3   4 1700.92 40.9662   3
  -2   3  -4 -0.4486 2.81555   6
  -2   3  -4 4.94327 3.92003   4
  -2   3  -4 -0.5238 3.14709   2
  -2   3  -4 -2.2813 3.62520   3
  -2   3  -4 5.70605 2.83884   6
   2  -3   4 1.91448 2.55856   6
   2  -3   4 4.43202 3.94065   3
   2  -3   4 4.25471 3.47526   4
   2  -3   4 4.43326 2.93237   6
  -3   3  -4 581.509 19.1728   6
  -3   3  -4 608.594 21.1598   2
  -3   3  -4 623.294 22.6855   3
  -3   3  -4 665.816 19.6545   6
   3  -3   4 639.822 19.0321   4
   3  -3   4 659.468 19.0502   6
   3  -3   4 617.698 17.8980   6
   3  -3   4 640.955 15.4874   1
   3  -3   4 619.079 21.9356   3
  -4   3  -4 1713.83 37.6753   1
  -4   3  -4 1694.06 44.6625   2
  -4   3  -4 1757.40 42.4473   6
  -4   3  -4 1779.98 41.7413   6
  -4   3  -4 1757.86 46.2313   3
   4  -3   4 1789.47 40.3490   6
   4  -3   4 1731.40 39.9688   4
   4  -3   4 1773.31 41.1745   6
   4  -3   4 1840.08 38.8238   1
   4  -3   4 1795.89 45.5172   3
  -5   3  -4 803.777 30.1270   3
  -5   3  -4 796.493 26.3396   6
  -5   3  -4 876.805 24.5098   1
  -5   3  -4 845.559 28.0221   5
  -5   3  -4 846.750 27.2838   6
   5  -3   4 910.534 27.1491   6
   5  -3   4 885.266 25.2702   4
   5  -3   4 869.460 25.3071   1
   5  -3   4 825.319 30.0115   3
   5  -3   4 874.762 25.7547   6
  -6   3  -4 103.291 11.5210   6
  -6   3  -4 85.8744 14.1770   3
  -6   3  -4 90.3994 13.8700   6
  -6   3  -4 113.183 12.9925   5
   6  -3   4 69.2481 11.1507   3
   6  -3   4 113.315 11.3476   1
   6  -3   4 86.6673 9.58131   4
   6  -3   4 112.944 12.2872   6
   6  -3   4 81.4396 11.0304   6
  -7   3  -4 653.935 27.6398   6
  -7   3  -4 667.930 30.3405   2
  -7   3  -4 702.668 29.8097   5
  -7   3  -4 696.087 32.1560   3
  -7   3  -4 703.849 27.3035   6
  -7   3  -4 669.065 25.3903   1
   7  -3   4 721.855 27.8188   1
   7  -3   4 676.656 30.2688   3
   7  -3   4 693.504 26.9709   6
   7  -3   4 631.162 25.3826   6
  -8   3  -4 203.749 21.2847   3
  -8   3  -4 125.629 15.2936   1
  -8   3  -4 155.035 15.5097   5
  -8   3  -4 113.866 14.4556   6
   8  -3   4 139.561 14.2594   4
   8  -3   4 108.625 13.4740   6
   8  -3   4 143.877 16.6502   1
   8   2  -4 589.839 33.0925   1
   8   2  -4 690.619 35.6002   6
  -8  -2   4 649.989 23.8332   6
   7   2  -4 9.82506 6.51383   6
   7   2  -4 9.77075 6.85767   6
   7   2  -4 21.1543 4.80433   5
   7   2  -4 0.73722 6.16730   4
   7   2  -4 16.7023 8.28782   1
  -7  -2   4 21.1334 6.56234   6
  -7  -2   4 10.4895 6.47825   6
  -7  -2   4 17.6959 5.95927   2
   6   2  -4 33.5920 8.94912   4
   6   2  -4 32.8731 10.9844   3
   6   2  -4 46.2521 6.13721   5
   6   2  -4 46.8324 10.0599   1
   6   2  -4 31.0989 7.32878   6
   6   2  -4 50.5654 8.06391   6
  -6  -2   4 37.5134 6.79974   6
  -6  -2   4 23.3311 7.28840   1
   5   2  -4 348.569 19.7115   1
   5   2  -4 324.560 15.4480   6
   5   2  -4 321.617 13.1371   5
   5   2  -4 354.792 18.2054   4
   5   2  -4 339.043 15.5989   6
  -5  -2   4 336.741 13.8045   6
  -5  -2   4 345.216 13.6909   6
   4   2  -4 175.656 12.1213   4
   4   2  -4 161.041 12.6179   1
   4   2  -4 169.862 10.0372   6
   4   2  -4 162.737 9.97539   6
   4   2  -4 162.963 9.61595   5
  -4  -2   4 170.078 12.3789   1
  -4  -2   4 171.541 9.08877   6
  -4  -2   4 159.543 8.58366   6
   3   2  -4 1199.42 32.6076   1
   3   2  -4 1245.33 32.2209   4
   3   2  -4 1219.35 28.8319   6
   3   2  -4 1198.16 29.3288   6
   3   2  -4 1203.05 29.4749   5
  -3  -2   4 1208.83 32.8070   1
  -3  -2   4 1218.86 26.8382   6
  -3  -2   4 1170.65 27.1727   6
   2   2  -4 66.6739 7.16136   1
   2   2  -4 75.9410 7.59572   4
   2   2  -4 70.8944 6.17155   6
   2   2  -4 70.4772 6.72634   5
   2   2  -4 69.4871 6.02916   6
  -2  -2   4 67.6534 4.96642   6
  -2  -2   4 64.2099 6.59545   1
  -2  -2   4 72.2881 8.24497   4
  -2  -2   4 64.9598 4.70272   6
   1   2  -4 754.206 19.4373   1
   1   2  -4 782.815 21.4426   4
   1   2  -4 717.178 18.8401   6
   1   2  -4 761.760 18.6360   6
  -1  -2   4 762.849 16.8797   6
  -1  -2   4 753.882 19.4110   1
  -1  -2   4 752.707 17.2017   6
  -1  -2   4 745.417 21.5634   4
   0   2  -4 2909.72 62.1767   4
   0   2  -4 2804.94 55.3498   6
   0   2  -4 2853.29 53.6261   1
   0   2  -4 2830.34 54.8555   6
   0   2  -4 2887.52 53.2082   2
   0   2  -4 2812.35 59.8384   3
   0  -2   4 2864.82 57.9208   4
   0  -2   4 2858.99 53.4350   6
   0  -2   4 2861.07 53.5605   6
  -1   2  -4 47.9614 5.07275   6
  -1   2  -4 34.5174 5.28710   4
  -1   2  -4 35.0647 5.23324   3
  -1   2  -4 42.1060 4.90334   2
  -1   2  -4 43.5909 4.86095   6
   1  -2   4 34.1165 5.22279   4
   1  -2   4 51.0274 4.94258   6
   1  -2   4 40.9137 4.57435   6
   1  -2   4 43.0087 5.97570   3
  -2   2  -4 355.223 13.0077   4
  -2   2  -4 342.033 13.2830   2
  -2   2  -4 354.679 14.4925   3
  -2   2  -4 362.759 12.2695   6
  -2   2  -4 341.697 12.4162   6
   2  -2   4 354.095 8.97187   1
   2  -2   4 335.268 12.3194   4
   2  -2   4 357.022 11.5355   6
   2  -2   4 345.587 14.0175   3
   2  -2   4 342.587 12.0503   6
  -3   2  -4 1097.41 30.6659   3
  -3   2  -4 1116.76 29.8861   2
  -3   2  -4 1105.40 27.5397   6
  -3   2  -4 1101.07 28.0474   6
   3  -2   4 1083.17 26.5701   6
   3  -2   4 1126.37 30.1180   3
   3  -2   4 1097.86 27.5701   6
   3  -2   4 1130.56 25.0358   1
   3  -2   4 1126.73 27.2448   4
  -4   2  -4 1466.95 33.4065   1
  -4   2  -4 1455.75 39.0002   3
  -4   2  -4 1474.42 35.5551   6
  -4   2  -4 1303.91 46.8238   6
   4  -2   4 1495.25 34.7190   4
   4  -2   4 1497.36 35.7077   6
   4  -2   4 1464.10 40.8312   3
   4  -2   4 1456.00 34.3754   1
   4  -2   4 1436.07 34.3545   6
  -5   2  -4 637.853 25.0019   3
  -5   2  -4 628.067 20.5949   1
  -5   2  -4 651.232 22.4620   5
  -5   2  -4 616.912 21.6519   6
  -5   2  -4 621.480 24.6649   6
   5  -2   4 643.419 22.3531   6
   5  -2   4 623.851 20.6636   4
   5  -2   4 585.138 21.0033   1
   5  -2   4 633.369 24.1537   3
   5  -2   4 605.803 20.7765   6
  -6   2  -4 276.060 14.9489   1
  -6   2  -4 294.392 15.8529   5
  -6   2  -4 305.166 19.6288   6
  -6   2  -4 231.407 17.5318   3
   6  -2   4 256.837 14.5358   4
   6  -2   4 249.044 15.4476   1
   6  -2   4 279.761 15.9736   6
   6  -2   4 269.346 17.3062   3
  -7   2  -4 751.551 27.9869   1
  -7   2  -4 765.431 33.2038   3
  -7   2  -4 742.429 31.1077   2
  -7   2  -4 773.333 29.0780   6
  -7   2  -4 787.219 28.5765   6
  -7   2  -4 776.430 27.1242   5
   7  -2   4 737.017 28.2314   6
   7  -2   4 785.193 40.6725   3
   7  -2   4 792.966 29.3946   1
   7  -2   4 759.908 28.9233   6
  -8   2  -4 343.431 25.0917   3
  -8   2  -4 314.076 18.4836   5
   8  -2   4 295.289 19.3304   6
   8  -2   4 327.028 30.3794   4
   8  -2   4 296.730 21.0026   1
   8   1  -4 78.0234 13.6388   1
   8   1  -4 76.7091 13.0798   4
   8   1  -4 79.4847 12.6767   6
  -8  -1   4 109.214 12.4324   2
  -8  -1   4 95.0138 11.7404   6
   7   1  -4 73.2576 7.88659   5
   7   1  -4 61.9207 12.6011   3
   7   1  -4 93.2061 14.4820   1
   7   1  -4 83.6072 11.4226   6
   7   1  -4 71.6158 10.6122   6
   7   1  -4 85.5919 11.6794   4
  -7  -1   4 100.407 13.7959   2
  -7  -1   4 64.6047 8.99750   6
  -7  -1   4 83.2452 17.7982   1
   6   1  -4 246.288 16.4943   4
   6   1  -4 224.637 11.5945   5
   6   1  -4 218.948 14.3618   6
   6   1  -4 215.514 14.1982   6
   6   1  -4 232.590 18.2870   1
   6   1  -4 259.019 19.0350   3
  -6  -1   4 240.909 13.4816   6
  -6  -1   4 240.098 13.4420   6
  -6  -1   4 209.536 17.0532   1
  -6  -1   4 249.734 13.0004   5
  -6  -1   4 262.286 12.8586   2
   5   1  -4 168.558 11.4837   6
   5   1  -4 145.074 10.9357   6
   5   1  -4 157.911 12.8045   4
   5   1  -4 156.349 14.5033   1
   5   1  -4 179.523 10.1581   5
   5   1  -4 166.363 14.9575   3
  -5  -1   4 160.684 10.5777   6
  -5  -1   4 174.880 10.0134   2
  -5  -1   4 166.595 11.1163   6
  -5  -1   4 171.204 14.1450   1
  -5  -1   4 168.984 10.4327   5
   4   1  -4 45.8003 6.46992   5
   4   1  -4 47.5254 6.78427   6
   4   1  -4 38.3401 7.07723   4
   4   1  -4 52.6878 7.15827   6
   4   1  -4 38.1667 7.22948   1
  -4  -1   4 56.9515 6.71659   6
  -4  -1   4 49.3481 6.32115   6
  -4  -1   4 47.0715 6.40469   5
  -4  -1   4 44.0570 7.41747   1
   3   1  -4 242.416 12.0338   4
   3   1  -4 257.183 11.0852   5
   3   1  -4 246.958 10.8690   6
   3   1  -4 230.797 10.6493   6
   3   1  -4 228.514 12.8375   1
  -3  -1   4 217.725 9.73631   6
  -3  -1   4 244.363 12.8617   1
  -3  -1   4 243.472 10.4500   6
   2   1  -4 104.740 7.70379   5
   2   1  -4 104.185 7.69768   4
   2   1  -4 106.164 6.98666   6
   2   1  -4 106.774 8.28946   1
  -2  -1   4 113.444 8.04193   4
  -2  -1   4 113.035 6.41402   6
  -2  -1   4 99.2165 6.52186   6
  -2  -1   4 95.3749 7.60559   1
   1   1  -4 842.957 21.1200   1
   1   1  -4 822.581 20.3455   6
   1   1  -4 838.093 21.6641   5
   1   1  -4 835.010 19.9061   6
  -1  -1   4 814.681 19.5490   6
  -1  -1   4 812.279 20.8518   1
  -1  -1   4 802.711 19.0497   6
  -1  -1   4 799.537 21.7861   4
   0   1  -4 2287.43 46.3905   6
   0   1  -4 2357.99 46.1509   6
   0   1  -4 2389.19 48.4194   4
   0  -1   4 2351.29 45.5312   6
   0  -1   4 2350.64 45.1889   1
   0  -1   4 2376.58 44.0331   2
   0  -1   4 2277.34 45.6738   6
  -1   1  -4 18.1769 3.47250   2
  -1   1  -4 19.6216 4.02185   3
  -1   1  -4 21.1784 3.44183   6
  -1   1  -4 20.5189 3.42882   6
  -1   1  -4 17.3040 3.69505   4
   1  -1   4 24.5709 3.72577   6
   1  -1   4 21.0192 4.00225   4
   1  -1   4 25.0803 3.91319   2
   1  -1   4 33.9475 5.03140   3
   1  -1   4 23.7698 3.45691   6
  -2   1  -4 153.427 7.84715   6
  -2   1  -4 154.881 8.10377   4
  -2   1  -4 157.990 8.97440   3
  -2   1  -4 164.947 9.30179   6
  -2   1  -4 160.356 8.71413   2
   2  -1   4 156.563 8.63845   3
   2  -1   4 158.532 8.74259   2
   2  -1   4 169.147 8.15335   6
   2  -1   4 161.695 6.57811   1
   2  -1   4 158.856 7.92484   4
   2  -1   4 163.582 7.57523   6
  -3   1  -4 1225.44 31.1522   2
  -3   1  -4 1220.09 29.0500   6
  -3   1  -4 1225.96 31.3762   3
  -3   1  -4 1204.01 29.5929   6
   3  -1   4 1243.05 29.7910   6
   3  -1   4 1204.75 28.9199   4
   3  -1   4 1201.78 27.8874   1
   3  -1   4 1251.95 31.5663   2
   3  -1   4 1259.78 28.6529   6
   3  -1   4 1208.38 30.6286   3
  -4   1  -4 8.88944 4.56735   2
  -4   1  -4 9.68877 3.92755   6
  -4   1  -4 7.04316 3.71365   6
  -4   1  -4 2.61278 4.56630   3
  -4   1  -4 9.86620 3.51339   1
   4  -1   4 8.97388 4.09568   1
   4  -1   4 5.55601 3.52810   4
   4  -1   4 9.55527 4.57878   2
   4  -1   4 8.66558 3.74093   6
   4  -1   4 5.58600 4.27044   3
   4  -1   4 9.93236 4.51058   6
  -5   1  -4 98.8905 11.0385   2
  -5   1  -4 73.3817 8.35010   6
  -5   1  -4 86.4300 8.51848   1
  -5   1  -4 84.8123 9.04137   6
  -5   1  -4 82.7021 10.0907   3
  -5   1  -4 84.7093 8.12842   5
   5  -1   4 65.6983 8.90647   3
   5  -1   4 79.6081 9.14620   6
   5  -1   4 88.5008 8.78469   4
   5  -1   4 85.7510 7.92259   6
   5  -1   4 66.9893 8.32491   1
  -6   1  -4 17.7053 6.12984   5
  -6   1  -4 19.2272 6.69041   6
  -6   1  -4 28.6590 6.89296   1
  -6   1  -4 19.6640 9.04088   3
   6  -1   4 6.64911 6.45100   1
   6  -1   4 17.6427 6.03848   4
   6  -1   4 34.9077 8.01741   3
   6  -1   4 27.4331 6.84130   6
  -7   1  -4 532.086 20.3700   5
  -7   1  -4 504.379 24.6075   2
  -7   1  -4 473.702 22.2051   1
  -7   1  -4 538.903 22.4905   6
  -7   1  -4 514.401 26.6699   3
  -7   1  -4 513.690 22.4216   6
   7  -1   4 521.078 24.9909   3
   7  -1   4 447.943 24.1072   6
   7  -1   4 487.195 24.0301   1
   7  -1   4 497.959 22.3191   6
  -8   1  -4 318.486 16.9407   5
  -8   1  -4 329.067 19.7846   6
  -8   1  -4 307.613 20.3395   1
  -8   1  -4 296.883 19.6339   6
  -8   1  -4 321.998 23.4691   3
  -8   1  -4 330.474 25.0710   2
   8  -1   4 307.819 20.8550   1
   8  -1   4 316.686 19.9139   4
   8  -1   4 275.274 18.4803   6
   8  -1   4 309.700 22.6866   3
  -9   1  -4 -4.1540 6.58089   5
  -9   1  -4 0.04976 9.07600   6
   9  -1   4 -11.560 6.89077   6
   9  -1   4 0.85617 9.76485   1
   8   0  -4 51.8842 12.2575   6
  -8   0   4 27.8776 8.85056   6
  -8   0   4 46.6139 8.47965   5
  -8   0   4 22.4419 8.87769   6
   7   0  -4 326.016 18.6635   6
   7   0  -4 321.740 18.7138   6
   7   0  -4 371.814 24.6037   3
   7   0  -4 370.207 20.1024   4
   7   0  -4 349.889 17.1748   5
   7   0  -4 383.527 23.7013   1
  -7   0   4 349.605 16.9411   5
  -7   0   4 389.246 19.2752   2
  -7   0   4 385.043 18.7783   6
  -7   0   4 358.827 18.5169   6
  -7   0   4 365.974 24.4053   1
   6   0  -4 264.550 18.5787   1
   6   0  -4 242.599 16.0454   4
   6   0  -4 218.088 14.2399   6
   6   0  -4 257.906 21.1996   3
   6   0  -4 262.380 13.0914   5
   6   0  -4 254.835 15.1615   6
  -6   0   4 233.090 14.1875   6
  -6   0   4 212.772 13.5422   6
  -6   0   4 255.622 13.9853   5
  -6   0   4 271.272 14.4630   2
   5   0  -4 49.3777 7.54416   6
   5   0  -4 41.3661 8.70907   1
   5   0  -4 50.9697 7.86773   6
   5   0  -4 58.2190 7.20349   5
   5   0  -4 46.9417 7.88285   4
  -5   0   4 55.5876 8.07921   6
  -5   0   4 48.2702 7.25608   6
  -5   0   4 50.1149 7.29766   5
  -5   0   4 62.5676 7.80472   2
   4   0  -4 863.820 23.5034   5
   4   0  -4 856.426 28.3052   1
   4   0  -4 850.511 24.3483   6
   4   0  -4 866.971 25.4557   4
   4   0  -4 841.961 28.6306   3
  -4   0   4 844.882 22.4431   2
  -4   0   4 846.677 23.8352   5
  -4   0   4 850.091 28.1423   1
  -4   0   4 839.556 24.1289   6
  -4   0   4 859.517 24.1977   6
   3   0  -4 10.0120 4.02816   6
   3   0  -4 14.3939 4.52964   4
   3   0  -4 14.1615 3.70628   6
   3   0  -4 12.7012 4.17396   5
   3   0  -4 7.27502 4.55289   1
  -3   0   4 22.9516 4.30723   6
  -3   0   4 16.8195 4.35470   6
  -3   0   4 9.59879 4.66698   1
   2   0  -4 91.2114 7.17348   4
   2   0  -4 86.5789 6.33628   6
   2   0  -4 106.856 8.32835   1
   2   0  -4 108.666 7.53693   5
   2   0  -4 92.7695 6.51973   6
  -2   0   4 112.502 7.39029   4
  -2   0   4 100.088 7.40715   5
  -2   0   4 91.8909 6.61236   6
  -2   0   4 107.468 6.51700   6
  -2   0   4 105.334 8.16946   1
   1   0  -4 33.0133 4.51456   4
   1   0  -4 26.7765 3.88337   6
   1   0  -4 35.7440 5.01047   1
   1   0  -4 32.9005 4.23703   6
   1   0  -4 36.0693 4.94849   5
  -1   0   4 34.7669 3.45169   2
  -1   0   4 25.5506 4.14357   1
  -1   0   4 33.8774 4.26641   6
  -1   0   4 34.8119 4.92876   5
  -1   0   4 42.1061 5.60021   4
  -1   0   4 38.2442 4.54048   6
   0   0  -4 475.749 13.2670   6
   0   0  -4 459.500 14.0147   5
   0   0  -4 486.758 12.2486   2
   0   0  -4 455.587 13.9269   4
   0   0  -4 448.871 13.3682   6
   0   0   4 477.818 12.1290   2
   0   0   4 444.720 13.2943   6
   0   0   4 449.325 13.6047   1
   0   0   4 455.584 13.0572   6
   0   0   4 443.144 13.8243   4
  -1   0  -4 2645.38 51.0217   4
  -1   0  -4 2593.40 49.8892   6
  -1   0  -4 2636.50 50.9406   3
  -1   0  -4 2632.99 50.5148   2
  -1   0  -4 2552.40 50.2545   6
   1   0   4 2552.26 50.2525   6
   1   0   4 2555.73 50.3082   3
   1   0   4 2518.37 50.2498   2
   1   0   4 2508.07 49.3743   6
   1   0   4 2603.73 50.5014   4
  -2   0  -4 1027.97 24.3016   3
  -2   0  -4 1020.77 24.2379   4
  -2   0  -4 986.545 23.2627   6
  -2   0  -4 1014.73 23.9523   6
  -2   0  -4 973.346 24.7647   2
   2   0   4 994.021 23.9813   6
   2   0   4 1029.74 23.2712   1
   2   0   4 1012.84 23.8526   4
   2   0   4 1007.71 23.8106   3
   2   0   4 1006.37 25.0026   2
   2   0   4 1030.77 23.2227   6
  -3   0  -4 118.939 8.39035   3
  -3   0  -4 121.513 7.46751   6
  -3   0  -4 110.073 8.36957   2
  -3   0  -4 97.9547 7.16484   6
   3   0   4 118.340 7.59971   1
   3   0   4 110.072 8.63759   2
   3   0   4 101.189 6.84532   6
   3   0   4 120.939 7.58873   4
   3   0   4 106.166 7.56895   6
   3   0   4 109.516 7.73438   3
  -4   0  -4 379.820 15.8579   3
  -4   0  -4 370.449 14.5675   1
  -4   0  -4 386.788 16.0262   2
  -4   0  -4 389.503 14.9178   6
  -4   0  -4 386.737 14.4605   6
   4   0   4 392.746 15.2818   6
   4   0   4 378.173 16.3379   2
   4   0   4 395.760 15.4787   1
   4   0   4 369.930 13.7727   6
   4   0   4 385.524 15.4766   3
  -5   0  -4 6.29261 4.14651   1
  -5   0  -4 22.7030 5.64741   6
  -5   0  -4 15.4914 6.15852   2
  -5   0  -4 8.37516 4.36137   5
  -5   0  -4 8.45149 5.75994   3
  -5   0  -4 10.8844 4.67761   6
   5   0   4 14.3859 6.12427   3
   5   0   4 10.1976 5.06749   6
   5   0   4 0.09677 5.03361   2
   5   0   4 3.54765 4.27526   1
   5   0   4 5.67447 3.70000   6
  -6   0  -4 5.85775 4.62024   1
  -6   0  -4 7.95680 5.63008   2
  -6   0  -4 8.68968 5.26343   6
  -6   0  -4 16.8516 7.11094   3
  -6   0  -4 3.40707 5.36081   6
  -6   0  -4 12.1357 4.64140   5
   6   0   4 10.5952 6.93250   2
   6   0   4 7.47569 5.91354   1
   6   0   4 15.8184 6.36703   3
   6   0   4 1.56272 5.18783   6
  -7   0  -4 12.9544 6.54629   6
  -7   0  -4 17.3315 5.75046   5
  -7   0  -4 17.8598 6.82272   6
  -7   0  -4 7.35640 6.55889   2
  -7   0  -4 11.8660 9.63094   3
  -7   0  -4 15.3987 6.90443   1
   7   0   4 12.4984 7.39052   3
   7   0   4 16.0032 8.81016   1
   7   0   4 12.3694 5.83930   6
   7   0   4 18.8461 7.63677   6
  -8   0  -4 79.6686 11.7318   6
  -8   0  -4 109.853 14.5822   2
  -8   0  -4 113.480 10.4213   5
  -8   0  -4 105.376 12.3326   6
  -8   0  -4 83.5215 11.9790   1
   8   0   4 105.340 15.3452   1
   8   0   4 85.8492 13.4609   3
   8   0   4 103.857 12.5606   6
  -9   0  -4 64.8232 10.5489   6
  -9   0  -4 58.4687 7.85546   5
   9   0   4 37.1658 11.4482   1
   9   0   4 56.0648 11.7118   6
   8  -1  -4 28.4293 13.7465   6
   8  -1  -4 35.3556 9.83661   4
   8  -1  -4 47.1457 13.6684   1
  -8   1   4 31.8720 8.54449   6
  -8   1   4 37.5273 8.83412   5
  -8   1   4 43.1309 11.6148   2
   7  -1  -4 521.798 23.3407   6
   7  -1  -4 588.115 21.9645   5
   7  -1  -4 530.755 23.7570   6
   7  -1  -4 561.210 29.4565   3
   7  -1  -4 561.906 24.0706   4
   7  -1  -4 570.307 28.9388   1
  -7   1   4 512.066 28.1131   1
  -7   1   4 541.178 21.5435   5
  -7   1   4 538.905 23.0119   6
  -7   1   4 533.580 23.1200   2
   6  -1  -4 353.518 17.8340   4
   6  -1  -4 370.784 18.0271   6
   6  -1  -4 371.383 17.9576   6
   6  -1  -4 347.479 21.5074   1
  -6   1   4 377.498 17.2557   5
  -6   1   4 394.372 18.4435   6
  -6   1   4 355.560 21.5461   1
  -6   1   4 378.764 18.4005   2
   5  -1  -4 179.424 11.3511   5
   5  -1  -4 184.479 14.9772   1
   5  -1  -4 177.268 11.9964   6
   5  -1  -4 202.671 12.5347   4
   5  -1  -4 167.745 11.3588   6
  -5   1   4 158.999 11.2227   6
  -5   1   4 182.649 12.0160   5
  -5   1   4 184.635 11.8162   2
  -5   1   4 160.903 11.7421   6
   4  -1  -4 704.743 22.1639   6
   4  -1  -4 696.335 25.3854   3
   4  -1  -4 706.856 22.0204   6
   4  -1  -4 729.156 21.6145   5
   4  -1  -4 760.434 26.1958   1
   4  -1  -4 748.914 22.2985   4
  -4   1   4 746.619 22.4735   5
  -4   1   4 684.506 21.9183   6
  -4   1   4 713.789 25.4305   1
  -4   1   4 717.190 22.1044   6
   3  -1  -4 1713.92 39.2072   5
   3  -1  -4 1768.57 42.8252   3
   3  -1  -4 1743.01 38.6625   4
   3  -1  -4 1754.36 42.8737   1
   3  -1  -4 1676.98 38.8647   6
   3  -1  -4 1776.03 39.1278   6
  -3   1   4 1742.93 39.2507   6
  -3   1   4 1738.06 42.7360   1
  -3   1   4 1755.71 39.1090   6
  -3   1   4 1818.13 39.9477   5
   2  -1  -4 79.2845 6.13159   4
   2  -1  -4 80.7633 7.99825   1
   2  -1  -4 80.4828 6.71995   5
   2  -1  -4 85.6147 6.22680   6
   2  -1  -4 71.3272 6.14267   6
  -2   1   4 78.4692 6.30898   6
  -2   1   4 71.9812 6.04393   6
  -2   1   4 67.7412 5.87411   4
  -2   1   4 82.2410 7.93939   5
  -2   1   4 67.4403 7.24932   1
   1  -1  -4 57.6303 5.15878   4
   1  -1  -4 58.2506 5.61643   5
   1  -1  -4 60.9630 5.21140   6
   1  -1  -4 64.3093 6.58063   1
   1  -1  -4 64.1868 5.03121   6
  -1   1   4 66.1308 5.29078   6
  -1   1   4 59.5840 5.64603   5
  -1   1   4 61.6533 6.32821   1
  -1   1   4 65.9391 5.33022   6
  -1   1   4 66.4230 5.22879   4
  -1   1   4 66.1958 5.11933   2
   0  -1  -4 381.154 12.1195   5
   0  -1  -4 371.297 11.6246   2
   0  -1  -4 361.609 11.3392   4
   0  -1  -4 349.821 11.3590   6
   0  -1  -4 351.038 11.0311   6
   0   1   4 377.618 12.2471   5
   0   1   4 377.265 11.5727   2
   0   1   4 353.929 11.5518   6
   0   1   4 374.092 11.3987   6
   0   1   4 383.870 11.6174   4
  -1  -1  -4 4033.88 74.9582   5
  -1  -1  -4 4036.46 75.6022   2
  -1  -1  -4 4025.68 74.4672   4
  -1  -1  -4 4039.03 73.7464   6
  -1  -1  -4 4015.46 72.8644   3
  -1  -1  -4 3886.97 74.2736   6
   1   1   4 3958.68 75.0856   5
   1   1   4 3982.89 74.7427   6
   1   1   4 3967.93 73.5994   6
   1   1   4 4035.21 74.1938   4
   1   1   4 4015.19 75.6042   2
  -2  -1  -4 468.372 12.8792   3
  -2  -1  -4 447.975 13.2672   5
  -2  -1  -4 459.173 13.5615   6
  -2  -1  -4 456.916 12.9715   6
  -2  -1  -4 458.145 14.9884   2
   2   1   4 480.070 12.7101   3
   2   1   4 445.889 12.8838   6
   2   1   4 465.105 15.0448   2
   2   1   4 458.668 13.8613   4
   2   1   4 470.102 13.9656   6
  -3  -1  -4 106.024 7.36862   3
  -3  -1  -4 98.4292 6.76572   6
  -3  -1  -4 112.023 8.22224   2
  -3  -1  -4 108.055 6.98396   6
   3   1   4 104.650 6.63788   6
   3   1   4 112.672 8.63379   2
   3   1   4 98.5425 7.22186   6
   3   1   4 104.329 6.97308   3
   3   1   4 106.943 10.0525   1
  -4  -1  -4 2426.68 53.0500   3
  -4  -1  -4 2460.33 53.4152   1
  -4  -1  -4 2423.84 51.5492   6
  -4  -1  -4 2480.84 50.8373   6
   4   1   4 2445.82 54.5688   2
   4   1   4 2443.69 54.0998   1
   4   1   4 2403.04 50.7887   6
   4   1   4 2440.28 52.0702   3
   4   1   4 2453.77 52.2143   6
  -5  -1  -4 15.4525 3.75231   5
  -5  -1  -4 17.0487 5.65429   2
  -5  -1  -4 25.4799 5.35323   6
  -5  -1  -4 22.6531 5.43669   6
  -5  -1  -4 18.5257 6.60949   3
   5   1   4 21.1982 6.58037   1
   5   1   4 11.9657 5.15599   6
   5   1   4 21.0806 6.31537   2
   5   1   4 16.0618 4.87181   6
   5   1   4 17.8273 5.50034   3
  -6  -1  -4 30.1054 6.66935   6
  -6  -1  -4 37.1440 9.00483   3
  -6  -1  -4 31.5498 8.69641   2
  -6  -1  -4 30.9601 5.13069   5
  -6  -1  -4 31.8573 7.33106   1
  -6  -1  -4 33.0493 6.96237   6
   6   1   4 26.6798 6.38335   6
   6   1   4 26.5910 7.15231   2
   6   1   4 22.6233 7.25639   1
   6   1   4 21.3489 6.96817   3
   6   1   4 32.6003 7.64405   6
  -7  -1  -4 205.819 16.7407   2
  -7  -1  -4 211.913 10.1688   5
  -7  -1  -4 198.501 14.2173   6
   7   1   4 204.044 14.1408   6
   7   1   4 211.146 17.1838   1
   7   1   4 205.639 15.7616   3
   7   1   4 224.274 18.0109   2
   7   1   4 209.140 15.6359   6
  -8  -1  -4 41.1001 10.9026   2
  -8  -1  -4 42.6723 10.8412   1
  -8  -1  -4 38.4543 8.86963   6
  -8  -1  -4 18.5468 7.69117   6
   8   1   4 28.8557 9.35881   3
   8   1   4 47.6806 10.7320   6
   8   1   4 29.6618 8.36147   6
   8   1   4 25.5552 10.0448   1
  -9  -1  -4 242.714 18.2757   6
   9   1   4 213.818 18.4844   6
   9   1   4 192.682 20.8320   1
   8  -2  -4 389.992 27.9917   1
   8  -2  -4 422.210 21.9803   4
  -8   2   4 390.415 22.2319   6
  -8   2   4 438.519 25.3788   2
   7  -2  -4 63.1484 13.8431   3
   7  -2  -4 48.9530 10.3120   6
   7  -2  -4 41.2782 11.4319   1
   7  -2  -4 62.9956 9.77730   6
   7  -2  -4 43.5772 7.69202   5
   7  -2  -4 44.8284 9.23869   4
  -7   2   4 45.6487 9.60037   6
  -7   2   4 58.9250 10.4117   5
  -7   2   4 41.4426 9.06268   6
  -7   2   4 37.6795 11.4052   2
  -7   2   4 50.3840 10.1519   1
   6  -2  -4 347.291 21.0332   3
   6  -2  -4 358.118 22.1109   1
   6  -2  -4 348.380 16.9707   5
   6  -2  -4 368.829 18.3215   6
   6  -2  -4 340.929 17.0079   4
  -6   2   4 378.995 21.7635   1
  -6   2   4 349.951 18.2489   6
  -6   2   4 347.152 17.4042   5
  -6   2   4 379.481 18.7729   2
  -6   2   4 318.995 17.4598   6
   5  -2  -4 55.4506 9.78116   3
   5  -2  -4 50.0525 7.95737   6
   5  -2  -4 49.4828 10.2836   1
   5  -2  -4 66.4632 7.88030   4
  -5   2   4 68.2249 9.06202   5
  -5   2   4 63.2358 8.57731   6
  -5   2   4 60.0941 8.56564   6
  -5   2   4 44.5879 7.62688   1
   4  -2  -4 1493.35 37.0478   5
   4  -2  -4 1534.94 35.4945   4
   4  -2  -4 1578.11 41.8592   1
   4  -2  -4 1496.07 36.8434   6
   4  -2  -4 1460.67 40.4169   3
   4  -2  -4 1455.83 36.5732   6
  -4   2   4 1503.36 37.4320   5
  -4   2   4 1525.23 37.0240   6
  -4   2   4 1486.84 41.1123   1
  -4   2   4 1466.81 37.1290   6
   3  -2  -4 2053.21 45.4090   5
   3  -2  -4 2044.93 47.7350   3
   3  -2  -4 1990.36 44.3502   6
   3  -2  -4 2092.53 44.7077   6
   3  -2  -4 2070.90 43.2540   4
   3  -2  -4 2050.76 48.8042   1
  -3   2   4 1991.21 44.8791   6
  -3   2   4 2089.52 45.8140   5
  -3   2   4 1990.90 48.6481   1
  -3   2   4 2060.34 44.6895   6
   2  -2  -4 726.603 19.6149   6
   2  -2  -4 718.806 18.0954   4
   2  -2  -4 743.863 20.8691   5
   2  -2  -4 713.464 19.2824   6
   2  -2  -4 708.444 20.8679   3
   2  -2  -4 709.758 22.7457   1
  -2   2   4 724.373 19.8467   6
  -2   2   4 715.322 19.6797   6
  -2   2   4 745.827 20.9431   5
  -2   2   4 720.443 18.0304   4
  -2   2   4 705.413 22.4825   1
   1  -2  -4 203.199 9.41621   5
   1  -2  -4 220.706 9.15852   3
   1  -2  -4 238.949 8.42585   4
   1  -2  -4 203.833 8.39323   6
   1  -2  -4 217.468 9.19763   6
  -1   2   4 209.592 8.79142   6
  -1   2   4 223.598 9.98012   5
  -1   2   4 227.663 9.31717   6
  -1   2   4 216.783 8.09649   4
  -1   2   4 213.519 11.0401   1
   0  -2  -4 3262.23 63.1168   2
   0  -2  -4 3181.03 61.8680   5
   0  -2  -4 3171.89 59.6466   4
   0  -2  -4 3174.74 60.0666   6
   0  -2  -4 3121.93 60.5751   6
   0   2   4 3213.70 62.6668   2
   0   2   4 3241.59 59.8871   4
   0   2   4 3213.02 60.6596   6
   0   2   4 3262.38 62.2603   5
  -1  -2  -4 2033.79 39.4692   6
  -1  -2  -4 2046.77 40.1122   6
  -1  -2  -4 2027.96 43.2023   2
  -1  -2  -4 2022.20 40.9143   5
   1   2   4 2025.01 39.6987   6
   1   2   4 2048.62 40.3307   4
   1   2   4 2046.01 41.1920   5
   1   2   4 2047.35 41.0136   6
   1   2   4 2078.14 43.2763   2
  -2  -2  -4 204.099 7.90713   5
  -2  -2  -4 186.969 9.65054   2
  -2  -2  -4 208.557 6.92571   3
  -2  -2  -4 197.372 8.02566   6
  -2  -2  -4 215.094 7.71780   6
   2   2   4 174.358 7.73578   5
   2   2   4 212.520 8.62517   6
   2   2   4 196.016 7.78151   6
   2   2   4 213.435 10.3047   2
  -3  -2  -4 218.532 9.14181   6
  -3  -2  -4 207.731 9.07486   3
  -3  -2  -4 218.688 8.69789   6
  -3  -2  -4 207.399 7.87951   5
   3   2   4 216.528 11.2207   1
   3   2   4 221.255 10.1251   6
   3   2   4 204.266 8.76991   6
   3   2   4 206.066 11.0861   2
   3   2   4 213.960 8.81046   3
  -4  -2  -4 2726.56 57.4417   6
  -4  -2  -4 2803.07 53.4117   5
  -4  -2  -4 2828.99 61.8051   2
  -4  -2  -4 2995.96 67.0530   3
  -4  -2  -4 2878.77 56.7897   6
   4   2   4 2881.43 61.9070   2
   4   2   4 2869.22 58.6035   3
   4   2   4 2922.17 59.2456   6
   4   2   4 2828.47 62.3479   1
   4   2   4 2810.99 57.4198   6
  -5  -2  -4 963.398 30.1279   1
  -5  -2  -4 970.792 25.7938   6
  -5  -2  -4 953.965 33.6553   2
  -5  -2  -4 939.161 26.2821   6
   5   2   4 1051.82 31.6558   1
   5   2   4 998.935 28.3390   3
   5   2   4 1020.43 28.5508   6
   5   2   4 1053.70 30.8921   2
   5   2   4 1021.35 29.4944   6
  -6  -2  -4 62.2829 7.77725   6
  -6  -2  -4 52.3759 7.49576   6
  -6  -2  -4 44.2425 8.21534   2
  -6  -2  -4 44.8484 8.38072   1
   6   2   4 68.8877 8.41260   6
   6   2   4 64.0367 10.0332   2
   6   2   4 40.4413 7.55275   6
   6   2   4 68.0612 10.1333   3
   6   2   4 75.4641 11.4897   1
  -7  -2  -4 198.605 19.5791   2
  -7  -2  -4 213.997 14.1047   6
  -7  -2  -4 223.603 17.4081   1
  -7  -2  -4 228.179 13.8811   6
   7   2   4 218.555 15.2461   6
   7   2   4 193.888 15.1241   3
   7   2   4 233.766 14.8804   6
   7   2   4 212.202 17.4673   1
  -8  -2  -4 55.1315 11.8549   2
  -8  -2  -4 87.1906 14.4496   6
  -8  -2  -4 72.9448 9.57042   6
  -8  -2  -4 34.3174 10.2188   1
   8   2   4 53.2536 9.94422   6
   8   2   4 64.3101 12.1226   1
   8   2   4 69.8431 11.4511   6
  -9  -2  -4 175.020 15.9375   6
  -9  -2  -4 191.900 17.7054   6
   9   2   4 147.399 21.4660   1
   9   2   4 128.877 15.9419   6
   8  -3  -4 644.989 26.7689   4
   8  -3  -4 650.585 38.4275   1
  -8   3   4 675.544 34.1695   6
  -8   3   4 660.952 40.3836   2
  -8   3   4 667.098 28.0150   5
   7  -3  -4 38.2404 12.8617   6
   7  -3  -4 23.0422 7.41772   5
   7  -3  -4 17.4977 8.94628   1
   7  -3  -4 28.9815 7.20330   4
   7  -3  -4 16.7632 6.87448   6
  -7   3   4 18.2553 8.64426   1
  -7   3   4 11.0182 7.20413   6
  -7   3   4 20.1136 9.55984   2
  -7   3   4 20.7459 7.53417   6
   6  -3  -4 365.595 21.6616   3
   6  -3  -4 347.685 17.8481   6
   6  -3  -4 323.262 17.4033   5
   6  -3  -4 366.248 22.3494   1
   6  -3  -4 312.348 15.8469   4
   6  -3  -4 349.718 18.2628   6
  -6   3   4 333.462 17.9236   5
  -6   3   4 331.974 18.1415   6
  -6   3   4 306.364 17.4685   6
  -6   3   4 367.040 21.2867   1
   5  -3  -4 703.844 27.7033   3
   5  -3  -4 704.263 23.9433   6
   5  -3  -4 714.558 25.2189   5
   5  -3  -4 793.791 25.3691   6
   5  -3  -4 747.665 29.2274   1
   5  -3  -4 736.234 22.4903   4
  -5   3   4 696.342 25.4050   5
  -5   3   4 732.845 24.9890   6
  -5   3   4 756.990 28.6959   1
   4  -3  -4 371.089 15.5859   6
   4  -3  -4 412.767 16.5512   6
   4  -3  -4 415.038 19.6727   1
   4  -3  -4 399.648 19.1967   5
   4  -3  -4 408.907 14.3739   4
   4  -3  -4 413.088 18.8315   3
  -4   3   4 402.573 16.6770   6
  -4   3   4 404.100 16.5550   6
  -4   3   4 410.606 17.6809   5
  -4   3   4 401.241 19.3913   1
   3  -3  -4 3962.65 73.6413   4
   3  -3  -4 3917.08 82.8869   1
   3  -3  -4 3839.84 76.7704   6
   3  -3  -4 3932.07 77.2309   6
   3  -3  -4 3943.67 79.5396   5
   3  -3  -4 3831.54 80.0644   3
  -3   3   4 3956.07 77.6894   6
  -3   3   4 3825.31 82.1963   1
  -3   3   4 3870.46 78.0493   6
  -3   3   4 4028.95 79.8850   5
   2  -3  -4 334.122 10.3072   4
   2  -3  -4 332.799 13.3217   3
   2  -3  -4 341.346 12.6080   6
   2  -3  -4 335.071 12.0136   6
   2  -3  -4 345.221 13.8290   5
  -2   3   4 322.555 14.8855   1
  -2   3   4 342.531 12.7766   6
  -2   3   4 320.207 13.8060   5
  -2   3   4 325.998 12.4125   6
   1  -3  -4 559.850 13.4409   4
   1  -3  -4 558.336 15.0862   6
   1  -3  -4 600.980 15.9972   3
   1  -3  -4 537.152 17.2843   5
  -1   3   4 563.969 19.6960   1
  -1   3   4 576.359 15.9299   6
  -1   3   4 601.172 18.1356   5
  -1   3   4 562.907 13.7084   4
  -1   3   4 559.149 16.3039   6
   0  -3  -4 7692.80 136.322   6
   0  -3  -4 7599.55 134.518   3
   0  -3  -4 7739.12 139.534   5
   0  -3  -4 7682.64 135.799   6
   0   3   4 7518.97 141.164   2
   0   3   4 7628.36 135.428   4
   0   3   4 7859.51 139.739   5
   0   3   4 7656.97 136.932   6
  -1  -3  -4 3058.28 63.3165   2
  -1  -3  -4 3100.80 57.1167   6
  -1  -3  -4 3166.20 60.1930   5
  -1  -3  -4 3130.72 56.9368   6
   1   3   4 3168.63 59.0626   4
   1   3   4 3074.70 58.0147   6
   1   3   4 3103.18 63.7747   2
   1   3   4 3093.61 58.9324   6
   1   3   4 3182.48 60.4142   5
  -2  -3  -4 306.744 8.74626   6
  -2  -3  -4 310.993 9.13590   6
  -2  -3  -4 274.072 12.7243   2
  -2  -3  -4 331.963 10.1537   5
   2   3   4 325.922 13.6094   2
   2   3   4 300.589 10.5671   6
   2   3   4 296.658 9.57330   6
   2   3   4 306.074 10.2924   5
  -3  -3  -4 1693.09 33.1075   5
  -3  -3  -4 1727.62 33.9889   6
  -3  -3  -4 1598.02 39.7401   2
  -3  -3  -4 1699.00 34.7063   6
   3   3   4 1699.64 34.6622   3
   3   3   4 1760.92 37.3084   6
   3   3   4 1691.57 40.6241   1
   3   3   4 1679.71 35.4072   6
   3   3   4 1701.48 40.5243   2
  -4  -3  -4 2279.80 44.2150   6
  -4  -3  -4 2148.29 44.7519   6
  -4  -3  -4 2113.92 50.4562   2
   4   3   4 2180.39 45.7418   6
   4   3   4 2214.49 50.6845   2
   4   3   4 2154.72 46.2216   3
   4   3   4 2218.77 47.2511   6
   4   3   4 2224.89 52.1507   1
  -5  -3  -4 736.404 20.9494   6
  -5  -3  -4 749.167 26.3724   2
  -5  -3  -4 762.503 20.6218   6
   5   3   4 744.364 23.3579   6
   5   3   4 784.731 26.0299   2
   5   3   4 768.761 23.4471   3
   5   3   4 739.894 22.6848   6
   5   3   4 768.408 27.1595   1
  -6  -3  -4 232.244 11.9193   6
  -6  -3  -4 239.827 11.8207   6
  -6  -3  -4 259.403 16.1054   2
   6   3   4 217.705 12.8213   6
   6   3   4 233.284 17.1054   1
   6   3   4 254.914 16.1366   2
   6   3   4 213.696 13.9404   6
   6   3   4 226.528 14.2254   3
  -7  -3  -4 1080.63 30.3469   6
  -7  -3  -4 1130.09 29.8830   6
   7   3   4 1063.72 39.6973   2
   7   3   4 1029.69 32.1616   6
   7   3   4 1110.45 34.0710   6
   7   3   4 1086.33 38.5352   1
   7   3   4 1074.58 35.1063   3
  -8  -3  -4 398.438 26.7257   2
  -8  -3  -4 377.932 17.9267   6
  -8  -3  -4 388.506 18.1930   6
   8   3   4 401.259 26.5538   3
   8   3   4 405.926 22.8391   2
   8   3   4 367.947 24.1012   1
   8   3   4 378.749 20.5235   6
   8   3   4 362.837 19.9156   6
  -9  -3  -4 342.103 19.7809   6
  -9  -3  -4 372.851 24.0539   6
   9   3   4 368.746 24.2414   6
   9   3   4 348.166 25.4689   1
   8  -4  -4 397.652 22.8886   6
   8  -4  -4 452.411 21.4778   4
  -8   4   4 471.671 25.1748   5
   7  -4  -4 34.0568 8.80938   6
   7  -4  -4 40.1694 12.2676   5
   7  -4  -4 43.3249 8.48908   4
   7  -4  -4 36.9426 10.7452   1
  -7   4   4 46.8821 11.2115   2
  -7   4   4 37.2785 9.58424   5
  -7   4   4 44.5040 12.6356   1
  -7   4   4 29.7891 8.76947   6
   6  -4  -4 17.0916 6.35134   6
   6  -4  -4 27.9245 9.82959   1
   6  -4  -4 29.0586 7.10504   4
   6  -4  -4 24.1183 14.0052   3
   6  -4  -4 28.7237 8.28615   6
   6  -4  -4 14.7839 6.98978   5
  -6   4   4 17.0122 6.80147   6
  -6   4   4 22.6592 9.18938   1
  -6   4   4 33.1734 8.59140   2
  -6   4   4 42.8579 9.20585   6
  -6   4   4 29.7892 10.0499   5
   5  -4  -4 654.227 28.3336   1
   5  -4  -4 647.338 23.5010   6
   5  -4  -4 631.265 24.7000   5
   5  -4  -4 693.681 20.3040   4
  -5   4   4 744.058 28.5511   1
  -5   4   4 700.869 26.3036   5
  -5   4   4 698.008 25.3691   6
   4  -4  -4 108.067 8.99786   6
   4  -4  -4 109.331 12.2115   3
   4  -4  -4 96.3185 9.44019   6
   4  -4  -4 97.2479 7.12605   4
   4  -4  -4 96.2348 10.5287   5
   4  -4  -4 90.8454 12.1183   1
  -4   4   4 101.391 9.14891   6
  -4   4   4 114.498 11.5890   5
  -4   4   4 105.354 11.2923   1
  -4   4   4 97.6512 9.48623   6
   3  -4  -4 1450.07 40.8756   5
   3  -4  -4 1413.91 33.7413   6
   3  -4  -4 1411.77 36.9506   3
   3  -4  -4 1432.66 34.3653   6
  -3   4   4 1462.78 35.5774   6
  -3   4   4 1470.54 37.6398   5
  -3   4   4 1426.26 37.6076   3
  -3   4   4 1385.56 38.8548   1
  -3   4   4 1425.33 34.7766   6
   2  -4  -4 192.168 8.86197   6
   2  -4  -4 185.798 10.9840   5
   2  -4  -4 194.763 10.3975   3
   2  -4  -4 188.064 9.62883   6
  -2   4   4 194.700 9.66022   6
  -2   4   4 194.112 10.8228   3
  -2   4   4 179.307 9.51772   6
  -2   4   4 191.226 12.2673   1
  -2   4   4 199.863 11.4759   5
   1  -4  -4 1700.50 39.3187   5
   1  -4  -4 1684.34 35.8156   6
   1  -4  -4 1722.10 34.5936   6
   1  -4  -4 1698.03 36.2766   3
  -1   4   4 1667.42 36.4928   6
  -1   4   4 1768.90 39.8392   5
  -1   4   4 1600.50 41.7170   1
  -1   4   4 1699.82 36.4270   3
   0  -4  -4 4540.42 83.4559   3
   0  -4  -4 4575.92 82.6428   6
   0  -4  -4 4602.45 82.5396   6
   0  -4  -4 4555.14 88.5791   5
   0   4   4 4634.63 82.9671   4
   0   4   4 4601.85 86.0736   6
   0   4   4 4690.44 83.5267   3
   0   4   4 4596.16 91.3988   2
   0   4   4 4758.95 88.9159   5
   0   4   4 4692.15 84.8975   6
  -1  -4  -4 924.181 23.1001   5
   1   4   4 924.544 26.6406   2
   1   4   4 950.544 23.5444   5
   1   4   4 910.079 20.2527   6
   1   4   4 922.625 20.8563   6
  -2  -4  -4 388.925 15.8178   2
  -2  -4  -4 389.788 12.2193   5
   2   4   4 377.345 12.0729   6
   2   4   4 411.855 11.2503   6
   2   4   4 399.031 16.3159   2
   2   4   4 377.961 12.4104   5
  -3  -4  -4 1474.99 30.0101   5
  -3  -4  -4 1539.14 38.0466   2
   3   4   4 1510.49 38.2512   1
   3   4   4 1481.36 31.5078   6
   3   4   4 1506.71 31.1017   3
   3   4   4 1480.08 32.6741   6
   3   4   4 1404.19 37.3172   2
   3   4   4 1495.91 30.6538   5
  -4  -4  -4 1656.05 42.4479   2
   4   4   4 1707.98 42.5269   2
   4   4   4 1661.75 43.8080   1
   4   4   4 1686.92 37.9025   6
   4   4   4 1717.46 37.5041   3
   4   4   4 1665.13 36.5279   6
  -5  -4  -4 672.333 17.5796   6
  -5  -4  -4 694.169 17.0422   6
  -5  -4  -4 687.414 25.1061   2
   5   4   4 667.530 20.4886   6
   5   4   4 656.739 26.1304   1
   5   4   4 729.145 25.4419   2
   5   4   4 693.133 22.0388   3
   5   4   4 704.391 21.9840   6
  -6  -4  -4 197.288 12.8288   6
  -6  -4  -4 226.946 15.2487   2
  -6  -4  -4 215.434 10.2202   6
   6   4   4 204.320 13.0767   6
   6   4   4 222.910 17.4761   1
   6   4   4 208.680 14.7910   2
   6   4   4 214.709 12.7895   6
   6   4   4 218.485 14.2642   3
  -7  -4  -4 535.043 17.3147   6
  -7  -4  -4 521.962 17.7112   6
  -7  -4  -4 478.659 31.5435   2
   7   4   4 532.203 23.6586   3
   7   4   4 536.984 35.9021   2
   7   4   4 534.988 22.4798   6
   7   4   4 577.057 27.9952   1
   7   4   4 555.782 22.0577   6
  -8  -4  -4 454.398 16.7455   6
  -8  -4  -4 408.002 17.5445   6
  -8  -4  -4 390.642 26.8532   2
   8   4   4 454.571 21.5968   6
   8   4   4 439.086 23.6462   2
   8   4   4 510.893 26.1278   3
   8   4   4 373.658 21.2306   6
   8   4   4 444.017 26.6601   1
   7  -5  -4 17.1433 6.67478   4
   7  -5  -4 3.79195 8.09478   1
   7  -5  -4 4.08212 7.50536   6
  -7   5   4 -4.3002 7.32793   6
  -7   5   4 13.3326 8.67360   5
   6  -5  -4 3.69101 7.78160   1
   6  -5  -4 -9.9819 5.83390   5
   6  -5  -4 -0.1062 6.25268   6
   6  -5  -4 -3.4052 5.31140   6
   6  -5  -4 -3.8930 4.38349   4
   6  -5  -4 5.23582 8.09551   3
  -6   5   4 -0.8212 5.42999   6
  -6   5   4 -4.6686 5.98067   6
  -6   5   4 -6.6568 6.65510   1
  -6   5   4 0.27208 6.15323   5
   5  -5  -4 1007.31 30.1748   6
   5  -5  -4 967.053 42.4377   3
   5  -5  -4 1022.50 36.5005   1
   5  -5  -4 948.668 32.9432   5
  -5   5   4 961.792 30.8558   6
  -5   5   4 995.426 31.9146   6
  -5   5   4 1007.14 36.1971   5
  -5   5   4 1011.72 35.3853   1
  -5   5   4 1045.20 41.4348   3
   4  -5  -4 90.1977 8.64664   6
   4  -5  -4 109.603 12.9612   3
   4  -5  -4 101.033 9.65464   6
   4  -5  -4 77.7836 8.96640   5
  -4   5   4 97.0052 11.6281   3
  -4   5   4 85.0840 11.3777   5
  -4   5   4 97.7705 12.1617   1
  -4   5   4 81.9097 9.48519   6
  -4   5   4 102.044 10.2602   6
   3  -5  -4 429.708 18.3366   3
   3  -5  -4 452.249 15.5310   6
   3  -5  -4 455.385 16.3429   6
   3  -5  -4 446.351 18.9398   5
  -3   5   4 446.449 17.0929   6
  -3   5   4 420.883 19.0772   5
  -3   5   4 450.817 19.2758   3
  -3   5   4 460.798 17.2012   6
  -3   5   4 480.645 22.4170   1
   2  -5  -4 19.1050 4.43716   6
   2  -5  -4 23.7186 4.12988   6
   2  -5  -4 23.2583 5.47207   3
  -2   5   4 27.4190 4.97750   6
  -2   5   4 31.0716 6.77225   1
  -2   5   4 31.1983 5.13897   6
  -2   5   4 24.2898 5.61846   3
  -2   5   4 25.4107 6.22767   5
   1  -5  -4 120.533 5.68758   6
   1  -5  -4 125.062 7.83690   3
   1  -5  -4 113.517 6.17381   6
   1  -5  -4 130.417 9.54676   5
  -1   5   4 134.516 7.73754   6
  -1   5   4 117.599 7.30229   6
  -1   5   4 135.157 10.1821   5
  -1   5   4 129.818 8.28302   3
   0  -5  -4 2614.60 50.7543   3
   0  -5  -4 2575.07 55.6790   5
   0   5   4 2660.32 56.0836   5
   0   5   4 2657.02 50.9555   6
   0   5   4 2591.91 51.9688   6
   0   5   4 2648.88 58.9094   2
   0   5   4 2629.67 50.6446   3
  -1  -5  -4 231.177 10.8013   5
   1   5   4 232.997 8.08867   6
   1   5   4 218.042 10.8442   5
   1   5   4 232.390 13.4677   2
   1   5   4 237.299 8.25125   6
  -2  -5  -4 262.651 13.6840   2
  -2  -5  -4 260.953 10.6543   5
   2   5   4 248.953 9.24018   6
   2   5   4 254.302 8.30159   6
   2   5   4 264.505 14.3614   2
   2   5   4 264.502 10.9627   5
  -3  -5  -4 1168.20 26.1402   5
  -3  -5  -4 1198.91 33.5206   2
   3   5   4 1231.98 26.9337   5
   3   5   4 1199.12 33.9965   2
   3   5   4 1166.67 27.3374   6
   3   5   4 1208.74 26.2744   6
   3   5   4 1231.29 34.1723   1
  -4  -5  -4 40.6766 7.79534   2
   4   5   4 55.0556 6.32903   3
   4   5   4 41.9465 6.04594   6
   4   5   4 56.6820 9.23594   1
   4   5   4 44.9653 5.49075   6
   4   5   4 29.9047 6.44434   2
  -5  -5  -4 288.749 16.5192   2
   5   5   4 261.996 13.3700   3
   5   5   4 275.408 13.3914   6
   5   5   4 278.210 17.9313   1
   5   5   4 293.676 16.3367   2
   5   5   4 290.495 12.4970   6
  -6  -5  -4 93.0803 10.6750   2
   6   5   4 92.1246 11.5710   2
   6   5   4 99.0782 9.68575   6
   6   5   4 105.999 13.2896   1
   6   5   4 99.1648 10.4747   6
   6   5   4 94.8052 10.8490   3
  -7  -5  -4 425.069 23.4475   2
   7   5   4 451.010 25.4776   1
   7   5   4 427.702 19.7137   6
   7   5   4 454.050 20.7113   6
   7   5   4 434.270 25.8515   2
   7   5   4 472.558 22.0265   3
  -8  -5  -4 463.780 26.4082   2
   8   5   4 450.244 25.0542   3
   8   5   4 460.488 22.3359   6
   8   5   4 423.308 22.0280   6
   8   5   4 416.007 23.0299   2
   8   5   4 471.777 32.3335   1
   7  -6  -4 174.628 15.8813   6
  -7   6   4 167.966 16.4226   5
   6  -6  -4 242.372 20.3126   3
   6  -6  -4 274.643 16.6808   6
  -6   6   4 245.704 20.1573   1
  -6   6   4 261.386 19.0363   5
  -6   6   4 262.278 17.5682   6
   5  -6  -4 13.6196 7.94140   5
   5  -6  -4 22.7661 6.60335   6
   5  -6  -4 14.0191 7.08859   3
  -5   6   4 16.7496 8.72516   1
  -5   6   4 24.8168 8.66507   5
  -5   6   4 15.8696 6.97774   6
  -5   6   4 35.0630 8.53245   6
  -5   6   4 15.2810 8.85906   3
   4  -6  -4 39.0772 6.19405   6
   4  -6  -4 40.1783 8.39513   3
   4  -6  -4 52.3260 7.39643   6
   4  -6  -4 48.0071 9.88866   5
  -4   6   4 44.7566 9.09773   3
  -4   6   4 53.5667 8.29234   6
  -4   6   4 55.4826 8.58216   6
  -4   6   4 46.3978 8.72926   1
  -4   6   4 38.2633 14.3195   5
   3  -6  -4 183.046 10.6478   6
   3  -6  -4 178.465 13.1221   3
   3  -6  -4 188.464 9.72806   6
  -3   6   4 166.419 13.7978   5
  -3   6   4 194.155 11.5751   6
  -3   6   4 196.800 11.9583   6
  -3   6   4 172.248 13.4315   3
  -3   6   4 193.143 14.0837   1
   2  -6  -4 86.8820 8.55808   3
   2  -6  -4 64.0191 8.26744   5
   2  -6  -4 88.6279 6.15231   6
   2  -6  -4 90.8352 7.04804   6
  -2   6   4 102.476 10.6140   1
  -2   6   4 95.6779 9.77128   3
  -2   6   4 93.1082 11.0555   5
  -2   6   4 99.6475 8.11339   6
  -2   6   4 81.5739 7.89238   6
   1  -6  -4 18.8560 4.50861   5
   1  -6  -4 22.8693 4.89702   3
  -1   6   4 25.9106 5.75031   3
  -1   6   4 21.4515 6.33759   5
  -1   6   4 24.8146 4.15787   6
  -1   6   4 32.7627 5.19153   6
   0  -6  -4 809.266 24.8868   5
   0  -6  -4 830.356 21.2004   3
   0   6   4 792.523 20.4969   3
   0   6   4 794.380 24.8327   5
   0   6   4 825.965 27.5900   2
   0   6   4 805.128 19.8008   6
   0   6   4 799.142 20.4634   6
  -1  -6  -4 594.201 19.7142   5
   1   6   4 604.798 20.2095   5
   1   6   4 599.915 15.1724   6
   1   6   4 588.786 15.2901   3
   1   6   4 599.743 23.0635   2
   1   6   4 588.996 14.9260   6
  -2  -6  -4 364.389 13.7269   5
   2   6   4 362.181 11.2206   6
   2   6   4 368.548 14.1826   5
   2   6   4 354.717 10.3183   6
   2   6   4 370.554 18.3538   2
   3   6   4 859.001 20.7862   3
   3   6   4 835.180 21.6722   5
   3   6   4 822.305 20.7975   6
   3   6   4 839.751 28.0311   1
   3   6   4 808.450 19.5207   6
   3   6   4 846.472 28.6339   2
  -4  -6  -4 137.113 11.9097   2
   4   6   4 140.714 8.04555   6
   4   6   4 128.629 8.39625   6
   4   6   4 137.726 12.5226   2
   4   6   4 131.926 9.03887   3
   4   6   4 134.675 13.0623   1
  -5  -6  -4 8.21151 5.72647   2
   5   6   4 4.55047 4.91656   3
   5   6   4 2.11061 4.04447   6
   5   6   4 -3.6506 5.93664   2
   5   6   4 3.43655 4.44672   6
   5   6   4 -9.6135 5.53035   1
  -6  -6  -4 73.1507 12.7605   2
   6   6   4 100.567 9.46690   6
   6   6   4 102.123 10.4857   6
   6   6   4 84.1984 10.4860   3
   6   6   4 85.1867 13.1780   1
   6   6   4 71.8475 10.7664   2
  -7  -6  -4 53.2184 11.6738   2
   7   6   4 50.4888 10.4375   2
   7   6   4 56.1655 9.16153   6
   7   6   4 60.2990 10.1087   3
   7   6   4 73.8136 14.1187   1
   7   6   4 56.0527 8.71690   6
  -8  -6  -4 234.759 21.6797   2
   8   6   4 223.956 18.4516   2
   8   6   4 195.916 15.9134   6
   8   6   4 220.858 22.4265   1
   6  -7  -4 14.3682 7.23553   6
   6  -7  -4 9.85229 9.29598   6
  -6   7   4 47.0747 11.4424   3
  -6   7   4 22.2060 11.0766   1
  -6   7   4 36.9697 10.3021   5
  -6   7   4 27.8673 7.31501   6
   5  -7  -4 7.47278 5.60878   6
   5  -7  -4 4.27659 5.40536   6
   5  -7  -4 31.2856 14.0149   3
  -5   7   4 7.94164 8.23925   5
  -5   7   4 14.5211 7.34457   6
  -5   7   4 12.3229 8.28160   3
  -5   7   4 12.2230 8.34854   1
  -5   7   4 4.88910 6.36042   6
   4  -7  -4 902.890 29.6205   6
   4  -7  -4 1011.03 28.1052   6
   4  -7  -4 949.420 38.8041   5
  -4   7   4 935.307 30.0978   6
  -4   7   4 1006.72 30.8981   6
  -4   7   4 1014.37 34.5702   3
  -4   7   4 929.847 34.2714   5
  -4   7   4 1036.01 34.5751   1
   3  -7  -4 201.639 13.8280   3
   3  -7  -4 195.146 9.40680   6
  -3   7   4 168.797 11.9050   6
  -3   7   4 183.284 17.1945   5
  -3   7   4 189.434 14.3092   3
  -3   7   4 182.948 11.7660   6
  -3   7   4 193.745 14.6194   1
   2  -7  -4 181.348 11.9700   3
  -2   7   4 182.550 13.7621   5
  -2   7   4 166.049 15.4976   6
  -2   7   4 158.439 10.5840   6
  -2   7   4 180.127 13.8922   1
  -2   7   4 160.279 11.9692   3
   1  -7  -4 80.4521 7.59653   3
   1  -7  -4 87.6329 10.9956   5
  -1   7   4 72.6191 7.22300   6
  -1   7   4 60.1005 6.30195   6
  -1   7   4 70.3658 8.65806   3
  -1   7   4 55.7774 8.38781   5
   0  -7  -4 34.9435 5.82697   3
   0  -7  -4 36.6692 6.96793   5
   0   7   4 38.3339 5.03318   6
   0   7   4 39.9102 8.84777   2
   0   7   4 41.5465 7.96639   5
   0   7   4 48.7168 6.40126   3
  -1  -7  -4 137.530 10.3606   5
   1   7   4 126.414 11.0252   5
   1   7   4 124.583 6.54738   6
   1   7   4 126.680 7.70614   3
   1   7   4 125.063 6.96041   6
   1   7   4 125.455 12.5255   2
   2   7   4 94.9162 6.07074   6
   2   7   4 100.495 10.5447   1
   2   7   4 98.1248 12.4156   2
   2   7   4 96.5066 9.29768   5
   3   7   4 263.852 10.7029   3
   3   7   4 249.260 16.8328   2
   3   7   4 258.867 16.2026   1
   3   7   4 233.420 8.87099   6
   3   7   4 261.420 12.1319   5
   3   7   4 226.640 9.58156   6
   4   7   4 1286.34 29.2661   6
   4   7   4 1316.99 40.5466   1
   4   7   4 1311.95 31.8886   3
   4   7   4 1318.14 39.4006   2
   4   7   4 1312.46 32.1475   3
   4   7   4 1243.55 30.1045   6
   4   7   4 1309.51 29.1096   5
  -5  -7  -4 171.320 14.7261   2
   5   7   4 173.228 16.5106   1
   5   7   4 171.121 10.2408   6
   5   7   4 182.463 10.8468   6
   5   7   4 170.438 14.4697   2
   5   7   4 180.088 12.3526   3
   6   7   4 -2.9991 5.89518   3
   6   7   4 6.42440 5.44221   6
   6   7   4 1.66527 8.81853   2
   6   7   4 6.36554 8.55226   1
   6   7   4 -2.3429 5.14803   6
  -7  -7  -4 38.8421 11.4120   2
   7   7   4 21.6714 10.1547   1
   7   7   4 20.2890 7.70173   6
   7   7   4 21.1153 7.34105   6
   7   7   4 17.0940 8.94203   2
   7   7   4 17.3169 9.63180   3
   6  -8  -4 226.309 16.3029   6
   6  -8  -4 163.821 14.2374   6
  -6   8   4 205.464 19.4659   5
  -6   8   4 201.121 21.0614   1
  -6   8   4 209.592 18.0449   6
  -6   8   4 202.357 20.7800   3
   5  -8  -4 19.4370 10.5726   3
   5  -8  -4 25.7729 7.06866   6
   5  -8  -4 30.2593 7.04934   6
  -5   8   4 26.3334 8.34685   6
  -5   8   4 30.4257 10.1925   1
  -5   8   4 47.5836 10.7958   3
  -5   8   4 23.7795 8.89326   5
   4  -8  -4 203.673 16.2679   3
   4  -8  -4 201.560 10.6772   6
  -4   8   4 199.842 16.7097   3
  -4   8   4 200.832 14.8542   6
  -4   8   4 189.325 16.5833   1
  -4   8   4 195.504 14.3909   6
  -4   8   4 195.168 17.3313   5
   3  -8  -4 639.899 25.0935   3
  -3   8   4 641.426 22.9219   6
  -3   8   4 593.352 26.7211   5
  -3   8   4 636.728 25.9544   3
  -3   8   4 628.440 22.8110   6
  -3   8   4 679.989 26.8664   1
  -2   8   4 50.3311 6.93674   6
  -2   8   4 57.4987 7.30693   6
  -2   8   4 57.9910 10.2312   1
  -2   8   4 46.3202 8.58316   3
  -2   8   4 42.6568 8.89633   5
   1  -8  -4 121.446 10.7172   3
  -1   8   4 129.236 13.3113   1
  -1   8   4 143.144 9.18715   6
  -1   8   4 136.645 10.8456   3
  -1   8   4 143.533 9.30038   6
  -1   8   4 153.152 14.2297   5
   0   8   4 905.003 30.0708   5
   0   8   4 952.975 26.0107   3
   0   8   4 924.336 23.1026   6
   0   8   4 918.000 33.3854   2
   0   8   4 903.597 22.8233   6
   1   8   4 681.364 24.1531   5
   1   8   4 623.448 17.3042   6
   1   8   4 633.577 27.1739   2
   2   8   4 306.620 13.4762   4
   2   8   4 307.067 19.4628   2
   2   8   4 306.975 12.4597   3
   2   8   4 342.227 16.1700   5
   2   8   4 296.628 16.6472   1
   3   8   4 194.201 14.6193   1
   3   8   4 192.752 16.0888   2
   3   8   4 198.248 11.7467   5
   4   8   4 564.753 18.9889   3
   4   8   4 572.047 16.5801   6
   4   8   4 605.533 25.9163   2
   4   8   4 566.329 26.2190   1
   4   8   4 559.390 17.1360   6
   5   8   4 232.500 13.8107   3
   5   8   4 212.066 11.9902   6
   5   8   4 226.990 17.2965   2
   5   8   4 199.865 18.2021   1
   5   8   4 205.494 11.1265   6
   5   8   4 233.513 13.8567   3
   6   8   4 6.00944 7.68941   3
   6   8   4 20.5678 8.93154   2
   6   8   4 18.5256 6.39598   6
   6   8   4 2.21190 7.68264   1
   6   8   4 20.2984 6.84395   6
   5  -9  -4 398.338 15.9639   6
   5  -9  -4 346.328 15.7750   6
  -5   9   4 395.318 25.1311   3
  -5   9   4 378.575 25.8582   5
  -5   9   4 374.357 23.6734   1
   4  -9  -4 66.2845 15.1373   3
  -4   9   4 121.373 14.7762   1
  -4   9   4 62.0117 11.6959   5
  -4   9   4 80.1403 12.5506   3
  -4   9   4 84.1105 10.6704   6
  -4   9   4 68.1298 9.94115   6
  -3   9   4 1045.75 40.5827   3
  -3   9   4 1019.31 37.5692   5
  -3   9   4 998.961 31.1359   6
  -3   9   4 1020.74 34.9309   1
  -3   9   4 1077.07 31.9098   6
   2  -9  -4 81.1003 10.8161   3
  -2   9   4 82.7748 9.13933   6
  -2   9   4 81.7465 9.29134   6
  -2   9   4 76.0042 10.8458   3
  -2   9   4 53.0435 10.2857   5
  -2   9   4 72.9906 10.9090   1
   1  -9  -4 201.699 24.3571   3
  -1   9   4 154.816 16.7625   2
  -1   9   4 182.862 15.7241   5
  -1   9   4 177.952 15.1541   1
  -1   9   4 196.510 11.2095   6
  -1   9   4 166.754 10.4105   6
  -1   9   4 175.944 13.5103   3
   0   9   4 1267.04 42.1882   2
   0   9   4 1270.46 33.4721   3
   0   9   4 1230.69 29.4473   6
   0   9   4 1245.78 29.3953   6
   1   9   4 398.649 15.8028   3
   1   9   4 405.905 26.7134   2
   1   9   4 399.414 13.9852   4
   1   9   4 426.412 20.6253   5
   2   9   4 8.82588 4.80192   3
   2   9   4 -2.9955 4.98151   1
   2   9   4 8.28074 4.70777   4
   2   9   4 9.61617 5.92428   5
   3   9   4 497.230 19.7434   5
   3   9   4 489.889 20.3928   4
   3   9   4 499.153 23.8583   1
   4   9   4 966.849 31.3093   4
   4   9   4 876.375 25.3063   5
   4   9   4 922.976 35.2602   1
   4   9   4 922.406 26.3109   3
   4   9   4 956.664 34.5701   2
   5   9   4 321.637 19.6907   3
   5   9   4 350.210 21.6569   2
   5   9   4 331.747 13.3693   6
   5   9   4 371.223 14.5621   6
   5   9   4 324.799 16.3324   3
   5   9   4 322.541 22.3311   1
   5   9   4 376.759 20.7445   4
   6   9   4 66.4228 12.4266   4
   6   9   4 110.083 11.8733   3
   6   9   4 92.6770 11.2200   3
   6   9   4 91.5217 13.4151   2
   4 -10  -4 23.8208 12.0373   3
  -4  10   4 1.96079 8.95038   1
  -4  10   4 8.79101 6.92303   6
  -4  10   4 10.1101 10.3882   3
  -4  10   4 -2.6246 10.7585   5
   3 -10  -4 607.836 28.1405   3
  -3  10   4 541.321 28.7404   5
  -3  10   4 544.776 26.5883   3
  -3  10   4 571.572 23.2291   6
  -3  10   4 614.597 27.2485   1
  -2  10   4 143.741 17.4280   5
  -2  10   4 134.965 11.9309   6
  -2  10   4 167.081 13.2445   6
  -2  10   4 158.912 16.9336   1
  -2  10   4 152.950 15.3786   3
  -1  10   4 93.0425 14.9888   2
  -1  10   4 95.2273 9.22940   6
  -1  10   4 114.141 12.5707   3
  -1  10   4 114.394 10.1669   6
  -1  10   4 89.1073 13.1507   1
   0  10   4 1671.73 37.2307   6
   0  10   4 1634.43 41.7910   3
   0  10   4 1584.52 51.1713   2
   0  10   4 1591.19 36.3946   6
   0  10   4 1621.80 47.9601   5
   1  10   4 99.8223 15.2501   2
   1  10   4 133.841 10.7647   3
   1  10   4 112.077 12.5928   5
   1  10   4 112.633 12.1447   1
   2  10   4 -0.4671 4.98351   4
   2  10   4 -5.0455 7.09141   2
   2  10   4 5.23688 6.94191   5
   2  10   4 -2.4656 5.23842   3
   2  10   4 -6.0782 6.77226   1
   3  10   4 787.369 31.7407   1
   3  10   4 781.074 27.1160   5
   3  10   4 772.018 33.5665   2
   3  10   4 763.101 23.7672   3
   3  10   4 819.999 27.0267   4
   4  10   4 320.923 21.9228   1
   4  10   4 346.262 22.6999   2
   4  10   4 314.652 15.2627   5
   4  10   4 333.432 19.2593   4
   2 -11  -4 111.179 15.2119   3
  -2  11   4 91.9176 15.0659   2
  -2  11   4 81.0004 10.4004   6
  -2  11   4 61.6963 12.2551   5
  -2  11   4 89.5666 11.0111   6
  -2  11   4 96.9995 12.8505   3
  -2  11   4 131.171 14.6473   1
  -1  11   4 11.5993 6.30762   6
  -1  11   4 15.0355 9.33113   3
  -1  11   4 -0.4211 9.07647   1
  -1  11   4 8.42775 9.03244   5
  -1  11   4 2.86300 5.48994   6
  -1  11   4 19.6422 11.7638   2
   0  11   4 699.102 33.0998   2
   0  11   4 615.596 24.1387   3
   0  11   4 664.154 20.4467   6
   0  11   4 631.743 25.9884   1
   0  11   4 593.314 28.3087   5
   1  11   4 -5.6965 8.03211   5
   1  11   4 20.2055 10.2006   2
   1  11   4 7.25999 6.95201   1
   1  11   4 13.8033 7.66792   3
   2  11   4 63.7640 8.59513   4
   2  11   4 80.6626 12.4083   5
   2  11   4 80.8579 14.9041   2
   2  11   4 78.3955 11.2889   1
   2  11   4 81.4373 9.64753   3
   2   9  -5 72.7007 12.3234   4
   2   9  -5 61.5880 12.6294   3
   2   9  -5 61.6797 11.4276   5
   2   9  -5 73.1106 8.20110   6
   2   9  -5 67.1432 7.71001   1
   1   9  -5 3.10627 7.64888   4
   1   9  -5 10.2473 7.66267   3
   1   9  -5 4.73038 5.33133   6
   1   9  -5 -1.7201 8.38918   6
   1   9  -5 3.66210 7.44446   5
   0   9  -5 24.2095 6.46909   2
   0   9  -5 7.64308 7.87422   5
   0   9  -5 15.0063 5.40402   6
   0   9  -5 17.7325 6.10921   6
   0   9  -5 21.3784 9.04415   2
   0   9  -5 2.73659 7.44696   4
   0   9  -5 6.16613 9.16466   3
  -1   9  -5 668.560 25.8612   4
  -1   9  -5 690.310 32.3523   3
  -1   9  -5 622.637 30.0269   5
  -1   9  -5 683.209 22.8093   6
  -1   9  -5 634.983 25.8497   2
  -1   9  -5 649.776 22.7893   6
  -2   9  -5 60.5727 10.1081   6
  -2   9  -5 52.1817 8.69719   4
  -2   9  -5 55.3342 9.30559   6
  -2   9  -5 65.0509 11.5846   2
  -2   9  -5 44.5186 14.0052   5
  -2   9  -5 30.6282 11.3849   3
  -3   9  -5 47.1435 10.7909   6
  -3   9  -5 18.9629 10.6783   5
  -3   9  -5 20.1928 7.66759   6
  -3   9  -5 8.89009 9.45299   3
   3  -9   5 20.4124 7.05078   4
   3   8  -5 105.335 12.6976   5
   3   8  -5 92.5221 13.9313   3
   3   8  -5 126.407 14.9070   4
   3   8  -5 112.838 9.89621   6
   3   8  -5 123.372 12.1296   1
   2   8  -5 14.2004 5.35617   6
   2   8  -5 -8.0366 7.42715   3
   2   8  -5 15.8127 5.79570   1
   2   8  -5 -4.9892 4.90130   6
   2   8  -5 9.92723 6.39575   4
   1   8  -5 22.9125 9.64114   3
   1   8  -5 15.2116 5.53282   6
   1   8  -5 5.42183 4.48749   6
   1   8  -5 31.9760 8.37094   4
   0   8  -5 -1.6754 4.67113   2
   0   8  -5 0.27476 6.15012   4
   0   8  -5 1.19940 4.81197   6
   0   8  -5 -13.890 6.14166   5
   0   8  -5 2.62145 4.41011   6
   0   8  -5 -11.626 7.12936   3
  -1   8  -5 240.870 19.5460   3
  -1   8  -5 198.510 17.2097   5
  -1   8  -5 217.179 12.8882   6
  -1   8  -5 201.083 14.2212   2
  -1   8  -5 224.640 12.9930   6
  -1   8  -5 245.284 15.8614   4
   1  -8   5 221.548 14.1694   4
  -2   8  -5 203.090 17.9984   5
  -2   8  -5 203.576 13.6212   6
  -2   8  -5 218.351 13.7614   6
  -2   8  -5 210.961 15.6320   2
  -2   8  -5 220.703 14.8397   4
  -2   8  -5 191.470 19.0109   3
   2  -8   5 201.759 13.5662   4
  -3   8  -5 47.8512 8.33734   6
  -3   8  -5 45.4596 13.1402   3
  -3   8  -5 42.5545 10.3044   2
  -3   8  -5 47.8627 8.23971   4
  -3   8  -5 59.4995 9.96278   6
  -3   8  -5 57.4745 11.9758   5
   3  -8   5 56.9054 8.30245   4
  -4   8  -5 139.572 14.9455   6
  -4   8  -5 128.066 12.8646   6
  -4   8  -5 141.209 19.0933   3
  -4   8  -5 161.237 23.5428   5
   4  -8   5 145.007 12.9525   4
  -5   8  -5 45.5531 9.29328   6
  -5   8  -5 19.4893 12.0361   3
  -5   8  -5 37.8357 11.1638   5
   5  -8   5 29.2626 9.74626   4
   5   7  -5 95.3902 13.1313   1
   5   7  -5 82.3601 10.2926   5
   5   7  -5 68.8738 12.2474   4
   5   7  -5 86.0553 10.7132   6
   4   7  -5 7.07984 6.27033   5
   4   7  -5 1.26341 6.91675   4
   4   7  -5 -1.7457 5.62904   6
   4   7  -5 3.69920 5.33749   6
   4   7  -5 0.14695 8.65388   3
   3   7  -5 167.273 17.1609   3
   3   7  -5 157.283 11.2273   6
   3   7  -5 171.216 13.1103   1
   3   7  -5 158.813 10.6736   6
   3   7  -5 155.374 14.5984   4
   2   7  -5 1248.34 31.4338   6
   2   7  -5 1245.00 32.7499   1
   2   7  -5 1269.82 31.2094   6
   2   7  -5 1289.65 42.7675   3
   2   7  -5 1254.90 38.6762   4
   1   7  -5 4.70782 6.28493   4
   1   7  -5 6.30841 4.18821   6
   1   7  -5 9.85166 4.05061   1
   1   7  -5 8.46172 7.28193   3
   1   7  -5 6.72637 4.36832   6
   0   7  -5 78.8638 8.08858   6
   0   7  -5 66.2176 7.17779   6
   0   7  -5 69.9447 11.8011   3
   0   7  -5 69.4669 9.82078   4
   0   7  -5 85.8162 8.60993   2
   0  -7   5 76.4849 10.2780   4
  -1   7  -5 142.020 12.3628   4
  -1   7  -5 133.334 13.8044   6
  -1   7  -5 120.578 9.59340   6
  -1   7  -5 115.874 10.7789   2
  -1   7  -5 170.078 18.9969   3
   1  -7   5 132.200 11.1538   4
  -2   7  -5 79.0266 13.1550   3
  -2   7  -5 81.2535 10.2013   4
  -2   7  -5 105.593 10.3001   6
  -2   7  -5 82.4334 10.4661   2
  -2   7  -5 82.5047 9.01478   6
   2  -7   5 87.3862 9.49775   4
  -3   7  -5 300.911 20.6307   5
  -3   7  -5 302.843 16.4298   6
  -3   7  -5 315.148 21.7667   3
  -3   7  -5 313.649 16.3073   6
  -3   7  -5 366.976 16.6872   4
  -3   7  -5 341.884 19.3680   2
   3  -7   5 359.014 22.4091   3
  -4   7  -5 70.3355 9.91430   6
  -4   7  -5 84.3725 13.5509   2
  -4   7  -5 57.0405 12.0169   5
  -4   7  -5 70.6133 9.99817   6
  -4   7  -5 65.1961 12.5867   3
   4  -7   5 77.4234 13.8811   4
   4  -7   5 96.2455 23.9718   3
  -5   7  -5 187.426 15.2242   6
  -5   7  -5 182.369 17.7123   5
  -5   7  -5 218.213 18.4934   6
  -5   7  -5 139.019 18.7482   3
   5  -7   5 155.743 12.1700   4
   5  -7   5 192.502 11.0043   6
   5  -7   5 166.457 11.0227   6
  -6   7  -5 76.5063 14.1031   6
  -6   7  -5 62.6571 13.6981   5
  -6   7  -5 75.8444 15.4326   3
   6  -7   5 86.7068 10.1191   6
   6  -7   5 85.9616 9.51732   6
   6  -7   5 65.5936 9.45048   4
   5   6  -5 709.514 25.2406   6
   5   6  -5 727.242 24.1646   5
   5   6  -5 755.259 31.2297   4
   5   6  -5 726.830 24.2849   6
   5   6  -5 715.074 29.8782   1
  -5  -6   5 747.147 37.3762   1
   4   6  -5 0.92035 6.52245   1
   4   6  -5 5.67951 7.23263   4
   4   6  -5 8.94204 5.23454   5
   4   6  -5 2.80736 4.66872   6
   4   6  -5 -1.1280 4.99823   6
   3   6  -5 8.99208 4.48307   6
   3   6  -5 8.42241 7.14123   4
   3   6  -5 19.6197 6.72318   5
   3   6  -5 0.75493 6.81155   3
   3   6  -5 13.7515 5.47549   6
   3   6  -5 15.9267 5.83407   1
  -3  -6   5 19.9884 6.10201   1
   2   6  -5 827.352 28.5700   4
   2   6  -5 785.200 24.0081   1
   2   6  -5 779.220 22.6617   6
   2   6  -5 810.296 32.9783   3
   1   6  -5 -1.9887 6.21061   3
   1   6  -5 8.68472 3.94414   6
   1   6  -5 4.37284 5.11756   4
   1   6  -5 5.56314 3.75855   6
   1   6  -5 5.71106 3.40884   1
  -1  -6   5 6.91995 5.17894   4
   0   6  -5 253.564 15.0564   4
   0   6  -5 245.105 17.7276   3
   0   6  -5 254.776 11.6462   6
   0   6  -5 267.947 12.1218   2
   0   6  -5 257.798 11.6974   6
   0  -6   5 310.257 15.2416   4
  -1   6  -5 1407.15 42.7860   3
  -1   6  -5 1359.57 33.4352   6
  -1   6  -5 1474.98 38.1624   4
  -1   6  -5 1369.41 35.4534   2
  -1   6  -5 1384.22 34.0378   6
   1  -6   5 1414.54 40.9459   4
  -2   6  -5 249.273 14.2781   2
  -2   6  -5 233.305 12.5728   6
  -2   6  -5 219.695 12.2285   6
  -2   6  -5 238.928 14.0482   4
   2  -6   5 228.113 16.9876   3
   2  -6   5 232.099 13.0850   4
  -3   6  -5 587.079 27.3457   3
  -3   6  -5 557.547 23.3314   2
  -3   6  -5 583.149 21.2880   6
  -3   6  -5 574.647 21.2965   6
  -3   6  -5 600.505 21.1741   4
   3  -6   5 585.548 20.5507   4
   3  -6   5 602.721 26.3281   3
  -4   6  -5 63.9721 9.90727   6
  -4   6  -5 67.8582 12.1291   3
  -4   6  -5 58.9441 11.1030   5
  -4   6  -5 83.3254 10.9882   2
  -4   6  -5 76.0248 13.3667   6
   4  -6   5 57.3852 9.11090   4
   4  -6   5 80.6321 7.66462   6
   4  -6   5 62.5967 7.16363   6
   4  -6   5 55.1007 10.4504   3
  -5   6  -5 133.220 15.2562   2
  -5   6  -5 123.077 15.5113   5
  -5   6  -5 145.654 13.7094   6
  -5   6  -5 117.893 15.4391   3
   5  -6   5 151.358 11.3857   6
   5  -6   5 141.909 12.2723   4
   5  -6   5 155.270 11.8192   6
  -6   6  -5 401.233 21.8045   6
  -6   6  -5 384.607 24.6463   5
  -6   6  -5 415.345 26.5105   3
   6  -6   5 425.115 25.2088   6
   6  -6   5 411.663 18.9830   4
   6  -6   5 391.136 21.0785   6
  -7   6  -5 10.6611 8.26690   6
  -7   6  -5 -0.5503 14.1188   5
  -7   6  -5 8.35499 11.9528   3
   7  -6   5 3.96639 8.21911   6
   7  -6   5 1.15019 8.31595   6
   6   5  -5 151.939 17.6555   4
   6   5  -5 182.368 17.7464   1
   6   5  -5 117.428 11.8658   6
   5   5  -5 187.036 16.5206   4
   5   5  -5 192.206 16.0694   1
   5   5  -5 175.760 12.0918   6
   5   5  -5 155.198 11.4725   5
   5   5  -5 150.702 12.5494   6
  -5  -5   5 176.834 17.1208   1
   4   5  -5 59.3906 7.54690   6
   4   5  -5 62.3206 10.6570   4
   4   5  -5 75.5054 10.9833   1
   4   5  -5 70.6202 8.19913   6
   4   5  -5 62.4638 8.73245   5
  -4  -5   5 73.1298 11.0582   1
   3   5  -5 -2.0265 4.76612   5
   3   5  -5 -4.6773 4.16318   6
   3   5  -5 -1.5145 5.89413   4
   3   5  -5 1.08737 3.71199   6
   3   5  -5 -1.2666 4.90853   1
  -3  -5   5 6.16885 5.32205   1
   2   5  -5 3087.12 61.6600   6
   2   5  -5 3048.29 68.4959   4
   2   5  -5 3041.58 62.5256   6
   2   5  -5 3146.68 73.4865   3
   2   5  -5 3135.62 64.7016   1
  -2  -5   5 3019.51 64.2313   1
   1   5  -5 10.9977 5.56213   4
   1   5  -5 4.53096 3.22511   1
   1   5  -5 3.71378 3.75590   6
   1   5  -5 4.90882 6.54143   3
   1   5  -5 1.25066 3.78870   6
  -1  -5   5 3.56509 4.52596   4
   0   5  -5 313.209 12.1415   2
   0   5  -5 290.009 17.2300   3
   0   5  -5 296.344 15.3646   4
   0   5  -5 297.043 12.2953   6
   0   5  -5 287.263 11.7421   6
  -1   5  -5 1542.22 36.7257   2
  -1   5  -5 1554.20 35.4091   6
  -1   5  -5 1517.94 35.5514   6
  -1   5  -5 1498.87 43.0952   3
  -1   5  -5 1554.76 39.3982   4
   1  -5   5 1489.57 37.9397   4
  -2   5  -5 127.288 10.5939   2
  -2   5  -5 123.020 10.4656   4
  -2   5  -5 143.500 9.70180   6
  -2   5  -5 133.383 13.0933   3
  -2   5  -5 124.916 9.28857   6
   2  -5   5 103.597 11.5709   3
   2  -5   5 125.267 9.73237   4
  -3   5  -5 95.9306 9.45050   6
  -3   5  -5 92.2139 9.40852   6
  -3   5  -5 103.041 13.9022   3
  -3   5  -5 107.863 9.79574   4
  -3   5  -5 109.251 12.2991   2
   3  -5   5 93.5134 7.43623   6
   3  -5   5 104.423 7.88149   6
   3  -5   5 89.0466 9.11174   4
  -4   5  -5 592.958 24.9024   2
  -4   5  -5 581.738 22.2048   6
  -4   5  -5 590.211 22.1498   6
  -4   5  -5 616.133 26.5671   5
  -4   5  -5 641.247 27.8383   3
   4  -5   5 595.046 21.2431   4
   4  -5   5 589.573 19.2454   6
   4  -5   5 597.062 19.6325   6
  -5   5  -5 149.509 13.9897   6
  -5   5  -5 192.188 16.4491   5
  -5   5  -5 178.506 17.4947   3
  -5   5  -5 171.605 14.1334   6
  -5   5  -5 196.816 16.7057   2
   5  -5   5 175.641 12.5867   6
   5  -5   5 186.148 17.4667   3
   5  -5   5 191.925 12.1242   6
   5  -5   5 156.716 12.0729   4
  -6   5  -5 1186.78 37.2939   6
  -6   5  -5 1139.37 42.9808   3
  -6   5  -5 1217.26 40.6014   5
  -6   5  -5 1187.67 41.7732   2
  -6   5  -5 1178.24 38.3407   6
   6  -5   5 1154.28 36.3356   6
   6  -5   5 1219.70 31.6882   1
   6  -5   5 1162.46 33.9656   6
   6  -5   5 1197.34 33.7053   4
  -7   5  -5 36.6719 9.27730   6
  -7   5  -5 34.0019 10.3938   5
  -7   5  -5 40.9348 11.8033   3
   7  -5   5 23.5976 8.54043   6
   7  -5   5 34.7337 8.02541   1
   7  -5   5 40.4931 9.51804   6
   7   4  -5 632.714 30.4561   4
   7   4  -5 602.528 35.5462   1
   7   4  -5 583.763 24.5869   6
   6   4  -5 576.343 18.5935   5
   6   4  -5 548.659 22.0884   6
   6   4  -5 523.852 26.2824   4
   6   4  -5 578.878 28.1023   1
   6   4  -5 525.975 23.4402   6
  -6  -4   5 591.781 29.0109   1
   5   4  -5 334.665 16.2343   6
   5   4  -5 375.547 15.9873   5
   5   4  -5 449.465 22.5026   1
   5   4  -5 411.045 21.9743   4
   5   4  -5 393.754 17.7772   6
  -5  -4   5 374.938 21.0967   1
   4   4  -5 262.922 16.4048   1
   4   4  -5 255.122 13.7242   5
   4   4  -5 262.947 12.8542   6
   4   4  -5 269.709 13.6007   6
   4   4  -5 249.554 16.5423   4
  -4  -4   5 230.477 15.6104   1
   3   4  -5 387.466 15.6759   6
   3   4  -5 406.687 14.9860   6
   3   4  -5 404.990 16.9538   5
   3   4  -5 409.331 18.0241   1
   3   4  -5 381.279 18.7244   4
  -3  -4   5 426.598 18.2685   1
   2   4  -5 2177.18 45.7867   6
   2   4  -5 2197.98 48.8004   1
   2   4  -5 2158.68 46.9186   6
   2   4  -5 2202.57 51.6281   4
  -2  -4   5 2169.60 52.3509   4
  -2  -4   5 2202.59 48.7973   1
   1   4  -5 19.9309 5.53272   4
   1   4  -5 27.8854 4.96221   1
   1   4  -5 23.3594 4.89003   6
   1   4  -5 21.0454 7.35344   3
  -1  -4   5 18.2084 4.08128   1
   0   4  -5 17.0301 5.32670   4
   0   4  -5 24.4180 6.51081   3
   0   4  -5 14.5731 3.89910   2
   0   4  -5 11.9698 3.61161   6
   0   4  -5 20.2876 4.59985   6
   0  -4   5 11.4161 5.05601   4
  -1   4  -5 3679.46 71.4913   2
  -1   4  -5 3656.87 70.6960   6
  -1   4  -5 3533.33 74.3980   4
  -1   4  -5 3536.18 78.4271   3
  -1   4  -5 3590.19 70.7790   6
   1  -4   5 3554.49 73.4787   4
  -2   4  -5 36.1536 6.47644   4
  -2   4  -5 32.5986 5.57278   6
  -2   4  -5 27.8706 5.73877   2
  -2   4  -5 32.9626 8.23291   3
  -2   4  -5 32.8236 5.65827   6
   2  -4   5 27.5423 4.44062   6
   2  -4   5 21.1457 4.19559   6
   2  -4   5 18.4181 6.19732   3
   2  -4   5 21.5489 5.22639   4
  -3   4  -5 776.025 28.5294   3
  -3   4  -5 791.905 23.8524   4
  -3   4  -5 768.623 23.5452   6
  -3   4  -5 793.860 24.0599   6
  -3   4  -5 774.022 25.8675   2
   3  -4   5 804.457 22.0054   6
   3  -4   5 777.691 21.2366   6
   3  -4   5 812.924 24.1105   4
  -4   4  -5 954.037 31.6776   2
  -4   4  -5 1000.13 28.9799   6
  -4   4  -5 968.499 29.1664   6
  -4   4  -5 1011.40 33.9906   3
   4  -4   5 1011.45 27.6308   6
   4  -4   5 998.462 22.3314   1
   4  -4   5 870.766 29.0406   6
   4  -4   5 939.009 27.2988   4
  -5   4  -5 46.8652 9.42978   2
  -5   4  -5 50.1917 8.46739   6
  -5   4  -5 58.1455 10.2591   5
  -5   4  -5 53.0805 10.6145   3
   5  -4   5 70.0024 8.57110   6
   5  -4   5 57.7389 7.77061   4
   5  -4   5 46.0648 7.89311   6
  -6   4  -5 642.521 28.4890   2
  -6   4  -5 580.831 24.4606   6
  -6   4  -5 604.680 25.6168   6
  -6   4  -5 575.818 19.9250   1
  -6   4  -5 567.568 26.0204   5
  -6   4  -5 599.051 28.9626   3
   6  -4   5 585.980 22.2379   4
   6  -4   5 586.720 22.5473   6
   6  -4   5 625.998 27.9239   3
   6  -4   5 633.118 24.7718   6
   6  -4   5 614.087 21.6759   1
  -7   4  -5 73.7390 14.6075   3
  -7   4  -5 90.1825 13.8797   5
  -7   4  -5 89.0026 10.2760   1
  -7   4  -5 70.9734 10.9336   6
   7  -4   5 77.8581 10.8840   6
   7  -4   5 100.650 11.7905   1
   7  -4   5 103.720 12.2943   6
  -8   4  -5 34.5789 11.1921   5
  -8   4  -5 31.9717 12.4315   3
  -8   4  -5 36.7382 10.2277   6
  -8   4  -5 19.7098 8.29606   1
   8  -4   5 33.2754 12.5707   4
   8  -4   5 25.0705 9.41760   6
   8  -4   5 15.7435 9.73293   1
   7   3  -5 183.463 17.1541   4
   7   3  -5 176.567 18.7539   1
   7   3  -5 164.072 14.1312   6
  -7  -3   5 156.996 9.34179   6
   6   3  -5 316.455 21.6671   1
   6   3  -5 384.978 21.4973   4
   6   3  -5 345.974 17.8247   6
   6   3  -5 346.957 14.1856   5
   6   3  -5 354.200 18.5045   6
  -6  -3   5 337.917 12.8056   6
  -6  -3   5 333.754 22.0362   1
   5   3  -5 16.2681 5.06548   5
   5   3  -5 20.9887 7.27890   4
   5   3  -5 19.3049 6.21989   6
   5   3  -5 21.7392 6.32123   6
  -5  -3   5 16.9355 4.24189   6
  -5  -3   5 25.6327 8.70676   1
   4   3  -5 1095.81 28.7448   6
   4   3  -5 1041.41 32.7277   4
   4   3  -5 1026.19 29.2034   6
   4   3  -5 1033.86 33.2505   1
   4   3  -5 1056.38 29.0238   5
  -4  -3   5 1039.87 33.1894   1
   3   3  -5 380.960 15.0110   6
   3   3  -5 373.560 17.0685   1
   3   3  -5 355.223 16.9908   4
   3   3  -5 356.482 15.2948   5
   3   3  -5 356.276 13.9249   6
  -3  -3   5 359.614 16.7523   1
   2   3  -5 1193.00 30.9135   1
   2   3  -5 1166.11 28.1183   6
   2   3  -5 1189.48 31.3197   5
   2   3  -5 1205.75 32.5006   4
   2   3  -5 1157.16 29.0867   6
  -2  -3   5 1225.68 33.7041   4
  -2  -3   5 1200.86 30.7823   1
   1   3  -5 6.59130 3.34110   6
   1   3  -5 4.96336 3.32114   6
   1   3  -5 4.41677 4.29009   4
   1   3  -5 1.22174 3.19665   1
  -1  -3   5 10.3671 4.15704   4
  -1  -3   5 7.45254 3.25315   1
   0   3  -5 47.0809 7.33117   4
   0   3  -5 57.8615 6.08341   6
   0   3  -5 48.4815 7.78907   3
   0  -3   5 48.6334 4.09700   1
   0  -3   5 51.2816 4.12921   6
   0  -3   5 50.5841 6.96134   4
   0  -3   5 50.8303 4.17092   6
  -1   3  -5 3029.84 61.3591   6
  -1   3  -5 3135.70 68.0592   3
  -1   3  -5 3069.80 61.5228   2
  -1   3  -5 3149.19 61.7035   6
  -1   3  -5 3051.10 64.7542   4
   1  -3   5 3157.40 59.7514   6
   1  -3   5 3080.21 64.1023   4
   1  -3   5 3115.39 59.0362   6
  -2   3  -5 984.828 26.1123   4
  -2   3  -5 915.272 28.5963   3
  -2   3  -5 902.219 25.4779   2
  -2   3  -5 935.935 24.5455   6
  -2   3  -5 924.620 24.2428   6
   2  -3   5 864.609 25.0752   4
   2  -3   5 902.891 25.8193   6
   2  -3   5 904.670 22.5910   6
   2  -3   5 927.612 27.9118   3
  -3   3  -5 159.585 10.0426   6
  -3   3  -5 162.042 11.0292   2
  -3   3  -5 159.989 10.2442   6
  -3   3  -5 160.525 10.3810   4
  -3   3  -5 165.375 12.5913   3
   3  -3   5 159.780 9.18722   6
   3  -3   5 166.173 9.84358   6
   3  -3   5 163.579 10.2094   4
   3  -3   5 161.819 11.6477   3
  -4   3  -5 1288.09 36.8023   2
  -4   3  -5 1290.10 34.4990   6
  -4   3  -5 1305.71 38.5883   3
  -4   3  -5 1286.50 33.9173   6
   4  -3   5 1241.76 36.8680   3
   4  -3   5 1312.12 33.0727   4
   4  -3   5 1287.47 29.5197   1
   4  -3   5 1295.69 33.2707   6
  -5   3  -5 3.57237 5.81976   5
  -5   3  -5 17.4166 7.68618   2
  -5   3  -5 5.75259 5.71863   6
  -5   3  -5 12.7462 5.56062   6
  -5   3  -5 11.8293 7.38715   3
   5  -3   5 19.0619 6.64439   6
   5  -3   5 18.1749 5.19475   1
   5  -3   5 13.9798 5.35678   4
   5  -3   5 5.22015 5.96074   3
   5  -3   5 19.9832 6.09982   6
  -6   3  -5 810.126 25.4388   1
  -6   3  -5 846.942 29.4614   6
  -6   3  -5 832.767 28.7371   6
  -6   3  -5 832.760 31.6765   2
  -6   3  -5 879.975 30.2057   5
  -6   3  -5 812.985 32.6864   3
   6  -3   5 788.585 26.4792   4
   6  -3   5 812.439 26.8711   6
   6  -3   5 802.421 26.5779   1
   6  -3   5 781.291 35.1910   6
   6  -3   5 833.172 31.6815   3
  -7   3  -5 285.541 18.3394   6
  -7   3  -5 308.961 19.4532   6
  -7   3  -5 298.635 18.8699   5
  -7   3  -5 354.508 23.7613   3
  -7   3  -5 367.248 18.2660   1
  -7   3  -5 302.383 21.7170   2
   7  -3   5 333.365 22.0352   3
   7  -3   5 335.801 18.7171   1
   7  -3   5 342.629 24.8437   4
   7  -3   5 309.517 19.2695   6
   7  -3   5 346.293 18.6587   6
  -8   3  -5 14.3315 11.5165   3
  -8   3  -5 -18.800 6.41059   1
  -8   3  -5 -2.8668 8.40935   6
  -8   3  -5 1.92277 7.64073   5
   8  -3   5 0.67985 8.51054   1
   8  -3   5 -4.8100 8.27880   4
   8  -3   5 -12.452 7.82965   6
   7   2  -5 46.2215 9.34895   6
   7   2  -5 45.3506 6.37802   5
   7   2  -5 53.4945 10.5619   4
   7   2  -5 69.1089 12.2939   1
  -7  -2   5 27.5792 6.86368   6
  -7  -2   5 50.6655 8.12247   6
   6   2  -5 195.729 13.7050   6
   6   2  -5 181.241 11.3348   5
   6   2  -5 170.906 16.3720   4
   6   2  -5 200.685 13.8439   6
   6   2  -5 201.196 18.5303   3
   6   2  -5 202.247 17.6075   1
  -6  -2   5 189.069 11.6447   6
  -6  -2   5 203.333 12.1984   6
  -6  -2   5 219.700 18.4051   1
   5   2  -5 24.7121 8.73913   1
   5   2  -5 31.3170 7.10982   6
   5   2  -5 33.4696 6.63704   6
   5   2  -5 46.1333 7.26252   5
   5   2  -5 32.3346 8.37678   4
  -5  -2   5 28.5301 5.63374   6
  -5  -2   5 30.5948 5.72658   6
   4   2  -5 292.789 13.7693   6
   4   2  -5 260.808 15.1300   4
   4   2  -5 296.270 13.3521   5
   4   2  -5 308.677 14.1883   6
   4   2  -5 304.320 17.0502   1
  -4  -2   5 283.473 16.6237   1
  -4  -2   5 305.344 12.4958   6
  -4  -2   5 305.989 11.9108   6
   3   2  -5 1330.20 35.1970   1
   3   2  -5 1254.03 31.6170   6
   3   2  -5 1251.20 32.0007   5
   3   2  -5 1290.41 34.3188   4
   3   2  -5 1229.78 30.5062   6
  -3  -2   5 1212.85 34.3142   1
  -3  -2   5 1255.83 28.6183   6
  -3  -2   5 1273.35 29.5569   6
   2   2  -5 198.451 10.9906   5
   2   2  -5 214.473 11.7737   4
   2   2  -5 195.127 9.37699   6
   2   2  -5 200.063 11.0627   1
   2   2  -5 181.825 9.81475   6
  -2  -2   5 201.589 11.5699   4
  -2  -2   5 196.751 8.19416   6
  -2  -2   5 203.173 8.64881   6
  -2  -2   5 201.650 10.8389   1
   1   2  -5 57.7509 6.22417   1
   1   2  -5 57.8186 7.16798   4
   1   2  -5 75.3437 6.97895   6
   1   2  -5 63.2925 7.43671   5
  -1  -2   5 64.0080 5.00287   6
  -1  -2   5 57.3568 5.71803   1
  -1  -2   5 57.9700 5.02262   6
  -1  -2   5 70.9442 7.90058   4
   0   2  -5 37.3880 4.34250   2
   0   2  -5 37.9898 5.05249   6
   0   2  -5 33.5142 6.84536   3
   0   2  -5 39.4153 6.34124   4
   0   2  -5 28.1604 4.58064   6
   0  -2   5 35.3892 4.08740   1
   0  -2   5 34.2230 5.92653   4
   0  -2   5 33.2640 4.36831   6
   0  -2   5 36.3747 4.34436   6
  -1   2  -5 1478.04 35.3347   4
  -1   2  -5 1482.84 32.6007   2
  -1   2  -5 1482.34 33.1788   6
  -1   2  -5 1472.75 33.1289   6
  -1   2  -5 1460.91 37.0200   3
   1  -2   5 1480.73 35.1256   4
   1  -2   5 1507.95 32.3709   6
   1  -2   5 1474.21 32.0496   6
   1  -2   5 1460.21 28.4475   1
  -2   2  -5 411.951 14.2467   6
  -2   2  -5 396.887 13.9764   6
  -2   2  -5 395.572 14.9341   4
  -2   2  -5 404.043 16.5910   3
  -2   2  -5 399.613 14.8239   2
   2  -2   5 404.835 10.1535   1
   2  -2   5 422.485 14.0421   6
   2  -2   5 415.166 14.8268   4
   2  -2   5 402.945 16.0467   3
   2  -2   5 390.194 13.0555   6
  -3   2  -5 3.55876 4.23995   2
  -3   2  -5 1.57485 4.85858   3
  -3   2  -5 1.41390 3.30636   6
  -3   2  -5 -0.1431 3.23377   6
  -3   2  -5 2.20691 3.96018   4
   3  -2   5 -0.0631 3.32615   4
   3  -2   5 3.96978 3.22365   6
   3  -2   5 6.43665 4.36889   3
   3  -2   5 4.82562 3.75518   6
   3  -2   5 5.78402 2.59990   1
  -4   2  -5 1840.71 42.8722   6
  -4   2  -5 1786.95 43.1889   6
  -4   2  -5 1847.70 45.7177   2
  -4   2  -5 1774.18 46.1183   3
   4  -2   5 1823.13 42.1449   4
   4  -2   5 1831.19 45.4434   3
   4  -2   5 1790.68 42.0702   6
   4  -2   5 1883.40 43.2014   6
   4  -2   5 1859.16 40.1637   1
  -5   2  -5 330.335 18.4275   3
  -5   2  -5 306.031 15.4058   6
  -5   2  -5 304.576 13.4819   1
   5  -2   5 299.305 16.6133   3
   5  -2   5 318.275 14.5496   1
   5  -2   5 296.755 14.5325   4
   5  -2   5 306.337 14.5377   6
   5  -2   5 329.677 16.1881   6
  -6   2  -5 56.1661 9.04531   6
  -6   2  -5 61.8391 9.32730   5
  -6   2  -5 44.7947 11.6858   3
  -6   2  -5 53.8749 8.14289   1
   6  -2   5 57.0414 8.50713   1
   6  -2   5 56.2864 10.6551   6
   6  -2   5 48.0739 7.78463   4
   6  -2   5 59.1595 9.32820   3
   6  -2   5 37.3370 8.88927   6
  -7   2  -5 13.6646 7.48145   1
  -7   2  -5 6.18780 8.35263   3
  -7   2  -5 8.81996 8.18064   2
  -7   2  -5 25.3593 8.00797   6
  -7   2  -5 17.5480 7.68067   6
  -7   2  -5 17.1818 7.08143   5
   7  -2   5 13.4989 6.89996   1
   7  -2   5 25.8736 8.32828   6
   7  -2   5 26.5360 9.32931   3
   7  -2   5 21.2424 7.45871   6
   7  -2   5 18.2397 7.51153   4
  -8   2  -5 21.0197 10.4082   5
  -8   2  -5 9.71537 10.1861   3
  -8   2  -5 33.9783 9.50186   6
  -8   2  -5 24.6269 9.08342   1
   8  -2   5 26.0919 8.73155   6
   8  -2   5 35.6063 10.7438   1
   8  -2   5 27.9162 9.40779   4
   8   1  -5 27.7356 7.75297   5
   8   1  -5 28.2324 13.0394   4
   8   1  -5 14.7937 10.7399   1
   8   1  -5 24.4381 9.24946   6
  -8  -1   5 10.3572 9.12375   2
  -8  -1   5 20.4114 8.15709   6
  -8  -1   5 26.7791 10.3923   6
   7   1  -5 94.2566 9.65459   5
   7   1  -5 71.5218 13.8573   1
   7   1  -5 69.7614 10.9893   6
   7   1  -5 53.3501 10.1686   4
  -7  -1   5 49.7157 10.6305   6
  -7  -1   5 59.2706 9.29722   6
   6   1  -5 59.0075 10.0734   4
   6   1  -5 80.4077 8.60714   5
   6   1  -5 65.6315 9.53355   6
   6   1  -5 63.9444 11.7481   1
   6   1  -5 51.1632 8.98133   6
   6   1  -5 77.5020 14.7804   3
  -6  -1   5 46.9071 7.98261   6
  -6  -1   5 65.4178 8.96498   6
  -6  -1   5 68.8559 7.86731   2
   5   1  -5 432.815 18.3074   6
   5   1  -5 434.285 20.1936   4
   5   1  -5 417.170 21.6938   1
   5   1  -5 446.558 16.9990   5
   5   1  -5 408.736 17.8895   6
  -5  -1   5 416.630 16.6214   6
  -5  -1   5 461.208 17.5404   6
   4   1  -5 94.1170 8.49820   5
   4   1  -5 78.3885 8.44342   6
   4   1  -5 116.585 11.9986   4
   4   1  -5 86.2909 10.0925   1
   4   1  -5 83.3534 8.15976   6
  -4  -1   5 80.4695 8.02330   6
  -4  -1   5 90.0512 8.15755   6
  -4  -1   5 59.6776 8.65121   1
   3   1  -5 280.942 12.5238   6
   3   1  -5 255.048 11.9100   6
   3   1  -5 304.807 15.2075   1
   3   1  -5 279.173 12.6503   5
   3   1  -5 283.777 13.9221   4
  -3  -1   5 280.822 14.4376   1
  -3  -1   5 288.867 12.0055   6
  -3  -1   5 293.980 11.6601   6
   2   1  -5 604.152 19.8838   1
   2   1  -5 650.850 18.2339   6
   2   1  -5 605.959 19.2771   5
   2   1  -5 612.740 18.4954   6
   2   1  -5 614.616 19.6170   4
  -2  -1   5 644.648 20.3806   4
  -2  -1   5 641.937 17.4713   6
  -2  -1   5 594.095 19.9273   6
  -2  -1   5 605.334 19.8974   1
   1   1  -5 573.276 18.2177   5
   1   1  -5 556.743 17.5291   1
   1   1  -5 583.840 17.0813   6
   1   1  -5 575.344 18.4053   4
  -1  -1   5 577.828 17.3702   1
  -1  -1   5 569.474 18.5111   4
  -1  -1   5 586.109 16.0615   6
  -1  -1   5 602.220 16.4840   6
   0   1  -5 596.235 18.4994   4
   0   1  -5 576.455 14.5092   2
   0   1  -5 635.661 20.4208   3
   0   1  -5 597.595 17.1531   6
   0   1  -5 594.954 16.8072   6
   0  -1   5 575.180 18.1966   4
   0  -1   5 572.472 16.0916   6
   0  -1   5 583.090 16.3830   6
   0  -1   5 571.676 15.9146   1
   0  -1   5 576.676 14.5479   2
  -1   1  -5 228.364 10.0262   6
  -1   1  -5 226.733 9.33868   2
  -1   1  -5 219.653 9.45278   6
  -1   1  -5 230.201 12.0851   4
   1  -1   5 226.505 10.6236   4
   1  -1   5 225.958 9.50733   6
   1  -1   5 220.115 9.53025   2
   1  -1   5 230.536 9.47317   6
  -2   1  -5 743.571 22.1623   3
  -2   1  -5 785.884 21.4071   2
  -2   1  -5 751.488 20.4899   6
  -2   1  -5 738.515 20.1262   6
  -2   1  -5 764.515 21.2230   4
   2  -1   5 770.995 23.7041   2
   2  -1   5 729.941 19.3356   6
   2  -1   5 773.548 21.8934   3
   2  -1   5 728.334 20.3274   6
   2  -1   5 752.894 20.6712   4
   2  -1   5 746.763 17.8942   1
  -3   1  -5 1014.06 26.0820   6
  -3   1  -5 1014.06 26.5734   6
  -3   1  -5 1008.39 27.9646   2
  -3   1  -5 1020.37 28.2870   3
   3  -1   5 1039.35 27.8161   3
   3  -1   5 1059.39 26.7506   6
   3  -1   5 1023.40 24.5898   1
   3  -1   5 971.446 25.1525   6
   3  -1   5 1029.77 28.2102   2
   3  -1   5 1001.14 26.1679   4
  -4   1  -5 531.386 20.0464   6
  -4   1  -5 556.337 18.8214   6
  -4   1  -5 557.390 20.7874   3
  -4   1  -5 548.776 20.7066   2
   4  -1   5 545.641 19.1331   6
   4  -1   5 557.700 20.8688   2
   4  -1   5 547.448 18.4117   4
   4  -1   5 568.081 18.1764   1
   4  -1   5 539.818 17.9150   6
   4  -1   5 547.874 19.9193   3
  -5   1  -5 317.010 16.9899   2
  -5   1  -5 329.701 17.5887   3
  -5   1  -5 334.703 15.6430   6
  -5   1  -5 326.660 14.4037   1
  -5   1  -5 345.467 15.5357   6
   5  -1   5 315.485 14.9090   4
   5  -1   5 314.915 17.4593   2
   5  -1   5 317.235 14.6271   6
   5  -1   5 332.240 16.1130   6
   5  -1   5 335.130 15.5400   1
   5  -1   5 307.339 16.0698   3
  -6   1  -5 64.6216 9.38354   6
  -6   1  -5 81.2003 11.7743   3
  -6   1  -5 92.3630 10.3129   5
  -6   1  -5 66.8355 8.93902   1
   6  -1   5 78.2063 10.1800   3
   6  -1   5 60.2163 8.47123   4
   6  -1   5 70.6609 10.3455   1
   6  -1   5 56.3442 9.23139   6
  -7   1  -5 57.7554 12.0971   3
  -7   1  -5 53.7363 9.65925   1
  -7   1  -5 50.2790 8.73183   5
  -7   1  -5 49.9925 9.65183   6
  -7   1  -5 53.9492 11.9864   6
   7  -1   5 38.3825 9.07641   6
   7  -1   5 50.4357 9.75668   1
   7  -1   5 42.9476 8.59190   4
   7  -1   5 49.6169 9.86667   6
   7  -1   5 73.5959 12.9087   3
  -8   1  -5 122.037 13.6297   6
  -8   1  -5 117.233 18.6287   1
  -8   1  -5 119.731 16.0126   3
  -8   1  -5 115.651 12.1301   5
   8  -1   5 125.871 14.5363   6
   8  -1   5 142.339 17.1600   3
   8  -1   5 114.780 14.9289   1
   8  -1   5 115.606 13.6091   4
  -9   1  -5 64.4278 10.1567   5
  -9   1  -5 63.9673 25.0300   3
  -9   1  -5 24.0464 13.5080   6
   9  -1   5 38.9429 11.1977   6
   9  -1   5 30.3679 11.5434   1
   8   0  -5 7.40500 7.64832   4
   8   0  -5 1.02306 7.54779   6
   8   0  -5 3.03602 6.08463   5
   8   0  -5 -2.9082 9.34547   1
  -8   0   5 0.11320 12.1669   2
  -8   0   5 9.03551 8.15959   6
  -8   0   5 6.19949 7.50938   5
  -8   0   5 4.78685 7.26439   6
   7   0  -5 369.148 23.8198   1
   7   0  -5 362.711 21.1271   4
   7   0  -5 351.277 16.6181   5
   7   0  -5 325.747 19.1932   6
  -7   0   5 337.557 18.0758   2
  -7   0   5 361.479 17.9876   5
  -7   0   5 333.205 18.1416   6
  -7   0   5 335.555 18.5470   6
   6   0  -5 44.6396 15.0752   3
   6   0  -5 26.4457 7.49118   6
   6   0  -5 32.3719 7.91308   6
   6   0  -5 33.1441 8.30372   5
   6   0  -5 45.8800 10.9384   1
   6   0  -5 30.8732 7.38396   4
  -6   0   5 36.7154 6.97079   2
  -6   0   5 37.7443 7.61959   6
  -6   0   5 30.6064 9.33396   1
  -6   0   5 34.0975 7.54298   5
   5   0  -5 391.072 17.4946   6
   5   0  -5 396.905 17.8194   6
   5   0  -5 406.958 21.5487   1
   5   0  -5 430.463 19.1128   4
   5   0  -5 417.623 16.8593   5
  -5   0   5 402.401 15.6358   2
  -5   0   5 392.093 16.9810   5
  -5   0   5 378.804 16.5272   6
  -5   0   5 398.631 17.2113   6
   4   0  -5 8.22075 4.64501   4
   4   0  -5 5.15947 4.08607   6
   4   0  -5 11.0252 4.60521   5
   4   0  -5 7.25630 4.64863   6
   4   0  -5 8.64927 5.90160   1
  -4   0   5 6.95017 4.44928   5
  -4   0   5 7.90670 3.69074   2
  -4   0   5 16.2776 4.88783   6
  -4   0   5 2.63646 4.44797   1
  -4   0   5 6.19292 4.14879   6
   3   0  -5 130.973 8.86690   5
   3   0  -5 127.969 10.7887   1
   3   0  -5 121.708 9.23077   4
   3   0  -5 129.959 8.75279   6
   3   0  -5 125.678 8.69870   6
  -3   0   5 117.575 8.53824   6
  -3   0   5 141.653 9.50127   5
  -3   0   5 127.159 8.32110   6
  -3   0   5 128.088 10.5326   1
   2   0  -5 3447.32 68.6122   4
   2   0  -5 3353.38 67.7264   6
   2   0  -5 3393.83 68.7437   5
   2   0  -5 3550.35 71.2854   1
   2   0  -5 3387.45 67.3443   6
  -2   0   5 3457.88 67.5185   6
  -2   0   5 3519.19 69.2048   5
  -2   0   5 3448.51 69.2441   4
  -2   0   5 3331.50 70.4432   1
  -2   0   5 3434.98 67.3078   6
   1   0  -5 77.5325 6.47846   6
   1   0  -5 66.4435 7.18404   5
   1   0  -5 69.0189 6.95935   1
   1   0  -5 71.3608 7.10854   4
  -1   0   5 68.5823 4.62947   2
  -1   0   5 65.1132 5.93716   6
  -1   0   5 60.4009 7.58272   5
  -1   0   5 68.0956 6.86759   4
  -1   0   5 65.9234 5.87840   6
  -1   0   5 69.2791 6.53656   1
   0   0  -5 101.558 6.53569   6
   0   0  -5 99.6364 7.24017   5
   0   0  -5 110.660 6.02465   2
   0   0  -5 106.005 7.28880   4
   0   0  -5 97.8233 6.73304   6
   0   0   5 110.233 6.92927   6
   0   0   5 105.620 7.31405   4
   0   0   5 106.078 5.96648   2
   0   0   5 99.5404 6.64010   6
   0   0   5 96.3871 6.71578   1
  -1   0  -5 3735.82 70.7007   4
  -1   0  -5 3585.30 69.0757   2
  -1   0  -5 3646.08 70.5351   3
  -1   0  -5 3562.83 70.8357   5
  -1   0  -5 3699.40 69.5064   6
  -1   0  -5 3563.79 69.4346   6
   1   0   5 3579.04 69.4397   6
   1   0   5 3598.45 69.1802   2
   1   0   5 3596.99 69.8604   4
   1   0   5 3595.82 68.7171   6
  -2   0  -5 25.3341 4.10624   6
  -2   0  -5 20.3599 4.72149   2
  -2   0  -5 21.1076 4.26238   4
  -2   0  -5 30.2314 4.67544   6
  -2   0  -5 28.9287 4.67907   3
   2   0   5 33.9085 4.93555   6
   2   0   5 23.9265 3.85633   6
   2   0   5 28.6068 4.70510   4
   2   0   5 27.4814 5.39983   2
   2   0   5 17.9400 3.92395   3
  -3   0  -5 421.411 14.3477   6
  -3   0  -5 412.536 15.9903   2
  -3   0  -5 425.491 15.4208   3
  -3   0  -5 406.332 14.5868   6
   3   0   5 422.595 14.9486   3
   3   0   5 423.552 15.1758   6
   3   0   5 423.496 14.3762   1
   3   0   5 417.619 14.6251   4
   3   0   5 440.250 16.4972   2
   3   0   5 418.340 14.0088   6
  -4   0  -5 146.261 9.39288   6
  -4   0  -5 124.259 10.1964   2
  -4   0  -5 141.347 9.21799   6
  -4   0  -5 132.779 10.1088   3
   4   0   5 145.078 10.8107   2
   4   0   5 141.464 9.56707   1
   4   0   5 143.833 9.64828   6
   4   0   5 131.208 9.21250   4
   4   0   5 127.853 8.54096   6
   4   0   5 144.775 9.72355   3
  -5   0  -5 725.391 25.9383   2
  -5   0  -5 750.298 25.9397   3
  -5   0  -5 776.418 24.3526   6
  -5   0  -5 785.839 23.8043   6
   5   0   5 747.231 23.9126   4
   5   0   5 758.311 26.5610   2
   5   0   5 696.727 22.6636   6
   5   0   5 775.304 25.2704   1
   5   0   5 801.602 25.0837   6
  -6   0  -5 1421.20 39.2556   1
  -6   0  -5 1427.46 38.6594   6
  -6   0  -5 1450.85 42.0559   3
  -6   0  -5 1472.89 35.4163   5
  -6   0  -5 1433.42 37.9579   6
   6   0   5 1474.25 40.8563   1
   6   0   5 1376.26 38.8374   6
   6   0   5 1421.14 41.9163   2
   6   0   5 1394.31 39.9569   3
   6   0   5 1391.17 38.3209   4
  -7   0  -5 6.76668 6.38507   1
  -7   0  -5 0.17712 5.31260   5
  -7   0  -5 13.5746 6.35212   6
  -7   0  -5 10.2264 6.12024   6
  -7   0  -5 12.0185 7.65120   2
  -7   0  -5 1.87902 7.45981   3
   7   0   5 5.25162 7.37375   1
   7   0   5 8.73656 6.57632   6
   7   0   5 13.4983 7.48842   3
   7   0   5 8.86018 6.70981   6
  -8   0  -5 37.3961 10.5717   1
  -8   0  -5 27.4461 8.05022   6
  -8   0  -5 42.2393 12.0541   3
  -8   0  -5 28.2176 8.51298   6
  -8   0  -5 21.0153 10.0921   2
  -8   0  -5 30.3176 7.12872   5
   8   0   5 18.7615 8.08040   6
   8   0   5 35.1245 10.6553   1
   8   0   5 14.2893 8.01066   4
   8   0   5 25.0917 10.7213   3
  -9   0  -5 48.1047 11.1487   6
  -9   0  -5 31.7919 7.63834   5
   9   0   5 35.5424 10.5273   6
   9   0   5 20.2624 10.3162   1
   8  -1  -5 57.4805 12.7433   1
   8  -1  -5 48.0737 9.33836   5
   8  -1  -5 40.8468 9.44727   6
   8  -1  -5 53.2342 11.2420   4
  -8   1   5 58.5894 9.71447   6
  -8   1   5 67.4804 12.1836   2
  -8   1   5 52.5746 9.81972   5
   7  -1  -5 622.348 23.9154   5
   7  -1  -5 612.592 25.9820   4
   7  -1  -5 612.345 25.7362   6
   7  -1  -5 620.041 30.2971   1
  -7   1   5 595.026 24.9359   6
  -7   1   5 627.470 25.6922   6
  -7   1   5 641.258 24.6303   5
  -7   1   5 678.242 25.7969   2
   6  -1  -5 401.909 19.4668   4
   6  -1  -5 387.145 22.9516   3
   6  -1  -5 407.819 17.9852   5
   6  -1  -5 392.335 18.8609   6
   6  -1  -5 375.296 18.4844   6
   6  -1  -5 412.219 23.4032   1
  -6   1   5 383.586 27.3545   6
  -6   1   5 386.155 18.0021   2
  -6   1   5 353.821 18.4197   6
  -6   1   5 384.375 22.9675   1
  -6   1   5 386.191 18.4489   5
   5  -1  -5 412.898 17.7743   6
   5  -1  -5 469.807 22.7246   1
   5  -1  -5 418.716 17.6149   5
   5  -1  -5 442.051 18.7527   4
   5  -1  -5 389.858 18.7002   6
  -5   1   5 428.689 18.2457   5
  -5   1   5 430.847 18.5241   6
  -5   1   5 443.926 18.6355   6
  -5   1   5 436.871 17.6724   2
   4  -1  -5 238.523 12.6777   5
   4  -1  -5 253.567 15.8210   1
   4  -1  -5 235.465 12.4018   6
   4  -1  -5 226.115 12.5927   6
   4  -1  -5 242.307 15.3348   3
   4  -1  -5 262.975 13.3369   4
  -4   1   5 231.871 14.8380   1
  -4   1   5 257.489 12.9944   6
  -4   1   5 232.030 12.3194   6
  -4   1   5 244.173 13.0338   5
   3  -1  -5 133.782 9.06893   5
   3  -1  -5 151.970 11.4893   1
   3  -1  -5 135.379 8.75950   6
   3  -1  -5 146.174 9.29602   4
   3  -1  -5 137.760 9.11514   6
  -3   1   5 121.895 10.4017   1
  -3   1   5 132.727 9.15747   6
  -3   1   5 140.410 9.76939   5
  -3   1   5 134.372 9.02283   6
   2  -1  -5 5020.43 95.4178   6
   2  -1  -5 5076.22 99.3075   1
   2  -1  -5 4980.40 94.9536   4
   2  -1  -5 5026.65 96.5098   5
   2  -1  -5 4936.07 95.0165   6
  -2   1   5 4990.32 99.4686   1
  -2   1   5 5064.41 96.8247   5
  -2   1   5 5136.51 95.5531   6
  -2   1   5 5031.64 95.4474   4
  -2   1   5 5066.96 95.5756   6
   1  -1  -5 288.085 11.1712   6
   1  -1  -5 313.073 13.6465   6
   1  -1  -5 291.717 12.0118   5
   1  -1  -5 292.852 11.4207   4
  -1   1   5 287.978 11.4091   4
  -1   1   5 296.332 14.0305   5
  -1   1   5 283.287 12.7921   1
  -1   1   5 294.948 10.6025   2
  -1   1   5 288.111 11.2688   6
   0  -1  -5 1.42705 2.56984   4
   0  -1  -5 0.20353 2.35931   2
   0  -1  -5 -0.3300 2.24713   6
   0  -1  -5 0.46608 2.73690   5
   0  -1  -5 1.78556 2.48058   6
   0   1   5 1.80304 2.21430   6
   0   1   5 -3.2546 2.50747   5
   0   1   5 -1.5233 2.40037   2
   0   1   5 2.89543 2.60205   4
   0   1   5 2.34677 2.79165   6
  -1  -1  -5 4562.16 84.3141   6
  -1  -1  -5 4639.87 85.2314   4
  -1  -1  -5 4390.66 85.4671   5
  -1  -1  -5 4502.62 83.6684   3
  -1  -1  -5 4423.45 85.4885   2
  -1  -1  -5 4564.56 84.9259   6
   1   1   5 4607.10 85.4014   6
   1   1   5 4594.06 85.7920   2
   1   1   5 4553.80 84.7120   4
   1   1   5 4389.36 83.8456   6
  -2  -1  -5 -0.9839 2.68524   5
  -2  -1  -5 -0.3802 2.60732   6
  -2  -1  -5 -3.7175 2.50053   2
  -2  -1  -5 -0.5783 2.48281   6
  -2  -1  -5 3.51044 2.82039   3
   2   1   5 0.78192 2.31461   3
   2   1   5 1.43304 2.89558   4
   2   1   5 -1.1400 2.13659   6
  -3  -1  -5 158.502 8.51920   6
  -3  -1  -5 157.158 9.84203   2
  -3  -1  -5 167.135 8.75499   6
  -3  -1  -5 152.745 8.79612   3
   3   1   5 160.684 8.40759   3
   3   1   5 160.125 10.3136   2
   3   1   5 156.837 8.29331   6
   3   1   5 154.395 8.94043   4
   3   1   5 175.713 9.65297   1
   3   1   5 164.581 9.23837   6
  -4  -1  -5 552.893 20.3222   2
  -4  -1  -5 528.842 18.4051   3
  -4  -1  -5 572.255 18.3961   6
  -4  -1  -5 581.220 17.8352   6
   4   1   5 579.873 18.5633   3
   4   1   5 507.070 19.0241   1
   4   1   5 556.268 18.7366   6
   4   1   5 546.129 20.3133   2
   4   1   5 539.629 17.3536   6
   4   1   5 527.231 18.5102   4
  -5  -1  -5 215.703 13.7055   3
  -5  -1  -5 202.837 13.9324   6
  -5  -1  -5 200.892 11.6797   6
  -5  -1  -5 204.926 13.2326   2
   5   1   5 202.090 12.2671   3
   5   1   5 188.263 12.2411   6
   5   1   5 195.724 11.1308   6
   5   1   5 178.200 13.1104   2
   5   1   5 203.002 13.3158   1
  -6  -1  -5 942.019 29.2375   6
  -6  -1  -5 994.547 32.5622   3
  -6  -1  -5 1009.54 29.1508   6
  -6  -1  -5 976.486 32.8429   2
   6   1   5 1014.73 32.8002   1
   6   1   5 1042.93 31.4902   6
   6   1   5 919.938 31.9249   2
   6   1   5 967.252 30.6563   3
   6   1   5 912.304 28.3134   6
  -7  -1  -5 9.86286 6.78666   2
  -7  -1  -5 10.9259 6.68601   6
  -7  -1  -5 11.8324 8.90344   3
  -7  -1  -5 15.4157 7.22539   1
  -7  -1  -5 10.1109 4.62582   5
   7   1   5 14.8915 7.71346   3
   7   1   5 15.1786 8.03129   2
   7   1   5 10.5911 7.56598   1
   7   1   5 4.27307 6.65109   6
   7   1   5 12.2387 6.34461   6
  -8  -1  -5 192.869 18.9310   2
  -8  -1  -5 213.642 19.5557   6
  -8  -1  -5 190.918 15.7510   6
  -8  -1  -5 202.245 17.9985   1
   8   1   5 179.355 17.4961   3
   8   1   5 173.668 16.1277   6
   8   1   5 190.662 18.0690   1
  -9  -1  -5 539.333 25.0952   6
   9   1   5 516.460 30.0229   1
   8  -2  -5 28.7619 9.23915   6
   8  -2  -5 53.4115 10.7264   4
   8  -2  -5 22.3991 9.07834   5
   8  -2  -5 32.4243 12.7829   1
  -8   2   5 32.0753 9.20676   5
  -8   2   5 39.8490 9.84012   6
  -8   2   5 34.7840 12.1372   2
   7  -2  -5 301.618 18.6475   6
   7  -2  -5 302.182 18.1806   5
   7  -2  -5 253.563 21.0171   1
   7  -2  -5 313.846 18.2223   4
  -7   2   5 285.238 17.3773   5
  -7   2   5 256.723 17.8964   6
  -7   2   5 322.965 18.8532   6
   6  -2  -5 428.721 22.4933   6
   6  -2  -5 431.605 19.6197   5
   6  -2  -5 432.334 24.6456   1
   6  -2  -5 457.379 19.7141   4
   6  -2  -5 453.534 20.7924   6
   6  -2  -5 457.792 24.9106   3
  -6   2   5 413.072 19.8706   5
  -6   2   5 442.467 20.7163   6
  -6   2   5 474.940 21.1941   2
  -6   2   5 414.451 20.0378   6
  -6   2   5 449.925 25.4058   1
   5  -2  -5 315.028 15.8629   5
   5  -2  -5 320.444 15.0693   4
   5  -2  -5 329.444 19.8681   1
   5  -2  -5 276.821 15.2659   6
  -5   2   5 278.104 15.2142   6
  -5   2   5 294.371 15.6283   6
  -5   2   5 331.021 16.7163   5
   4  -2  -5 461.963 20.2560   3
   4  -2  -5 464.234 21.3363   1
   4  -2  -5 461.630 16.9268   4
   4  -2  -5 426.196 17.1326   6
   4  -2  -5 462.004 18.0784   5
   4  -2  -5 455.567 17.7663   6
  -4   2   5 462.914 18.1249   6
  -4   2   5 456.500 17.8983   6
  -4   2   5 427.441 20.5527   1
  -4   2   5 474.169 18.5451   5
   3  -2  -5 1619.49 37.4905   6
   3  -2  -5 1548.32 36.8819   6
   3  -2  -5 1528.01 37.9446   5
   3  -2  -5 1583.40 40.2659   3
   3  -2  -5 1547.66 41.2132   1
   3  -2  -5 1598.35 35.8758   4
  -3   2   5 1578.94 37.4116   6
  -3   2   5 1608.10 38.0023   6
  -3   2   5 1587.80 38.4310   5
  -3   2   5 1570.75 41.6892   1
   2  -2  -5 2406.33 50.3273   6
   2  -2  -5 2379.45 48.8160   4
   2  -2  -5 2428.49 55.1764   1
   2  -2  -5 2338.90 51.9485   3
   2  -2  -5 2359.98 49.8733   6
   2  -2  -5 2424.77 51.8397   5
  -2   2   5 2458.60 50.6730   6
  -2   2   5 2315.51 54.2435   1
  -2   2   5 2404.86 50.7415   6
  -2   2   5 2430.29 51.9605   5
  -2   2   5 2466.01 49.0106   4
   1  -2  -5 131.825 9.34331   6
   1  -2  -5 154.086 8.87982   5
   1  -2  -5 142.666 7.59014   4
   1  -2  -5 139.089 7.66979   6
  -1   2   5 142.536 9.87896   1
  -1   2   5 151.518 9.00483   5
  -1   2   5 126.962 7.33064   4
  -1   2   5 136.008 8.31111   2
  -1   2   5 140.774 8.29630   6
  -1   2   5 127.461 7.64516   6
   0  -2  -5 62.3237 5.94583   6
   0  -2  -5 63.0358 6.27003   5
   0  -2  -5 72.3587 6.56079   2
   0  -2  -5 65.6651 5.44100   6
   0  -2  -5 67.8162 5.32411   4
   0   2   5 64.2332 6.40386   5
   0   2   5 73.0856 5.72863   4
   0   2   5 67.0906 6.57101   2
   0   2   5 65.0610 5.92072   6
   0   2   5 69.9994 5.77333   6
  -1  -2  -5 9932.82 170.849   3
  -1  -2  -5 9888.72 173.302   6
  -1  -2  -5 9749.67 175.087   5
  -1  -2  -5 9693.89 173.775   6
  -1  -2  -5 9563.61 176.761   2
  -1  -2  -5 9721.51 174.062   4
   1   2   5 9631.54 173.581   4
   1   2   5 9999.99 175.471   5
   1   2   5 9891.54 177.071   2
   1   2   5 9839.04 174.974   6
   1   2   5 9512.78 173.378   6
  -2  -2  -5 705.756 18.8297   6
  -2  -2  -5 733.956 16.5798   3
  -2  -2  -5 710.011 17.9800   6
  -2  -2  -5 713.288 18.7875   5
  -2  -2  -5 688.453 21.1064   2
   2   2   5 728.484 19.7430   6
   2   2   5 716.576 19.3218   4
   2   2   5 723.842 21.5683   2
   2   2   5 730.846 18.3314   6
   2   2   5 741.982 16.4816   3
  -3  -2  -5 1312.17 29.2261   3
  -3  -2  -5 1304.59 29.0163   5
  -3  -2  -5 1321.63 30.3682   6
  -3  -2  -5 1284.53 29.5833   6
  -3  -2  -5 1323.22 33.5662   2
   3   2   5 1327.75 28.8009   3
   3   2   5 1314.66 29.8488   6
   3   2   5 1333.18 33.8502   2
   3   2   5 1274.39 32.8615   1
   3   2   5 1316.20 31.2202   6
  -4  -2  -5 1568.01 33.6312   5
  -4  -2  -5 1550.24 36.3470   6
  -4  -2  -5 1543.50 39.8274   2
  -4  -2  -5 1586.57 35.4106   6
   4   2   5 1623.47 36.1466   3
   4   2   5 1613.14 40.2411   1
   4   2   5 1609.05 40.5205   2
   4   2   5 1597.93 37.7652   6
   4   2   5 1545.45 36.0192   6
  -5  -2  -5 147.279 10.2092   6
  -5  -2  -5 147.532 9.88026   6
  -5  -2  -5 183.459 11.9389   3
  -5  -2  -5 146.612 12.1024   2
  -5  -2  -5 160.898 8.04776   5
   5   2   5 168.397 12.6544   2
   5   2   5 175.157 10.4873   6
   5   2   5 187.229 11.8770   6
   5   2   5 180.035 13.2061   1
   5   2   5 159.618 10.3882   3
  -6  -2  -5 1713.75 40.3307   6
  -6  -2  -5 1670.53 34.3964   5
  -6  -2  -5 1605.97 45.4509   2
  -6  -2  -5 1651.14 40.9937   6
   6   2   5 1622.54 45.3240   2
   6   2   5 1655.40 41.3669   6
   6   2   5 1708.42 46.8310   1
   6   2   5 1590.11 42.5107   3
   6   2   5 1679.71 43.1194   6
  -7  -2  -5 46.6269 8.54214   6
  -7  -2  -5 49.2256 8.12869   6
  -7  -2  -5 42.4398 9.88308   2
   7   2   5 50.0305 10.3464   2
   7   2   5 50.9445 9.51560   6
   7   2   5 22.4122 8.35029   1
   7   2   5 50.8794 9.58309   3
   7   2   5 53.7986 8.89253   6
  -8  -2  -5 8.86347 6.85586   6
  -8  -2  -5 1.82564 8.41492   2
  -8  -2  -5 17.5369 7.55681   6
   8   2   5 9.72213 7.40123   6
   8   2   5 2.65696 8.41749   2
   8   2   5 12.5927 8.26629   1
   8   2   5 5.47618 11.2946   6
   8   2   5 2.32669 9.29840   3
  -9  -2  -5 755.212 29.6332   6
  -9  -2  -5 731.893 28.4692   6
   9   2   5 682.391 52.1858   1
   8  -3  -5 126.048 18.2478   1
   8  -3  -5 138.304 14.8167   4
   8  -3  -5 129.027 14.8561   6
  -8   3   5 141.209 15.4621   5
  -8   3   5 125.390 19.4744   2
  -8   3   5 111.987 13.7566   6
   7  -3  -5 284.309 19.8204   4
   7  -3  -5 291.873 22.8749   1
   7  -3  -5 297.318 18.9596   5
   7  -3  -5 312.043 18.9124   6
  -7   3   5 292.900 20.4961   2
  -7   3   5 276.735 18.2036   6
  -7   3   5 294.150 18.6281   5
   6  -3  -5 604.057 24.2041   6
   6  -3  -5 609.636 24.8234   5
   6  -3  -5 568.726 28.6110   1
   6  -3  -5 624.143 22.3868   4
   6  -3  -5 567.443 33.9656   6
  -6   3   5 627.123 25.1809   5
  -6   3   5 596.291 24.6037   6
   5  -3  -5 150.425 11.1964   4
   5  -3  -5 165.190 12.2978   6
   5  -3  -5 140.774 11.5990   5
   5  -3  -5 171.480 15.9477   1
  -5   3   5 165.272 12.9610   6
  -5   3   5 167.191 15.4312   1
  -5   3   5 147.437 13.9530   5
   4  -3  -5 794.066 22.1468   4
   4  -3  -5 786.884 28.9661   1
   4  -3  -5 769.629 24.3680   6
   4  -3  -5 782.412 25.7263   5
   4  -3  -5 763.770 24.0732   6
   4  -3  -5 765.332 27.2795   3
  -4   3   5 798.676 24.9716   6
  -4   3   5 784.328 28.7840   1
  -4   3   5 817.584 26.3172   5
  -4   3   5 744.398 24.5038   6
   3  -3  -5 1350.16 38.3692   1
   3  -3  -5 1346.23 34.8871   5
   3  -3  -5 1275.83 32.7676   6
   3  -3  -5 1353.73 35.8243   3
   3  -3  -5 1297.50 32.6789   6
   3  -3  -5 1323.23 30.3235   4
  -3   3   5 1300.31 34.7616   5
  -3   3   5 1344.11 33.5625   6
  -3   3   5 1338.05 38.0021   1
  -3   3   5 1344.15 34.9686   6
   2  -3  -5 2886.11 58.3479   6
   2  -3  -5 2876.72 56.2597   4
   2  -3  -5 2930.92 59.1962   6
   2  -3  -5 2844.16 61.0047   5
   2  -3  -5 2875.53 60.3784   3
  -2   3   5 2814.92 64.0299   1
  -2   3   5 2916.28 55.9384   4
  -2   3   5 3024.42 61.6856   5
  -2   3   5 2809.29 59.2847   6
  -2   3   5 2873.73 58.9366   6
   1  -3  -5 303.438 11.4019   3
   1  -3  -5 328.164 13.3827   5
   1  -3  -5 318.819 10.2560   4
   1  -3  -5 309.229 11.0810   6
  -1   3   5 318.993 11.9519   6
  -1   3   5 308.976 10.3952   4
  -1   3   5 288.595 13.1008   5
  -1   3   5 307.581 13.4059   2
  -1   3   5 308.654 12.3239   6
  -1   3   5 328.464 15.1335   1
   0  -3  -5 1897.10 38.0404   4
   0  -3  -5 1885.58 38.5037   6
   0  -3  -5 1893.24 37.0129   3
   0  -3  -5 1919.22 39.3217   6
   0   3   5 1896.87 40.5588   6
   0   3   5 1844.49 42.8169   2
   0   3   5 1883.97 39.6134   6
   0   3   5 1903.59 38.2735   4
   0   3   5 1971.79 45.6317   5
  -1  -3  -5 5234.02 95.3290   6
  -1  -3  -5 5241.36 101.127   2
  -1  -3  -5 5245.23 97.8432   5
  -1  -3  -5 5175.94 94.9088   6
   1   3   5 5229.70 96.0546   4
   1   3   5 5344.50 98.2556   5
   1   3   5 5209.91 95.9448   6
   1   3   5 5099.39 100.515   2
   1   3   5 5349.88 97.2569   6
  -2  -3  -5 1059.37 28.9873   2
  -2  -3  -5 1101.79 24.5192   6
  -2  -3  -5 1095.51 25.3639   5
  -2  -3  -5 1123.78 23.8730   6
   2   3   5 1059.40 24.5185   6
   2   3   5 1070.94 25.6938   5
   2   3   5 1099.35 26.2987   4
   2   3   5 1087.94 26.2509   6
   2   3   5 1117.60 29.6150   2
  -3  -3  -5 8.32765 3.10854   6
  -3  -3  -5 0.26121 4.12550   2
  -3  -3  -5 2.54459 2.61243   6
  -3  -3  -5 3.44842 2.66169   5
   3   3   5 8.84465 3.56955   6
   3   3   5 9.32286 4.48532   1
   3   3   5 7.98141 3.18612   6
   3   3   5 4.95822 4.01080   2
   3   3   5 5.55122 2.64417   3
  -4  -3  -5 3133.86 57.8550   5
  -4  -3  -5 2971.14 67.3186   2
  -4  -3  -5 3148.70 60.3894   6
  -4  -3  -5 3033.99 61.3530   6
   4   3   5 3146.68 68.2215   1
   4   3   5 3002.85 61.6823   6
   4   3   5 3080.76 61.1597   3
   4   3   5 3084.50 67.4778   2
   4   3   5 3167.39 63.8788   6
  -5  -3  -5 122.412 8.45205   6
  -5  -3  -5 110.578 8.49499   6
  -5  -3  -5 111.485 10.7555   2
   5   3   5 102.544 12.6994   1
   5   3   5 101.760 8.53236   6
   5   3   5 111.392 10.9800   2
   5   3   5 112.920 9.03076   3
   5   3   5 111.764 9.92775   6
  -6  -3  -5 1147.53 36.4937   2
  -6  -3  -5 1176.65 30.0367   6
  -6  -3  -5 1156.83 30.7041   6
   6   3   5 1185.72 38.0120   1
   6   3   5 1145.81 36.3399   2
   6   3   5 1154.09 31.9885   6
   6   3   5 1163.11 33.7673   6
  -7  -3  -5 282.796 18.4323   2
  -7  -3  -5 284.154 14.8333   6
  -7  -3  -5 262.421 14.6860   6
   7   3   5 275.792 20.2382   1
   7   3   5 291.807 17.2705   3
   7   3   5 300.714 17.6434   6
   7   3   5 285.736 18.6692   2
   7   3   5 274.089 15.8821   6
  -8  -3  -5 0.15059 5.86921   6
  -8  -3  -5 9.49147 8.82995   2
   8   3   5 -2.3672 7.44203   2
   8   3   5 11.4954 8.04588   1
   8   3   5 -11.534 6.63694   6
   8   3   5 -9.7225 6.26666   6
   8   3   5 1.65157 7.97000   3
  -9  -3  -5 693.574 26.8882   6
  -9  -3  -5 769.577 27.0808   6
   7  -4  -5 66.7271 9.57263   4
   7  -4  -5 45.1065 9.80307   5
   7  -4  -5 48.0760 10.4815   6
   7  -4  -5 46.3755 12.7717   1
  -7   4   5 84.7791 14.7818   2
  -7   4   5 82.7799 11.2319   6
  -7   4   5 70.5224 11.8796   5
   6  -4  -5 328.897 18.3817   6
   6  -4  -5 323.294 22.0808   3
   6  -4  -5 299.198 22.0280   1
   6  -4  -5 362.403 20.0599   5
   6  -4  -5 349.223 16.1540   4
   6  -4  -5 307.142 17.5590   6
  -6   4   5 305.179 18.3992   6
  -6   4   5 353.560 23.3234   1
  -6   4   5 332.050 19.5639   5
  -6   4   5 342.295 18.5403   6
   5  -4  -5 -0.1662 4.80540   6
   5  -4  -5 -3.2078 4.86792   5
   5  -4  -5 -0.1467 5.01950   1
   5  -4  -5 0.13254 4.19478   4
  -5   4   5 -4.0970 5.32822   5
  -5   4   5 -0.8196 5.57894   6
  -5   4   5 3.14442 6.14723   1
   4  -4  -5 264.410 16.0960   3
   4  -4  -5 248.057 11.0511   4
   4  -4  -5 261.688 13.4787   6
   4  -4  -5 250.093 13.7749   6
   4  -4  -5 251.343 17.6008   1
   4  -4  -5 242.494 14.2818   5
  -4   4   5 256.601 13.8636   6
  -4   4   5 266.713 16.9134   1
  -4   4   5 250.899 15.4985   5
  -4   4   5 261.126 14.4187   6
   3  -4  -5 816.743 20.3621   4
   3  -4  -5 810.159 23.3920   6
   3  -4  -5 840.036 24.3055   6
   3  -4  -5 808.840 26.3511   5
   3  -4  -5 822.937 26.1090   3
  -3   4   5 816.037 24.5431   6
  -3   4   5 785.236 28.4534   1
  -3   4   5 847.346 26.8487   5
  -3   4   5 839.883 24.9385   6
   2  -4  -5 4.68386 3.41558   3
   2  -4  -5 10.0561 4.05386   5
   2  -4  -5 -2.1464 3.04804   6
   2  -4  -5 2.82861 2.98218   6
  -2   4   5 -0.9999 4.17634   1
  -2   4   5 2.40831 3.25511   6
  -2   4   5 -1.0838 4.00846   5
  -2   4   5 4.76192 3.62639   6
   1  -4  -5 319.742 13.4573   5
   1  -4  -5 284.272 10.3261   6
   1  -4  -5 288.419 10.9841   3
   1  -4  -5 278.074 11.3653   6
   1  -4  -5 279.297 8.60417   4
  -1   4   5 287.803 11.4433   6
  -1   4   5 273.064 11.6903   6
  -1   4   5 279.270 15.2017   1
  -1   4   5 266.193 13.2709   5
   0  -4  -5 34.2984 4.15949   3
   0  -4  -5 28.2835 3.65563   6
   0  -4  -5 35.6667 5.82528   5
   0  -4  -5 30.5657 3.92166   6
   0   4   5 35.0655 5.79474   5
   0   4   5 23.6965 5.37355   2
   0   4   5 26.4198 3.57106   4
   0   4   5 23.8671 4.50109   6
   0   4   5 28.9409 4.28169   6
  -1  -4  -5 1483.84 29.4243   6
  -1  -4  -5 1492.09 37.4221   2
  -1  -4  -5 1502.88 34.0323   5
  -1  -4  -5 1482.14 29.4452   6
   1   4   5 1501.00 31.6948   6
   1   4   5 1482.09 37.5666   2
   1   4   5 1468.99 32.2091   6
   1   4   5 1498.27 31.8088   4
  -2  -4  -5 132.756 5.46766   6
  -2  -4  -5 150.293 10.4793   2
  -2  -4  -5 142.942 5.63315   6
  -2  -4  -5 137.390 7.70687   5
   2   4   5 142.420 8.32813   5
   2   4   5 141.912 6.96539   6
   2   4   5 143.501 10.8221   2
   2   4   5 142.860 8.09339   6
  -3  -4  -5 156.589 6.16914   6
  -3  -4  -5 138.892 10.7676   2
  -3  -4  -5 152.032 7.34978   5
  -3  -4  -5 148.462 6.30659   6
   3   4   5 142.194 8.47153   6
   3   4   5 144.557 7.76681   5
   3   4   5 147.557 7.60800   6
   3   4   5 149.783 11.1490   2
   3   4   5 147.686 10.9567   1
  -4  -4  -5 1903.64 50.6274   2
  -4  -4  -5 1811.48 37.7046   6
  -4  -4  -5 1892.22 37.3223   6
   4   4   5 1834.54 39.1765   3
   4   4   5 1857.81 47.3359   1
   4   4   5 1887.07 46.8017   2
   4   4   5 1836.55 40.2652   6
   4   4   5 1886.50 42.1443   6
  -5  -4  -5 1208.30 28.0320   6
  -5  -4  -5 1135.19 28.3389   6
  -5  -4  -5 1209.02 36.0369   2
   5   4   5 1184.74 36.9297   1
   5   4   5 1224.20 32.2095   6
   5   4   5 1178.63 30.4506   3
   5   4   5 1229.37 35.9522   2
   5   4   5 1188.35 35.7665   6
  -6  -4  -5 74.6993 10.6656   2
  -6  -4  -5 87.0587 8.23268   6
  -6  -4  -5 91.3732 7.92977   6
   6   4   5 86.7250 12.9849   1
   6   4   5 90.9978 11.8393   2
   6   4   5 105.281 11.1451   6
   6   4   5 93.8067 10.4341   3
   6   4   5 97.9095 9.65991   6
  -7  -4  -5 193.941 11.7832   6
  -7  -4  -5 201.124 17.0955   2
  -7  -4  -5 197.703 11.4048   6
   7   4   5 218.041 19.0355   1
   7   4   5 219.467 16.8959   2
   7   4   5 215.561 14.3082   6
   7   4   5 182.890 14.5263   6
   7   4   5 228.610 15.8735   3
  -8  -4  -5 16.1534 7.69691   6
  -8  -4  -5 2.95622 6.00983   6
  -8  -4  -5 15.0341 9.58754   2
   8   4   5 10.2249 8.32184   1
   8   4   5 -0.3665 6.74856   6
   8   4   5 6.97292 8.59914   6
   8   4   5 10.1412 8.09529   2
   8   4   5 -2.1405 8.23496   3
   7  -5  -5 11.3314 6.89977   6
   7  -5  -5 -0.7266 8.07055   1
   7  -5  -5 7.90982 5.80144   4
  -7   5   5 9.24045 8.40388   5
  -7   5   5 -0.6183 6.26340   6
   6  -5  -5 14.7940 8.92582   5
   6  -5  -5 13.2781 6.50607   6
   6  -5  -5 25.4841 9.60744   1
   6  -5  -5 28.3160 7.37096   6
   6  -5  -5 38.8894 11.1872   3
   6  -5  -5 18.6855 5.89885   4
  -6   5   5 28.5447 8.39304   5
  -6   5   5 29.2680 8.42277   6
  -6   5   5 16.7832 7.59248   6
  -6   5   5 23.1718 9.94637   1
   5  -5  -5 89.1429 10.7836   5
   5  -5  -5 123.990 15.4564   3
   5  -5  -5 104.909 11.6529   6
   5  -5  -5 117.631 14.0192   6
  -5   5   5 137.072 15.7863   1
  -5   5   5 133.225 12.6224   6
  -5   5   5 121.783 14.0351   5
  -5   5   5 115.964 12.6704   6
   4  -5  -5 185.255 13.9221   3
   4  -5  -5 203.579 12.6300   6
   4  -5  -5 171.791 11.4147   6
   4  -5  -5 177.650 13.6305   5
  -4   5   5 191.949 12.6440   6
  -4   5   5 188.643 15.5759   1
  -4   5   5 206.901 15.4607   5
  -4   5   5 193.043 13.0921   6
   3  -5  -5 692.613 24.3938   3
   3  -5  -5 727.349 25.5859   5
   3  -5  -5 756.578 21.9887   6
   3  -5  -5 734.817 22.7693   6
  -3   5   5 715.842 27.1363   1
  -3   5   5 732.903 25.3254   3
  -3   5   5 726.796 23.2959   6
  -3   5   5 768.225 23.7439   6
  -3   5   5 740.718 26.0722   5
   2  -5  -5 148.474 8.38219   6
   2  -5  -5 150.274 10.0058   3
   2  -5  -5 157.856 11.1988   5
  -2   5   5 149.172 9.92691   6
  -2   5   5 136.996 12.1086   1
  -2   5   5 143.033 9.29204   6
  -2   5   5 149.821 10.5286   3
  -2   5   5 157.782 11.8019   5
   1  -5  -5 19.3649 3.99385   6
   1  -5  -5 25.8930 3.80177   6
   1  -5  -5 23.3652 4.31296   3
   1  -5  -5 11.5466 4.37337   5
  -1   5   5 17.1508 4.33421   6
  -1   5   5 22.3459 6.68333   1
  -1   5   5 13.7927 4.06686   6
  -1   5   5 24.9771 5.07275   3
  -1   5   5 17.4345 5.68960   5
   0  -5  -5 538.797 13.8333   3
   0  -5  -5 549.997 12.8085   6
   0  -5  -5 526.987 18.5884   5
   0  -5  -5 543.206 12.8890   6
   0   5   5 532.854 14.0687   3
   0   5   5 516.617 20.2776   2
   0   5   5 554.648 19.2028   5
   0   5   5 531.535 16.5386   6
   0   5   5 529.373 13.5682   4
  -1  -5  -5 11.5128 3.94424   5
   1   5   5 8.57421 3.09150   6
   1   5   5 3.99711 4.69616   2
   1   5   5 7.63519 3.27533   6
   1   5   5 9.31612 3.30032   4
   1   5   5 11.1540 4.59669   5
  -2  -5  -5 390.638 13.9173   5
  -2  -5  -5 406.667 17.6682   2
   2   5   5 411.697 18.2659   2
   2   5   5 386.102 11.8727   6
   2   5   5 405.548 13.4512   6
  -3  -5  -5 51.8838 8.01233   2
  -3  -5  -5 43.9367 4.95803   5
   3   5   5 41.3856 5.28300   5
   3   5   5 35.5027 5.42600   6
   3   5   5 29.0824 7.24303   2
   3   5   5 41.3453 4.82910   6
   3   5   5 38.3121 7.31386   1
  -4  -5  -5 546.989 22.3811   2
   4   5   5 559.129 22.9030   2
   4   5   5 575.560 17.1244   6
   4   5   5 579.700 18.3824   6
   4   5   5 549.443 16.0199   3
   4   5   5 557.124 23.1164   1
  -5  -5  -5 381.246 19.5160   2
   5   5   5 386.485 19.5013   2
   5   5   5 354.466 14.8263   3
   5   5   5 383.666 20.7382   1
   5   5   5 371.647 15.9340   6
   6   5   5 2.63100 4.88863   3
   6   5   5 1.22780 5.84799   6
   6   5   5 17.3314 5.78749   6
   6   5   5 2.83239 6.26353   2
   6   5   5 -2.8644 5.52646   1
  -7  -5  -5 352.691 22.0882   2
   7   5   5 307.320 17.4883   6
   7   5   5 334.707 19.3905   2
   7   5   5 352.814 19.0286   3
   7   5   5 325.003 17.6304   6
   7   5   5 328.458 22.6079   1
  -8  -5  -5 123.469 16.4789   2
   8   5   5 84.8747 19.9464   1
   8   5   5 98.3645 14.5220   2
   8   5   5 159.141 16.7717   3
   8   5   5 115.721 13.1598   6
   7  -6  -5 403.060 21.6269   6
  -7   6   5 360.241 23.6537   5
   6  -6  -5 136.384 12.8604   6
   6  -6  -5 121.058 15.0351   5
   6  -6  -5 147.890 17.3624   3
   6  -6  -5 119.038 13.0014   6
  -6   6   5 108.584 14.6425   5
  -6   6   5 117.716 13.2697   6
  -6   6   5 124.401 16.6569   1
   5  -6  -5 171.547 14.6970   6
   5  -6  -5 188.805 15.9975   3
   5  -6  -5 169.161 13.6111   6
   5  -6  -5 202.464 19.7140   5
  -5   6   5 180.629 14.5518   6
  -5   6   5 203.025 15.3042   6
  -5   6   5 182.638 17.4077   1
  -5   6   5 176.445 16.8069   5
   4  -6  -5 14.4477 6.62585   5
   4  -6  -5 0.14023 3.98947   6
   4  -6  -5 13.7902 5.60395   6
   4  -6  -5 8.54763 6.19011   3
  -4   6   5 6.78637 6.78628   5
  -4   6   5 10.4182 5.53154   6
  -4   6   5 4.99998 6.33053   3
  -4   6   5 1.32844 5.27173   1
  -4   6   5 9.35589 7.17984   6
   3  -6  -5 284.401 12.3634   6
   3  -6  -5 290.094 15.8987   3
   3  -6  -5 289.676 13.7477   6
  -3   6   5 292.271 17.8569   1
  -3   6   5 258.200 13.9998   6
  -3   6   5 258.951 13.7691   6
  -3   6   5 272.885 15.8155   3
  -3   6   5 267.922 16.6331   5
   2  -6  -5 1468.34 36.8460   3
   2  -6  -5 1448.22 33.7168   6
   2  -6  -5 1442.08 32.2510   6
   2  -6  -5 1502.82 40.5390   5
  -2   6   5 1413.16 41.8192   1
  -2   6   5 1502.93 38.7157   6
  -2   6   5 1421.22 40.0612   5
  -2   6   5 1513.48 36.0862   6
  -2   6   5 1494.52 37.3770   3
   1  -6  -5 192.457 12.2420   5
   1  -6  -5 196.522 9.96542   3
   1  -6  -5 176.545 7.26751   6
   1  -6  -5 192.459 7.16970   6
  -1   6   5 190.281 10.0747   6
  -1   6   5 186.422 10.0772   6
  -1   6   5 193.506 12.7935   5
  -1   6   5 191.991 11.8965   3
   0  -6  -5 34.9316 4.59266   3
   0  -6  -5 43.4563 6.86810   5
   0   6   5 38.9850 5.27671   6
   0   6   5 44.1416 7.46564   5
   0   6   5 55.5511 5.69285   3
   0   6   5 43.2555 5.52938   6
   0   6   5 38.0961 7.89328   2
  -1  -6  -5 479.320 17.5991   5
   1   6   5 487.839 14.1705   6
   1   6   5 461.723 14.2941   6
   1   6   5 467.833 20.7126   2
   1   6   5 466.047 14.2235   4
   1   6   5 476.874 17.8078   5
  -2  -6  -5 7.28603 3.69474   5
   2   6   5 12.2418 3.59912   6
   2   6   5 0.09966 5.10461   2
   2   6   5 5.74912 3.05470   6
   2   6   5 1.48739 4.09164   5
  -3  -6  -5 74.3872 6.74136   5
  -3  -6  -5 76.1454 10.1791   2
   3   6   5 91.7820 11.6819   1
   3   6   5 79.3825 6.20020   6
   3   6   5 82.5729 8.72985   6
   3   6   5 83.0683 7.42147   5
   3   6   5 70.1692 10.6258   2
  -4  -6  -5 5.50980 6.09494   2
   4   6   5 1.89206 5.31107   2
   4   6   5 9.81785 4.14189   6
   4   6   5 3.72718 5.31403   1
   4   6   5 14.7614 4.19639   3
   4   6   5 12.2225 3.99822   6
  -5  -6  -5 398.375 20.2591   2
   5   6   5 416.614 22.1319   1
   5   6   5 420.952 20.8576   2
   5   6   5 349.196 15.6147   6
   5   6   5 381.728 14.9019   3
   5   6   5 378.975 16.1265   6
   6   6   5 391.699 23.1621   1
   6   6   5 361.276 16.9557   3
   6   6   5 386.911 23.1962   2
   6   6   5 363.493 17.4440   6
   6   6   5 372.788 16.5633   6
  -7  -6  -5 18.8338 9.70821   2
   7   6   5 19.9895 7.24785   6
   7   6   5 27.3983 8.42136   3
   7   6   5 30.5664 10.3853   1
   7   6   5 14.8663 8.68077   2
   7   6   5 14.1992 7.62607   6
  -8  -6  -5 42.2407 12.3380   2
   8   6   5 58.1638 12.1993   2
   8   6   5 70.1546 11.8387   3
   8   6   5 43.3470 11.5750   1
   8   6   5 48.7652 9.44651   6
   6  -7  -5 16.2762 8.11433   6
   6  -7  -5 24.0433 8.43695   6
  -6   7   5 7.41413 10.5097   1
  -6   7   5 16.1000 8.67618   5
  -6   7   5 28.0289 8.19149   6
   5  -7  -5 151.699 13.1228   6
   5  -7  -5 115.009 13.8988   5
  -5   7   5 124.917 15.3486   3
  -5   7   5 131.435 15.9359   5
  -5   7   5 143.772 14.4618   6
  -5   7   5 143.592 17.0380   1
  -5   7   5 179.418 15.4025   6
   4  -7  -5 210.015 11.9758   6
   4  -7  -5 180.397 18.1359   5
   4  -7  -5 215.035 13.5974   6
  -4   7   5 188.230 14.0897   6
  -4   7   5 202.048 14.2514   6
  -4   7   5 215.574 17.6052   5
  -4   7   5 238.952 17.6237   3
   3  -7  -5 249.077 12.4642   6
   3  -7  -5 234.928 11.0601   6
   3  -7  -5 237.412 14.4670   3
  -3   7   5 258.454 14.3831   6
  -3   7   5 237.486 16.0148   3
  -3   7   5 228.336 13.6051   6
  -3   7   5 221.596 16.8572   5
  -3   7   5 230.950 17.0701   1
   2  -7  -5 865.776 20.1512   6
   2  -7  -5 844.785 26.1275   3
   2  -7  -5 870.124 20.9330   6
  -2   7   5 872.190 30.3561   5
  -2   7   5 848.081 25.2857   6
  -2   7   5 911.173 25.8542   6
  -2   7   5 887.248 27.0407   3
  -2   7   5 811.319 30.8239   1
   1  -7  -5 509.710 17.6120   3
   1  -7  -5 509.752 21.3502   5
  -1   7   5 485.701 17.0464   6
  -1   7   5 506.474 17.9320   3
  -1   7   5 515.773 17.2710   6
  -1   7   5 523.065 23.4902   2
  -1   7   5 491.023 21.5961   5
   0  -7  -5 134.269 8.52413   3
   0  -7  -5 129.948 10.9369   5
   0   7   5 126.359 8.45256   6
   0   7   5 132.923 8.25881   3
   0   7   5 142.452 11.9255   5
   0   7   5 138.863 8.62813   6
   0   7   5 146.159 13.2704   2
  -1  -7  -5 2282.46 52.3930   5
   1   7   5 2204.72 47.2618   6
   1   7   5 2267.47 46.0516   6
   1   7   5 2304.98 52.0922   5
   1   7   5 2150.06 56.2816   2
   1   7   5 2175.74 45.2864   4
  -2  -7  -5 8.09562 4.61031   5
   2   7   5 5.64734 4.52816   5
   2   7   5 -0.2404 2.97252   6
   2   7   5 5.00618 3.63809   6
   2   7   5 6.53890 6.08291   2
   3   7   5 419.074 21.4274   2
   3   7   5 384.833 17.6592   6
   3   7   5 420.608 13.0060   6
   3   7   5 429.527 15.8560   5
   3   7   5 388.584 19.9459   1
  -4  -7  -5 317.768 18.5013   2
   4   7   5 314.815 12.9492   6
   4   7   5 331.035 12.4581   6
   4   7   5 372.611 24.0580   1
   4   7   5 310.389 11.9871   5
   4   7   5 325.204 18.6208   2
   5   7   5 45.2745 6.93552   3
   5   7   5 25.1333 8.65964   1
   5   7   5 43.6231 7.17766   6
   5   7   5 34.8712 6.75901   6
   5   7   5 31.6717 9.51872   2
  -6  -7  -5 482.625 25.4821   2
   6   7   5 496.397 19.7614   3
   6   7   5 482.479 26.6458   1
   6   7   5 482.002 18.8735   6
   6   7   5 514.658 20.3703   6
   6   7   5 497.003 24.4104   2
  -7  -7  -5 6.51137 9.83339   2
   7   7   5 -4.6984 6.70879   3
   7   7   5 0.52135 6.79372   6
   7   7   5 3.79262 8.15964   2
   7   7   5 -3.6993 9.17949   1
   7   7   5 6.96347 7.25486   6
   6  -8  -5 310.512 18.3922   6
  -6   8   5 357.975 25.0343   5
   5  -8  -5 83.5487 13.7335   3
   5  -8  -5 77.5782 9.71170   6
   5  -8  -5 83.7614 10.7452   6
  -5   8   5 74.3514 11.7043   5
  -5   8   5 96.4592 14.3847   1
  -5   8   5 85.3418 14.4537   3
  -5   8   5 78.8885 11.2360   6
   4  -8  -5 222.507 17.7041   3
   4  -8  -5 204.645 12.4809   6
   4  -8  -5 201.091 14.0743   6
  -4   8   5 207.202 15.9597   6
  -4   8   5 201.817 17.2699   3
  -4   8   5 230.956 14.9582   6
  -4   8   5 172.309 16.5252   5
  -4   8   5 211.213 18.1633   1
   3  -8  -5 356.036 20.5013   5
   3  -8  -5 371.326 18.9238   6
   3  -8  -5 368.971 18.8261   3
  -3   8   5 367.640 17.8375   6
  -3   8   5 366.648 19.7324   3
  -3   8   5 355.358 21.4733   5
  -3   8   5 384.831 17.8117   6
  -3   8   5 367.215 21.2965   1
   2  -8  -5 1571.67 54.3046   3
   2  -8  -5 1389.02 42.6349   5
  -2   8   5 1420.56 36.8146   6
  -2   8   5 1404.27 43.7447   1
  -2   8   5 1413.61 36.5383   6
  -2   8   5 1502.76 39.3318   3
  -1   8   5 3.23371 4.29682   6
  -1   8   5 4.29226 5.32590   3
  -1   8   5 0.87744 6.10469   1
  -1   8   5 -2.9184 3.78900   6
  -1   8   5 -1.4352 5.26286   5
   0  -8  -5 670.898 25.0682   5
   0   8   5 660.483 19.5768   6
   0   8   5 635.620 22.3724   3
   0   8   5 691.013 28.9588   2
   0   8   5 713.593 19.7453   6
   0   8   5 643.400 25.3123   5
  -1  -8  -5 2605.49 60.3616   5
   1   8   5 2647.55 53.6044   6
   1   8   5 2676.67 66.6429   2
   1   8   5 2642.79 52.7717   6
   1   8   5 2583.84 52.5386   4
   1   8   5 2611.71 57.6087   4
   1   8   5 2691.91 61.2080   5
   2   8   5 770.611 19.7498   6
   2   8   5 818.609 31.7159   2
   2   8   5 804.138 25.9454   5
   2   8   5 793.274 28.5666   1
   2   8   5 765.227 20.9995   6
   3   8   5 8.71193 5.05093   5
   3   8   5 4.70078 6.49528   2
   3   8   5 10.3989 3.56054   6
   3   8   5 7.50444 3.84626   6
   3   8   5 14.6322 7.42664   1
   4   8   5 584.278 26.7491   1
   4   8   5 618.249 17.7048   6
   4   8   5 566.646 26.3544   2
   4   8   5 608.461 18.6755   6
   4   8   5 594.964 19.1117   5
   5   8   5 27.4377 9.66901   1
   5   8   5 24.9186 7.56923   6
   5   8   5 17.6132 5.67834   3
   5   8   5 11.8854 6.06003   6
   5   8   5 14.9798 5.75777   3
   5   8   5 22.1599 8.91144   2
  -6  -8  -5 662.404 34.9099   2
   6   8   5 686.184 29.2630   2
   6   8   5 620.349 31.0204   1
   6   8   5 690.126 22.9967   6
   6   8   5 648.894 22.5521   3
   6   8   5 661.737 23.2848   6
   5  -9  -5 198.123 12.3862   6
   5  -9  -5 188.312 12.8795   6
  -5   9   5 147.056 17.4943   5
  -5   9   5 183.182 17.8720   3
  -5   9   5 176.160 19.3213   1
  -4   9   5 102.695 14.7552   1
  -4   9   5 91.6222 11.6127   6
  -4   9   5 85.5325 13.5739   3
  -4   9   5 69.1282 13.5580   5
  -4   9   5 71.4008 10.8934   6
  -3   9   5 724.699 25.6256   6
  -3   9   5 743.099 31.0131   1
  -3   9   5 714.202 28.3804   3
  -3   9   5 722.802 31.6540   5
  -3   9   5 675.320 25.1326   6
   2  -9  -5 243.156 16.0809   3
  -2   9   5 230.681 15.9163   3
  -2   9   5 255.994 14.3272   6
  -2   9   5 209.006 17.8523   5
  -2   9   5 275.927 19.6386   1
  -2   9   5 259.461 13.9883   6
   1  -9  -5 10.2744 6.58686   3
  -1   9   5 14.9682 7.32264   1
  -1   9   5 16.6569 5.91708   3
  -1   9   5 8.75665 4.68443   6
  -1   9   5 3.75361 8.17640   2
  -1   9   5 2.03998 7.41146   5
  -1   9   5 5.24798 5.36446   6
   0   9   5 245.567 12.5028   3
   0   9   5 229.739 19.0635   2
   0   9   5 233.838 18.9751   5
   0   9   5 224.975 11.2682   6
   0   9   5 188.614 10.5614   6
   1   9   5 1636.14 36.5498   6
   1   9   5 1638.20 36.7968   6
   1   9   5 1712.47 45.8509   5
   1   9   5 1692.87 50.9447   2
   2   9   5 114.352 8.51387   6
   2   9   5 110.847 14.8910   1
   2   9   5 117.196 15.0786   2
   2   9   5 108.751 11.8557   5
   2   9   5 130.778 9.49548   4
   2   9   5 115.046 8.09286   6
   3   9   5 259.317 15.1718   4
   3   9   5 228.492 11.2118   6
   3   9   5 279.058 20.4699   2
   3   9   5 220.073 17.2550   1
   3   9   5 260.088 14.6063   5
   4   9   5 1242.11 29.8311   6
   4   9   5 1244.67 41.7278   2
   4   9   5 1265.09 38.6886   4
   4   9   5 1207.30 28.9307   6
   4   9   5 1243.62 31.6053   5
   4   9   5 1219.69 41.9185   1
   5   9   5 560.645 19.6524   6
   5   9   5 626.697 26.4434   4
   5   9   5 577.984 27.8212   2
   5   9   5 479.859 26.8352   1
   6   9   5 331.081 22.0693   2
   6   9   5 279.830 27.8905   1
   6   9   5 316.992 15.2744   6
   6   9   5 311.894 21.0976   4
   6   9   5 337.599 16.2789   6
   3 -10  -5 436.296 24.6707   3
  -3  10   5 432.807 28.8905   5
  -3  10   5 452.213 24.9766   1
  -3  10   5 458.717 23.7257   3
  -3  10   5 474.881 21.5404   6
  -3  10   5 438.038 20.9521   6
   2 -10  -5 188.423 16.9914   3
  -2  10   5 230.923 19.6442   5
  -2  10   5 202.123 16.2910   3
  -2  10   5 213.724 13.7470   6
  -2  10   5 190.575 19.2251   1
  -2  10   5 198.595 18.3015   2
   1 -10  -5 44.2594 9.78273   3
  -1  10   5 29.4077 6.86328   6
  -1  10   5 49.4701 11.1898   1
  -1  10   5 54.5323 11.3202   5
  -1  10   5 32.4489 6.46280   6
  -1  10   5 46.9886 8.84746   3
  -1  10   5 36.6482 11.9604   2
   0  10   5 521.287 17.9633   6
   0  10   5 511.072 27.2302   2
   0  10   5 515.232 19.5370   3
   0  10   5 474.141 17.3535   6
   0  10   5 532.225 25.6006   5
   1  10   5 512.782 27.5911   2
   1  10   5 494.995 23.0579   1
   1  10   5 535.493 16.6695   6
   1  10   5 534.440 24.2650   5
   1  10   5 533.938 16.9314   6
   2  10   5 114.857 12.7176   5
   2  10   5 105.249 14.8637   2
   2  10   5 113.537 9.33176   4
   2  10   5 129.718 15.6132   1
   2  10   5 110.997 8.34807   6
   3  10   5 38.2438 7.79839   4
   3  10   5 53.4547 11.6049   2
   3  10   5 31.1989 8.26560   5
   3  10   5 39.4575 8.62829   1
   4  10   5 607.656 21.7603   5
   4  10   5 627.092 30.3428   2
   4  10   5 602.123 28.9543   1
   4  10   5 674.016 26.3353   4
   2 -11  -5 45.8991 12.2127   3
  -2  11   5 38.7156 11.7338   5
  -2  11   5 35.8218 8.66026   6
  -2  11   5 40.9387 10.1589   3
  -2  11   5 51.7140 9.73814   6
  -2  11   5 42.3482 12.2319   2
  -1  11   5 2.10547 5.93482   6
  -1  11   5 -2.7172 7.91124   5
  -1  11   5 18.8124 10.7954   2
  -1  11   5 3.43385 8.78277   1
  -1  11   5 5.84625 5.38526   6
  -1  11   5 14.4062 7.11831   3
   0  11   5 78.7021 12.1722   5
   0  11   5 68.6930 9.86410   3
   0  11   5 76.1914 7.78387   6
   0  11   5 81.2266 8.24006   6
   0  11   5 95.8062 14.5974   2
   1  11   5 12.8123 9.64809   2
   1  11   5 -2.4644 6.40230   1
   1  11   5 2.83519 7.92284   5
   2  11   5 12.1254 10.0466   2
   2  11   5 21.7886 7.38000   1
   2  11   5 6.50946 8.67600   5
   2  11   5 14.2354 5.84549   4
   3  11   5 -2.1809 6.38888   4
   3  11   5 4.86507 8.16631   1
   3  11   5 25.3179 11.2863   2
   0   9  -6 15.9000 8.41174   4
   0   9  -6 24.0506 7.08806   6
   0   9  -6 -5.9127 5.45449   2
   0   9  -6 7.46775 7.07144   2
   0   9  -6 6.38262 8.33996   5
   0   9  -6 14.3377 6.44442   6
  -1   9  -6 112.675 22.0218   3
  -1   9  -6 125.305 14.2885   4
  -1   9  -6 130.663 12.5918   6
  -1   9  -6 124.115 13.1706   2
   3   8  -6 82.6620 12.3336   4
   3   8  -6 88.8309 8.97114   6
   3   8  -6 70.0605 9.30850   1
   3   8  -6 73.2317 14.8348   3
   3   8  -6 69.0223 9.08540   6
   2   8  -6 4.07177 7.64632   4
   2   8  -6 1.08213 4.60475   1
   2   8  -6 4.53795 5.21827   6
   2   8  -6 -1.8819 8.54064   3
   2   8  -6 4.34829 5.51977   6
   1   8  -6 270.184 13.6473   6
   1   8  -6 258.974 14.1414   6
   1   8  -6 277.766 21.5309   3
   1   8  -6 248.851 17.8005   4
   0   8  -6 296.628 18.0460   4
   0   8  -6 215.180 16.8286   2
   0   8  -6 247.469 13.5622   6
   0   8  -6 252.814 14.2095   6
   0   8  -6 267.162 21.2416   3
  -1   8  -6 10.9441 6.79419   2
  -1   8  -6 1.01421 7.48266   4
  -1   8  -6 10.4562 6.28594   6
  -1   8  -6 10.0315 5.91268   6
  -1   8  -6 -0.1855 8.38750   3
  -2   8  -6 26.2534 11.0943   3
  -2   8  -6 31.0087 8.86984   4
  -2   8  -6 31.6081 8.33826   6
  -2   8  -6 35.8155 8.98077   2
  -2   8  -6 34.0738 9.79811   5
  -2   8  -6 29.0890 13.9124   6
   2  -8   6 36.2549 8.23951   4
  -3   8  -6 10.9130 8.56159   5
  -3   8  -6 21.5110 10.4730   3
  -3   8  -6 14.0179 7.74491   4
  -3   8  -6 -2.6776 8.30552   2
  -3   8  -6 20.3383 7.32793   6
   3  -8   6 7.65500 6.86143   4
  -4   8  -6 8.21629 10.2755   3
  -4   8  -6 0.80331 8.84614   5
  -4   8  -6 11.0294 7.88093   6
   4  -8   6 -4.7757 6.47644   4
   4   7  -6 163.300 14.3310   1
   4   7  -6 137.202 12.0754   6
   4   7  -6 134.668 15.1099   4
   4   7  -6 170.265 17.6329   3
   4   7  -6 134.248 13.6008   5
   4   7  -6 161.337 12.2074   6
   3   7  -6 18.1801 7.78619   4
   3   7  -6 19.8653 6.55264   1
   3   7  -6 38.0536 9.07417   5
   3   7  -6 20.7830 6.45296   6
   3   7  -6 30.8997 10.4456   3
   2   7  -6 196.464 17.7211   3
   2   7  -6 186.001 11.5592   1
   2   7  -6 205.829 16.4197   4
   2   7  -6 215.373 13.6839   6
   2   7  -6 190.577 11.7927   6
   1   7  -6 737.391 22.5111   6
   1   7  -6 688.661 25.1651   6
   1   7  -6 732.784 31.8899   3
   1   7  -6 753.375 28.4557   4
   0   7  -6 492.885 19.2591   6
   0   7  -6 469.932 17.3493   6
   0   7  -6 461.465 21.8856   4
   0   7  -6 450.690 16.9115   2
   0   7  -6 431.571 24.5603   3
  -1   7  -6 68.1256 9.25296   2
  -1   7  -6 35.2269 10.9183   3
  -1   7  -6 53.8307 7.85012   6
  -1   7  -6 56.7040 9.12833   4
  -1   7  -6 63.0623 8.52398   6
   1  -7   6 53.0554 8.39674   4
  -2   7  -6 384.290 19.0935   4
  -2   7  -6 370.304 18.3228   2
  -2   7  -6 392.760 17.3059   6
  -2   7  -6 394.899 17.5543   6
  -2   7  -6 338.916 23.0077   3
   2  -7   6 340.423 17.2223   4
  -3   7  -6 267.981 18.3698   2
  -3   7  -6 307.656 16.9664   6
  -3   7  -6 262.745 16.4715   6
  -3   7  -6 298.290 16.7193   4
  -3   7  -6 264.188 21.5109   3
  -3   7  -6 275.043 20.1574   5
   3  -7   6 290.431 21.2563   3
   3  -7   6 319.118 16.5736   4
  -4   7  -6 188.867 18.1287   5
  -4   7  -6 191.243 16.2662   6
  -4   7  -6 190.844 17.7784   2
  -4   7  -6 197.751 19.7882   3
  -4   7  -6 211.150 15.3060   6
   4  -7   6 201.592 14.4479   4
  -5   7  -6 20.3522 12.6374   5
  -5   7  -6 21.6596 7.36193   6
  -5   7  -6 16.4783 13.9069   3
   5  -7   6 21.5244 7.87742   4
   5  -7   6 22.4082 5.73927   6
   5  -7   6 15.9771 5.75455   6
   5   6  -6 868.376 28.3745   6
   5   6  -6 853.011 29.6114   6
   5   6  -6 863.849 33.6950   1
   5   6  -6 850.975 28.0953   5
  -5  -6   6 886.515 34.8505   1
   4   6  -6 34.5078 8.19117   5
   4   6  -6 60.7622 8.30936   6
   4   6  -6 34.5880 10.1511   4
   4   6  -6 40.4699 9.50505   1
   4   6  -6 50.3878 8.43521   6
   3   6  -6 64.8215 11.5883   3
   3   6  -6 85.6116 10.1505   1
   3   6  -6 68.2977 8.68946   6
   3   6  -6 68.8419 8.30003   6
   3   6  -6 73.6237 11.3736   4
   3   6  -6 82.3154 10.2385   5
  -3  -6   6 82.4305 10.3735   1
   2   6  -6 440.883 17.4372   1
   2   6  -6 452.782 21.7189   4
   2   6  -6 454.473 17.4663   6
   2   6  -6 467.258 24.9069   3
   2   6  -6 455.703 17.0170   6
   1   6  -6 675.878 20.7699   6
   1   6  -6 640.588 25.5610   4
   1   6  -6 687.309 18.7920   1
   1   6  -6 653.653 20.7468   6
   1   6  -6 704.378 29.4469   3
   0   6  -6 568.313 19.0726   6
   0   6  -6 586.639 19.0641   6
   0   6  -6 548.270 17.8145   2
   0   6  -6 571.935 23.2761   4
   0   6  -6 530.176 25.9855   3
   0  -6   6 575.334 22.2677   4
  -1   6  -6 150.719 13.9545   6
  -1   6  -6 149.295 15.8563   3
  -1   6  -6 143.702 10.4485   6
  -1   6  -6 144.507 10.8660   2
  -1   6  -6 137.161 12.5316   4
   1  -6   6 141.926 11.8966   4
  -2   6  -6 626.319 28.5034   3
  -2   6  -6 664.611 24.3904   4
  -2   6  -6 675.121 23.9370   2
  -2   6  -6 615.400 21.9087   6
  -2   6  -6 662.035 22.0037   6
   2  -6   6 610.583 22.7189   4
  -3   6  -6 922.471 29.8618   6
  -3   6  -6 1042.14 30.9830   4
  -3   6  -6 1031.55 37.7974   3
  -3   6  -6 978.739 32.7410   2
  -3   6  -6 1000.82 29.9001   6
   3  -6   6 996.368 29.7462   4
  -4   6  -6 169.674 13.9395   6
  -4   6  -6 176.975 16.4714   2
  -4   6  -6 178.807 13.9700   6
  -4   6  -6 225.163 18.9864   3
  -4   6  -6 187.120 17.5581   5
   4  -6   6 164.737 12.7897   4
   4  -6   6 187.976 10.7135   6
   4  -6   6 194.478 10.7560   6
   4  -6   6 190.158 17.5469   3
  -5   6  -6 29.3949 9.30109   2
  -5   6  -6 44.9436 9.79486   6
  -5   6  -6 51.7443 9.61767   6
  -5   6  -6 53.7376 12.2099   3
  -5   6  -6 57.9059 11.5196   5
   5  -6   6 57.5135 8.23566   6
   5  -6   6 50.8019 8.74816   4
   5  -6   6 43.5634 7.60880   6
  -6   6  -6 101.772 13.1843   6
  -6   6  -6 91.8580 15.6928   5
  -6   6  -6 94.8907 17.0014   3
   6  -6   6 89.6675 11.4675   6
   6   5  -6 23.6865 7.29855   6
   6   5  -6 21.1859 8.81457   1
   6   5  -6 22.2326 10.0928   4
   6   5  -6 23.1853 6.67824   5
   6   5  -6 32.0321 9.69363   6
   5   5  -6 870.526 33.7636   1
   5   5  -6 909.313 28.5584   6
   5   5  -6 904.253 30.2809   6
   5   5  -6 942.522 34.6813   4
   5   5  -6 880.714 28.1333   5
   4   5  -6 99.2624 10.2309   6
   4   5  -6 90.4928 9.98024   6
   4   5  -6 96.7705 12.5521   4
   4   5  -6 105.100 11.2000   5
   4   5  -6 95.3055 12.5705   1
   3   5  -6 2.64267 4.94544   1
   3   5  -6 7.00971 5.68001   4
   3   5  -6 9.22175 5.00443   5
   3   5  -6 -2.9605 3.75498   6
   3   5  -6 7.80294 4.94926   6
  -3  -5   6 1.46175 4.28313   1
   2   5  -6 2397.59 58.8750   4
   2   5  -6 2491.72 54.4273   1
   2   5  -6 2441.41 52.9255   6
   2   5  -6 2473.80 53.5264   6
  -2  -5   6 2457.17 54.0243   1
   1   5  -6 19.7390 6.80231   4
   1   5  -6 17.6734 5.23168   6
   1   5  -6 24.0222 5.51329   6
   1   5  -6 21.6535 4.78116   1
   1   5  -6 20.5927 7.69097   3
  -1  -5   6 16.5212 6.38078   4
  -1  -5   6 14.7190 4.00946   1
   0   5  -6 282.260 12.7760   6
   0   5  -6 274.459 15.6790   4
   0   5  -6 270.471 11.4885   2
   0   5  -6 288.203 12.7593   6
   0   5  -6 281.226 18.1678   3
   0  -5   6 281.727 15.0489   4
  -1   5  -6 179.225 10.6272   2
  -1   5  -6 176.173 13.4068   4
  -1   5  -6 185.887 10.9554   6
  -1   5  -6 179.786 15.0199   3
  -1   5  -6 189.583 11.0106   6
   1  -5   6 207.304 13.0436   4
  -2   5  -6 1204.30 34.3881   4
  -2   5  -6 1199.76 39.0707   3
  -2   5  -6 1219.92 31.5790   6
  -2   5  -6 1138.75 31.5952   6
   2  -5   6 1189.65 33.0717   4
  -3   5  -6 1599.43 43.3225   2
  -3   5  -6 1587.15 41.1728   6
  -3   5  -6 1752.94 42.4929   4
  -3   5  -6 1456.44 56.2135   3
  -3   5  -6 1695.00 41.4061   6
   3  -5   6 1655.85 36.7240   6
   3  -5   6 1673.48 41.5632   4
   3  -5   6 1672.27 36.5026   6
  -4   5  -6 327.895 18.8816   2
  -4   5  -6 318.894 16.9212   6
  -4   5  -6 356.528 18.2338   6
  -4   5  -6 363.465 22.2814   3
   4  -5   6 338.413 20.0763   3
   4  -5   6 283.612 14.9707   6
   4  -5   6 350.519 15.0225   6
   4  -5   6 327.446 16.5218   4
  -5   5  -6 144.702 16.0733   5
  -5   5  -6 176.261 22.5813   2
  -5   5  -6 131.552 13.0689   6
  -5   5  -6 138.794 16.2962   3
   5  -5   6 180.224 12.3585   6
   5  -5   6 151.810 12.7234   4
   5  -5   6 175.131 12.9841   6
  -6   5  -6 566.783 29.8637   3
  -6   5  -6 670.467 29.9967   5
  -6   5  -6 631.363 26.2639   6
   6  -5   6 509.355 25.4688   4
   6  -5   6 663.852 24.8566   6
   6  -5   6 665.886 23.8900   6
  -7   5  -6 215.665 19.8448   5
  -7   5  -6 162.539 25.0502   6
  -7   5  -6 183.847 24.1194   3
   7  -5   6 240.234 14.1499   1
   7  -5   6 236.123 17.4496   4
   7  -5   6 209.022 17.5076   6
   7  -5   6 226.081 17.0932   6
   6   4  -6 15.5962 10.0655   4
   6   4  -6 13.0381 5.69161   5
   6   4  -6 17.8519 8.87735   1
   6   4  -6 12.5084 6.36682   6
   6   4  -6 25.2002 8.41764   6
   5   4  -6 584.335 23.1474   6
   5   4  -6 579.465 26.8428   1
   5   4  -6 567.724 26.7667   5
   5   4  -6 636.930 27.1480   4
  -5  -4   6 591.092 27.0920   1
   4   4  -6 6.54220 6.49328   4
   4   4  -6 16.2189 7.11714   1
   4   4  -6 17.7181 5.72741   6
   4   4  -6 16.6828 5.51327   6
  -4  -4   6 15.9722 6.82647   1
   3   4  -6 143.058 9.89133   6
   3   4  -6 140.895 11.5918   1
   3   4  -6 141.411 12.7222   5
   3   4  -6 155.162 13.4273   4
  -3  -4   6 154.903 11.8156   1
   2   4  -6 1406.33 35.6530   1
   2   4  -6 1390.00 38.1256   5
   2   4  -6 1394.82 34.7931   6
   2   4  -6 1394.28 38.8712   4
   2   4  -6 1446.16 34.2316   6
  -2  -4   6 1439.42 39.8486   4
  -2  -4   6 1419.21 35.7399   1
   1   4  -6 10.3425 4.64049   6
   1   4  -6 12.8496 4.33401   1
   1   4  -6 4.60982 5.50023   4
   1   4  -6 0.67528 4.68272   3
   1   4  -6 6.05039 3.91873   6
  -1  -4   6 4.71134 3.73542   1
  -1  -4   6 9.53724 4.86960   4
   0   4  -6 82.5969 7.97556   6
   0   4  -6 85.7186 7.61871   6
   0   4  -6 97.1026 11.7128   3
   0   4  -6 79.2096 9.25242   4
   0  -4   6 81.2486 9.56749   4
  -1   4  -6 1753.29 40.6389   6
  -1   4  -6 1773.53 40.1228   2
  -1   4  -6 1771.75 44.1615   4
  -1   4  -6 1822.57 48.2212   3
  -1   4  -6 1811.95 40.7118   6
   1  -4   6 1778.40 43.4623   4
   1  -4   6 1761.37 35.4708   6
   1  -4   6 1786.63 35.7514   6
  -2   4  -6 3.77388 4.06952   6
  -2   4  -6 9.14882 5.45251   4
  -2   4  -6 5.23047 3.92654   6
  -2   4  -6 3.58534 5.87748   3
  -2   4  -6 2.77843 4.08167   2
   2  -4   6 9.59936 5.69507   3
   2  -4   6 0.30882 4.47570   4
  -3   4  -6 1590.13 39.3759   6
  -3   4  -6 1625.33 40.2920   4
  -3   4  -6 1547.85 41.2788   2
  -3   4  -6 1557.30 39.5058   6
  -3   4  -6 1610.48 45.5542   3
   3  -4   6 1594.07 39.9888   4
   3  -4   6 1662.33 37.0945   6
   3  -4   6 1556.61 36.1679   6
  -4   4  -6 -3.2920 4.80541   6
  -4   4  -6 -0.8739 4.25521   6
  -4   4  -6 3.64190 6.65660   3
  -4   4  -6 2.60237 5.62233   2
   4  -4   6 -1.7759 4.85274   4
   4  -4   6 -2.0668 4.38155   6
   4  -4   6 -0.8614 3.85413   6
  -5   4  -6 576.886 27.9347   3
  -5   4  -6 521.828 24.4524   2
  -5   4  -6 516.561 22.5674   6
  -5   4  -6 567.508 22.7354   6
   5  -4   6 587.920 26.1222   3
   5  -4   6 571.863 21.3771   4
   5  -4   6 550.859 19.9203   6
   5  -4   6 564.012 21.4696   6
   5  -4   6 565.444 17.1504   1
  -6   4  -6 991.057 36.6493   2
  -6   4  -6 954.818 33.5941   6
  -6   4  -6 1036.75 39.4617   3
  -6   4  -6 1053.16 34.0445   6
  -6   4  -6 1051.57 36.1558   5
   6  -4   6 1035.13 37.5744   3
   6  -4   6 1043.68 32.5815   6
   6  -4   6 925.073 30.6064   4
   6  -4   6 998.055 28.4033   1
   6  -4   6 1038.20 31.3379   6
  -7   4  -6 216.362 17.4643   6
  -7   4  -6 207.301 17.7920   5
  -7   4  -6 215.848 19.9038   3
   7  -4   6 226.785 16.6553   6
   7  -4   6 231.239 17.0942   6
   7  -4   6 210.890 14.7791   1
   7  -4   6 193.185 15.9874   4
   7   3  -6 10.8948 5.97061   5
   7   3  -6 28.1447 9.40257   4
   7   3  -6 29.1259 8.31810   6
   6   3  -6 12.4302 6.27514   6
   6   3  -6 7.91166 6.98914   6
   6   3  -6 13.5387 5.74362   5
   6   3  -6 13.4235 7.92742   1
   6   3  -6 5.63715 8.08496   4
  -6  -3   6 8.30218 7.30325   1
   5   3  -6 90.4065 10.8335   6
   5   3  -6 78.6205 9.75718   5
   5   3  -6 93.8411 13.0844   1
   5   3  -6 92.9734 12.6978   4
   5   3  -6 84.8120 13.8164   6
  -5  -3   6 68.6402 10.7675   1
  -5  -3   6 90.0503 7.10205   6
   4   3  -6 3.99096 6.24317   4
   4   3  -6 1.83305 4.24870   6
   4   3  -6 -1.4499 4.76371   5
   4   3  -6 13.9530 5.49108   6
   4   3  -6 8.07364 5.59994   1
  -4  -3   6 1.64311 4.92612   1
  -4  -3   6 5.97937 3.33063   6
   3   3  -6 59.5008 8.86040   1
   3   3  -6 53.5854 8.26204   4
   3   3  -6 49.7405 7.78370   5
   3   3  -6 47.5635 6.52172   6
   3   3  -6 50.4339 9.81346   6
  -3  -3   6 48.9803 4.79924   6
  -3  -3   6 49.7891 4.84165   6
   2   3  -6 1044.09 28.6217   1
   2   3  -6 1033.22 30.5994   4
   2   3  -6 986.953 29.2160   5
   2   3  -6 1074.60 27.0224   6
   2   3  -6 998.378 27.2659   6
  -2  -3   6 1012.62 28.3332   1
  -2  -3   6 985.426 31.0436   4
  -2  -3   6 994.787 22.1356   6
   1   3  -6 384.350 17.1055   4
   1   3  -6 384.767 14.2280   1
   1   3  -6 379.253 18.3705   3
   1   3  -6 397.292 14.6516   6
  -1  -3   6 386.435 10.9755   6
  -1  -3   6 379.991 13.9076   1
  -1  -3   6 394.970 11.2725   6
  -1  -3   6 407.712 18.1351   4
   0   3  -6 23.9625 4.94846   6
   0   3  -6 11.6530 5.93165   3
   0   3  -6 31.4717 5.63201   6
   0   3  -6 24.1547 5.72598   4
   0  -3   6 6.66190 4.54429   4
   0  -3   6 20.6567 3.51745   1
   0  -3   6 18.5823 3.37379   6
   0  -3   6 16.1631 3.49970   6
  -1   3  -6 1122.68 31.2231   4
  -1   3  -6 1131.60 33.8503   3
  -1   3  -6 1130.46 28.3849   6
  -1   3  -6 1130.72 27.6594   2
  -1   3  -6 1126.51 28.4657   6
   1  -3   6 1066.35 30.0870   4
   1  -3   6 1117.03 26.2091   6
   1  -3   6 1123.57 26.0138   6
  -2   3  -6 14.4189 4.53183   2
  -2   3  -6 14.5386 5.27430   4
  -2   3  -6 16.2943 6.39290   3
  -2   3  -6 15.2348 4.80011   6
  -2   3  -6 10.7435 4.45555   6
   2  -3   6 13.8130 4.32767   6
   2  -3   6 12.0339 5.07228   4
   2  -3   6 18.6174 6.02666   3
   2  -3   6 12.1657 4.09781   6
  -3   3  -6 307.235 14.8817   4
  -3   3  -6 295.111 14.0141   6
  -3   3  -6 320.944 17.2310   3
  -3   3  -6 320.847 19.2708   2
  -3   3  -6 285.373 13.7358   6
   3  -3   6 305.491 14.3802   4
   3  -3   6 268.083 15.2101   3
   3  -3   6 293.322 13.1530   6
   3  -3   6 294.929 12.5861   6
  -4   3  -6 300.990 16.3505   2
  -4   3  -6 329.645 18.7918   3
  -4   3  -6 304.334 15.2205   6
  -4   3  -6 297.264 15.2820   6
   4  -3   6 289.417 18.7418   4
   4  -3   6 304.695 16.9450   3
   4  -3   6 300.061 13.6321   6
   4  -3   6 292.590 10.8320   1
   4  -3   6 303.028 14.5302   6
  -5   3  -6 329.072 17.2986   6
  -5   3  -6 341.560 17.6401   6
  -5   3  -6 357.726 21.0613   3
  -5   3  -6 316.032 18.4069   2
   5  -3   6 333.003 13.9833   1
   5  -3   6 312.750 18.8395   3
   5  -3   6 315.772 15.4737   4
   5  -3   6 336.311 15.5874   6
   5  -3   6 294.489 16.0443   6
  -6   3  -6 684.602 32.3879   5
  -6   3  -6 741.014 31.5367   3
  -6   3  -6 681.518 26.3135   6
   6  -3   6 725.836 25.2465   4
   6  -3   6 723.198 24.3039   1
   6  -3   6 661.179 31.8524   3
   6  -3   6 676.630 25.9572   6
   6  -3   6 682.717 24.7458   6
  -7   3  -6 4.10791 6.93191   6
  -7   3  -6 18.3344 8.41832   5
  -7   3  -6 3.89127 10.1564   3
   7  -3   6 16.7105 7.70333   4
   7  -3   6 4.97604 7.03213   6
   7  -3   6 12.6711 6.82395   1
   7  -3   6 11.4968 10.1401   3
   7  -3   6 6.40188 6.88559   6
  -8   3  -6 160.396 22.0933   6
  -8   3  -6 165.299 16.5431   5
  -8   3  -6 189.911 22.1894   3
   8  -3   6 231.288 18.6680   6
   8  -3   6 186.682 17.7796   4
   8  -3   6 195.583 17.6222   1
   7   2  -6 41.9960 11.9596   1
   7   2  -6 43.8656 10.5866   4
   7   2  -6 34.1730 9.01648   6
  -7  -2   6 50.4437 8.48077   6
  -7  -2   6 55.5874 8.56231   6
   6   2  -6 256.508 20.2305   1
   6   2  -6 278.145 21.7079   3
   6   2  -6 263.562 16.6145   5
   6   2  -6 298.802 19.7497   4
   6   2  -6 269.874 15.9487   6
   6   2  -6 244.094 16.3815   6
  -6  -2   6 261.754 21.0829   1
  -6  -2   6 265.199 14.2929   6
  -6  -2   6 251.100 13.6304   6
   5   2  -6 101.650 11.0363   6
   5   2  -6 105.149 14.1248   1
   5   2  -6 105.309 9.75721   5
   5   2  -6 88.5343 10.2678   6
   5   2  -6 98.8363 12.0866   4
  -5  -2   6 65.3348 8.13237   6
  -5  -2   6 80.5102 11.6273   1
  -5  -2   6 97.3987 8.52162   6
   4   2  -6 162.742 11.3300   6
   4   2  -6 162.540 11.3740   5
   4   2  -6 142.159 12.6130   4
   4   2  -6 140.117 11.0189   6
   4   2  -6 147.119 13.5236   1
  -4  -2   6 148.061 9.66110   6
  -4  -2   6 155.892 13.2360   1
  -4  -2   6 146.481 9.02075   6
   3   2  -6 158.446 12.1280   1
   3   2  -6 148.991 10.5215   6
   3   2  -6 165.744 12.1695   4
   3   2  -6 150.917 9.83551   6
   3   2  -6 150.257 10.7984   5
  -3  -2   6 148.639 8.80359   6
  -3  -2   6 168.457 13.8641   1
  -3  -2   6 161.479 11.8756   4
  -3  -2   6 156.879 8.46946   6
   2   2  -6 78.4650 8.20197   6
   2   2  -6 96.3768 10.1019   4
   2   2  -6 76.5616 7.27628   6
   2   2  -6 90.6041 9.07431   5
   2   2  -6 85.5974 9.33962   1
  -2  -2   6 87.1870 6.56877   6
  -2  -2   6 82.9054 8.65445   4
  -2  -2   6 83.9805 8.19965   1
  -2  -2   6 85.4342 6.21847   6
   1   2  -6 505.830 18.9343   4
   1   2  -6 497.987 18.5042   5
   1   2  -6 519.614 16.9223   6
   1   2  -6 523.083 17.0446   1
  -1  -2   6 528.025 15.3338   6
  -1  -2   6 501.536 16.4427   1
  -1  -2   6 483.958 18.7230   4
  -1  -2   6 525.143 14.9703   6
   0   2  -6 528.210 14.2063   2
   0   2  -6 521.325 20.1309   3
   0   2  -6 548.153 17.2665   6
   0   2  -6 532.873 16.8088   6
   0   2  -6 533.189 19.0492   4
   0  -2   6 519.758 14.9383   1
   0  -2   6 521.330 15.4766   6
   0  -2   6 543.588 19.1128   4
   0  -2   6 522.377 15.4989   6
  -1   2  -6 503.620 16.3903   6
  -1   2  -6 516.642 19.9739   3
  -1   2  -6 498.559 16.7482   6
  -1   2  -6 503.856 18.4168   4
  -1   2  -6 504.958 15.7837   2
   1  -2   6 498.580 12.9670   1
   1  -2   6 548.055 19.8418   6
   1  -2   6 523.647 18.2672   4
  -2   2  -6 225.895 13.3440   3
  -2   2  -6 234.576 11.6915   2
  -2   2  -6 252.820 11.5754   6
  -2   2  -6 239.050 12.6743   4
  -2   2  -6 234.234 11.2266   6
   2  -2   6 242.506 10.5275   6
   2  -2   6 228.624 12.8057   3
   2  -2   6 232.089 7.58120   1
   2  -2   6 241.187 12.1237   2
   2  -2   6 228.821 10.8435   6
   2  -2   6 248.799 12.1051   4
  -3   2  -6 24.4428 5.55268   4
  -3   2  -6 18.3703 5.09350   6
  -3   2  -6 10.0647 4.69160   2
  -3   2  -6 28.6761 5.86002   6
  -3   2  -6 22.3534 6.56507   3
   3  -2   6 11.3974 4.54101   3
   3  -2   6 28.0448 5.57381   6
   3  -2   6 15.6776 4.75059   4
   3  -2   6 28.6232 5.09991   6
   3  -2   6 18.4424 3.54616   1
  -4   2  -6 22.1090 5.81949   6
  -4   2  -6 17.6219 4.88013   6
  -4   2  -6 29.3657 6.58319   2
  -4   2  -6 13.6357 5.88974   3
   4  -2   6 25.8446 5.54278   6
   4  -2   6 23.8139 6.23376   6
   4  -2   6 19.7497 5.94540   4
   4  -2   6 27.7223 5.00742   1
   4  -2   6 24.7387 6.96295   3
  -5   2  -6 4.69674 5.69159   2
  -5   2  -6 3.38299 6.29668   3
  -5   2  -6 9.74678 5.35469   6
   5  -2   6 9.71278 5.33963   4
   5  -2   6 -1.0767 4.69419   6
   5  -2   6 -0.1116 3.98217   1
   5  -2   6 1.28008 4.83728   3
   5  -2   6 2.38777 4.70504   6
  -6   2  -6 52.5648 8.77897   5
  -6   2  -6 40.0882 9.69146   3
  -6   2  -6 33.5695 12.7961   2
  -6   2  -6 42.8844 8.07629   6
   6  -2   6 38.9895 8.82007   6
   6  -2   6 42.7653 7.57094   4
   6  -2   6 47.9443 8.45827   1
   6  -2   6 48.0090 10.2382   3
   6  -2   6 35.3152 7.26467   6
  -7   2  -6 378.345 24.2243   3
  -7   2  -6 366.632 22.8747   2
  -7   2  -6 418.699 21.9131   6
  -7   2  -6 386.205 20.5311   6
  -7   2  -6 383.675 20.4334   5
   7  -2   6 385.628 20.8756   6
   7  -2   6 399.586 22.7028   3
   7  -2   6 387.856 20.2027   1
   7  -2   6 366.382 19.4821   4
   7  -2   6 378.391 19.3941   6
  -8   2  -6 5.81767 7.66505   6
  -8   2  -6 7.11042 8.71617   5
  -8   2  -6 22.0314 10.4361   3
   8  -2   6 9.95576 8.42321   1
   8  -2   6 12.2321 8.21747   4
   8  -2   6 18.5564 8.74684   6
   7   1  -6 0.39612 5.89573   5
   7   1  -6 1.78895 6.39641   6
   7   1  -6 1.53637 7.75278   4
   7   1  -6 -2.9970 7.01269   1
  -7  -1   6 -0.7720 7.02054   6
  -7  -1   6 -0.7664 6.09907   6
   6   1  -6 109.590 13.8683   4
   6   1  -6 91.4144 13.9114   3
   6   1  -6 126.520 12.1443   6
   6   1  -6 107.631 14.9976   1
   6   1  -6 123.767 12.6681   6
   6   1  -6 134.328 11.0520   5
  -6  -1   6 110.194 14.8957   1
  -6  -1   6 114.560 11.7048   6
  -6  -1   6 129.100 11.1063   6
   5   1  -6 927.459 29.2232   6
   5   1  -6 887.245 28.9794   6
   5   1  -6 986.784 41.1616   1
   5   1  -6 925.816 27.9629   5
   5   1  -6 825.926 32.9353   4
  -5  -1   6 923.389 27.2310   6
  -5  -1   6 944.309 27.7396   6
  -5  -1   6 977.179 34.5660   1
   4   1  -6 13.2921 5.79373   4
   4   1  -6 15.2060 5.63692   6
   4   1  -6 21.9884 5.89845   5
   4   1  -6 16.1395 7.15605   1
   4   1  -6 20.1945 5.44494   6
  -4  -1   6 15.7856 6.05605   1
  -4  -1   6 7.79768 4.49115   6
  -4  -1   6 9.70889 4.41386   6
   3   1  -6 14.0513 6.05462   1
   3   1  -6 15.9622 4.51321   6
   3   1  -6 17.2531 5.01573   5
   3   1  -6 11.0607 5.26737   4
   3   1  -6 21.0378 5.80636   6
  -3  -1   6 17.5724 4.85140   6
  -3  -1   6 19.5416 5.60536   4
  -3  -1   6 30.0197 7.28433   1
  -3  -1   6 17.5794 4.63162   6
   2   1  -6 201.294 10.6438   6
   2   1  -6 208.555 12.0597   1
   2   1  -6 198.689 11.4561   5
   2   1  -6 204.600 11.7159   4
   2   1  -6 206.235 10.4577   6
  -2  -1   6 202.503 9.80788   6
  -2  -1   6 200.408 11.6603   4
  -2  -1   6 210.796 10.2708   6
  -2  -1   6 182.672 11.4483   1
   1   1  -6 2021.38 46.0923   5
   1   1  -6 2051.22 48.7751   1
   1   1  -6 2035.30 44.3355   6
   1   1  -6 1981.77 44.0757   6
   1   1  -6 1999.94 46.0529   4
  -1  -1   6 2087.66 43.7336   6
  -1  -1   6 2038.30 42.7254   6
  -1  -1   6 1977.30 46.4072   4
  -1  -1   6 2033.26 44.7101   1
   0   1  -6 1776.87 41.7805   4
   0   1  -6 1820.92 39.8880   6
   0   1  -6 1812.33 36.8647   2
   0   1  -6 1784.33 41.9210   5
   0   1  -6 1800.46 43.0393   3
   0   1  -6 1736.60 39.7464   6
   0  -1   6 1776.32 38.6863   1
   0  -1   6 1874.66 36.6827   2
   0  -1   6 1835.49 41.9118   4
   0  -1   6 1786.25 38.9883   6
  -1   1  -6 93.1578 8.13567   4
  -1   1  -6 121.095 7.51844   2
  -1   1  -6 118.446 9.18080   3
  -1   1  -6 101.085 7.71934   6
  -1   1  -6 105.527 7.39732   6
   1  -1   6 115.166 7.48046   2
   1  -1   6 121.718 7.74146   6
   1  -1   6 111.151 6.72037   1
   1  -1   6 107.621 8.50248   4
   1  -1   6 111.968 7.51810   6
  -2   1  -6 639.922 18.9245   6
  -2   1  -6 619.830 19.3136   2
  -2   1  -6 599.650 19.8332   4
  -2   1  -6 638.553 19.1019   6
  -2   1  -6 652.098 21.0450   3
   2  -1   6 632.699 18.9796   6
   2  -1   6 604.401 19.9601   3
   2  -1   6 597.779 17.7290   6
   2  -1   6 653.618 19.8357   2
   2  -1   6 574.092 18.7633   4
  -3   1  -6 1206.52 31.0187   6
  -3   1  -6 1229.43 30.6066   6
  -3   1  -6 1178.02 32.7305   3
  -3   1  -6 1219.44 31.5794   4
  -3   1  -6 1231.46 32.4255   2
   3  -1   6 1190.35 29.4614   6
   3  -1   6 1200.59 30.7547   4
   3  -1   6 1269.12 32.9129   2
   3  -1   6 1246.47 31.2657   6
   3  -1   6 1222.77 32.2478   3
   3  -1   6 1199.65 28.2560   1
  -4   1  -6 36.6947 7.40395   3
  -4   1  -6 31.4771 6.01221   6
  -4   1  -6 25.9302 5.76515   2
  -4   1  -6 20.5139 5.17075   6
   4  -1   6 32.8572 5.71896   6
   4  -1   6 30.6131 5.49538   1
   4  -1   6 24.2518 6.09462   3
   4  -1   6 19.5977 5.84879   6
   4  -1   6 23.9122 5.25704   4
   4  -1   6 22.3373 6.95185   2
  -5   1  -6 27.8184 6.63012   6
  -5   1  -6 22.7671 7.94512   3
   5  -1   6 16.4002 6.23479   6
   5  -1   6 29.3377 6.85800   4
   5  -1   6 23.0485 6.17307   1
   5  -1   6 13.4849 5.44727   6
   5  -1   6 18.2639 6.78588   2
   5  -1   6 20.5231 7.06584   3
  -6   1  -6 8.63514 5.87580   6
  -6   1  -6 8.53926 6.92287   3
   6  -1   6 10.5574 6.26141   4
   6  -1   6 14.9850 6.06312   6
   6  -1   6 9.78290 7.00942   3
   6  -1   6 14.8116 5.94925   1
  -7   1  -6 216.330 19.0133   3
  -7   1  -6 216.956 15.9029   6
  -7   1  -6 234.049 16.4824   6
  -7   1  -6 243.429 15.7855   5
  -7   1  -6 217.479 18.2531   2
   7  -1   6 207.823 14.8483   6
   7  -1   6 223.934 15.3401   4
   7  -1   6 231.699 17.0240   6
   7  -1   6 216.166 16.5352   1
   7  -1   6 199.428 17.2542   3
  -8   1  -6 9.61658 9.31312   3
  -8   1  -6 -5.0200 7.10822   6
  -8   1  -6 -6.5262 6.03925   5
   8  -1   6 15.7524 8.20631   4
   8  -1   6 -1.8473 7.28397   6
   8  -1   6 4.63579 8.23904   1
   7   0  -6 12.7056 7.73001   6
   7   0  -6 18.9969 7.11328   5
   7   0  -6 11.7648 8.78876   1
   7   0  -6 12.2481 8.20067   4
  -7   0   6 18.4766 7.57899   2
  -7   0   6 21.1818 7.64541   5
  -7   0   6 6.56572 7.01478   6
   6   0  -6 36.1522 11.8039   3
   6   0  -6 52.5202 9.20525   6
   6   0  -6 31.1955 8.34683   4
   6   0  -6 41.1398 7.83287   5
   6   0  -6 36.6562 8.47559   6
   6   0  -6 48.7322 11.4686   1
  -6   0   6 38.9256 7.98339   5
  -6   0   6 33.9803 8.27065   1
  -6   0   6 36.5646 8.42630   6
  -6   0   6 47.9507 7.70670   2
   5   0  -6 1491.87 40.8595   6
   5   0  -6 1594.66 42.4761   4
   5   0  -6 1550.46 41.6241   6
  -5   0   6 1553.74 36.5998   2
  -5   0   6 1576.80 40.4941   6
  -5   0   6 1590.74 40.5788   5
  -5   0   6 1517.72 47.0260   1
  -5   0   6 1568.31 40.3047   6
   4   0  -6 32.9266 7.33754   4
   4   0  -6 40.2628 8.86316   1
   4   0  -6 35.7746 6.76864   6
   4   0  -6 42.3426 7.08807   5
   4   0  -6 42.5354 7.05808   6
  -4   0   6 23.6968 6.56584   5
  -4   0   6 39.4500 6.95264   6
  -4   0   6 27.3002 7.85631   1
  -4   0   6 38.6667 6.93763   6
   3   0  -6 0.52779 3.41008   6
   3   0  -6 5.85803 4.50913   4
   3   0  -6 1.13696 3.89243   5
   3   0  -6 9.15805 5.23590   1
  -3   0   6 2.22098 3.29422   4
  -3   0   6 6.23044 3.58384   6
  -3   0   6 4.67369 4.13836   5
  -3   0   6 -0.7581 3.54029   6
  -3   0   6 9.34486 4.89637   1
   2   0  -6 3016.71 63.5814   5
   2   0  -6 2963.76 61.5857   6
   2   0  -6 3036.61 63.0988   4
   2   0  -6 3034.17 65.0821   1
   2   0  -6 3019.48 62.2255   6
  -2   0   6 3037.43 65.1829   1
  -2   0   6 3057.30 63.8254   5
  -2   0   6 3006.66 63.7381   4
  -2   0   6 3044.47 61.6238   6
  -2   0   6 2930.92 61.0976   6
   1   0  -6 719.264 20.9854   6
   1   0  -6 775.060 23.3836   1
   1   0  -6 766.127 21.7058   6
   1   0  -6 731.780 22.4960   5
   1   0  -6 754.357 22.3214   4
  -1   0   6 762.667 20.9594   6
  -1   0   6 718.050 22.2627   4
  -1   0   6 760.104 18.1699   2
  -1   0   6 755.157 22.2882   1
  -1   0   6 779.758 21.2979   6
   0   0  -6 778.038 22.9478   5
   0   0  -6 807.191 22.9035   4
   0   0  -6 809.738 20.1879   2
   0   0  -6 770.249 21.4026   6
   0   0  -6 811.722 22.1192   6
   0   0   6 812.104 21.6460   6
   0   0   6 779.085 22.7596   4
   0   0   6 807.140 19.9383   2
   0   0   6 842.751 22.0036   6
   0   0   6 776.717 21.8732   1
  -1   0  -6 98.0384 7.84256   4
  -1   0  -6 83.0077 6.71983   6
  -1   0  -6 92.2241 7.99891   5
  -1   0  -6 94.8506 7.23523   6
  -1   0  -6 84.5702 6.63978   2
  -1   0  -6 93.7635 7.65307   3
   1   0   6 82.6051 6.90755   6
   1   0   6 94.7690 7.50084   4
   1   0   6 81.6258 6.88241   2
   1   0   6 74.7405 6.63647   6
  -2   0  -6 4099.70 81.5485   6
  -2   0  -6 4268.20 82.8025   4
  -2   0  -6 4167.78 81.0805   6
  -2   0  -6 4219.52 82.7298   2
   2   0   6 4300.22 81.9312   3
   2   0   6 4214.01 81.9475   6
   2   0   6 4133.38 80.3461   6
   2   0   6 4256.04 82.0093   4
   2   0   6 4274.04 82.9564   2
  -3   0  -6 2296.71 50.0870   3
  -3   0  -6 2321.07 48.8621   6
  -3   0  -6 2262.12 51.1829   2
  -3   0  -6 2242.48 49.5217   6
   3   0   6 2283.44 48.7299   1
   3   0   6 2283.09 49.4585   3
   3   0   6 2204.93 47.8414   6
   3   0   6 2245.71 49.2241   4
   3   0   6 2338.80 51.8858   2
   3   0   6 2312.18 49.8831   6
  -4   0  -6 816.676 23.6547   6
  -4   0  -6 798.780 27.5323   6
  -4   0  -6 802.432 25.0584   3
   4   0   6 783.251 23.6652   1
   4   0   6 771.092 23.9836   3
   4   0   6 796.491 26.2085   2
   4   0   6 788.473 23.8571   4
   4   0   6 805.924 24.5846   6
  -5   0  -6 159.432 11.5053   6
  -5   0  -6 139.196 12.0088   3
  -5   0  -6 158.764 11.1554   6
  -5   0  -6 162.869 12.6992   2
   5   0   6 130.415 11.0138   3
   5   0   6 167.633 12.0352   1
   5   0   6 168.744 11.6038   4
   5   0   6 138.604 11.5797   6
   5   0   6 151.788 12.9870   2
   5   0   6 145.808 10.2248   6
  -6   0  -6 671.347 24.1528   6
  -6   0  -6 633.611 26.2637   3
   6   0   6 692.624 27.4522   2
   6   0   6 654.854 24.9860   6
   6   0   6 716.231 26.1648   1
   6   0   6 638.607 25.0855   3
  -7   0  -6 315.541 16.0726   5
  -7   0  -6 313.265 18.2795   6
  -7   0  -6 345.426 18.5090   6
  -7   0  -6 318.588 21.7523   3
   7   0   6 337.455 19.3004   6
   7   0   6 386.139 20.8867   1
   7   0   6 306.584 18.4998   4
   7   0   6 324.528 19.0105   3
   7   0   6 354.869 18.5723   6
  -8   0  -6 41.8907 9.61138   6
  -8   0  -6 39.3933 11.4831   3
  -8   0  -6 31.8523 9.37571   6
  -8   0  -6 36.0548 8.25886   5
   8   0   6 61.8688 11.5725   4
   8   0   6 58.9845 12.1802   1
   8   0   6 32.7686 8.86939   6
   8   0   6 42.7346 10.5113   3
  -9   0  -6 6.04977 7.33329   5
  -9   0  -6 21.4200 9.75978   6
   9   0   6 11.5953 10.0036   1
   9   0   6 -5.7348 7.31485   6
   7  -1  -6 105.928 11.6193   5
   7  -1  -6 86.8872 12.1422   4
   7  -1  -6 87.7668 16.2192   1
   7  -1  -6 101.116 12.4114   6
  -7   1   6 107.788 13.1482   5
  -7   1   6 72.7984 10.7239   6
  -7   1   6 121.329 12.9705   2
  -7   1   6 84.2181 11.2311   6
   6  -1  -6 17.6407 6.32592   6
   6  -1  -6 16.4134 7.27297   4
   6  -1  -6 3.23277 7.58339   1
   6  -1  -6 4.97833 5.65980   6
   6  -1  -6 10.9405 5.54771   5
   6  -1  -6 12.0138 7.81096   3
  -6   1   6 16.0227 6.24285   6
  -6   1   6 17.2180 6.89182   2
  -6   1   6 7.99028 6.27155   5
  -6   1   6 5.02916 5.93782   6
  -6   1   6 5.72528 7.77721   1
   5  -1  -6 2137.92 49.8041   4
   5  -1  -6 1784.74 60.1605   3
   5  -1  -6 1967.46 49.0651   6
   5  -1  -6 1947.34 47.9277   5
   5  -1  -6 2097.43 55.7258   6
  -5   1   6 1984.67 46.3632   2
  -5   1   6 1946.26 48.3856   5
  -5   1   6 2003.73 48.4307   6
  -5   1   6 1905.34 48.5724   6
   4  -1  -6 0.40348 4.00786   5
   4  -1  -6 6.62231 5.57731   3
   4  -1  -6 2.62202 4.37159   6
   4  -1  -6 -5.7384 4.64269   1
   4  -1  -6 0.16632 3.61601   6
   4  -1  -6 5.32796 4.80507   4
  -4   1   6 2.24467 4.60254   6
  -4   1   6 4.23317 4.38091   5
  -4   1   6 -0.1352 4.33142   6
  -4   1   6 -6.0669 4.02362   1
   3  -1  -6 0.78879 3.35457   5
   3  -1  -6 7.58431 4.97359   1
   3  -1  -6 9.40901 5.01468   6
   3  -1  -6 10.7554 4.67906   4
   3  -1  -6 2.51389 3.71056   6
  -3   1   6 5.17574 3.57054   6
  -3   1   6 1.35895 3.78389   6
  -3   1   6 -0.1361 3.88868   5
  -3   1   6 6.46250 3.50366   4
   2  -1  -6 3745.90 78.4586   1
   2  -1  -6 3710.41 73.9618   6
   2  -1  -6 3686.89 73.9896   6
   2  -1  -6 3765.59 74.2030   4
   2  -1  -6 3645.09 75.2308   5
  -2   1   6 3767.17 75.7636   5
  -2   1   6 3661.62 74.5176   4
  -2   1   6 3687.90 78.1527   1
  -2   1   6 3620.03 73.9274   6
  -2   1   6 3761.15 71.8758   2
  -2   1   6 3789.18 74.1632   6
   1  -1  -6 23.9872 4.73618   6
   1  -1  -6 20.5487 4.79205   5
   1  -1  -6 25.0734 5.12262   6
   1  -1  -6 21.1786 5.06055   4
  -1   1   6 23.9875 4.82452   6
  -1   1   6 21.3968 5.36680   1
  -1   1   6 28.7854 4.92437   2
  -1   1   6 19.9535 4.99084   5
  -1   1   6 18.1884 4.38439   4
  -1   1   6 22.9731 4.69903   6
   0  -1  -6 903.176 25.9907   4
   0  -1  -6 881.775 24.4753   5
   0  -1  -6 930.519 23.5528   2
   0  -1  -6 913.833 23.5427   6
   0  -1  -6 884.712 23.7425   6
   0   1   6 918.834 23.0311   2
   0   1   6 892.249 24.0081   4
   0   1   6 891.373 23.8686   6
   0   1   6 913.966 25.6470   1
   0   1   6 932.736 23.9598   6
   0   1   6 925.653 25.1513   5
  -1  -1  -6 790.621 22.1989   5
  -1  -1  -6 817.289 21.7838   4
  -1  -1  -6 785.434 21.4472   2
  -1  -1  -6 778.706 20.6108   3
  -1  -1  -6 768.302 20.8359   6
  -1  -1  -6 766.172 20.9086   6
   1   1   6 780.398 21.5135   2
   1   1   6 741.221 20.7061   4
   1   1   6 762.852 21.2256   6
   1   1   6 745.962 20.3291   6
  -2  -1  -6 256.457 11.1512   6
  -2  -1  -6 277.307 11.8604   5
  -2  -1  -6 270.014 11.0395   6
  -2  -1  -6 258.101 12.0477   2
  -2  -1  -6 269.245 10.6785   3
  -2  -1  -6 265.614 11.7429   4
   2   1   6 270.687 10.6272   6
   2   1   6 278.870 11.8986   6
   2   1   6 259.560 10.4212   3
   2   1   6 260.646 12.3173   2
   2   1   6 253.720 11.1548   4
  -3  -1  -6 3399.16 66.7100   3
  -3  -1  -6 3325.80 69.8338   2
  -3  -1  -6 3263.92 66.7989   5
  -3  -1  -6 3324.66 66.3052   6
  -3  -1  -6 3322.88 67.2746   6
   3   1   6 3365.21 66.0109   3
   3   1   6 3381.21 68.1841   1
   3   1   6 3349.66 66.2226   6
   3   1   6 3360.08 68.1024   6
   3   1   6 3270.77 67.3417   4
   3   1   6 3340.59 69.9531   2
  -4  -1  -6 0.01209 3.78501   2
  -4  -1  -6 -0.6553 3.61321   6
  -4  -1  -6 0.82444 3.43334   3
  -4  -1  -6 -1.0779 3.09092   6
   4   1   6 -1.6671 3.33516   1
   4   1   6 6.85110 4.16601   3
   4   1   6 5.68205 4.65388   2
   4   1   6 -2.0493 2.61246   4
   4   1   6 1.21744 4.03178   6
   4   1   6 0.74165 3.16872   6
  -5  -1  -6 625.306 22.9464   3
  -5  -1  -6 611.972 21.3873   6
  -5  -1  -6 620.547 23.9829   2
  -5  -1  -6 636.270 21.2277   6
   5   1   6 656.685 22.0806   3
   5   1   6 656.612 22.9013   6
   5   1   6 655.585 23.4386   1
   5   1   6 640.480 21.0461   6
  -6  -1  -6 1216.57 33.8907   6
  -6  -1  -6 1287.36 35.3774   6
  -6  -1  -6 1219.63 36.9518   3
   6   1   6 1281.97 38.9301   2
   6   1   6 1168.06 33.7577   6
   6   1   6 1226.89 35.7796   3
   6   1   6 1234.76 37.5530   1
   6   1   6 1232.74 35.8853   6
  -7  -1  -6 581.553 23.0077   6
  -7  -1  -6 523.864 22.1702   6
  -7  -1  -6 532.172 25.4339   2
  -7  -1  -6 567.498 26.3719   3
  -7  -1  -6 556.515 18.3853   5
   7   1   6 523.584 23.6885   3
   7   1   6 463.334 22.5275   6
   7   1   6 507.987 25.6113   2
   7   1   6 479.626 23.0291   4
   7   1   6 527.552 25.3357   1
  -8  -1  -6 31.2750 12.8918   2
  -8  -1  -6 57.0098 7.57659   5
  -8  -1  -6 51.1300 10.5523   6
  -8  -1  -6 36.3758 8.58228   6
   8   1   6 46.0802 11.1720   1
   8   1   6 45.9434 12.8414   4
   8   1   6 27.5516 9.68582   6
   8   1   6 39.3122 11.2683   3
  -9  -1  -6 197.853 17.2633   6
   9   1   6 131.821 17.7111   1
   9   1   6 116.313 14.7995   6
   7  -2  -6 147.540 14.4237   6
   7  -2  -6 175.836 20.2600   1
   7  -2  -6 169.752 15.9646   5
   7  -2  -6 161.781 15.5295   4
  -7   2   6 192.266 24.4489   5
  -7   2   6 167.183 15.0713   6
   6  -2  -6 159.448 13.5582   5
   6  -2  -6 170.828 13.4549   6
   6  -2  -6 192.991 17.7706   1
   6  -2  -6 127.911 14.7752   3
   6  -2  -6 152.649 13.3402   4
   6  -2  -6 160.000 13.0763   6
  -6   2   6 159.968 13.9362   2
  -6   2   6 171.342 19.3557   1
  -6   2   6 163.653 16.0734   6
  -6   2   6 153.904 13.5224   6
  -6   2   6 153.371 13.6170   5
   5  -2  -6 1447.15 37.0458   4
   5  -2  -6 1312.37 37.6409   5
  -5   2   6 1377.62 38.1822   6
  -5   2   6 1335.60 38.1420   5
   4  -2  -6 14.6343 5.31950   6
   4  -2  -6 20.7318 5.64946   4
   4  -2  -6 22.1184 8.08931   3
   4  -2  -6 14.4478 5.10682   5
   4  -2  -6 17.5011 7.44266   1
  -4   2   6 27.2870 6.44701   6
  -4   2   6 21.3776 6.87001   5
  -4   2   6 25.6861 6.12556   6
   3  -2  -6 29.5895 5.80025   6
   3  -2  -6 26.1150 6.12519   5
   3  -2  -6 21.7918 7.11318   1
   3  -2  -6 17.8687 5.14754   4
   3  -2  -6 27.6842 7.63904   3
   3  -2  -6 22.8722 5.02840   6
  -3   2   6 20.8660 4.90457   4
  -3   2   6 28.9323 7.46269   1
  -3   2   6 22.5810 5.76793   6
  -3   2   6 17.2586 5.64064   5
  -3   2   6 28.8885 7.00150   6
   2  -2  -6 4833.55 92.5025   4
   2  -2  -6 4845.94 95.2383   5
   2  -2  -6 4751.85 93.0432   6
   2  -2  -6 4830.50 93.6479   6
  -2   2   6 4824.57 95.2316   5
  -2   2   6 4803.27 93.9601   6
  -2   2   6 4804.28 98.5520   1
  -2   2   6 4873.57 92.6381   4
  -2   2   6 4905.21 93.7037   6
   1  -2  -6 24.5400 4.85261   4
   1  -2  -6 38.0502 5.39355   6
   1  -2  -6 36.7199 6.14926   5
  -1   2   6 26.8510 4.91985   6
  -1   2   6 25.6798 4.90535   4
  -1   2   6 32.6205 5.28573   2
  -1   2   6 31.0695 5.84270   5
  -1   2   6 30.0508 5.24497   6
  -1   2   6 25.8776 6.20034   1
   0  -2  -6 535.508 17.8232   5
   0  -2  -6 580.559 18.3126   2
   0  -2  -6 532.842 16.4275   4
   0  -2  -6 555.127 16.6888   6
   0  -2  -6 567.001 17.3027   6
   0   2   6 567.687 18.4026   5
   0   2   6 581.448 18.1139   2
   0   2   6 549.763 16.8223   4
   0   2   6 542.567 16.9752   6
   0   2   6 562.228 17.5532   6
  -1  -2  -6 4016.28 79.6952   2
  -1  -2  -6 4067.37 77.2034   6
  -1  -2  -6 4016.28 74.6708   3
  -1  -2  -6 4014.14 78.5240   5
   1   2   6 4022.42 77.0028   4
   1   2   6 4082.65 78.3670   6
   1   2   6 3942.28 76.7498   6
   1   2   6 4012.12 79.7898   2
  -2  -2  -6 143.443 8.29150   6
  -2  -2  -6 143.640 7.88298   6
  -2  -2  -6 150.172 9.75079   2
  -2  -2  -6 135.494 6.78178   3
  -2  -2  -6 130.357 8.48012   5
   2   2   6 143.509 7.72942   6
   2   2   6 138.602 6.56612   3
   2   2   6 149.007 8.34657   4
   2   2   6 145.017 8.77022   6
   2   2   6 123.310 9.27411   2
  -3  -2  -6 4095.32 84.3396   2
  -3  -2  -6 4099.02 78.2640   3
  -3  -2  -6 4131.74 79.7415   5
  -3  -2  -6 4209.96 79.3860   6
   3   2   6 4206.85 84.7203   2
   3   2   6 4099.87 81.5413   6
   3   2   6 4105.92 77.7191   3
   3   2   6 4045.82 81.3527   4
   3   2   6 4150.37 79.7619   6
   3   2   6 4284.50 83.5720   1
  -4  -2  -6 520.100 16.4911   5
  -4  -2  -6 536.438 17.9478   6
  -4  -2  -6 536.995 20.2649   3
  -4  -2  -6 530.514 17.2410   6
  -4  -2  -6 549.828 22.3242   2
   4   2   6 576.682 23.6230   4
   4   2   6 540.724 20.9171   2
   4   2   6 507.051 17.2632   6
   4   2   6 542.255 19.0730   6
   4   2   6 524.108 16.9160   3
   4   2   6 563.426 20.6060   1
  -5  -2  -6 318.735 15.4392   3
  -5  -2  -6 274.498 16.0947   6
  -5  -2  -6 309.427 14.0714   6
  -5  -2  -6 303.878 12.0744   5
   5   2   6 327.482 17.2070   1
   5   2   6 333.594 15.8593   6
   5   2   6 320.513 17.0746   2
   5   2   6 307.627 14.1080   3
   5   2   6 314.590 14.1775   6
  -6  -2  -6 2284.90 54.2099   6
  -6  -2  -6 2354.71 56.8766   3
  -6  -2  -6 2476.71 53.9321   6
  -6  -2  -6 2356.33 48.6872   5
   6   2   6 2364.74 55.4635   3
   6   2   6 2458.01 60.2311   1
   6   2   6 2350.67 59.8031   2
   6   2   6 2401.90 54.7337   6
   6   2   6 2342.17 56.5688   6
  -7  -2  -6 86.6710 12.4421   2
  -7  -2  -6 81.1715 9.83142   6
   7   2   6 83.2043 12.4206   1
   7   2   6 110.468 14.6679   2
   7   2   6 81.5632 11.8329   6
   7   2   6 97.0933 13.1672   3
   7   2   6 69.7060 9.97491   6
  -8  -2  -6 1.59470 8.58881   2
  -8  -2  -6 16.0987 7.61691   6
  -8  -2  -6 32.9906 8.03403   6
   8   2   6 24.0185 9.07123   1
   8   2   6 8.38869 9.28803   3
   8   2   6 15.2365 7.51045   6
   8   2   6 19.4463 7.61269   2
  -9  -2  -6 326.977 20.0579   6
  -9  -2  -6 266.249 19.8379   6
   9   2   6 313.685 21.8401   6
   9   2   6 231.295 33.4621   1
   7  -3  -6 150.821 14.2311   4
   7  -3  -6 195.229 19.5483   1
   7  -3  -6 191.844 20.5250   5
   7  -3  -6 125.264 13.7762   6
  -7   3   6 173.849 16.8578   5
  -7   3   6 170.268 17.6370   2
  -7   3   6 168.792 15.3191   6
   6  -3  -6 72.7296 13.5773   1
   6  -3  -6 64.0258 9.51021   4
   6  -3  -6 53.8408 9.38222   6
   6  -3  -6 69.3458 9.85153   6
   6  -3  -6 84.0464 14.9573   3
   6  -3  -6 43.4126 8.76888   5
  -6   3   6 66.1718 10.2570   6
  -6   3   6 69.6794 10.1419   6
  -6   3   6 58.6602 12.8307   5
  -6   3   6 68.1369 12.7337   1
   5  -3  -6 226.437 14.9365   5
   5  -3  -6 192.563 12.8566   6
   5  -3  -6 238.226 18.3409   1
   5  -3  -6 246.750 13.3397   4
   5  -3  -6 238.709 14.9212   6
  -5   3   6 224.328 15.4267   5
  -5   3   6 210.391 14.3419   6
  -5   3   6 200.483 17.2986   1
  -5   3   6 241.415 14.9918   6
   4  -3  -6 201.195 13.2949   5
   4  -3  -6 194.835 14.2270   3
   4  -3  -6 189.141 12.3567   6
   4  -3  -6 206.200 11.5658   4
   4  -3  -6 185.146 15.0961   1
   4  -3  -6 177.965 11.6587   6
  -4   3   6 188.389 12.2538   6
  -4   3   6 190.739 14.9646   1
  -4   3   6 192.064 13.7323   5
   3  -3  -6 13.6800 6.30806   1
   3  -3  -6 6.64371 3.94368   6
   3  -3  -6 5.75206 4.77555   3
   3  -3  -6 25.5080 5.22488   4
   3  -3  -6 28.8526 5.90544   6
   3  -3  -6 6.07484 4.92327   5
  -3   3   6 22.5534 6.00634   1
  -3   3   6 8.05046 5.55644   5
  -3   3   6 12.3171 4.55788   6
  -3   3   6 13.3885 5.10179   6
   2  -3  -6 3164.29 63.7355   4
   2  -3  -6 3247.60 68.4482   5
   2  -3  -6 3268.34 66.5807   6
   2  -3  -6 3220.47 65.5957   6
   2  -3  -6 3226.40 67.2269   3
  -2   3   6 3386.60 66.9333   6
  -2   3   6 3255.10 68.6016   5
  -2   3   6 3272.68 63.6683   4
  -2   3   6 3105.40 71.4516   1
  -2   3   6 3208.91 66.9781   6
   1  -3  -6 625.881 18.4794   3
   1  -3  -6 654.194 18.6497   6
   1  -3  -6 653.867 17.7324   4
   1  -3  -6 647.526 19.6772   6
   1  -3  -6 622.260 20.3885   5
  -1   3   6 646.928 20.7723   2
  -1   3   6 611.072 17.8684   4
  -1   3   6 636.870 19.8141   6
  -1   3   6 664.972 23.5082   1
  -1   3   6 646.553 20.9893   5
  -1   3   6 638.485 19.1732   6
   0  -3  -6 99.3294 8.76900   6
   0  -3  -6 107.371 8.14679   5
   0  -3  -6 108.979 6.97776   6
   0  -3  -6 106.401 6.86070   4
   0   3   6 100.814 7.72649   6
   0   3   6 113.102 7.16106   4
   0   3   6 121.160 7.81078   6
   0   3   6 109.935 9.00191   2
   0   3   6 100.896 8.50361   5
  -1  -3  -6 1566.49 33.1121   6
  -1  -3  -6 1490.65 37.3667   2
  -1  -3  -6 1504.72 35.1823   5
  -1  -3  -6 1524.81 33.1586   6
   1   3   6 1537.67 35.6080   5
   1   3   6 1505.60 33.3329   4
   1   3   6 1539.62 34.8551   6
   1   3   6 1527.06 37.3937   2
   1   3   6 1518.59 33.6962   6
  -2  -3  -6 14.5060 3.85048   6
  -2  -3  -6 10.0435 4.43940   2
  -2  -3  -6 17.5323 4.09711   5
  -2  -3  -6 13.9643 3.46529   6
   2   3   6 5.43534 4.46727   2
   2   3   6 11.9874 3.71694   4
   2   3   6 12.6411 4.28591   5
   2   3   6 8.56299 3.68893   6
   2   3   6 13.7487 3.64127   6
  -3  -3  -6 965.999 24.3491   6
  -3  -3  -6 972.742 28.7187   2
  -3  -3  -6 961.601 23.8605   5
  -3  -3  -6 980.622 21.9291   3
  -3  -3  -6 992.203 23.6193   6
   3   3   6 940.509 24.1370   6
   3   3   6 959.525 28.0700   1
   3   3   6 986.312 26.2359   4
   3   3   6 991.518 29.2849   2
   3   3   6 941.426 21.3056   3
   3   3   6 951.539 25.8828   6
  -4  -3  -6 384.970 20.7078   2
  -4  -3  -6 410.728 13.2723   5
  -4  -3  -6 402.077 14.8692   6
  -4  -3  -6 418.434 14.2148   6
  -4  -3  -6 424.752 14.6920   3
   4   3   6 437.497 18.7334   1
   4   3   6 407.394 18.5805   2
   4   3   6 406.540 14.8087   6
   4   3   6 418.956 16.4960   6
   4   3   6 433.657 14.1323   3
  -5  -3  -6 215.195 11.2081   6
  -5  -3  -6 209.314 8.74057   5
  -5  -3  -6 214.131 11.4348   6
  -5  -3  -6 210.383 14.7460   2
   5   3   6 215.407 14.8015   1
   5   3   6 213.294 12.9709   6
   5   3   6 225.932 11.5296   3
   5   3   6 214.900 14.8207   2
   5   3   6 211.174 11.7894   6
  -6  -3  -6 1561.90 37.6974   6
  -6  -3  -6 1606.75 39.1637   6
   6   3   6 1562.69 40.5458   3
   6   3   6 1516.36 39.3239   6
   6   3   6 1526.44 45.3162   1
   6   3   6 1559.69 44.9616   2
   6   3   6 1566.62 41.8251   6
  -7  -3  -6 6.68290 7.33533   2
  -7  -3  -6 2.54673 5.70641   6
  -7  -3  -6 5.48629 5.36595   6
   7   3   6 0.49202 6.47200   3
   7   3   6 -2.0787 8.06028   2
   7   3   6 9.17269 6.02146   6
   7   3   6 -1.4415 6.18747   1
   7   3   6 -2.4200 6.08939   6
  -8  -3  -6 28.5174 10.5348   2
  -8  -3  -6 35.7336 7.79548   6
   8   3   6 41.9597 9.79236   3
   8   3   6 30.6174 9.59179   6
   8   3   6 23.9637 9.33902   2
   8   3   6 30.0254 11.1830   1
   7  -4  -6 26.3660 9.37738   5
   7  -4  -6 18.3716 7.66726   6
   7  -4  -6 26.7385 7.73163   4
   7  -4  -6 19.2596 11.1273   1
  -7   4   6 22.9237 8.27105   6
  -7   4   6 12.3946 10.4388   2
  -7   4   6 19.6599 9.23222   5
   6  -4  -6 343.019 22.3501   3
   6  -4  -6 306.108 17.8402   6
   6  -4  -6 310.806 19.2534   5
   6  -4  -6 309.945 21.9112   1
   6  -4  -6 295.796 17.7815   6
   6  -4  -6 311.556 15.5272   4
  -6   4   6 310.767 18.4496   6
  -6   4   6 301.212 18.6744   6
  -6   4   6 322.254 22.4301   1
  -6   4   6 313.361 19.7736   5
   5  -4  -6 92.0380 10.9244   6
   5  -4  -6 103.878 14.9490   3
   5  -4  -6 122.340 10.1829   4
   5  -4  -6 85.3499 13.3355   1
   5  -4  -6 88.8031 11.1809   5
   5  -4  -6 103.167 11.1936   6
  -5   4   6 99.9775 11.1331   6
  -5   4   6 124.405 20.4680   6
  -5   4   6 140.475 16.5365   1
  -5   4   6 109.657 13.0841   5
   4  -4  -6 29.9325 5.20217   4
   4  -4  -6 25.7163 6.08448   6
   4  -4  -6 25.6671 7.45893   3
   4  -4  -6 35.5659 8.07498   5
   4  -4  -6 24.7524 6.62314   6
  -4   4   6 29.4814 8.01407   1
  -4   4   6 27.1661 7.50583   5
  -4   4   6 33.9213 7.32683   6
   3  -4  -6 18.9925 5.11750   6
   3  -4  -6 19.2325 6.25973   5
   3  -4  -6 16.9163 4.38205   4
   3  -4  -6 17.3398 5.42707   6
   3  -4  -6 17.4287 6.39723   3
  -3   4   6 20.7314 6.55585   5
  -3   4   6 8.11583 4.84334   6
  -3   4   6 18.7100 6.92934   1
  -3   4   6 11.3554 4.51275   6
   2  -4  -6 52.8965 5.31827   4
   2  -4  -6 48.9088 6.38459   6
   2  -4  -6 60.7865 8.08302   3
   2  -4  -6 53.2182 6.91923   6
  -2   4   6 50.7383 6.82015   6
  -2   4   6 41.1261 7.74047   1
  -2   4   6 55.0699 5.22570   4
  -2   4   6 48.4592 6.86741   6
  -2   4   6 45.4595 7.60722   5
   1  -4  -6 370.249 11.8071   4
   1  -4  -6 378.120 13.2055   6
   1  -4  -6 398.109 16.2302   5
   1  -4  -6 423.442 14.8582   6
   1  -4  -6 404.370 13.6914   3
  -1   4   6 367.623 16.5786   2
  -1   4   6 415.773 14.8321   6
  -1   4   6 379.424 12.4397   4
  -1   4   6 416.272 18.8507   1
  -1   4   6 394.239 16.6320   5
  -1   4   6 397.426 15.0678   6
   0  -4  -6 391.921 13.0508   6
   0  -4  -6 393.701 15.5232   5
   0  -4  -6 415.084 12.8492   6
   0   4   6 401.181 14.6820   6
   0   4   6 393.769 15.8333   5
   0   4   6 393.549 16.7689   2
   0   4   6 397.069 13.9522   6
   0   4   6 403.979 12.6802   4
  -1  -4  -6 2082.45 48.9117   2
  -1  -4  -6 2023.31 41.2827   6
  -1  -4  -6 2073.42 41.2964   6
  -1  -4  -6 2076.58 45.4067   5
   1   4   6 2114.73 44.1871   6
   1   4   6 2131.26 46.1457   5
   1   4   6 2047.21 48.8689   2
   1   4   6 2056.79 42.7217   4
   1   4   6 2080.46 43.4219   6
  -2  -4  -6 1125.35 24.5997   6
  -2  -4  -6 1106.82 31.8204   2
  -2  -4  -6 1146.32 25.2018   6
  -2  -4  -6 1106.35 27.5527   5
   2   4   6 1203.32 33.0217   2
   2   4   6 1175.95 28.5486   6
   2   4   6 1112.34 27.7389   4
   2   4   6 1118.73 26.3767   6
  -3  -4  -6 95.0910 9.47850   2
  -3  -4  -6 89.3586 6.16613   6
  -3  -4  -6 73.8500 5.66318   6
  -3  -4  -6 78.6973 6.42548   5
   3   4   6 81.5408 9.92269   2
   3   4   6 92.9402 6.85155   6
   3   4   6 86.7087 7.70859   6
   3   4   6 85.5303 7.28437   5
  -4  -4  -6 30.8210 4.53664   5
  -4  -4  -6 37.6576 7.53466   2
  -4  -4  -6 29.8441 4.63011   6
  -4  -4  -6 27.0117 4.62112   6
   4   4   6 35.4960 7.80382   2
   4   4   6 29.1657 5.89077   6
   4   4   6 32.5647 5.51769   6
   4   4   6 35.9283 4.95951   3
   4   4   6 27.8619 6.67192   1
  -5  -4  -6 74.0089 7.18345   6
  -5  -4  -6 91.9224 7.24117   6
  -5  -4  -6 69.8421 9.67135   2
   5   4   6 63.3460 9.97021   2
   5   4   6 73.5829 7.50713   3
   5   4   6 74.9165 10.7029   1
   5   4   6 62.7182 7.66366   6
   5   4   6 52.7121 7.80633   6
  -6  -4  -6 427.530 15.5725   6
  -6  -4  -6 412.781 15.8528   6
   6   4   6 397.232 17.2697   6
   6   4   6 398.617 17.3032   3
   6   4   6 404.078 18.5815   6
   6   4   6 407.451 20.9249   2
   6   4   6 435.976 22.9906   1
  -7  -4  -6 29.7542 6.84040   6
  -7  -4  -6 33.4869 11.0736   6
  -7  -4  -6 18.2666 7.64041   2
   7   4   6 7.66543 8.09592   1
   7   4   6 31.6236 9.69391   2
   7   4   6 20.6999 7.48042   3
   7   4   6 29.6969 8.54862   6
   7   4   6 39.3030 7.90847   6
  -8  -4  -6 93.3605 9.73433   6
  -8  -4  -6 66.5499 13.2342   2
  -8  -4  -6 105.683 10.7999   6
   8   4   6 119.159 15.0234   2
   8   4   6 110.314 14.2986   3
   8   4   6 55.2335 11.9091   1
   8   4   6 79.6769 11.7710   6
   7  -5  -6 -4.5754 9.53801   1
   7  -5  -6 2.97202 6.30401   4
   7  -5  -6 -0.1450 7.65580   6
  -7   5   6 6.56060 7.48526   6
  -7   5   6 -5.6729 8.96439   5
   6  -5  -6 17.5214 6.27208   4
   6  -5  -6 18.4811 7.40494   6
   6  -5  -6 23.4121 10.7297   3
   6  -5  -6 19.3974 7.58115   6
   6  -5  -6 28.3346 8.45579   5
  -6   5   6 19.2482 9.11122   5
  -6   5   6 18.4557 10.6344   1
  -6   5   6 19.4935 8.05266   6
   5  -5  -6 215.496 16.9237   5
   5  -5  -6 266.109 15.7195   6
   5  -5  -6 235.094 18.1559   3
   5  -5  -6 247.111 15.1359   6
   5  -5  -6 247.632 11.8895   4
  -5   5   6 244.032 16.1176   6
  -5   5   6 224.645 17.1355   5
  -5   5   6 266.705 19.7709   1
   4  -5  -6 11.6837 4.53248   6
   4  -5  -6 3.86265 6.17850   5
   4  -5  -6 19.8901 6.29690   6
   4  -5  -6 11.2385 6.57983   3
  -4   5   6 20.4260 7.51953   1
  -4   5   6 10.6026 5.95782   5
  -4   5   6 8.74059 5.96236   6
  -4   5   6 10.3130 5.49261   6
   3  -5  -6 139.496 9.50136   6
   3  -5  -6 121.543 10.1558   6
   3  -5  -6 118.711 11.4408   5
   3  -5  -6 99.7516 10.4625   3
  -3   5   6 133.728 13.2358   1
  -3   5   6 110.071 11.8835   5
  -3   5   6 117.312 10.3637   6
  -3   5   6 109.063 10.2127   6
   2  -5  -6 114.944 8.10553   6
   2  -5  -6 135.156 10.9723   5
   2  -5  -6 127.259 9.21117   3
  -2   5   6 129.682 11.7732   5
  -2   5   6 127.349 12.3276   6
  -2   5   6 128.990 9.52458   6
  -2   5   6 128.008 12.2176   1
   1  -5  -6 732.607 26.4067   5
   1  -5  -6 670.727 18.2878   6
   1  -5  -6 656.278 18.8368   3
   1  -5  -6 662.342 19.2060   6
  -1   5   6 679.399 23.2309   5
  -1   5   6 676.725 24.3309   2
  -1   5   6 691.138 21.0561   6
  -1   5   6 664.177 20.1665   6
  -1   5   6 639.252 25.5187   1
   0  -5  -6 511.670 18.5274   5
   0  -5  -6 508.557 13.8633   6
   0  -5  -6 511.962 14.1531   6
   0   5   6 505.561 16.1337   6
   0   5   6 505.658 19.0364   5
   0   5   6 524.054 14.3217   4
   0   5   6 500.506 20.3369   2
   0   5   6 505.804 16.8302   6
  -1  -5  -6 43.6933 3.83163   6
  -1  -5  -6 45.2704 3.84369   6
  -1  -5  -6 49.9797 6.59122   5
   1   5   6 39.6015 5.36744   6
   1   5   6 36.9988 7.29542   2
   1   5   6 48.6028 5.83877   6
   1   5   6 43.6041 6.56826   5
   1   5   6 59.5274 5.96269   4
  -2  -5  -6 791.211 26.6273   2
  -2  -5  -6 762.986 21.4899   5
   2   5   6 725.120 21.1897   6
   2   5   6 769.570 22.3208   5
   2   5   6 768.695 19.8273   6
   2   5   6 769.334 21.4174   4
   2   5   6 751.361 26.2129   2
  -3  -5  -6 831.145 22.1203   5
  -3  -5  -6 832.977 28.2252   2
   3   5   6 859.536 23.9694   6
   3   5   6 921.320 29.7272   2
   3   5   6 891.024 23.2388   5
   3   5   6 875.953 22.2443   6
   3   5   6 832.554 28.0159   1
  -4  -5  -6 140.544 12.8694   2
  -4  -5  -6 160.447 7.84508   5
   4   5   6 165.897 10.4539   6
   4   5   6 171.455 13.5663   1
   4   5   6 153.744 9.45019   6
   4   5   6 169.905 13.9643   2
  -5  -5  -6 33.1054 8.49981   2
   5   5   6 44.0316 9.02790   2
   5   5   6 51.0840 6.38962   3
   5   5   6 38.0755 8.90160   1
   5   5   6 45.7120 6.76728   6
   5   5   6 41.8125 7.38556   6
  -6  -5  -6 28.3360 9.10875   2
   6   5   6 31.2586 6.70593   3
   6   5   6 31.0839 6.75478   6
   6   5   6 14.7438 7.62966   1
   6   5   6 23.9809 7.28467   6
   7   5   6 382.432 18.5478   3
   7   5   6 352.677 22.2662   2
   7   5   6 358.842 23.3950   1
   7   5   6 364.726 18.2825   6
   7   5   6 378.411 19.2605   6
  -8  -5  -6 7.25216 15.7541   2
   8   5   6 -4.8691 8.38019   3
   8   5   6 14.9931 8.07939   6
   8   5   6 1.95369 11.0321   1
   8   5   6 7.98169 8.67936   2
   6  -6  -6 88.7629 11.3504   6
   6  -6  -6 76.6537 10.3488   6
  -6   6   6 95.2928 13.2119   5
  -6   6   6 79.6421 11.3644   6
   5  -6  -6 720.044 30.3340   5
   5  -6  -6 761.190 27.2736   6
   5  -6  -6 770.085 30.8626   3
   5  -6  -6 759.583 26.0423   6
  -5   6   6 762.691 28.3270   6
  -5   6   6 775.668 28.9468   6
  -5   6   6 750.010 30.8548   5
   4  -6  -6 33.0668 9.44486   3
   4  -6  -6 18.5643 6.13204   6
   4  -6  -6 15.7968 5.01647   6
   4  -6  -6 23.3627 6.50251   5
  -4   6   6 29.5813 9.11576   5
  -4   6   6 15.9502 7.16615   1
  -4   6   6 21.2517 6.65100   6
  -4   6   6 19.3125 6.85239   6
   3  -6  -6 32.1144 6.29034   6
   3  -6  -6 33.2106 7.17393   3
   3  -6  -6 33.8939 7.00652   6
  -3   6   6 41.7450 7.82430   6
  -3   6   6 47.2942 9.27879   5
  -3   6   6 23.4433 6.34724   6
  -3   6   6 40.8321 9.35790   1
   2  -6  -6 1077.40 26.9244   6
   2  -6  -6 1131.51 30.3062   3
   2  -6  -6 1121.13 28.5731   6
  -2   6   6 1102.17 30.0651   6
  -2   6   6 1031.25 35.6813   1
  -2   6   6 1113.36 30.4373   6
  -2   6   6 1106.01 34.0713   5
   1  -6  -6 38.5111 7.51512   5
   1  -6  -6 42.0964 5.14411   6
   1  -6  -6 55.7952 5.36729   6
   1  -6  -6 54.1383 6.49681   3
  -1   6   6 49.2420 6.42250   6
  -1   6   6 49.3153 8.85946   5
  -1   6   6 47.7406 6.89816   6
  -1   6   6 40.5457 8.28015   2
  -1   6   6 39.8829 9.42792   1
   0   6   6 384.592 11.5840   4
   0   6   6 365.295 18.7217   2
   0   6   6 377.697 14.5468   6
   0   6   6 390.825 14.2210   6
   0   6   6 414.851 17.5686   5
  -1  -6  -6 171.492 11.0297   5
   1   6   6 166.689 8.59931   4
   1   6   6 184.422 13.9083   2
   1   6   6 170.645 9.07111   6
   1   6   6 176.407 12.0141   5
   1   6   6 192.119 9.65983   6
  -2  -6  -6 1137.29 29.5392   5
   2   6   6 1124.36 28.2861   4
   2   6   6 1114.16 34.9895   2
   2   6   6 1170.18 30.1008   5
   2   6   6 1105.75 27.9172   6
   2   6   6 1095.54 26.2676   6
  -3  -6  -6 1397.52 40.7627   2
  -3  -6  -6 1408.32 33.2683   5
   3   6   6 1482.62 40.8334   1
   3   6   6 1493.97 42.4100   2
   3   6   6 1409.34 33.7882   5
   3   6   6 1420.62 32.0191   6
   3   6   6 1398.59 34.2065   6
  -4  -6  -6 49.0578 9.32380   2
  -4  -6  -6 55.0435 5.76822   5
   4   6   6 54.7115 10.4446   1
   4   6   6 48.2116 6.53770   6
   4   6   6 64.4613 6.33380   5
   4   6   6 63.1378 10.2573   2
   4   6   6 67.4168 6.97257   6
   5   6   6 291.645 11.7011   3
   5   6   6 261.906 17.6457   2
   5   6   6 278.814 12.9719   6
   5   6   6 255.874 13.7980   6
   5   6   6 266.425 18.3568   1
  -6  -6  -6 546.475 25.9243   2
   6   6   6 585.751 19.9495   3
   6   6   6 519.847 21.1118   6
   6   6   6 576.350 26.2523   2
   6   6   6 528.003 20.5386   6
   6   6   6 566.121 27.8162   1
  -7  -6  -6 160.249 17.5390   2
   7   6   6 165.809 17.9056   1
   7   6   6 116.090 14.7537   2
   7   6   6 132.097 12.9158   3
   7   6   6 152.128 13.3996   6
   7   6   6 126.221 12.9442   6
   8   6   6 42.7630 13.0145   1
   8   6   6 55.4386 11.4641   3
   8   6   6 53.5281 10.3756   6
   8   6   6 31.1783 10.5718   2
   6  -7  -6 18.1346 7.16613   6
  -6   7   6 24.4822 10.7472   5
   5  -7  -6 1104.18 43.5281   3
   5  -7  -6 1117.36 32.6527   6
   5  -7  -6 1149.16 34.4370   6
  -5   7   6 1082.61 39.4057   5
  -5   7   6 1132.24 41.5647   1
  -5   7   6 1098.06 36.1803   6
   4  -7  -6 73.8890 8.99564   6
   4  -7  -6 61.8041 9.31989   6
   4  -7  -6 47.5795 10.1915   5
  -4   7   6 59.8510 9.43709   6
  -4   7   6 47.0581 11.0431   5
  -4   7   6 57.1419 9.51237   6
  -4   7   6 86.2497 14.3566   1
   3  -7  -6 30.9925 6.40610   6
   3  -7  -6 25.0561 5.46413   6
   3  -7  -6 34.0729 7.77342   3
  -3   7   6 29.3147 6.56070   6
  -3   7   6 25.3191 9.20174   5
  -3   7   6 14.5539 6.69418   3
  -3   7   6 28.4300 7.08487   6
  -3   7   6 31.0252 9.43209   1
   2  -7  -6 1563.65 34.2742   6
   2  -7  -6 1609.44 39.9172   3
   2  -7  -6 1597.76 35.4622   6
  -2   7   6 1657.95 45.2400   5
  -2   7   6 1613.62 40.0081   6
  -2   7   6 1630.36 39.6798   6
  -2   7   6 1596.35 40.4135   3
  -2   7   6 1501.06 46.6229   1
   1  -7  -6 117.326 11.5693   5
   1  -7  -6 130.624 8.99525   3
  -1   7   6 128.562 9.84984   6
  -1   7   6 145.935 13.7235   1
  -1   7   6 105.753 9.10121   6
  -1   7   6 131.649 12.7013   5
  -1   7   6 128.364 9.57965   3
  -1   7   6 119.961 13.4031   2
   0  -7  -6 528.309 21.3049   5
   0   7   6 520.367 17.2638   6
   0   7   6 555.842 22.1006   5
   0   7   6 552.655 24.1067   2
   0   7   6 529.488 17.8092   6
   0   7   6 516.381 15.4298   3
  -1  -7  -6 1198.36 33.7800   5
   1   7   6 1214.23 28.9012   6
   1   7   6 1184.66 37.8959   2
   1   7   6 1173.78 27.5880   4
   1   7   6 1190.52 33.6196   5
  -2  -7  -6 209.757 12.2028   5
   2   7   6 203.110 15.7295   2
   2   7   6 200.519 12.4346   5
   2   7   6 205.607 10.5637   6
   2   7   6 192.215 9.40246   6
  -3  -7  -6 1461.92 35.1820   5
   3   7   6 1460.92 34.7976   6
   3   7   6 1420.11 42.1221   1
   3   7   6 1444.40 35.4065   5
   3   7   6 1470.39 43.9190   2
   3   7   6 1409.21 32.1864   6
   4   7   6 24.9533 7.99631   2
   4   7   6 19.6805 5.40099   5
   4   7   6 14.1684 5.11077   6
   4   7   6 28.2840 5.32423   6
   4   7   6 20.8029 8.17754   1
  -5  -7  -6 386.269 22.0959   2
   5   7   6 368.049 16.2205   6
   5   7   6 353.801 24.6153   2
   5   7   6 323.973 21.0401   1
   5   7   6 333.872 14.3881   6
  -6  -7  -6 806.371 33.1372   2
   6   7   6 702.386 32.8419   1
   6   7   6 788.528 26.1452   6
   6   7   6 786.992 31.2821   2
   6   7   6 768.162 24.9893   6
   6   7   6 785.810 23.4526   3
  -7  -7  -6 143.814 17.3821   2
   7   7   6 120.107 14.5747   6
   7   7   6 149.984 14.0265   6
   7   7   6 141.167 17.6418   1
   7   7   6 122.011 15.6816   2
   7   7   6 137.619 12.7892   3
   5  -8  -6 521.092 31.3145   6
   5  -8  -6 487.996 26.1685   3
  -5   8   6 540.073 27.9525   5
  -5   8   6 501.137 24.0741   6
  -5   8   6 465.185 27.6643   1
   4  -8  -6 89.4283 8.79169   6
   4  -8  -6 72.8620 11.0383   3
   4  -8  -6 78.8507 9.50166   6
  -4   8   6 78.0145 10.9746   6
  -4   8   6 72.7269 10.5542   6
  -4   8   6 76.1764 12.3036   5
  -4   8   6 90.1078 15.4450   1
   3  -8  -6 9.90506 4.66531   6
   3  -8  -6 16.1538 6.93644   3
   3  -8  -6 17.1223 4.56894   6
   3  -8  -6 -0.8160 5.63252   5
  -3   8   6 12.3805 6.79758   5
  -3   8   6 8.43828 6.28570   6
  -3   8   6 16.9137 9.29322   1
  -3   8   6 15.8770 7.16161   3
  -3   8   6 19.2673 6.74095   6
   2  -8  -6 2985.80 66.4514   3
   2  -8  -6 2958.60 72.1707   5
  -2   8   6 2915.42 73.9377   1
  -2   8   6 2905.45 71.5225   5
  -2   8   6 2989.21 65.8997   3
  -2   8   6 3008.02 65.1038   6
  -2   8   6 3074.54 65.3585   6
   1  -8  -6 103.771 13.0047   5
   1  -8  -6 93.0715 8.82257   3
  -1   8   6 90.0454 12.4907   1
  -1   8   6 101.985 10.0563   6
  -1   8   6 84.9782 12.9486   2
  -1   8   6 97.7797 9.30340   6
  -1   8   6 86.0231 9.14866   3
   0  -8  -6 345.236 18.4196   5
   0   8   6 352.155 14.5686   6
   0   8   6 371.508 27.1623   2
   0   8   6 352.118 14.2055   6
   0   8   6 368.952 19.2261   5
   0   8   6 338.324 12.8329   3
  -1  -8  -6 581.698 22.8488   5
   1   8   6 604.413 19.0278   6
   1   8   6 609.605 18.6375   6
   1   8   6 603.492 27.6227   2
   1   8   6 618.855 23.8024   5
   1   8   6 620.798 17.5110   4
  -2  -8  -6 85.1167 9.57547   5
   2   8   6 84.2860 7.60959   6
   2   8   6 82.3670 7.33807   6
   2   8   6 62.7598 11.0986   2
   2   8   6 78.8947 9.29308   5
   3   8   6 1003.90 29.1120   5
   3   8   6 1067.08 25.7437   6
   3   8   6 1031.13 27.6379   6
   3   8   6 1069.35 41.5095   2
   3   8   6 1071.29 40.0452   1
   4   8   6 264.035 12.1097   6
   4   8   6 283.780 13.2097   5
   4   8   6 284.469 19.9474   2
   4   8   6 286.136 19.7545   1
   4   8   6 288.949 13.4517   6
  -5  -8  -6 6.80745 9.55547   2
   5   8   6 16.5255 6.18349   6
   5   8   6 30.9497 9.44719   1
   5   8   6 29.6176 6.19372   6
   5   8   6 24.2079 8.44000   2
  -6  -8  -6 1439.54 46.8277   2
   6   8   6 1429.92 38.2973   6
   6   8   6 1396.59 48.1593   1
   6   8   6 1384.31 36.3818   6
   6   8   6 1412.36 45.6483   2
   4  -9  -6 -7.9871 9.54938   3
   4  -9  -6 6.44005 5.01817   6
   4  -9  -6 4.54002 4.63767   6
  -4   9   6 2.13379 8.33565   3
  -4   9   6 1.30824 9.37499   1
  -4   9   6 6.03634 6.70785   6
  -4   9   6 -0.3032 7.70939   5
  -3   9   6 19.4212 6.91661   6
  -3   9   6 29.3988 7.99817   3
  -3   9   6 18.5352 9.16972   1
  -3   9   6 15.4596 8.23895   6
  -3   9   6 21.2314 8.28609   5
   2  -9  -6 820.336 33.2290   5
   2  -9  -6 897.165 29.1427   3
  -2   9   6 840.379 28.4592   3
  -2   9   6 856.443 33.6168   5
  -2   9   6 872.282 35.8870   2
  -2   9   6 867.825 27.6683   6
  -2   9   6 858.948 34.9051   1
  -2   9   6 873.570 27.3758   6
   1  -9  -6 27.4716 6.40688   3
   1  -9  -6 17.0415 7.04804   5
  -1   9   6 12.7127 8.74097   1
  -1   9   6 25.7497 9.83488   2
  -1   9   6 17.9804 5.98649   6
  -1   9   6 17.0755 8.05179   5
  -1   9   6 25.9690 6.15937   6
  -1   9   6 19.7145 6.06353   3
   0  -9  -6 16.8480 7.09186   5
   0   9   6 13.1245 5.10587   6
   0   9   6 12.8445 5.30329   6
   0   9   6 8.45706 7.78139   2
   0   9   6 10.2231 7.60468   5
   1   9   6 1785.58 41.7620   6
   1   9   6 1999.92 56.5820   2
   1   9   6 1867.07 49.6740   5
   1   9   6 1881.93 41.7875   6
   2   9   6 75.8090 11.7323   1
   2   9   6 86.2386 10.8564   5
   2   9   6 80.9853 7.82406   6
   2   9   6 78.0141 7.55846   6
   2   9   6 60.4778 12.5042   2
   3   9   6 947.380 37.0544   2
   3   9   6 929.334 28.6654   5
   3   9   6 888.997 25.1637   6
   3   9   6 920.040 34.4655   1
   3   9   6 935.028 23.7679   6
   4   9   6 58.8218 7.46131   6
   4   9   6 46.5688 10.6889   1
   4   9   6 68.8766 8.35998   5
   4   9   6 52.8820 11.4406   2
   4   9   6 71.6310 7.38687   6
   5   9   6 42.2922 6.92937   6
   5   9   6 48.2203 11.8439   1
   5   9   6 41.5834 10.5512   2
   5   9   6 44.3883 7.51824   6
   6   9   6 735.949 25.2533   6
   6   9   6 682.644 31.7190   2
   6   9   6 723.815 23.8230   6
   6   9   6 761.394 35.4610   1
   3 -10  -6 59.0411 12.5007   3
  -3  10   6 55.7785 9.92290   6
  -3  10   6 60.2153 10.2542   6
  -3  10   6 57.3865 11.5403   3
  -3  10   6 59.4803 11.7055   1
   2 -10  -6 223.070 16.9930   3
  -2  10   6 193.595 19.7790   1
  -2  10   6 219.386 14.7324   6
  -2  10   6 212.114 18.3386   5
  -2  10   6 220.556 16.1291   3
  -2  10   6 189.184 14.4715   6
  -2  10   6 200.564 20.2451   2
   1 -10  -6 116.287 13.6801   3
  -1  10   6 100.834 16.0485   2
  -1  10   6 114.118 11.0500   3
  -1  10   6 112.228 14.5339   1
  -1  10   6 98.5041 10.7723   6
  -1  10   6 83.7569 11.1043   5
  -1  10   6 120.096 10.5434   6
   0  10   6 33.9453 7.01175   6
   0  10   6 38.2269 9.22680   5
   0  10   6 41.6431 11.7039   2
   0  10   6 39.1225 6.88659   3
   0  10   6 38.5975 6.18600   6
   1  10   6 430.360 15.3047   6
   1  10   6 415.629 21.4031   5
   1  10   6 380.529 15.1856   6
   1  10   6 356.092 23.8272   2
   2  10   6 113.668 13.5816   1
   2  10   6 126.312 11.3695   4
   2  10   6 138.780 10.0987   6
   2  10   6 153.258 16.8398   5
   2  10   6 125.960 9.32309   6
   2  10   6 134.677 9.44730   4
   2  10   6 122.029 15.6786   2
   3  10   6 3.97401 7.93186   2
   3  10   6 5.51575 6.60214   1
   3  10   6 15.1501 5.94710   4
   3  10   6 -2.7161 6.35382   5
   3  10   6 5.30827 4.19545   6
   3  10   6 2.44076 5.33682   6
   4  10   6 175.893 10.2414   6
   4  10   6 190.480 11.4836   6
   4  10   6 153.626 14.2561   4
   4  10   6 178.214 13.3804   5
   4  10   6 133.736 17.0578   2
   4  10   6 167.446 15.9441   1
  -1  11   6 57.1870 13.8486   6
  -1  11   6 80.4043 9.83291   6
  -1  11   6 43.7094 11.1499   5
  -1  11   6 67.9690 14.1303   1
  -1  11   6 72.5274 10.5852   3
   0  11   6 36.8743 6.35082   6
   0  11   6 29.3352 7.28110   6
   0  11   6 13.4874 9.21501   5
   0  11   6 34.7738 12.2145   2
   1  11   6 49.3870 7.24833   6
   1  11   6 54.7846 11.2705   5
   1  11   6 48.5869 6.81553   6
   1  11   6 54.8025 12.9191   2
   1  11   6 42.2240 10.1845   1
   2  11   6 388.184 15.3330   6
   2  11   6 327.714 13.6765   6
   2  11   6 386.599 24.8244   2
   2  11   6 347.916 21.7392   1
   2  11   6 364.415 21.2848   5
   3  11   6 36.1243 9.44099   5
   3  11   6 41.0752 11.5331   2
   3  11   6 26.3768 7.69880   4
   3  11   6 34.6159 9.87466   1
   2   8  -7 49.2733 12.3137   3
   2   8  -7 53.1332 8.57407   6
   2   8  -7 75.6234 12.2940   4
   2   8  -7 61.8053 8.88216   6
   2   8  -7 63.4951 7.08844   1
   1   8  -7 200.915 19.9717   3
   1   8  -7 188.391 12.5546   6
   1   8  -7 203.087 17.5436   4
   1   8  -7 203.771 13.2946   6
   0   8  -7 104.011 13.5637   4
   0   8  -7 93.0531 10.1949   6
   0   8  -7 83.5647 13.7067   3
   0   8  -7 123.686 11.7250   6
   0  -8   7 97.8263 12.6239   4
  -1   8  -7 262.994 16.7277   6
  -1   8  -7 234.498 20.8801   6
  -1   8  -7 233.805 15.0609   2
  -1   8  -7 206.205 17.1558   4
  -1   8  -7 256.306 22.9439   3
   1  -8   7 245.118 17.4993   4
  -2   8  -7 12.4514 7.58973   2
  -2   8  -7 7.99452 10.0533   5
  -2   8  -7 16.5636 8.78361   4
  -2   8  -7 0.39596 6.62300   6
  -2   8  -7 -6.0359 8.52703   3
  -2   8  -7 0.50912 7.15926   6
   2  -8   7 7.00427 7.73743   4
  -3   8  -7 80.2648 11.6841   6
  -3   8  -7 59.3493 10.1794   2
  -3   8  -7 67.8621 13.7049   5
  -3   8  -7 92.6548 13.8673   4
  -3   8  -7 56.4488 14.0314   3
  -3   8  -7 71.8447 10.6556   6
   3  -8   7 76.8962 11.1518   4
   3   7  -7 33.4709 10.3112   3
   3   7  -7 49.0082 10.7737   4
   3   7  -7 57.2974 9.60491   1
   3   7  -7 56.1005 11.0978   5
   3   7  -7 55.3484 8.78493   6
   3   7  -7 37.4803 8.20159   6
   2   7  -7 55.6320 8.46495   6
   2   7  -7 42.1473 10.9453   3
   2   7  -7 32.8382 9.93101   4
   2   7  -7 47.1364 7.63702   1
   2   7  -7 56.9450 8.32807   6
   1   7  -7 762.457 34.4582   3
   1   7  -7 828.600 25.4218   6
   1   7  -7 830.600 25.7513   6
   1   7  -7 784.379 30.1626   4
  -1  -7   7 809.489 31.6609   4
   0   7  -7 231.780 13.3280   6
   0   7  -7 213.171 19.6098   3
   0   7  -7 227.877 16.9051   4
   0   7  -7 210.771 13.4842   6
   0  -7   7 219.923 16.5827   4
  -1   7  -7 462.982 32.2824   4
  -1   7  -7 434.262 26.0131   3
  -1   7  -7 411.740 19.1264   6
  -1   7  -7 427.953 18.2540   6
  -1   7  -7 425.635 18.2562   2
   1  -7   7 408.936 20.2488   4
  -2   7  -7 120.256 14.7088   6
  -2   7  -7 135.890 13.2400   2
  -2   7  -7 135.149 14.1842   4
  -2   7  -7 127.471 16.3853   3
  -2   7  -7 128.242 12.9016   6
  -3   7  -7 -2.4721 7.87836   3
  -3   7  -7 10.1040 6.80667   4
  -3   7  -7 6.62183 6.57658   6
  -3   7  -7 11.5867 6.20562   6
  -3   7  -7 5.77693 6.88846   2
  -4   7  -7 632.269 28.5114   2
  -4   7  -7 696.193 26.9496   6
  -4   7  -7 673.345 27.2098   6
  -4   7  -7 688.821 32.4015   5
  -4   7  -7 700.363 34.8555   3
  -5   7  -7 9.92276 8.86414   5
  -5   7  -7 -2.7443 7.65620   6
  -5   7  -7 5.56243 10.6697   3
   4   6  -7 336.781 18.1067   6
   4   6  -7 336.230 19.4981   1
   4   6  -7 290.437 17.2514   6
   4   6  -7 369.058 23.2609   4
   4   6  -7 283.660 18.2998   5
  -4  -6   7 303.174 19.8498   1
   3   6  -7 201.600 18.5816   3
   3   6  -7 223.513 16.6251   5
   3   6  -7 203.112 13.8194   6
   3   6  -7 212.102 14.5843   1
   3   6  -7 198.576 16.8365   4
  -3  -6   7 244.492 15.2735   1
   2   6  -7 49.4764 10.2207   4
   2   6  -7 49.3826 9.63155   5
   2   6  -7 40.2405 7.93048   6
   2   6  -7 59.1620 8.19475   1
   2   6  -7 45.7008 10.4467   3
   2   6  -7 51.7889 7.73651   6
  -2  -6   7 51.2611 7.56927   1
   1   6  -7 739.079 23.2478   6
   1   6  -7 707.028 27.6359   4
   1   6  -7 739.505 23.5698   6
   1   6  -7 715.666 31.2888   3
  -1  -6   7 716.011 27.9616   4
   0   6  -7 499.478 18.7165   6
   0   6  -7 487.774 18.4234   6
   0   6  -7 464.847 22.0976   4
   0   6  -7 437.264 24.8305   3
  -1   6  -7 385.364 16.7100   6
  -1   6  -7 365.628 22.8658   3
  -1   6  -7 380.654 17.4141   6
  -1   6  -7 384.529 19.9813   4
  -1   6  -7 396.812 16.6581   2
   1  -6   7 374.762 19.2703   4
  -2   6  -7 373.851 17.7313   6
  -2   6  -7 373.628 18.2233   2
  -2   6  -7 379.147 17.5134   6
  -2   6  -7 400.352 24.0153   3
  -2   6  -7 357.043 19.4483   4
   2  -6   7 387.797 18.5390   4
  -3   6  -7 291.115 17.4636   2
  -3   6  -7 282.180 24.5560   6
  -3   6  -7 285.091 16.3280   6
  -3   6  -7 297.579 16.9500   4
  -3   6  -7 292.930 21.2359   3
   3  -6   7 278.016 15.8467   4
   3  -6   7 264.055 19.6831   3
  -4   6  -7 684.823 39.1081   6
  -4   6  -7 659.242 25.9857   6
  -4   6  -7 711.380 32.6778   3
   4  -6   7 710.742 25.5523   4
   4  -6   7 664.122 20.2147   6
  -5   6  -7 10.4002 8.77442   5
  -5   6  -7 15.3318 6.86544   6
  -5   6  -7 18.6658 9.93279   3
   5  -6   7 10.4866 6.30918   6
   5  -6   7 15.5200 6.94730   6
  -6   6  -7 20.2658 10.8178   3
  -6   6  -7 37.6849 11.7456   6
   6  -6   7 8.44704 9.03009   4
   6  -6   7 23.8314 8.81459   6
   6  -6   7 37.1313 8.87771   6
   5   5  -7 510.258 26.1718   4
   5   5  -7 450.935 20.9327   5
   5   5  -7 462.460 25.1972   1
   5   5  -7 464.891 20.9738   6
  -5  -5   7 496.746 26.3696   1
   4   5  -7 155.747 13.0437   5
   4   5  -7 158.004 18.4700   1
   4   5  -7 121.470 11.6562   6
   4   5  -7 139.326 12.7154   6
   4   5  -7 145.761 15.3364   4
   3   5  -7 238.571 13.6148   6
   3   5  -7 220.053 16.8836   4
   3   5  -7 225.126 13.8996   6
   3   5  -7 207.659 14.6307   1
   3   5  -7 246.314 15.9061   5
  -3  -5   7 219.237 14.5252   1
   2   5  -7 23.3649 7.36680   5
   2   5  -7 18.9241 8.27618   3
   2   5  -7 23.7500 5.95463   1
   2   5  -7 17.9183 5.48353   6
   2   5  -7 16.4310 7.09109   4
  -2  -5   7 35.4220 8.66784   4
  -2  -5   7 29.7476 6.19120   1
   1   5  -7 718.422 22.1828   6
   1   5  -7 664.312 19.9732   1
   1   5  -7 712.544 26.7527   4
   1   5  -7 710.325 29.6598   3
  -1  -5   7 696.736 19.6913   1
   0   5  -7 743.309 26.8498   4
   0   5  -7 695.100 22.3624   6
   0  -5   7 693.942 25.9414   4
  -1   5  -7 152.113 10.6061   2
  -1   5  -7 174.941 11.5957   6
  -1   5  -7 149.356 11.0381   6
  -1   5  -7 173.208 13.3832   4
   1  -5   7 201.362 13.2592   4
  -2   5  -7 505.998 21.7233   4
  -2   5  -7 508.023 24.9626   3
  -2   5  -7 483.282 18.9986   6
  -2   5  -7 455.359 18.8675   6
  -2   5  -7 493.715 19.5903   2
   2  -5   7 489.173 20.1313   4
  -3   5  -7 416.574 23.5942   3
  -3   5  -7 397.897 19.2767   4
  -3   5  -7 427.090 18.5014   6
  -3   5  -7 419.072 18.6325   6
  -3   5  -7 410.410 19.5230   2
   3  -5   7 413.185 14.8426   6
   3  -5   7 400.817 18.7222   4
   3  -5   7 381.765 26.0456   3
  -4   5  -7 487.148 21.1961   6
  -4   5  -7 484.521 25.8988   3
  -4   5  -7 516.822 23.8402   2
  -4   5  -7 493.914 21.3539   6
   4  -5   7 454.558 20.4524   4
   4  -5   7 468.843 18.0011   6
   4  -5   7 493.163 24.9522   3
   4  -5   7 508.278 20.7931   6
  -5   5  -7 12.4338 6.89535   6
  -5   5  -7 12.1757 8.63331   2
  -5   5  -7 6.65901 8.53888   3
  -5   5  -7 -3.3017 6.15553   6
   5  -5   7 4.26709 7.53925   3
   5  -5   7 10.3840 6.67780   6
   5  -5   7 -3.1936 6.13553   4
   5  -5   7 2.67033 5.40964   6
  -6   5  -7 92.0813 14.6888   3
  -6   5  -7 93.7216 12.2992   6
  -6   5  -7 105.824 14.8570   5
   6  -5   7 79.8831 11.4370   4
   6  -5   7 115.298 12.5503   6
   6  -5   7 89.8523 11.7613   6
  -7   5  -7 528.248 30.7061   3
  -7   5  -7 504.328 28.0366   5
   7  -5   7 519.222 24.0839   6
   7  -5   7 513.026 25.3261   6
   6   4  -7 85.3362 10.1874   5
   6   4  -7 64.4730 12.1087   4
   6   4  -7 101.835 12.0914   6
   6   4  -7 87.7642 13.5319   1
   5   4  -7 212.342 14.5846   6
   5   4  -7 196.338 14.2686   5
   5   4  -7 228.756 18.2776   4
   5   4  -7 224.100 15.6399   6
   5   4  -7 267.155 19.4502   1
  -5  -4   7 208.760 21.7752   1
   4   4  -7 44.7855 9.46591   4
   4   4  -7 40.9355 9.39425   1
   4   4  -7 58.9154 8.55750   6
   4   4  -7 49.5677 7.70421   6
   4   4  -7 38.2076 8.00322   5
   3   4  -7 4.85520 4.52247   6
   3   4  -7 2.19502 5.43511   1
   3   4  -7 1.18307 4.79395   5
   3   4  -7 16.7878 5.91391   6
   3   4  -7 -3.1839 5.06222   4
  -3  -4   7 7.52969 5.75451   1
   2   4  -7 235.964 13.1747   1
   2   4  -7 234.808 15.7325   4
   2   4  -7 229.299 12.8161   6
   2   4  -7 211.128 14.3138   5
   2   4  -7 237.622 12.8284   6
  -2  -4   7 246.052 13.3451   1
   1   4  -7 360.078 20.8456   1
   1   4  -7 348.778 19.8472   3
   1   4  -7 371.422 15.5201   6
   1   4  -7 384.379 18.7367   4
   1   4  -7 382.625 15.5839   6
  -1  -4   7 415.441 19.0560   4
  -1  -4   7 375.398 14.0952   1
   0   4  -7 1467.32 40.1960   4
   0   4  -7 1499.93 36.4863   6
   0   4  -7 1515.70 36.4946   6
   0  -4   7 1445.45 39.7918   4
   0  -4   7 1460.38 30.4220   1
  -1   4  -7 15.0638 5.84459   4
  -1   4  -7 12.8804 4.60325   2
  -1   4  -7 17.0180 7.16170   3
  -1   4  -7 15.2090 5.05496   6
  -1   4  -7 12.6430 5.05616   6
   1  -4   7 15.7522 3.56301   6
  -2   4  -7 647.770 22.1707   6
  -2   4  -7 681.681 22.6009   2
  -2   4  -7 692.260 22.3868   6
  -2   4  -7 694.183 27.6862   3
  -2   4  -7 642.456 24.3539   4
   2  -4   7 690.087 19.1481   6
   2  -4   7 646.908 23.2587   4
   2  -4   7 654.450 19.2222   6
  -3   4  -7 440.788 19.2894   4
  -3   4  -7 393.548 17.4707   6
  -3   4  -7 411.748 21.7654   3
  -3   4  -7 405.452 17.8553   6
  -3   4  -7 385.237 18.3160   2
   3  -4   7 424.666 15.8036   6
   3  -4   7 382.513 18.0154   4
   3  -4   7 386.961 15.2366   6
  -4   4  -7 323.398 16.6947   6
  -4   4  -7 285.124 15.9703   6
  -4   4  -7 293.858 19.9417   3
  -4   4  -7 308.761 18.2743   2
   4  -4   7 284.537 15.6292   4
   4  -4   7 335.819 15.7178   6
   4  -4   7 294.872 14.0542   6
   4  -4   7 306.326 18.9999   3
  -5   4  -7 44.1619 9.39116   6
  -5   4  -7 42.2617 9.51483   2
  -5   4  -7 43.7014 10.7664   3
  -5   4  -7 55.7934 9.14620   6
   5  -4   7 44.0661 8.48919   6
   5  -4   7 44.4081 11.9188   3
   5  -4   7 56.5905 8.74991   4
   5  -4   7 26.4520 7.38788   6
  -6   4  -7 231.489 18.7384   5
  -6   4  -7 232.908 17.3737   6
  -6   4  -7 192.991 18.3683   2
  -6   4  -7 231.978 20.2533   3
  -6   4  -7 204.624 16.4705   6
   6  -4   7 245.165 20.3363   3
   6  -4   7 231.123 15.5008   6
   6  -4   7 263.143 16.5775   6
   6  -4   7 225.858 12.2829   1
   6  -4   7 227.122 18.2464   4
  -7   4  -7 276.466 21.3149   5
  -7   4  -7 266.585 19.5038   6
  -7   4  -7 251.042 22.4715   3
   7  -4   7 268.279 15.7665   1
   7  -4   7 261.679 18.9474   6
   7  -4   7 243.136 23.1088   4
   7  -4   7 294.125 19.1879   6
   6   3  -7 66.2294 13.5678   4
   6   3  -7 83.4422 14.3329   1
   6   3  -7 67.4866 9.65130   5
   6   3  -7 66.7082 11.3804   6
   6   3  -7 48.3275 9.12246   6
   5   3  -7 131.787 13.5942   6
   5   3  -7 117.204 12.2176   5
   5   3  -7 154.969 12.8246   6
   5   3  -7 136.464 15.8944   1
   5   3  -7 131.477 14.2214   4
  -5  -3   7 124.029 14.0060   1
   4   3  -7 478.179 20.1400   6
   4   3  -7 499.075 23.1023   4
   4   3  -7 472.784 19.2204   6
   4   3  -7 473.635 22.2780   1
   4   3  -7 469.818 20.4327   5
  -4  -3   7 479.670 15.8855   6
  -4  -3   7 479.473 14.5116   6
   3   3  -7 155.237 14.0435   4
   3   3  -7 176.465 11.9813   6
   3   3  -7 157.630 12.0710   5
   3   3  -7 162.713 11.0319   6
   3   3  -7 164.332 12.8605   1
  -3  -3   7 156.738 12.3879   1
  -3  -3   7 168.858 8.24826   6
   2   3  -7 67.9974 9.31286   5
   2   3  -7 51.4487 7.48278   6
   2   3  -7 59.1288 8.85202   4
   2   3  -7 44.7363 7.72206   1
   2   3  -7 39.5184 9.40223   6
  -2  -3   7 66.4527 7.96907   1
  -2  -3   7 61.6292 9.76638   4
  -2  -3   7 52.5623 5.17609   6
  -2  -3   7 49.4357 5.14881   6
   1   3  -7 -0.2775 4.70303   3
   1   3  -7 -0.3874 3.86212   6
   1   3  -7 2.12650 3.13900   6
   1   3  -7 -0.8956 3.64312   1
   1   3  -7 -1.6899 3.75623   5
   1   3  -7 6.29390 4.95019   4
  -1  -3   7 -4.7311 3.55670   4
  -1  -3   7 3.25544 2.85793   6
  -1  -3   7 0.81918 2.50372   6
  -1  -3   7 2.29225 3.54964   1
   0   3  -7 32.2126 7.35617   4
   0   3  -7 45.8984 6.62993   6
   0   3  -7 33.2374 5.83534   6
   0   3  -7 38.7051 7.54549   3
   0  -3   7 40.8937 5.23553   6
   0  -3   7 43.7642 7.66127   4
   0  -3   7 43.5874 4.89795   1
   0  -3   7 35.9046 4.67698   6
  -1   3  -7 176.752 13.4510   3
  -1   3  -7 199.983 10.5581   2
  -1   3  -7 193.670 11.2110   6
  -1   3  -7 193.727 11.0319   6
  -1   3  -7 189.456 12.5625   4
   1  -3   7 193.538 9.71066   6
   1  -3   7 211.252 14.1713   4
   1  -3   7 191.530 9.70184   6
  -2   3  -7 681.057 24.0407   4
  -2   3  -7 608.365 29.9246   6
  -2   3  -7 690.565 22.0118   6
  -2   3  -7 674.255 25.9335   3
  -2   3  -7 671.745 21.6555   2
   2  -3   7 704.897 25.2206   3
   2  -3   7 676.841 27.3886   4
   2  -3   7 685.919 20.4269   6
   2  -3   7 659.577 20.0750   6
  -3   3  -7 380.783 17.5658   4
  -3   3  -7 349.956 16.7706   2
  -3   3  -7 358.163 19.5917   3
  -3   3  -7 387.022 16.8867   6
  -3   3  -7 346.280 16.0285   6
   3  -3   7 370.138 16.9107   4
   3  -3   7 341.708 18.0393   3
   3  -3   7 372.909 15.4566   6
   3  -3   7 383.326 14.8847   6
  -4   3  -7 706.375 28.2285   3
  -4   3  -7 657.478 23.6231   6
  -4   3  -7 667.180 25.4643   2
  -4   3  -7 665.633 23.5646   6
   4  -3   7 665.489 23.0863   4
   4  -3   7 673.872 22.9063   6
   4  -3   7 644.521 25.8979   3
   4  -3   7 666.811 17.1708   1
   4  -3   7 636.206 21.2605   6
  -5   3  -7 68.8488 10.1398   6
  -5   3  -7 85.0567 13.1150   3
  -5   3  -7 58.4172 10.8122   2
  -5   3  -7 54.2652 9.39092   6
   5  -3   7 64.0268 9.42570   6
   5  -3   7 41.8592 7.06738   6
   5  -3   7 67.1897 10.7785   1
   5  -3   7 78.2963 9.71969   4
   5  -3   7 81.4150 12.5188   3
  -6   3  -7 47.8803 9.44458   6
  -6   3  -7 79.0687 11.3841   6
  -6   3  -7 72.5365 11.9051   2
  -6   3  -7 74.4582 13.3607   3
   6  -3   7 69.4336 9.46556   6
   6  -3   7 78.3922 11.2416   6
   6  -3   7 86.1857 13.4413   3
   6  -3   7 83.1944 9.18651   1
  -7   3  -7 49.8195 12.9860   3
  -7   3  -7 35.7580 9.67914   6
  -7   3  -7 40.3405 9.94513   5
   7  -3   7 42.4300 9.18924   1
   7  -3   7 35.6223 9.31074   4
   7  -3   7 34.6883 9.23488   6
   7  -3   7 32.7788 9.10094   6
  -8   3  -7 6.87558 8.50462   6
  -8   3  -7 3.48451 11.2654   3
  -8   3  -7 2.66269 8.66411   5
   8  -3   7 -9.1604 7.68704   6
   8  -3   7 5.23316 14.2309   1
   8  -3   7 -0.2809 10.5632   4
   7   2  -7 99.6545 11.3859   5
   7   2  -7 111.970 20.9418   6
   7   2  -7 58.6675 11.3037   4
   7   2  -7 107.552 16.0276   1
  -7  -2   7 88.0758 9.17874   6
  -7  -2   7 81.3691 9.89718   6
   6   2  -7 13.1633 9.03034   4
   6   2  -7 18.5743 8.04732   1
   6   2  -7 8.18455 6.73851   6
   6   2  -7 10.4534 7.05816   6
   6   2  -7 17.1772 6.18013   5
  -6  -2   7 14.7808 6.34718   6
  -6  -2   7 24.7855 6.44533   6
  -6  -2   7 28.1547 13.1611   1
   5   2  -7 19.0949 8.46451   1
   5   2  -7 10.7824 5.88230   5
   5   2  -7 0.98942 5.79050   4
   5   2  -7 6.82833 5.75094   6
   5   2  -7 7.38670 5.60815   6
  -5  -2   7 7.64180 5.01313   6
  -5  -2   7 8.92620 7.64235   1
   4   2  -7 790.700 26.6251   5
   4   2  -7 791.594 25.8179   6
   4   2  -7 805.164 29.9347   1
   4   2  -7 800.834 26.8291   6
   4   2  -7 834.734 29.3530   4
  -4  -2   7 794.229 29.5297   1
  -4  -2   7 801.452 23.6111   6
  -4  -2   7 830.760 23.3342   6
   3   2  -7 429.267 17.9012   6
   3   2  -7 446.572 20.3222   1
   3   2  -7 432.718 19.4783   4
   3   2  -7 406.000 17.0016   6
  -3  -2   7 429.249 14.9565   6
  -3  -2   7 413.842 19.1040   1
  -3  -2   7 437.293 15.5299   6
   2   2  -7 2.55149 3.79355   5
   2   2  -7 3.65020 4.30613   1
   2   2  -7 -0.3697 3.30369   6
   2   2  -7 1.43281 4.23787   6
   2   2  -7 1.65166 4.53130   4
  -2  -2   7 -1.2692 3.69694   1
  -2  -2   7 4.39679 3.28660   6
  -2  -2   7 2.87182 2.82476   4
  -2  -2   7 1.37188 3.25299   6
   1   2  -7 925.216 25.7512   6
   1   2  -7 911.733 28.0806   4
   1   2  -7 924.543 26.0772   1
   1   2  -7 893.597 27.6719   5
   1   2  -7 906.324 25.6003   6
  -1  -2   7 877.626 24.8136   1
  -1  -2   7 905.635 23.4325   6
  -1  -2   7 895.579 22.9911   6
  -1  -2   7 915.598 28.2859   4
   0   2  -7 265.471 12.3215   6
   0   2  -7 276.816 15.3277   3
   0   2  -7 278.855 12.8293   6
   0   2  -7 300.604 14.8039   4
   0   2  -7 260.905 9.89654   2
   0  -2   7 269.268 10.7638   1
   0  -2   7 279.360 14.2659   4
   0  -2   7 266.181 11.2024   6
   0  -2   7 269.205 11.2847   6
  -1   2  -7 660.711 19.0226   2
  -1   2  -7 648.187 20.0491   6
  -1   2  -7 600.161 23.2597   3
  -1   2  -7 600.149 21.6868   4
  -1   2  -7 632.171 20.3187   6
   1  -2   7 645.259 21.8179   4
   1  -2   7 681.308 19.5082   6
   1  -2   7 636.249 18.9648   6
   1  -2   7 567.514 20.8279   2
   1  -2   7 603.933 16.0354   1
  -2   2  -7 23.8974 5.24671   6
  -2   2  -7 30.8618 5.91788   6
  -2   2  -7 18.8833 5.68621   4
  -2   2  -7 24.0961 6.44098   3
  -2   2  -7 31.1092 6.32514   2
   2  -2   7 25.2478 3.62851   1
   2  -2   7 26.2199 5.38283   6
   2  -2   7 17.6356 4.45679   6
   2  -2   7 22.2063 3.67403   1
   2  -2   7 23.0871 7.44905   3
   2  -2   7 27.2848 6.04525   2
   2  -2   7 24.1249 6.00638   4
  -3   2  -7 353.363 15.5511   6
  -3   2  -7 333.401 17.3594   3
  -3   2  -7 347.493 15.5360   6
  -3   2  -7 352.229 16.4537   4
  -3   2  -7 326.900 15.5866   2
   3  -2   7 340.606 16.4452   2
   3  -2   7 346.838 16.9325   3
   3  -2   7 329.636 14.9302   6
   3  -2   7 350.187 11.3923   1
   3  -2   7 349.147 14.1997   6
  -4   2  -7 1358.93 36.9474   6
  -4   2  -7 1369.22 36.4385   6
  -4   2  -7 1372.46 38.6272   2
  -4   2  -7 1401.54 40.8220   3
   4  -2   7 1439.52 36.9372   6
   4  -2   7 1360.17 39.0010   3
   4  -2   7 1394.70 35.0698   6
   4  -2   7 1391.50 32.1706   1
   4  -2   7 1367.12 36.2656   4
  -5   2  -7 2.37320 5.55073   6
  -5   2  -7 7.91330 6.37502   3
  -5   2  -7 9.41844 6.39550   2
   5  -2   7 9.16891 5.88261   6
   5  -2   7 15.2832 5.17815   1
   5  -2   7 12.3144 5.08920   6
   5  -2   7 11.0934 6.80709   3
   5  -2   7 11.4872 6.25475   4
  -6   2  -7 282.939 17.7701   6
  -6   2  -7 318.957 19.5773   2
  -6   2  -7 241.126 16.2827   6
  -6   2  -7 300.503 20.6911   3
   6  -2   7 247.498 17.5474   3
   6  -2   7 283.768 15.8866   6
   6  -2   7 273.623 17.2339   6
   6  -2   7 267.635 15.4645   1
  -7   2  -7 389.676 24.5051   5
  -7   2  -7 394.570 24.3817   3
  -7   2  -7 365.155 20.7954   6
  -7   2  -7 421.360 35.6912   2
  -7   2  -7 394.200 22.8103   6
   7  -2   7 393.424 23.4620   3
   7  -2   7 406.920 20.3266   4
   7  -2   7 373.424 19.6661   1
   7  -2   7 395.516 20.3865   6
   7  -2   7 439.531 22.6515   6
  -8   2  -7 158.392 20.1026   3
  -8   2  -7 117.025 14.1619   6
  -8   2  -7 226.799 18.7091   5
   8  -2   7 179.587 18.1029   4
   8  -2   7 176.807 16.6883   1
   8  -2   7 155.962 16.7439   6
   7   1  -7 87.0703 11.7078   6
   7   1  -7 107.831 11.1514   5
   7   1  -7 66.2741 18.9942   1
   7   1  -7 87.8796 12.8300   4
  -7  -1   7 98.4222 11.7159   6
  -7  -1   7 62.8046 10.0361   6
   6   1  -7 11.9739 6.64825   5
   6   1  -7 16.4148 8.05265   4
   6   1  -7 18.6605 7.31048   6
   6   1  -7 27.1888 8.78909   1
   6   1  -7 14.3700 7.74026   6
  -6  -1   7 12.3362 8.12552   1
  -6  -1   7 12.4768 5.71362   6
   5   1  -7 263.737 17.3394   4
   5   1  -7 228.337 14.9444   6
   5   1  -7 276.516 19.4163   1
   5   1  -7 263.836 15.1898   5
   5   1  -7 231.639 14.9896   6
  -5  -1   7 267.071 14.5836   6
  -5  -1   7 251.022 18.1295   1
  -5  -1   7 266.569 14.1888   6
   4   1  -7 1200.53 34.3752   5
   4   1  -7 1204.61 34.4797   6
   4   1  -7 1188.09 33.4725   6
   4   1  -7 1216.60 38.2723   1
   4   1  -7 1256.16 36.4381   4
  -4  -1   7 1172.35 37.8448   1
  -4  -1   7 1219.56 32.4975   6
  -4  -1   7 1252.75 32.5973   6
   3   1  -7 439.711 17.5440   6
   3   1  -7 433.007 18.4419   5
   3   1  -7 455.203 19.3665   4
   3   1  -7 444.188 18.1528   6
   3   1  -7 459.142 20.5626   1
  -3  -1   7 454.812 16.9416   6
  -3  -1   7 463.667 19.8528   4
  -3  -1   7 441.497 19.7791   1
  -3  -1   7 458.862 16.6108   6
   2   1  -7 280.479 14.6645   1
   2   1  -7 281.811 13.2407   6
   2   1  -7 252.587 12.9307   6
   2   1  -7 281.518 14.1242   5
   2   1  -7 265.183 13.9171   4
  -2  -1   7 279.435 12.2304   6
  -2  -1   7 276.002 12.5314   6
  -2  -1   7 282.666 14.4129   1
  -2  -1   7 253.052 14.0481   4
   1   1  -7 2616.21 57.0893   4
   1   1  -7 2503.48 56.3922   5
   1   1  -7 2518.34 54.3863   6
  -1  -1   7 2443.73 56.6868   4
  -1  -1   7 2469.59 52.4865   6
  -1  -1   7 2531.41 54.8371   1
  -1  -1   7 2593.51 53.2956   6
   0   1  -7 1187.60 30.4502   6
   0   1  -7 1170.40 30.5457   6
   0   1  -7 1219.51 32.8623   5
   0   1  -7 1265.70 33.0278   4
   0   1  -7 1209.98 27.4233   2
   0   1  -7 1235.34 33.9658   3
   0  -1   7 1210.77 32.5515   4
   0  -1   7 1217.42 29.6695   1
   0  -1   7 1219.16 29.8345   6
   0  -1   7 1238.82 27.3054   2
   0  -1   7 1201.60 29.8162   6
  -1   1  -7 1151.60 27.8631   2
  -1   1  -7 1102.65 30.9305   4
  -1   1  -7 1105.20 31.8646   3
  -1   1  -7 1100.55 28.9595   6
  -1   1  -7 1168.31 29.7895   6
   1  -1   7 1171.10 28.2805   2
   1  -1   7 1145.36 28.6892   6
   1  -1   7 1159.93 27.4577   1
   1  -1   7 1133.25 30.6939   4
  -2   1  -7 296.920 13.2910   6
  -2   1  -7 272.850 12.9536   2
  -2   1  -7 306.466 13.3015   6
  -2   1  -7 328.910 15.3986   3
  -2   1  -7 321.182 14.8799   4
   2  -1   7 313.226 14.3988   3
   2  -1   7 325.309 13.9383   2
   2  -1   7 302.074 12.5183   6
   2  -1   7 305.232 13.2610   6
   2  -1   7 291.937 13.5772   4
  -3   1  -7 219.571 13.3295   3
  -3   1  -7 220.649 12.7762   4
  -3   1  -7 205.656 12.2708   2
  -3   1  -7 212.724 11.9028   6
   3  -1   7 220.811 12.0310   4
   3  -1   7 232.216 12.7852   3
   3  -1   7 221.778 12.0236   6
   3  -1   7 208.158 12.6738   2
   3  -1   7 223.177 11.1272   6
   3  -1   7 214.543 9.90340   1
  -4   1  -7 1902.48 47.8838   2
  -4   1  -7 1914.93 45.3066   6
  -4   1  -7 1881.26 45.8139   6
  -4   1  -7 1951.88 48.5738   3
   4  -1   7 1910.84 47.2254   3
   4  -1   7 1929.37 43.0767   1
   4  -1   7 1979.86 48.7061   2
   4  -1   7 1852.82 43.7179   6
   4  -1   7 1850.04 45.1759   4
   4  -1   7 1948.54 46.2809   6
  -5   1  -7 261.764 14.8460   6
  -5   1  -7 275.425 16.5460   2
  -5   1  -7 248.534 16.8734   3
   5  -1   7 277.401 15.9439   3
   5  -1   7 276.313 15.6940   6
   5  -1   7 262.624 14.8083   4
   5  -1   7 241.745 13.6048   6
   5  -1   7 258.627 17.0513   2
   5  -1   7 290.624 14.3643   1
  -6   1  -7 43.5414 8.80048   6
  -6   1  -7 35.6425 8.12988   6
  -6   1  -7 31.0704 8.92789   3
   6  -1   7 27.7605 6.51462   6
   6  -1   7 50.1334 8.98089   1
   6  -1   7 53.8517 10.6520   3
   6  -1   7 27.1835 8.22345   6
  -7   1  -7 384.465 23.6396   2
  -7   1  -7 402.747 19.6166   5
  -7   1  -7 354.062 23.0679   3
  -7   1  -7 348.632 20.0784   6
  -7   1  -7 361.236 20.1476   6
   7  -1   7 389.175 20.7298   6
   7  -1   7 387.840 19.2273   6
   7  -1   7 388.133 20.9046   1
   7  -1   7 364.202 19.5484   4
  -8   1  -7 25.6130 8.96008   5
  -8   1  -7 39.9268 12.8118   3
  -8   1  -7 32.2158 9.41958   6
   8  -1   7 41.4096 10.5162   1
   8  -1   7 48.0766 12.8729   4
   8  -1   7 48.8544 10.0864   6
   7   0  -7 42.9605 10.7609   4
   7   0  -7 53.6264 9.37996   5
   7   0  -7 27.7470 8.34509   6
   7   0  -7 20.3014 8.69258   1
  -7   0   7 46.5518 7.70854   2
  -7   0   7 34.6916 9.01259   6
  -7   0   7 41.8135 9.63906   6
   6   0  -7 12.5395 9.83558   3
   6   0  -7 10.5166 7.31924   4
   6   0  -7 14.7120 7.06304   5
   6   0  -7 23.2577 7.23838   6
   6   0  -7 21.9674 8.28074   6
   6   0  -7 26.8742 9.61867   1
  -6   0   7 29.0883 7.63442   6
  -6   0   7 21.7982 6.51292   2
  -6   0   7 25.3775 8.54424   5
  -6   0   7 31.7704 7.48082   6
  -6   0   7 29.5620 8.71282   1
   5   0  -7 650.128 24.5703   6
   5   0  -7 692.974 29.8925   1
   5   0  -7 684.120 30.6738   3
   5   0  -7 693.742 25.1291   6
   5   0  -7 696.002 27.7458   4
   5   0  -7 653.913 24.1956   5
  -5   0   7 667.477 25.1449   5
  -5   0   7 675.461 24.2147   6
  -5   0   7 676.445 24.1506   6
  -5   0   7 703.729 30.1068   1
   4   0  -7 857.127 26.8161   6
   4   0  -7 839.992 31.1091   1
   4   0  -7 826.152 26.8914   6
   4   0  -7 838.182 27.6718   4
   4   0  -7 768.864 26.3881   5
  -4   0   7 853.898 26.2286   6
  -4   0   7 798.475 30.1401   1
  -4   0   7 802.710 25.4768   6
  -4   0   7 841.905 27.4882   5
   3   0  -7 419.200 17.0615   6
   3   0  -7 441.105 18.3631   4
   3   0  -7 394.020 16.9200   6
   3   0  -7 439.611 18.2630   5
   3   0  -7 426.987 19.8488   1
  -3   0   7 440.505 18.5173   5
  -3   0   7 409.691 16.4857   6
  -3   0   7 403.028 17.8836   4
  -3   0   7 424.300 19.6494   1
  -3   0   7 407.379 16.8630   6
   2   0  -7 86.6015 9.21120   6
   2   0  -7 72.7314 8.80622   4
   2   0  -7 98.0015 11.4529   1
   2   0  -7 90.4599 8.99088   6
   2   0  -7 90.1206 10.0555   5
  -2   0   7 93.9316 9.09646   5
  -2   0   7 77.6074 7.69513   6
  -2   0   7 104.096 11.3375   4
  -2   0   7 101.573 10.9388   1
  -2   0   7 84.7346 7.61838   6
   1   0  -7 2212.30 48.8425   6
   1   0  -7 2257.59 50.4339   4
   1   0  -7 2233.13 50.7902   5
  -1   0   7 2176.17 48.0382   6
  -1   0   7 2233.07 44.2992   2
  -1   0   7 2170.07 50.3473   4
  -1   0   7 2148.48 49.7005   1
  -1   0   7 2336.62 48.9311   6
   0   0  -7 879.977 25.2822   4
   0   0  -7 833.353 23.6047   6
   0   0  -7 836.975 25.3181   5
   0   0  -7 868.350 24.2359   6
   0   0  -7 850.201 22.1452   2
   0   0   7 869.204 21.8334   2
   0   0   7 856.218 23.7562   6
   0   0   7 861.796 23.7875   6
   0   0   7 868.369 25.2226   4
   0   0   7 839.066 24.2109   1
  -1   0  -7 601.954 18.3192   2
  -1   0  -7 578.839 18.6988   6
  -1   0  -7 601.549 19.1188   6
  -1   0  -7 630.875 20.3721   3
  -1   0  -7 603.920 20.2085   5
  -1   0  -7 573.131 19.7439   4
   1   0   7 573.754 18.2045   2
   1   0   7 593.669 18.8738   6
   1   0   7 620.654 19.8491   4
   1   0   7 574.239 18.3821   6
  -2   0  -7 1418.35 34.4691   6
  -2   0  -7 1418.61 35.1044   3
  -2   0  -7 1440.94 34.1878   6
  -2   0  -7 1408.49 35.4369   4
  -2   0  -7 1433.75 34.7818   2
   2   0   7 1418.33 34.6707   4
   2   0   7 1461.75 35.2789   2
   2   0   7 1414.41 34.6057   6
   2   0   7 1382.69 33.0695   6
   2   0   7 1381.48 34.1933   3
  -3   0  -7 919.043 26.1411   6
  -3   0  -7 916.326 27.4615   2
  -3   0  -7 944.485 27.0454   3
  -3   0  -7 963.096 26.1027   6
   3   0   7 869.711 26.0413   6
   3   0   7 898.856 24.7568   6
   3   0   7 901.897 25.9459   3
   3   0   7 936.651 24.9696   1
   3   0   7 926.469 26.1090   4
   3   0   7 931.363 27.8005   2
  -4   0  -7 2061.11 46.9385   6
  -4   0  -7 2002.03 47.6398   6
  -4   0  -7 2045.13 50.1687   2
  -4   0  -7 2055.92 48.7439   3
   4   0   7 2070.92 47.8858   3
   4   0   7 2013.40 50.2764   2
   4   0   7 2070.51 46.9049   1
   4   0   7 1998.77 47.2897   4
   4   0   7 1968.90 45.7203   6
   4   0   7 2110.36 48.4833   6
  -5   0  -7 8.45906 6.43370   3
  -5   0  -7 5.73199 5.04642   6
  -5   0  -7 7.71907 4.90280   6
   5   0   7 3.64589 5.11212   3
   5   0   7 12.8845 6.87656   2
   5   0   7 3.42539 4.87187   6
   5   0   7 5.33734 5.03563   4
   5   0   7 8.09678 5.51299   1
  -6   0  -7 19.4753 7.13166   6
  -6   0  -7 50.5819 9.33948   3
  -6   0  -7 37.7312 10.0672   6
   6   0   7 52.5397 9.49946   1
   6   0   7 51.0921 9.38009   3
   6   0   7 35.1889 8.96054   2
   6   0   7 43.4050 8.96165   6
  -7   0  -7 1459.89 45.4724   3
  -7   0  -7 1418.46 46.0071   2
  -7   0  -7 1420.77 56.9176   6
  -7   0  -7 1370.57 40.3556   6
  -7   0  -7 1462.58 38.2289   5
   7   0   7 1349.61 42.3632   3
   7   0   7 1489.82 42.9977   6
   7   0   7 1427.06 43.2162   1
   7   0   7 1398.12 45.5335   2
   7   0   7 1454.10 47.0459   4
  -8   0  -7 113.216 11.4967   5
  -8   0  -7 60.0658 10.9381   6
  -8   0  -7 94.2245 14.8189   3
   8   0   7 73.0606 12.7054   6
   8   0   7 76.9330 12.5298   1
   8   0   7 92.3451 13.5563   3
   7  -1  -7 21.5114 9.58294   1
   7  -1  -7 1.37105 6.16162   4
   7  -1  -7 6.02756 6.14755   6
   7  -1  -7 7.62642 7.66222   5
  -7   1   7 9.11703 6.90922   6
  -7   1   7 4.42351 7.63693   2
  -7   1   7 5.78290 7.13433   6
   6  -1  -7 31.8482 7.75225   6
   6  -1  -7 20.9066 7.64819   4
   6  -1  -7 16.1800 6.54025   6
   6  -1  -7 18.1644 10.9457   3
   6  -1  -7 16.2475 9.69056   1
   6  -1  -7 24.7435 7.18383   5
  -6   1   7 16.0914 6.88268   6
  -6   1   7 24.8836 10.8351   1
  -6   1   7 22.4319 7.04202   6
  -6   1   7 33.7089 8.48595   5
   5  -1  -7 1121.35 34.3278   6
   5  -1  -7 1128.65 34.0552   4
   5  -1  -7 1150.30 34.2045   5
   5  -1  -7 1116.69 39.1049   3
   5  -1  -7 1143.27 34.2805   6
   5  -1  -7 1117.13 39.3736   1
  -5   1   7 1097.71 39.2577   1
  -5   1   7 1116.93 30.7273   2
  -5   1   7 1138.25 34.6686   5
  -5   1   7 1183.27 34.2769   6
   4  -1  -7 184.634 14.9764   3
   4  -1  -7 210.307 13.3117   4
   4  -1  -7 190.987 15.8386   1
   4  -1  -7 190.038 12.5318   6
   4  -1  -7 153.614 11.3987   6
   4  -1  -7 179.586 12.5413   5
  -4   1   7 190.426 12.7218   6
  -4   1   7 167.403 14.7152   1
  -4   1   7 185.644 13.3010   5
  -4   1   7 194.254 12.4928   6
   3  -1  -7 333.657 15.4043   6
   3  -1  -7 347.698 18.2364   1
   3  -1  -7 361.139 15.6916   6
   3  -1  -7 351.158 17.7549   5
   3  -1  -7 383.997 16.3215   4
  -3   1   7 372.413 18.5445   1
  -3   1   7 348.189 16.7327   5
  -3   1   7 342.438 14.8749   2
  -3   1   7 331.226 15.0867   6
  -3   1   7 376.860 15.9865   6
   2  -1  -7 921.624 26.0716   6
   2  -1  -7 894.466 26.0211   4
   2  -1  -7 919.036 29.6310   1
   2  -1  -7 897.864 25.9302   6
   2  -1  -7 913.786 27.2571   5
  -2   1   7 911.464 23.3552   2
  -2   1   7 886.011 25.6929   6
  -2   1   7 928.519 25.9044   6
  -2   1   7 857.861 28.4216   1
  -2   1   7 900.617 26.5918   4
  -2   1   7 938.366 27.4631   5
   1  -1  -7 1027.91 27.2592   6
   1  -1  -7 1020.24 28.8614   5
   1  -1  -7 1041.69 27.8455   4
   1  -1  -7 1061.08 28.0003   6
  -1   1   7 973.053 27.6710   4
  -1   1   7 1045.31 25.2820   2
  -1   1   7 991.675 27.0008   6
  -1   1   7 1015.58 29.5015   1
  -1   1   7 1015.63 28.8220   5
  -1   1   7 960.829 26.9327   6
   0  -1  -7 4591.51 90.2274   4
   0  -1  -7 4631.77 88.8141   2
   0  -1  -7 4561.36 91.0640   5
   0  -1  -7 4510.50 89.6503   6
   0  -1  -7 4536.05 89.1992   6
   0   1   7 4627.29 88.1306   2
   0   1   7 4739.87 90.8076   4
   0   1   7 4734.30 92.2342   1
   0   1   7 4495.68 91.4051   5
   0   1   7 4620.50 89.7419   6
   0   1   7 4691.47 89.9823   6
  -1  -1  -7 176.398 9.68307   6
  -1  -1  -7 175.769 10.8309   5
  -1  -1  -7 199.013 10.3691   6
  -1  -1  -7 197.945 10.6388   4
  -1  -1  -7 193.310 10.1996   3
  -1  -1  -7 175.349 9.94966   2
   1   1   7 194.793 10.3494   6
   1   1   7 191.178 10.4209   2
   1   1   7 172.616 9.53450   6
   1   1   7 196.265 10.4900   4
  -2  -1  -7 677.167 20.2931   6
  -2  -1  -7 690.900 20.0555   3
  -2  -1  -7 712.077 20.9918   6
  -2  -1  -7 708.064 22.0372   2
  -2  -1  -7 717.188 21.7375   4
  -2  -1  -7 666.462 21.1962   5
   2   1   7 655.305 20.8990   6
   2   1   7 714.723 20.9127   4
   2   1   7 725.575 22.2024   2
   2   1   7 686.664 19.8144   6
  -3  -1  -7 1500.83 37.1669   6
  -3  -1  -7 1616.31 38.0195   5
  -3  -1  -7 1535.79 36.5676   3
  -3  -1  -7 1564.48 39.4467   2
  -3  -1  -7 1645.20 37.1696   6
   3   1   7 1513.50 36.0357   6
   3   1   7 1563.22 38.3958   6
   3   1   7 1553.68 37.6037   4
   3   1   7 1584.48 36.2396   3
   3   1   7 1573.77 39.8447   2
   3   1   7 1635.83 38.0747   1
  -4  -1  -7 1661.92 46.1788   6
  -4  -1  -7 1551.61 38.8551   3
  -4  -1  -7 1628.22 42.1405   2
  -4  -1  -7 1569.21 38.0905   6
  -4  -1  -7 1589.36 38.5268   5
   4   1   7 1576.76 41.9861   2
   4   1   7 1573.73 39.9142   6
   4   1   7 1603.51 40.0220   1
   4   1   7 1637.22 38.3138   6
   4   1   7 1595.42 39.3714   4
   4   1   7 1582.93 37.9896   3
  -5  -1  -7 33.3391 6.47803   6
  -5  -1  -7 29.0677 7.20293   3
  -5  -1  -7 55.8567 7.83930   6
   5   1   7 30.7681 5.83805   6
   5   1   7 42.6957 6.81398   3
   5   1   7 20.7246 6.73340   2
   5   1   7 35.4510 7.46137   6
   5   1   7 36.2346 8.09365   1
   5   1   7 35.7304 6.91604   4
  -6  -1  -7 550.550 21.2861   6
  -6  -1  -7 522.029 22.9593   3
  -6  -1  -7 501.180 23.8069   2
   6   1   7 523.755 21.5185   3
   6   1   7 494.066 22.8113   1
  -7  -1  -7 1101.62 39.8758   2
  -7  -1  -7 1137.15 35.4259   6
  -7  -1  -7 1185.80 39.0261   3
  -7  -1  -7 1167.31 35.0197   6
  -7  -1  -7 1203.65 31.1328   5
   7   1   7 1151.86 36.9646   3
   7   1   7 1115.45 39.2676   2
   7   1   7 1115.05 38.1804   1
   7   1   7 1163.97 52.6927   4
   7   1   7 1144.93 37.0366   6
  -8  -1  -7 235.954 14.0500   5
  -8  -1  -7 235.680 16.7435   6
  -8  -1  -7 266.872 18.2300   6
  -8  -1  -7 315.754 22.4196   3
  -8  -1  -7 253.067 14.0442   5
   8   1   7 283.154 20.7134   1
   8   1   7 282.290 21.5905   2
   8   1   7 276.021 20.2164   3
   8   1   7 292.640 19.0064   6
   9   1   7 45.9939 12.2805   1
   7  -2  -7 -3.4622 8.11330   5
   7  -2  -7 -1.5502 5.60670   6
   7  -2  -7 -3.6948 6.59320   4
   7  -2  -7 -8.7432 7.37472   1
  -7   2   7 -2.0870 7.07185   6
  -7   2   7 0.64096 7.43728   5
   6  -2  -7 57.3392 11.4044   1
   6  -2  -7 41.4672 8.96315   4
   6  -2  -7 59.7443 9.89366   5
   6  -2  -7 34.4212 8.61607   6
   6  -2  -7 37.9552 8.46435   6
   6  -2  -7 50.3744 11.5789   3
  -6   2   7 61.6568 14.8288   1
  -6   2   7 70.8787 11.2131   5
  -6   2   7 58.4132 10.3297   2
  -6   2   7 43.3706 9.02641   6
  -6   2   7 51.8393 9.50853   6
   5  -2  -7 854.764 27.5906   4
   5  -2  -7 793.680 32.0774   3
   5  -2  -7 816.271 28.2463   6
   5  -2  -7 838.369 28.9711   5
   5  -2  -7 829.730 33.3360   1
  -5   2   7 808.959 28.9859   5
  -5   2   7 838.247 28.8671   6
  -5   2   7 839.923 28.3284   6
   4  -2  -7 11.1312 5.74750   4
   4  -2  -7 15.0668 5.14364   6
   4  -2  -7 7.08425 6.06463   1
   4  -2  -7 11.6051 5.70748   3
   4  -2  -7 7.48415 5.04025   5
  -4   2   7 10.9776 5.17162   6
  -4   2   7 14.4074 6.45097   5
  -4   2   7 9.78839 5.02310   6
   3  -2  -7 7.28597 5.95361   1
   3  -2  -7 4.42876 4.23295   6
   3  -2  -7 8.75729 4.35770   6
   3  -2  -7 6.09525 6.11305   3
   3  -2  -7 4.91150 4.41812   5
   3  -2  -7 2.44259 4.64774   4
  -3   2   7 6.92981 4.41802   1
  -3   2   7 7.02134 4.70415   6
  -3   2   7 4.11300 5.37248   5
  -3   2   7 4.61981 3.62631   4
  -3   2   7 5.09589 4.42781   6
   2  -2  -7 794.517 23.1601   4
   2  -2  -7 752.076 23.0634   6
   2  -2  -7 764.452 24.6342   5
   2  -2  -7 783.758 23.7355   6
  -2   2   7 761.768 23.2827   6
  -2   2   7 736.084 26.5215   1
  -2   2   7 789.079 23.9573   6
  -2   2   7 775.016 24.7739   5
  -2   2   7 781.962 22.8898   2
  -2   2   7 803.863 23.5571   4
   1  -2  -7 925.002 26.7417   5
   1  -2  -7 931.064 25.0305   6
   1  -2  -7 939.691 25.9579   6
   1  -2  -7 899.511 24.8469   4
  -1   2   7 913.786 26.9790   5
  -1   2   7 884.510 25.1323   6
  -1   2   7 951.197 29.1051   1
  -1   2   7 882.097 24.9890   4
  -1   2   7 913.251 25.8323   6
  -1   2   7 949.882 25.4065   2
   0  -2  -7 1644.32 37.5108   4
   0  -2  -7 1585.78 38.7408   5
   0  -2  -7 1571.14 37.5609   6
   0  -2  -7 1635.05 37.2562   6
   0  -2  -7 1634.53 38.6514   2
   0   2   7 1649.74 38.0208   6
   0   2   7 1649.68 37.8158   4
   0   2   7 1600.53 37.8214   2
   0   2   7 1661.26 39.5979   5
   0   2   7 1641.87 38.3423   6
  -1  -2  -7 501.466 16.6048   4
  -1  -2  -7 465.690 17.0498   5
  -1  -2  -7 480.636 14.8359   3
  -1  -2  -7 476.332 17.4684   2
  -1  -2  -7 468.192 16.0277   6
  -1  -2  -7 485.900 16.1400   6
   1   2   7 500.859 17.0969   6
   1   2   7 465.013 17.3736   5
   1   2   7 484.746 17.3984   2
   1   2   7 467.826 15.9177   4
   1   2   7 485.047 16.1885   6
  -2  -2  -7 1444.53 37.2898   2
  -2  -2  -7 1539.62 34.7015   6
  -2  -2  -7 1521.05 36.2691   4
  -2  -2  -7 1497.20 36.1077   5
  -2  -2  -7 1547.49 32.7312   3
  -2  -2  -7 1531.46 35.4979   6
   2   2   7 1536.59 38.2039   2
   2   2   7 1517.45 36.5312   6
   2   2   7 1505.60 34.5413   6
   2   2   7 1501.80 35.3723   4
  -3  -2  -7 2830.04 55.8599   3
  -3  -2  -7 2836.84 61.9872   2
  -3  -2  -7 2635.04 57.6413   5
  -3  -2  -7 2820.86 57.3685   6
  -3  -2  -7 2761.05 58.3567   6
   3   2   7 2730.28 57.0417   6
   3   2   7 2813.20 55.4342   3
   3   2   7 2763.64 59.6034   6
   3   2   7 2839.96 62.1552   2
   3   2   7 2790.34 58.9965   4
  -4  -2  -7 186.408 10.4786   3
  -4  -2  -7 168.537 10.5625   6
  -4  -2  -7 186.517 10.7340   6
  -4  -2  -7 179.055 12.4602   2
  -4  -2  -7 174.252 10.3089   5
   4   2   7 202.365 12.7455   1
   4   2   7 196.928 11.5609   4
   4   2   7 183.327 13.0444   2
   4   2   7 178.192 9.81077   3
   4   2   7 182.936 10.4932   6
   4   2   7 170.168 11.5308   6
  -5  -2  -7 78.8018 9.50398   3
  -5  -2  -7 81.8040 10.8744   2
  -5  -2  -7 65.0614 7.43365   5
  -5  -2  -7 75.3363 8.88500   6
  -5  -2  -7 90.6564 9.07016   6
   5   2   7 84.0631 8.78163   3
   5   2   7 79.2428 10.0932   2
   5   2   7 88.4291 8.97817   6
   5   2   7 84.9168 10.7320   1
   5   2   7 88.5118 10.4670   6
  -6  -2  -7 131.319 11.4295   6
  -6  -2  -7 119.495 9.39594   5
  -6  -2  -7 105.550 13.6365   2
  -6  -2  -7 137.858 13.2914   3
  -6  -2  -7 136.160 11.6527   6
   6   2   7 129.667 13.6496   1
   6   2   7 118.356 10.7079   6
   6   2   7 97.5097 11.9610   6
   6   2   7 138.855 19.4475   2
   6   2   7 133.143 11.4323   3
   6   2   7 125.977 12.0635   4
  -7  -2  -7 693.849 30.3540   6
  -7  -2  -7 754.812 21.2003   5
  -7  -2  -7 756.557 21.4862   5
  -7  -2  -7 726.663 28.8529   3
  -7  -2  -7 691.118 27.3952   6
  -7  -2  -7 708.805 39.1476   2
   7   2   7 682.479 27.3876   4
   7   2   7 750.100 28.4184   6
   7   2   7 694.398 26.9291   3
   7   2   7 706.086 30.6108   2
   7   2   7 737.103 27.0671   6
   7   2   7 770.521 31.1320   1
  -8  -2  -7 12.4033 7.52145   6
  -8  -2  -7 13.4464 16.6869   6
   8   2   7 15.4704 9.62477   2
   8   2   7 18.5749 9.45541   1
   8   2   7 23.4369 9.04030   6
   8   2   7 23.7496 8.44398   3
   7  -3  -7 24.5778 8.56813   6
   7  -3  -7 19.9690 9.18411   1
   7  -3  -7 23.0565 9.04756   5
   7  -3  -7 27.8024 8.84857   4
  -7   3   7 14.4662 8.30555   6
  -7   3   7 15.9976 10.0150   2
  -7   3   7 33.0582 9.65960   5
   6  -3  -7 140.278 12.7783   4
   6  -3  -7 135.518 17.4485   1
   6  -3  -7 162.027 16.0705   5
   6  -3  -7 130.435 13.8958   6
   6  -3  -7 138.917 16.6583   3
   6  -3  -7 108.731 12.4610   6
  -6   3   7 129.910 14.4267   6
  -6   3   7 113.816 12.8635   6
  -6   3   7 139.198 18.6054   1
  -6   3   7 156.274 15.5528   5
   5  -3  -7 279.599 16.1404   6
   5  -3  -7 260.397 15.5308   6
   5  -3  -7 300.138 19.3277   3
   5  -3  -7 277.872 20.2779   1
   5  -3  -7 275.199 15.1317   4
   5  -3  -7 265.530 17.0058   5
  -5   3   7 271.998 20.1145   1
  -5   3   7 310.433 17.0412   6
  -5   3   7 280.847 16.5348   6
  -5   3   7 267.615 17.5245   5
   4  -3  -7 281.711 15.9750   5
   4  -3  -7 257.931 17.0445   3
   4  -3  -7 251.674 18.0325   1
   4  -3  -7 295.349 14.3097   4
   4  -3  -7 265.641 14.8722   6
  -4   3   7 274.925 15.4835   6
  -4   3   7 275.550 16.6433   5
   3  -3  -7 71.6524 8.37444   4
   3  -3  -7 83.6429 8.78827   6
   3  -3  -7 73.4465 8.73854   6
   3  -3  -7 85.7996 10.5629   5
  -3   3   7 94.5255 10.3101   6
  -3   3   7 70.7626 9.97892   1
  -3   3   7 80.0355 8.73484   6
  -3   3   7 68.0345 10.2325   5
  -3   3   7 76.8789 8.08959   4
   2  -3  -7 94.7439 13.6964   5
   2  -3  -7 115.481 8.46596   4
   2  -3  -7 100.313 9.06268   6
   2  -3  -7 120.190 8.65256   6
   2  -3  -7 97.7499 9.12638   3
  -2   3   7 127.296 10.6923   5
  -2   3   7 155.742 17.8064   1
  -2   3   7 103.231 9.45199   2
  -2   3   7 118.178 8.56596   4
  -2   3   7 124.254 9.75058   6
   1  -3  -7 39.8846 5.48545   4
   1  -3  -7 30.9691 6.37155   5
   1  -3  -7 34.1385 5.83568   6
   1  -3  -7 35.2363 5.55719   6
  -1   3   7 31.5662 6.07174   2
  -1   3   7 46.4792 6.85184   6
  -1   3   7 38.6528 6.23817   6
  -1   3   7 40.2151 8.29060   1
  -1   3   7 43.8019 5.81801   4
  -1   3   7 30.4694 5.94670   5
   0  -3  -7 225.969 11.0982   6
   0  -3  -7 227.194 10.5192   6
   0  -3  -7 224.774 10.3909   4
   0  -3  -7 241.890 12.3890   5
   0   3   7 223.181 11.4829   6
   0   3   7 206.043 12.0241   5
   0   3   7 234.611 10.7619   4
   0   3   7 242.436 12.6516   2
   0   3   7 230.900 11.2680   6
  -1  -3  -7 3.65139 4.00919   2
  -1  -3  -7 -0.8932 2.77020   6
  -1  -3  -7 3.22458 3.28513   4
  -1  -3  -7 6.60427 3.48270   6
  -1  -3  -7 8.58607 4.11217   5
   1   3   7 6.81288 3.75686   6
   1   3   7 8.76860 3.95447   6
   1   3   7 5.60776 4.42560   5
   1   3   7 6.02330 4.02453   2
   1   3   7 1.21210 2.95300   4
  -2  -3  -7 785.946 24.8994   2
  -2  -3  -7 772.314 21.3354   6
  -2  -3  -7 777.394 20.6323   6
  -2  -3  -7 771.133 22.2492   5
   2   3   7 781.803 22.8776   5
   2   3   7 786.145 23.0255   6
   2   3   7 735.130 21.5165   4
   2   3   7 747.047 20.9968   6
   2   3   7 767.201 24.7562   2
  -3  -3  -7 1329.11 28.1340   3
  -3  -3  -7 1254.30 35.3966   2
  -3  -3  -7 1318.85 30.4917   6
  -3  -3  -7 1297.20 31.5310   5
  -3  -3  -7 1306.46 31.4864   6
   3   3   7 1315.50 31.2555   6
   3   3   7 1354.61 36.6706   2
   3   3   7 1300.42 27.6262   3
   3   3   7 1241.18 33.0108   6
   3   3   7 1289.97 32.7450   4
  -4  -3  -7 22.4994 4.96511   6
  -4  -3  -7 15.5197 5.84261   2
  -4  -3  -7 17.4535 4.95695   6
  -4  -3  -7 22.9091 5.06282   3
  -4  -3  -7 13.0784 4.19025   5
   4   3   7 18.2183 6.08006   1
   4   3   7 17.3749 4.96489   4
   4   3   7 15.1199 5.18101   6
   4   3   7 22.6075 4.70149   3
   4   3   7 16.9014 6.45125   2
  -5  -3  -7 222.234 10.4811   5
  -5  -3  -7 232.715 12.2065   6
  -5  -3  -7 232.270 15.5350   2
  -5  -3  -7 214.952 12.0586   6
  -5  -3  -7 215.988 12.6682   3
   5   3   7 236.281 15.6411   1
   5   3   7 222.503 15.6827   2
   5   3   7 243.843 14.1462   6
   5   3   7 229.337 11.7214   3
   5   3   7 206.183 11.9991   6
  -6  -3  -7 432.870 22.4822   2
  -6  -3  -7 459.462 18.2354   6
  -6  -3  -7 450.583 17.8135   6
  -6  -3  -7 459.203 14.6570   5
   6   3   7 443.777 18.6305   3
   6   3   7 452.218 20.4926   6
   6   3   7 409.171 26.1501   1
   6   3   7 485.154 19.5656   6
  -7  -3  -7 45.3292 8.08903   6
  -7  -3  -7 42.0962 13.2027   2
  -7  -3  -7 45.1586 7.72494   6
   7   3   7 51.6627 10.2404   6
   7   3   7 45.0987 8.86911   3
   7   3   7 60.7221 11.1272   6
   7   3   7 40.6351 10.0517   2
   7   3   7 74.6766 13.8834   1
  -8  -3  -7 74.2311 10.6788   6
  -8  -3  -7 88.6712 11.1893   6
   8   3   7 91.3845 12.5895   6
   8   3   7 123.497 15.3429   2
   8   3   7 88.9211 14.0563   1
   8   3   7 98.0268 12.8386   3
   7  -4  -7 101.246 11.6907   4
  -7   4   7 96.0755 15.5640   2
  -7   4   7 95.7936 13.3230   5
   6  -4  -7 3.94377 5.49152   4
   6  -4  -7 -3.5167 6.52326   1
   6  -4  -7 5.90352 6.11713   6
   6  -4  -7 -9.4495 7.53522   5
   6  -4  -7 1.97850 5.71590   6
   6  -4  -7 -2.4599 7.73542   3
  -6   4   7 2.19256 7.50258   5
  -6   4   7 -1.5673 5.76461   6
   5  -4  -7 1.29895 6.72723   1
   5  -4  -7 -8.2002 6.44002   3
   5  -4  -7 6.34708 5.15528   4
   5  -4  -7 1.54105 5.08022   6
   5  -4  -7 -5.2339 5.73268   5
   5  -4  -7 7.52843 6.18223   6
  -5   4   7 -2.2309 5.15152   6
  -5   4   7 1.24501 7.36486   1
  -5   4   7 -1.8910 6.18534   5
   4  -4  -7 819.607 28.9759   5
   4  -4  -7 820.638 29.6172   3
   4  -4  -7 857.525 24.4503   4
   4  -4  -7 830.811 27.3087   6
  -4   4   7 826.131 32.7592   1
  -4   4   7 806.760 27.9001   6
  -4   4   7 835.113 29.3302   5
   3  -4  -7 411.053 17.5985   6
   3  -4  -7 405.203 18.6162   5
   3  -4  -7 421.914 15.0564   4
   3  -4  -7 411.254 16.5883   6
  -3   4   7 407.283 17.8046   6
  -3   4   7 421.334 21.1659   1
  -3   4   7 413.804 18.0471   6
  -3   4   7 359.586 18.5443   5
   2  -4  -7 104.430 9.15589   3
   2  -4  -7 102.276 8.76642   4
   2  -4  -7 105.019 8.40074   6
   2  -4  -7 107.444 10.2933   5
  -2   4   7 104.760 9.52823   6
  -2   4   7 107.111 9.36878   6
  -2   4   7 104.874 10.2785   2
  -2   4   7 115.445 10.9808   5
  -2   4   7 110.431 7.54415   4
  -2   4   7 97.5251 11.1149   1
   1  -4  -7 534.112 19.8013   5
   1  -4  -7 538.991 18.0645   6
   1  -4  -7 537.514 16.9697   6
   1  -4  -7 520.390 15.7027   4
   1  -4  -7 508.431 16.5935   3
  -1   4   7 510.415 18.4679   6
  -1   4   7 473.319 15.8103   4
  -1   4   7 508.836 17.9502   6
  -1   4   7 520.711 21.9436   1
  -1   4   7 519.971 19.9877   2
  -1   4   7 562.881 20.4848   5
   0  -4  -7 0.49871 2.37921   3
   0  -4  -7 1.24525 3.79602   5
   0  -4  -7 3.85592 3.02006   6
   0  -4  -7 -1.2025 2.84691   6
   0  -4  -7 4.78586 3.22524   4
   0   4   7 4.91658 3.31420   4
   0   4   7 -0.6269 3.12929   6
   0   4   7 1.35141 3.64952   6
   0   4   7 4.52778 4.59725   5
   0   4   7 4.73215 4.52526   2
  -1  -4  -7 215.283 11.3556   5
  -1  -4  -7 220.984 9.63107   6
  -1  -4  -7 222.342 13.0936   2
  -1  -4  -7 228.756 9.76781   6
   1   4   7 219.516 11.9059   5
   1   4   7 217.237 9.94266   4
   1   4   7 219.452 10.5177   6
   1   4   7 205.410 12.4723   2
   1   4   7 199.185 10.6979   6
  -2  -4  -7 43.5271 5.21556   6
  -2  -4  -7 43.7516 7.52778   2
  -2  -4  -7 36.4671 6.19920   5
   2   4   7 44.1665 7.53607   2
   2   4   7 42.6879 5.72439   4
   2   4   7 34.4075 6.10379   6
   2   4   7 52.8375 6.04625   6
   2   4   7 45.1800 6.56008   5
  -3  -4  -7 127.798 7.54562   6
  -3  -4  -7 107.967 7.68843   6
  -3  -4  -7 120.347 10.7023   2
  -3  -4  -7 111.336 8.15233   5
   3   4   7 119.349 11.5553   2
   3   4   7 101.580 8.58341   6
   3   4   7 121.642 8.28301   6
   3   4   7 116.349 9.03505   4
   3   4   7 122.303 8.93388   5
  -4  -4  -7 951.613 23.2340   6
  -4  -4  -7 883.808 22.9365   5
  -4  -4  -7 884.533 30.1865   2
  -4  -4  -7 869.302 23.5600   6
   4   4   7 885.638 30.0829   1
   4   4   7 897.026 26.7775   6
   4   4   7 950.208 28.6540   6
   4   4   7 894.310 27.1519   4
  -5  -4  -7 184.921 8.63012   5
  -5  -4  -7 193.725 14.7871   2
  -5  -4  -7 198.388 10.7996   6
  -5  -4  -7 190.495 10.2862   6
   5   4   7 158.441 10.9863   6
   5   4   7 166.353 14.6911   2
   5   4   7 191.506 13.1895   6
   5   4   7 175.172 9.87936   3
   5   4   7 167.650 14.3265   1
  -6  -4  -7 66.8769 7.99256   6
  -6  -4  -7 75.1386 8.08231   6
  -6  -4  -7 93.2053 13.0354   2
   6   4   7 85.9504 11.4296   6
   6   4   7 78.9770 9.18817   3
   6   4   7 84.2676 12.3253   2
   6   4   7 80.8799 9.58055   6
   6   4   7 65.4403 10.5300   1
  -7  -4  -7 311.649 14.7883   6
  -7  -4  -7 302.075 15.4794   6
  -7  -4  -7 284.279 20.5732   2
   7   4   7 259.589 17.6554   6
   7   4   7 288.635 20.9667   1
   7   4   7 285.814 20.2490   2
   7   4   7 246.028 15.8663   3
  -8  -4  -7 8.41703 6.85000   6
  -8  -4  -7 -6.8166 6.55109   6
   8   4   7 -6.4465 9.17880   2
   8   4   7 -1.5862 7.90066   3
   8   4   7 1.47812 9.38649   1
   8   4   7 0.36541 7.23889   6
   7  -5  -7 20.9367 8.85230   6
   7  -5  -7 23.2028 7.68843   4
  -7   5   7 30.6919 11.5985   5
  -7   5   7 12.7838 7.93738   6
   6  -5  -7 4.76536 6.07577   4
   6  -5  -7 -1.1858 9.27058   3
   6  -5  -7 -9.7224 8.55243   5
   6  -5  -7 -3.7900 5.99580   6
  -6   5   7 0.03430 6.03223   6
  -6   5   7 -2.7157 7.52280   5
   5  -5  -7 94.2913 14.1779   3
   5  -5  -7 79.9869 10.2619   6
   5  -5  -7 97.9960 11.9288   6
   5  -5  -7 81.6883 15.3500   5
   5  -5  -7 109.030 9.46543   4
  -5   5   7 77.8139 12.8735   5
  -5   5   7 97.9536 12.2060   6
  -5   5   7 96.6430 12.5422   6
  -5   5   7 99.7430 15.0971   1
   4  -5  -7 723.834 27.0305   3
   4  -5  -7 662.597 19.6607   4
   4  -5  -7 687.021 24.5415   6
   4  -5  -7 639.319 26.5169   5
  -4   5   7 657.051 25.2488   6
  -4   5   7 683.863 34.9583   5
  -4   5   7 601.482 28.7525   1
  -4   5   7 656.126 24.4461   6
   3  -5  -7 381.520 17.4439   6
   3  -5  -7 408.676 13.4594   4
   3  -5  -7 387.043 18.4765   3
   3  -5  -7 397.787 19.1631   5
   3  -5  -7 363.278 15.6915   6
  -3   5   7 391.635 17.4921   6
  -3   5   7 375.533 17.5612   6
  -3   5   7 365.193 21.1500   1
  -3   5   7 379.376 19.5585   5
   2  -5  -7 67.0730 7.39666   6
   2  -5  -7 62.1939 8.02120   3
   2  -5  -7 55.7998 8.06883   6
   2  -5  -7 62.1963 8.68460   5
   2  -5  -7 55.3393 5.47700   4
  -2   5   7 61.1721 9.40017   2
  -2   5   7 62.5173 8.29451   6
  -2   5   7 66.5852 11.1427   1
  -2   5   7 65.4967 5.70684   4
  -2   5   7 75.8417 9.03772   6
  -2   5   7 59.7029 9.47221   5
   1  -5  -7 1627.31 36.8250   3
   1  -5  -7 1634.91 41.9338   5
   1  -5  -7 1661.17 34.6312   4
   1  -5  -7 1690.33 38.3128   6
   1  -5  -7 1625.82 36.8181   6
  -1   5   7 1688.33 46.7188   1
  -1   5   7 1601.82 35.1378   4
  -1   5   7 1622.30 42.2422   5
  -1   5   7 1644.50 40.0599   6
  -1   5   7 1641.47 39.0901   6
  -1   5   7 1685.76 44.0286   2
   0  -5  -7 1138.32 32.2623   5
   0  -5  -7 1209.10 28.0759   6
   0  -5  -7 1213.17 27.4973   6
   0   5   7 1214.43 30.2254   6
   0   5   7 1207.56 34.7853   2
   0   5   7 1184.07 32.8780   5
   0   5   7 1175.52 27.6774   4
   0   5   7 1132.90 30.4389   6
  -1  -5  -7 443.141 17.0666   5
  -1  -5  -7 452.813 13.0847   6
  -1  -5  -7 438.557 13.0824   6
   1   5   7 459.130 14.7063   4
   1   5   7 420.169 15.3125   6
   1   5   7 444.026 15.9336   6
   1   5   7 397.594 19.3628   2
   1   5   7 460.414 17.8713   5
  -2  -5  -7 51.0127 6.90530   5
  -2  -5  -7 43.3540 7.76451   2
  -2  -5  -7 45.1623 4.50798   6
  -2  -5  -7 46.6510 4.57475   6
   2   5   7 53.9070 6.91267   5
   2   5   7 46.3295 5.72761   6
   2   5   7 46.0271 6.34098   6
   2   5   7 45.4337 6.27020   4
   2   5   7 37.8053 7.67326   2
  -3  -5  -7 16.9245 4.42537   5
  -3  -5  -7 10.9438 3.17752   6
  -3  -5  -7 7.85946 5.24463   2
  -3  -5  -7 12.7262 3.16359   6
   3   5   7 7.76394 4.21235   6
   3   5   7 7.19586 5.84683   2
   3   5   7 11.4493 4.78823   5
   3   5   7 16.9155 4.98812   4
   3   5   7 11.5977 3.58854   6
  -4  -5  -7 1429.16 32.2121   5
  -4  -5  -7 1406.71 41.4353   2
  -4  -5  -7 1416.31 29.8007   6
  -4  -5  -7 1440.09 30.3274   6
   4   5   7 1439.39 34.4390   6
   4   5   7 1421.59 36.4924   6
   4   5   7 1435.20 42.0607   2
   4   5   7 1364.77 41.0520   1
  -5  -5  -7 20.8536 4.33643   6
  -5  -5  -7 29.3244 4.70860   6
   5   5   7 12.9259 7.35117   2
   5   5   7 20.4541 6.40651   6
   5   5   7 26.8346 5.11229   3
   5   5   7 27.8284 6.07122   6
  -6  -5  -7 112.954 8.83053   6
  -6  -5  -7 114.913 8.37538   6
  -6  -5  -7 95.5707 13.2604   2
   6   5   7 89.3745 9.93978   6
   6   5   7 114.131 12.4432   6
   6   5   7 96.4081 9.04484   3
   6   5   7 84.3162 11.4830   1
   6   5   7 106.452 13.8804   2
  -7  -5  -7 573.115 28.2108   2
  -7  -5  -7 524.893 16.6299   6
  -7  -5  -7 503.040 16.9355   6
   7   5   7 526.505 28.2069   1
   7   5   7 545.618 26.5991   2
   7   5   7 521.522 23.6848   6
   7   5   7 506.336 20.4948   3
  -8  -5  -7 2.82739 5.45766   6
   8   5   7 20.8226 8.43849   6
   8   5   7 18.4583 8.59241   2
   8   5   7 26.5279 9.16176   3
   6  -6  -7 -0.4969 6.54671   6
  -6   6   7 4.46372 9.02636   5
  -6   6   7 10.9009 6.94359   6
   5  -6  -7 796.322 32.4779   5
   5  -6  -7 803.337 28.8099   6
   5  -6  -7 834.799 35.2463   3
   5  -6  -7 797.001 27.4218   6
  -5   6   7 777.617 32.0260   5
  -5   6   7 764.665 29.9917   6
  -5   6   7 751.491 34.3269   1
  -5   6   7 791.468 29.5335   6
   4  -6  -7 247.870 17.7859   5
   4  -6  -7 233.480 15.1330   6
  -4   6   7 246.015 18.1055   5
  -4   6   7 251.287 16.1038   6
  -4   6   7 220.095 18.9514   1
  -4   6   7 263.206 16.2567   6
   3  -6  -7 416.405 18.6537   3
   3  -6  -7 424.347 16.4492   6
  -3   6   7 383.208 18.4000   6
  -3   6   7 441.124 18.8841   6
  -3   6   7 367.015 22.0553   1
   2  -6  -7 247.459 12.7631   6
   2  -6  -7 248.130 13.1442   3
   2  -6  -7 246.443 11.6551   6
  -2   6   7 252.968 18.2926   1
  -2   6   7 292.699 16.9868   5
  -2   6   7 237.218 13.2982   6
  -2   6   7 241.887 13.3459   6
  -2   6   7 219.885 15.9830   2
   1  -6  -7 1758.62 38.5062   6
   1  -6  -7 1721.90 38.5923   3
   1  -6  -7 1720.80 45.0989   5
   1  -6  -7 1749.99 37.5861   6
  -1   6   7 1779.13 45.9540   5
  -1   6   7 1750.58 47.6088   2
  -1   6   7 1691.37 43.1763   6
  -1   6   7 1687.62 41.1376   6
  -1   6   7 1793.24 49.8755   1
   0  -6  -7 1314.14 28.5080   6
   0  -6  -7 1336.44 36.5200   5
   0  -6  -7 1348.92 28.9543   6
   0   6   7 1355.41 37.0177   5
   0   6   7 1303.26 33.6900   6
   0   6   7 1283.47 38.9453   2
   0   6   7 1376.60 33.3448   6
   0   6   7 1424.71 30.2827   4
  -1  -6  -7 350.195 15.9499   5
   1   6   7 364.141 14.4900   6
   1   6   7 381.674 13.3189   4
   1   6   7 376.312 19.3987   2
   1   6   7 357.064 14.1923   6
   1   6   7 367.100 16.5633   5
  -2  -6  -7 848.411 24.8781   5
   2   6   7 806.070 23.0196   4
   2   6   7 816.741 22.3187   6
   2   6   7 838.277 24.2094   6
   2   6   7 818.337 29.6209   2
   2   6   7 804.864 25.1630   5
  -3  -6  -7 607.012 25.5116   2
  -3  -6  -7 640.942 19.7832   5
   3   6   7 608.042 21.2113   4
   3   6   7 654.180 19.1228   6
   3   6   7 648.603 26.5726   2
   3   6   7 596.815 20.6310   6
   3   6   7 691.289 21.0675   5
  -4  -6  -7 1651.06 47.6762   2
  -4  -6  -7 1666.61 36.8082   5
   4   6   7 1663.31 40.6887   6
   4   6   7 1647.38 47.2314   1
   4   6   7 1646.88 38.5314   6
   4   6   7 1675.82 47.9186   2
  -5  -6  -7 68.1261 11.7521   2
   5   6   7 51.4645 10.2384   1
   5   6   7 69.7441 8.26793   6
   5   6   7 48.4227 7.91122   6
  -6  -6  -7 49.4076 9.91463   2
   6   6   7 83.3178 13.0306   2
   6   6   7 58.0312 9.40457   6
   6   6   7 43.2011 7.92067   6
   6   6   7 51.8149 10.6617   1
  -7  -6  -7 682.630 31.3405   2
   7   6   7 715.055 29.1995   6
   7   6   7 649.120 26.5144   6
   7   6   7 768.212 35.9733   3
   7   6   7 682.139 30.7409   2
   7   6   7 659.181 32.5364   1
   8   6   7 235.667 16.3548   3
   8   6   7 194.235 20.6457   1
   8   6   7 206.334 19.8948   2
   8   6   7 285.061 18.6951   6
   6  -7  -7 3.26576 8.27920   6
  -6   7   7 1.89798 7.23921   6
   5  -7  -7 831.549 34.0487   3
   5  -7  -7 807.742 27.2302   6
   5  -7  -7 786.724 28.9912   6
  -5   7   7 787.091 30.0764   6
  -5   7   7 824.449 36.1245   1
  -5   7   7 805.380 33.5713   5
   4  -7  -7 102.742 10.4436   6
   4  -7  -7 68.8659 10.3470   5
  -4   7   7 118.898 13.1999   6
  -4   7   7 121.536 14.3690   5
  -4   7   7 149.264 29.3698   1
  -4   7   7 137.566 12.9235   6
   3  -7  -7 87.6849 8.41432   6
   3  -7  -7 91.9300 11.2940   5
   3  -7  -7 108.088 10.5441   6
   3  -7  -7 115.200 12.4169   3
  -3   7   7 92.4445 10.7957   6
  -3   7   7 91.2984 14.0961   1
  -3   7   7 111.390 13.6086   5
  -3   7   7 99.8086 11.7387   6
   2  -7  -7 866.266 23.8973   6
   2  -7  -7 894.996 31.3994   5
   2  -7  -7 858.521 26.3666   3
   2  -7  -7 851.575 22.6361   6
  -2   7   7 883.725 33.8176   1
  -2   7   7 819.299 34.8854   2
  -2   7   7 801.614 32.7708   5
  -2   7   7 847.507 27.1924   6
  -2   7   7 919.967 27.5628   6
   1  -7  -7 701.212 20.5191   3
   1  -7  -7 644.226 16.9488   6
   1  -7  -7 671.656 17.4693   6
  -1   7   7 711.617 22.8067   6
  -1   7   7 657.109 27.7979   2
  -1   7   7 690.122 26.5087   5
  -1   7   7 685.130 22.4585   6
  -1   7   7 648.657 28.9007   1
   0  -7  -7 1649.38 44.0135   5
   0   7   7 1689.20 39.4573   6
   0   7   7 1692.41 40.2857   6
   0   7   7 1723.84 45.0025   5
   0   7   7 1633.79 47.3505   2
  -1  -7  -7 109.762 10.9323   5
   1   7   7 95.2009 7.28892   4
   1   7   7 123.490 12.7390   5
   1   7   7 122.618 14.3230   2
   1   7   7 99.5483 8.78032   6
  -2  -7  -7 638.841 21.9692   5
   2   7   7 667.106 20.7952   6
   2   7   7 636.739 19.9257   4
   2   7   7 640.853 22.5655   5
   2   7   7 589.609 18.8039   6
   2   7   7 637.317 27.1018   2
  -3  -7  -7 1395.44 34.8342   5
   3   7   7 1339.67 42.6982   2
   3   7   7 1419.29 35.5245   5
   3   7   7 1341.07 32.4611   6
   3   7   7 1442.77 42.1465   1
   3   7   7 1353.60 34.8866   6
  -4  -7  -7 474.982 16.4095   5
  -4  -7  -7 538.291 30.0183   2
   4   7   7 497.169 30.9348   2
   4   7   7 527.280 17.6834   5
   4   7   7 509.102 19.0501   6
   4   7   7 504.821 19.6551   6
   4   7   7 489.300 24.5431   1
  -5  -7  -7 -5.6261 6.25815   2
   5   7   7 13.8969 5.09187   6
   5   7   7 5.95625 6.77082   1
   5   7   7 7.87759 5.75730   6
   5   7   7 0.42394 7.19642   2
  -6  -7  -7 100.100 14.6984   2
   6   7   7 107.881 10.7492   6
   6   7   7 108.410 15.8136   1
   6   7   7 109.704 12.0021   6
   6   7   7 101.890 14.1238   2
   7   7   7 1063.82 39.4876   2
   7   7   7 1023.40 32.5195   6
   7   7   7 1066.98 34.3019   6
   5  -8  -7 575.240 22.9358   6
   5  -8  -7 624.957 29.6598   3
   4  -8  -7 38.6341 7.92956   6
   4  -8  -7 42.2716 10.6735   3
   4  -8  -7 34.9174 7.65145   6
  -4   8   7 37.4756 11.4521   5
  -4   8   7 28.0575 8.00574   6
  -4   8   7 34.1095 8.55926   6
  -4   8   7 50.7043 12.8809   1
   3  -8  -7 77.9062 7.66402   6
   3  -8  -7 84.1254 9.85942   3
   3  -8  -7 67.0033 12.1961   5
   3  -8  -7 71.2159 8.20621   6
  -3   8   7 87.6436 14.6129   1
  -3   8   7 67.2371 11.7069   5
  -3   8   7 66.3353 9.80024   6
  -3   8   7 71.5487 9.97814   6
   2  -8  -7 834.063 44.0742   5
   2  -8  -7 601.878 21.9281   3
  -2   8   7 619.427 27.7165   5
  -2   8   7 646.754 23.5172   6
  -2   8   7 617.553 29.2475   1
  -2   8   7 607.642 28.6988   2
  -2   8   7 648.207 23.4155   6
   1  -8  -7 58.3497 9.95787   5
   1  -8  -7 92.9935 8.94341   3
  -1   8   7 87.5054 10.0258   6
  -1   8   7 77.4830 12.1280   1
  -1   8   7 91.0051 9.86895   6
  -1   8   7 88.4951 12.2714   5
  -1   8   7 64.6838 11.4104   2
   0   8   7 751.085 22.8690   6
   0   8   7 714.513 27.4308   5
   0   8   7 760.208 30.7468   2
   0   8   7 685.437 25.6998   6
  -1  -8  -7 256.311 15.3525   5
   1   8   7 248.574 20.3748   2
   1   8   7 296.109 11.6388   4
   1   8   7 267.132 12.7959   6
   1   8   7 268.160 16.2527   5
   1   8   7 283.046 13.5675   6
  -2  -8  -7 405.652 18.2414   5
   2   8   7 428.607 16.1441   4
   2   8   7 442.965 16.1296   6
   2   8   7 468.176 25.0933   2
   2   8   7 430.158 16.6320   6
   2   8   7 418.224 18.9503   5
  -3  -8  -7 2251.10 51.6018   5
   3   8   7 2263.16 59.6399   1
   3   8   7 2316.52 48.5426   6
   3   8   7 2263.69 61.8482   2
   3   8   7 2191.70 50.6319   6
   3   8   7 2306.11 52.5410   5
   4   8   7 171.598 16.5037   2
   4   8   7 154.010 11.2626   6
   4   8   7 153.080 15.2589   1
   4   8   7 183.665 11.8823   5
  -5  -8  -7 2.92849 8.82127   2
   5   8   7 18.0300 8.23516   1
   5   8   7 21.8322 8.84418   2
   5   8   7 17.2635 5.90709   6
   5   8   7 26.6155 6.38483   6
  -6  -8  -7 486.544 28.6518   2
   6   8   7 418.606 26.1881   1
   6   8   7 450.338 19.2485   6
   6   8   7 467.327 26.0899   2
   4  -9  -7 44.1049 13.9129   3
   4  -9  -7 33.6937 6.40015   6
  -4   9   7 55.4396 9.54283   6
  -4   9   7 45.1202 13.9395   1
   3  -9  -7 20.5779 9.75973   3
  -3   9   7 27.0966 10.7052   1
  -3   9   7 31.8060 10.9695   5
  -3   9   7 34.5493 8.51488   6
  -3   9   7 21.7247 7.95334   6
   2  -9  -7 345.084 18.0608   3
  -2   9   7 326.338 22.6590   2
  -2   9   7 297.060 16.7640   6
  -2   9   7 326.385 17.1612   6
  -2   9   7 326.303 22.5503   1
  -2   9   7 382.786 22.5070   5
   1  -9  -7 25.3440 8.42630   5
   1  -9  -7 20.1476 6.69450   3
  -1   9   7 25.9615 8.97379   1
  -1   9   7 32.1116 10.2263   5
  -1   9   7 28.9938 6.33371   6
  -1   9   7 15.8079 5.55031   6
  -1   9   7 22.2277 9.69839   2
   0  -9  -7 252.480 17.0576   5
   0   9   7 259.918 17.9999   5
   0   9   7 297.302 14.6282   6
   0   9   7 294.809 14.2760   6
   0   9   7 280.100 20.3098   2
   1   9   7 78.4937 13.8306   2
   1   9   7 78.5826 10.9782   5
   1   9   7 90.3770 8.91741   6
   1   9   7 88.1052 9.36341   6
  -2  -9  -7 119.251 12.8677   5
   2   9   7 103.410 9.29779   6
   2   9   7 83.0894 13.1661   2
   2   9   7 83.9149 8.91016   6
   2   9   7 96.4169 9.07981   4
   2   9   7 99.2672 11.5131   5
   3   9   7 570.494 21.8970   5
   3   9   7 577.333 21.1327   4
   3   9   7 540.828 28.4211   2
   3   9   7 592.824 27.2523   1
   3   9   7 518.650 17.9501   6
   3   9   7 546.794 19.8426   6
   4   9   7 -2.5217 5.85668   6
   4   9   7 7.82555 8.64883   2
   4   9   7 7.21827 5.48832   5
   4   9   7 2.21705 6.90105   1
   4   9   7 1.33161 4.56333   6
   5   9   7 326.748 22.9592   2
   5   9   7 275.205 15.5504   6
   5   9   7 277.163 14.5138   6
   5   9   7 285.271 21.6920   1
   6   9   7 398.140 18.8595   6
   6   9   7 417.768 25.5583   2
   6   9   7 432.527 20.6373   6
   6   9   7 439.663 27.5785   1
   3 -10  -7 48.2162 11.2875   3
  -3  10   7 18.9089 11.6146   1
  -3  10   7 44.8259 12.5555   5
  -3  10   7 41.1817 8.66640   6
  -3  10   7 31.6972 12.6642   2
   2 -10  -7 10.6418 7.97859   3
  -2  10   7 15.9587 7.63430   3
  -2  10   7 9.07648 11.1468   6
  -2  10   7 5.11130 9.05676   2
  -2  10   7 11.0496 6.40566   6
  -2  10   7 3.03773 7.69764   5
  -2  10   7 11.4728 10.2447   1
   1 -10  -7 228.587 14.7067   3
  -1  10   7 191.156 13.6509   6
  -1  10   7 228.414 20.2351   1
  -1  10   7 193.737 14.1343   6
  -1  10   7 209.767 20.3825   2
  -1  10   7 226.355 18.9108   5
  -1  10   7 203.359 13.3173   3
   0 -10  -7 2.31542 6.77895   5
   0  10   7 7.80390 5.74231   6
   0  10   7 3.14440 5.11572   6
   0  10   7 28.5610 9.49817   2
   0  10   7 7.22194 7.82262   5
   1  10   7 5.63687 9.06444   2
   1  10   7 4.56093 7.17492   5
   1  10   7 2.51704 5.29891   6
   1  10   7 7.82586 5.03892   6
   2  10   7 3.26982 7.30998   5
   2  10   7 -0.8749 6.91260   6
   2  10   7 -2.3828 4.21408   4
   2  10   7 11.4039 5.90734   4
   2  10   7 2.99381 9.13568   2
   2  10   7 7.31428 5.62227   6
   2  10   7 -2.5958 6.83228   1
   3  10   7 270.176 16.7954   5
   3  10   7 272.280 22.0888   2
   3  10   7 245.315 19.3868   1
   3  10   7 254.596 15.0646   4
   3  10   7 257.073 14.1357   6
   3  10   7 258.110 16.8674   6
   4  10   7 96.8438 10.0972   6
   4  10   7 71.2842 11.8392   1
   4  10   7 99.4867 11.0588   5
   4  10   7 107.407 9.49739   6
   4  10   7 77.9486 13.7226   2
  -1  11   7 361.365 25.5253   1
  -1  11   7 371.921 18.6340   6
  -1  11   7 392.279 26.6044   2
  -1  11   7 373.453 17.7025   3
  -1  11   7 394.104 19.2402   6
   0  11   7 91.5488 14.3827   5
   0  11   7 79.2702 10.2116   6
   0  11   7 49.3474 15.5122   2
   0  11   7 69.6369 8.38758   6
   1  11   7 43.0515 7.29977   6
   1  11   7 13.2868 8.69704   5
   1  11   7 25.7732 6.12468   6
   1  11   7 23.4556 11.3686   2
   2  11   7 34.5364 7.55443   6
   2  11   7 15.2903 7.68456   1
   2  11   7 17.3482 5.62807   6
   2  11   7 19.3622 9.95929   2
   2  11   7 38.8285 9.97765   5
   0   8  -8 59.5070 11.3108   4
   0   8  -8 62.1973 10.1051   6
   0   8  -8 60.7498 9.45498   6
   0   8  -8 58.0353 13.5894   3
  -1   8  -8 627.900 24.2447   6
  -1   8  -8 583.097 22.6704   2
  -1   8  -8 581.538 26.5669   6
  -1   8  -8 648.455 33.9603   3
  -1   8  -8 685.868 29.0897   4
   1  -8   8 640.909 27.9819   4
  -2   8  -8 15.7098 8.89247   2
  -2   8  -8 19.8756 7.89030   6
  -2   8  -8 15.2183 11.9155   3
  -2   8  -8 14.5885 9.00649   4
  -2   8  -8 1.39734 8.63739   6
   2  -8   8 16.0708 9.65987   4
   2   7  -8 259.791 23.1932   3
   2   7  -8 256.687 20.3657   5
   2   7  -8 255.536 20.1022   4
   2   7  -8 286.673 16.9765   6
   2   7  -8 282.719 14.0343   1
   1   7  -8 136.497 12.4061   6
   1   7  -8 123.770 14.6692   4
   1   7  -8 85.6775 13.8782   3
   1   7  -8 130.216 11.8701   6
  -1  -7   8 130.370 16.5959   4
   0   7  -8 21.7068 7.52696   6
   0   7  -8 23.2431 10.6767   3
   0   7  -8 22.3206 7.76521   6
   0   7  -8 30.9647 8.72942   4
   0  -7   8 26.3077 9.61297   4
  -1   7  -8 958.614 29.0272   2
  -1   7  -8 1042.28 35.0986   4
  -1   7  -8 958.860 39.7621   3
  -1   7  -8 977.520 31.4610   6
  -1   7  -8 971.011 37.3439   6
   1  -7   8 958.020 36.3607   4
  -2   7  -8 -12.098 5.58319   2
  -2   7  -8 1.25528 6.76723   6
  -2   7  -8 7.99387 8.42136   3
  -2   7  -8 -2.3010 6.56578   6
  -2   7  -8 -7.8674 7.18861   4
   2  -7   8 -1.6095 7.29131   4
  -3   7  -8 -1.7364 8.49028   6
  -3   7  -8 21.3169 10.5136   3
  -3   7  -8 28.6318 9.19520   2
  -3   7  -8 10.1407 9.13584   4
  -3   7  -8 26.1574 7.86016   6
   3  -7   8 19.8272 8.86790   4
  -4   7  -8 479.224 27.9011   5
  -4   7  -8 521.870 23.8166   6
  -4   7  -8 479.794 29.5496   3
   4  -7   8 505.078 23.3796   4
   4   6  -8 313.610 28.5298   6
   4   6  -8 310.963 19.9275   5
   4   6  -8 346.967 18.6120   6
   4   6  -8 345.115 24.1032   4
   4   6  -8 281.592 19.1256   1
   4   6  -8 356.025 25.7735   3
  -4  -6   8 298.445 19.5867   1
   3   6  -8 133.255 15.5919   4
   3   6  -8 121.334 17.1504   3
   3   6  -8 142.994 13.6028   1
   3   6  -8 128.950 13.9897   5
   3   6  -8 155.570 14.9183   6
   3   6  -8 130.503 13.1593   6
  -3  -6   8 148.128 13.3802   1
   2   6  -8 50.6348 8.69950   6
   2   6  -8 52.8667 8.29533   6
   2   6  -8 60.5400 12.4224   3
   2   6  -8 48.8605 9.96208   4
   2   6  -8 52.6735 10.8845   5
   2   6  -8 54.2561 7.75894   1
  -2  -6   8 50.2988 7.61055   1
   1   6  -8 388.404 18.0872   6
   1   6  -8 382.888 21.1562   4
   1   6  -8 450.354 25.3238   3
   1   6  -8 428.466 18.3055   6
  -1  -6   8 436.414 22.4626   4
   0   6  -8 10.7265 5.67880   6
   0   6  -8 -2.6339 6.15000   3
   0   6  -8 5.22141 5.26156   6
   0   6  -8 4.73388 7.27160   4
   0  -6   8 8.02884 5.85688   4
  -1   6  -8 1237.91 38.1118   4
  -1   6  -8 1193.77 34.1776   6
  -1   6  -8 1163.26 33.4816   6
  -1   6  -8 1149.67 42.3613   3
  -1   6  -8 1153.49 31.5251   2
   1  -6   8 1134.51 36.4067   4
  -2   6  -8 5.50216 8.27849   3
  -2   6  -8 -6.2590 5.36769   2
  -2   6  -8 11.4371 6.79657   6
   2  -6   8 2.14100 5.69901   4
  -3   6  -8 -1.2601 6.18049   6
  -3   6  -8 -0.9997 6.95259   2
  -3   6  -8 12.4060 7.63194   3
  -3   6  -8 1.04228 5.57596   6
   3  -6   8 4.00579 7.91648   4
  -4   6  -8 910.312 34.3903   2
  -4   6  -8 939.911 39.9375   3
  -4   6  -8 970.356 33.2138   6
  -4   6  -8 991.725 32.9190   6
   4  -6   8 963.087 32.2284   4
   4  -6   8 956.804 25.5453   6
  -5   6  -8 21.9310 12.8543   3
  -5   6  -8 10.8915 7.41177   6
  -5   6  -8 1.09058 8.72369   5
   5  -6   8 18.8936 7.02746   6
   5  -6   8 6.31765 8.74723   4
   5  -6   8 4.41674 6.87492   6
   5   5  -8 -7.3497 7.03543   5
   5   5  -8 -2.5174 8.53253   4
   5   5  -8 0.13776 7.75974   1
   5   5  -8 -17.027 7.77770   6
   5   5  -8 -3.4460 6.22578   6
  -5  -5   8 -3.3122 9.12106   1
   4   5  -8 245.219 17.5322   1
   4   5  -8 222.921 16.1552   6
   4   5  -8 265.472 19.6252   4
   4   5  -8 243.308 15.6695   6
   4   5  -8 275.354 17.4705   5
  -4  -5   8 266.598 18.8513   1
   3   5  -8 430.670 19.7004   6
   3   5  -8 442.844 20.6358   1
   3   5  -8 431.979 22.9118   4
   3   5  -8 389.852 24.0296   3
   3   5  -8 435.279 21.9871   5
  -3  -5   8 483.338 21.1143   1
   2   5  -8 -0.8093 5.00578   6
   2   5  -8 4.55227 6.62933   3
   2   5  -8 8.24327 5.21821   6
   2   5  -8 4.02166 4.48207   1
   2   5  -8 4.05149 6.26124   5
   2   5  -8 -1.9739 5.94299   4
  -2  -5   8 -3.5768 4.74194   1
  -2  -5   8 1.43225 5.84328   4
   1   5  -8 238.606 18.0246   3
   1   5  -8 230.803 13.3346   6
   1   5  -8 245.808 13.7778   6
   1   5  -8 207.182 15.8480   4
  -1  -5   8 199.830 15.6124   4
  -1  -5   8 213.905 10.5967   1
   0   5  -8 132.898 17.0620   3
   0   5  -8 183.371 24.1193   4
   0   5  -8 124.883 10.5114   6
   0   5  -8 110.306 10.3253   6
   0  -5   8 120.214 14.5147   4
  -1   5  -8 196.045 11.4574   2
  -1   5  -8 172.900 12.7096   6
  -1   5  -8 198.989 13.2068   6
  -1   5  -8 201.195 14.4900   4
  -1   5  -8 185.456 17.1704   3
  -2   5  -8 18.2054 6.98405   4
  -2   5  -8 2.26653 8.44339   3
  -2   5  -8 2.85081 6.06090   6
  -2   5  -8 7.51837 4.99632   6
  -2   5  -8 18.0797 6.50442   2
   2  -5   8 1.54522 4.15839   4
   2  -5   8 8.68516 3.87540   6
  -3   5  -8 14.1391 7.86754   3
  -3   5  -8 11.5607 6.96661   2
  -3   5  -8 11.2350 7.14429   6
  -3   5  -8 12.7086 8.50966   6
  -3   5  -8 10.7626 7.12362   4
   3  -5   8 1.48197 7.01521   3
   3  -5   8 20.0983 5.32004   6
   3  -5   8 7.73445 4.67513   6
  -4   5  -8 964.299 38.2455   3
  -4   5  -8 933.992 33.2569   2
  -4   5  -8 955.167 31.8769   6
   4  -5   8 979.085 27.7637   6
   4  -5   8 967.463 27.7191   6
   4  -5   8 961.281 36.4436   3
  -5   5  -8 67.5770 10.9059   6
  -5   5  -8 48.6632 12.7810   2
  -5   5  -8 70.7998 13.5748   3
  -5   5  -8 95.9740 12.3226   6
   5  -5   8 63.1969 10.6882   4
   5  -5   8 64.9092 9.15544   6
  -6   5  -8 -1.0489 10.1983   3
  -6   5  -8 0.54512 7.97091   6
  -6   5  -8 1.65759 9.18772   5
   6  -5   8 1.96229 7.63124   6
   6  -5   8 -4.2568 7.90211   6
   6  -5   8 9.76595 8.48403   4
   5   4  -8 31.9281 8.30707   6
   5   4  -8 49.9437 11.3787   1
   5   4  -8 39.1747 9.06177   6
   5   4  -8 33.6782 8.90285   5
   5   4  -8 30.7781 10.0028   4
  -5  -4   8 36.3023 11.3795   1
   4   4  -8 60.8590 10.9780   1
   4   4  -8 93.4209 11.4474   6
   4   4  -8 85.8574 11.3906   5
   4   4  -8 93.0044 12.8998   4
   4   4  -8 99.5248 10.7471   6
  -4  -4   8 85.9197 12.4938   1
   3   4  -8 174.762 15.7888   4
   3   4  -8 154.840 13.8553   5
   3   4  -8 198.328 14.4434   1
   3   4  -8 169.525 12.7175   6
   3   4  -8 173.624 13.4051   6
  -3  -4   8 170.896 13.5089   1
   2   4  -8 103.509 12.6762   4
   2   4  -8 75.8837 11.3150   3
   2   4  -8 99.8376 10.1866   6
   2   4  -8 107.167 9.92281   1
   2   4  -8 103.581 11.8264   5
   2   4  -8 103.962 10.8955   6
  -2  -4   8 99.5505 9.67570   1
  -2  -4   8 82.2142 11.0720   4
   1   4  -8 443.284 17.8699   6
   1   4  -8 459.804 23.8542   3
   1   4  -8 416.908 20.3241   5
   1   4  -8 441.117 21.2221   4
   1   4  -8 440.038 17.9706   6
  -1  -4   8 446.696 16.0680   1
   0   4  -8 107.920 10.0240   6
   0   4  -8 99.9406 12.4575   3
   0   4  -8 130.120 13.9474   4
   0   4  -8 105.775 9.83288   6
   0  -4   8 112.710 11.9427   4
   0  -4   8 112.900 6.61099   1
  -1   4  -8 28.2525 7.45735   4
  -1   4  -8 30.5455 6.69928   6
  -1   4  -8 24.3963 6.01327   2
  -1   4  -8 17.0431 6.62191   3
  -1   4  -8 16.8685 5.74066   6
   1  -4   8 24.8721 4.59463   6
   1  -4   8 30.7559 6.98243   6
   1  -4   8 30.7723 7.39894   4
  -2   4  -8 65.7952 9.07064   6
  -2   4  -8 59.7680 9.84125   2
  -2   4  -8 74.6188 13.1328   3
  -2   4  -8 70.9124 9.06846   6
  -2   4  -8 62.2797 10.4668   4
   2  -4   8 60.4101 6.91157   6
   2  -4   8 60.4737 9.17965   4
   2  -4   8 69.7830 7.15791   6
  -3   4  -8 33.9389 7.80820   2
  -3   4  -8 15.4791 6.76548   4
  -3   4  -8 9.13019 7.28444   3
  -3   4  -8 42.0112 8.59164   6
  -3   4  -8 24.2305 7.33807   6
   3  -4   8 24.9588 7.04737   4
   3  -4   8 36.9141 6.56629   6
   3  -4   8 36.1460 9.98066   3
   3  -4   8 34.7483 6.35915   6
  -4   4  -8 273.326 16.1676   6
  -4   4  -8 263.095 16.1272   6
  -4   4  -8 257.911 16.8319   2
  -4   4  -8 298.429 21.0809   3
   4  -4   8 258.555 14.5841   6
   4  -4   8 253.797 15.5341   4
   4  -4   8 249.876 13.8815   6
   4  -4   8 249.303 18.3759   3
  -5   4  -8 66.7102 11.0582   6
  -5   4  -8 111.024 15.8365   3
  -5   4  -8 83.0043 10.7505   6
   5  -4   8 95.6249 13.2733   3
   5  -4   8 78.0490 10.4137   6
  -6   4  -8 26.2803 8.40005   6
  -6   4  -8 36.4805 11.2681   3
   6  -4   8 49.4752 8.86070   1
   6  -4   8 38.9898 9.59708   4
   6  -4   8 42.8976 15.1050   6
   6  -4   8 34.1935 8.79050   6
  -7   4  -8 233.094 19.5923   5
   7  -4   8 187.232 16.9037   4
   7  -4   8 186.517 12.8250   1
   7  -4   8 215.951 17.1969   6
   6   3  -8 21.4860 7.49183   6
   6   3  -8 11.1205 7.54525   1
   6   3  -8 3.62844 6.97492   5
   6   3  -8 9.53480 9.37665   4
   5   3  -8 42.6169 8.74528   5
   5   3  -8 29.3577 8.37185   4
   5   3  -8 36.3069 8.78895   6
   5   3  -8 43.8096 9.43310   6
   5   3  -8 42.9489 11.4971   1
  -5  -3   8 35.6441 11.0712   1
   4   3  -8 51.4455 10.1785   4
   4   3  -8 53.9889 16.8671   1
   4   3  -8 45.5600 8.68082   6
   4   3  -8 62.5385 9.91679   5
   4   3  -8 51.4478 9.31350   6
  -4  -3   8 74.2773 17.6066   1
  -4  -3   8 59.2096 6.09364   6
  -4  -3   8 61.9864 9.73012   6
   3   3  -8 89.1550 11.0388   6
   3   3  -8 89.4441 11.5283   4
   3   3  -8 105.344 10.9923   6
   3   3  -8 103.936 12.2973   1
   3   3  -8 105.355 11.5535   5
  -3  -3   8 75.9033 6.69808   6
  -3  -3   8 84.1774 12.3260   4
  -3  -3   8 99.6665 11.6747   1
   2   3  -8 921.810 31.4228   4
   2   3  -8 934.261 28.6463   1
   2   3  -8 950.615 28.6795   6
   2   3  -8 924.144 30.3015   5
  -2  -3   8 906.749 22.4976   6
  -2  -3   8 906.077 27.9694   1
  -2  -3   8 971.887 26.3401   6
   1   3  -8 30.4991 7.42812   4
   1   3  -8 31.9261 6.61821   6
   1   3  -8 32.1678 7.62601   5
   1   3  -8 19.3169 6.86405   3
   1   3  -8 29.4835 6.21449   6
  -1  -3   8 24.6390 5.31495   1
  -1  -3   8 26.8511 4.64449   6
  -1  -3   8 11.9402 5.48793   4
   0   3  -8 200.874 12.3144   6
   0   3  -8 222.198 14.5415   4
   0   3  -8 196.032 11.8439   6
   0   3  -8 203.705 14.9140   3
   0  -3   8 233.508 10.3670   6
   0  -3   8 222.054 10.2505   6
   0  -3   8 228.430 14.3805   4
   0  -3   8 226.264 9.73982   1
  -1   3  -8 1537.60 45.1023   3
  -1   3  -8 1535.03 39.2158   6
  -1   3  -8 1569.32 42.4762   4
  -1   3  -8 1584.34 36.9187   2
  -1   3  -8 1546.76 39.1683   6
   1  -3   8 1633.77 36.5397   6
   1  -3   8 1592.96 36.2278   6
   1  -3   8 1631.54 42.1437   4
  -2   3  -8 269.506 14.2732   6
  -2   3  -8 275.163 17.9256   3
  -2   3  -8 256.422 13.8218   2
  -2   3  -8 295.126 14.6634   6
  -2   3  -8 263.105 15.9404   4
   2  -3   8 276.395 15.4103   4
   2  -3   8 290.884 13.4207   6
  -3   3  -8 18.7802 8.51594   3
  -3   3  -8 24.4357 6.72973   4
  -3   3  -8 27.4415 6.92455   2
  -3   3  -8 24.5393 6.08572   6
  -3   3  -8 24.3755 6.67654   6
   3  -3   8 25.2845 8.33501   3
   3  -3   8 19.3067 6.06655   6
   3  -3   8 32.7376 7.37087   4
   3  -3   8 23.4025 5.43700   6
  -4   3  -8 535.371 29.8109   3
  -4   3  -8 492.834 21.1127   6
  -4   3  -8 531.800 22.0333   6
  -4   3  -8 500.283 22.0090   2
   4  -3   8 545.267 21.0315   6
   4  -3   8 498.946 19.1834   6
   4  -3   8 530.034 21.5536   4
   4  -3   8 556.960 24.4378   3
  -5   3  -8 208.084 16.5527   2
  -5   3  -8 224.781 15.7299   6
  -5   3  -8 224.092 18.7761   3
  -5   3  -8 227.579 15.9631   6
   5  -3   8 219.990 11.3038   1
   5  -3   8 236.371 15.3168   6
   5  -3   8 204.499 16.3646   3
  -6   3  -8 266.035 19.2960   2
  -6   3  -8 235.105 20.2072   3
  -6   3  -8 256.683 17.7914   6
  -6   3  -8 255.377 17.7105   6
   6  -3   8 243.159 17.0526   6
   6  -3   8 276.065 14.0157   1
   6  -3   8 299.967 17.2530   4
   6  -3   8 230.039 18.6593   6
   6  -3   8 266.032 19.0281   3
  -7   3  -8 13.2087 8.00809   6
  -7   3  -8 25.8188 11.0351   3
  -7   3  -8 17.3821 8.68361   5
   7  -3   8 17.8744 8.39014   4
   7  -3   8 18.7264 7.70378   1
   7  -3   8 27.5890 9.48366   6
   6   2  -8 66.8528 12.3550   1
   6   2  -8 53.8079 10.8536   4
   6   2  -8 77.9372 9.85283   6
   6   2  -8 79.4425 11.1113   5
  -6  -2   8 61.7468 8.88343   6
  -6  -2   8 65.3262 9.19134   6
   5   2  -8 67.3036 12.2355   1
   5   2  -8 52.4534 11.3768   4
   5   2  -8 64.5946 9.59818   6
   5   2  -8 36.8696 8.52680   6
   5   2  -8 41.0514 8.69372   5
  -5  -2   8 53.7490 7.59322   6
  -5  -2   8 43.2994 10.3444   1
  -5  -2   8 48.7423 7.32699   6
   4   2  -8 703.244 26.4407   6
   4   2  -8 741.668 26.6714   5
   4   2  -8 756.653 28.9267   4
   4   2  -8 718.725 29.2495   1
  -4  -2   8 750.050 22.4779   6
  -4  -2   8 757.617 23.0154   6
   3   2  -8 3.42185 5.97665   1
   3   2  -8 -3.9304 4.48347   6
   3   2  -8 6.77011 5.29188   6
   3   2  -8 0.91870 4.80032   5
  -3  -2   8 -0.3558 3.72944   6
  -3  -2   8 8.37289 5.31706   1
  -3  -2   8 2.23483 4.04685   6
   2   2  -8 1618.57 41.6339   1
   2   2  -8 1577.08 39.8320   6
   2   2  -8 1643.46 43.4570   4
   2   2  -8 1552.97 41.8898   5
   2   2  -8 1481.89 39.6730   6
  -2  -2   8 1533.32 36.1919   6
  -2  -2   8 1595.84 36.9071   6
  -2  -2   8 1588.87 40.8369   1
   1   2  -8 3.42218 4.40406   6
   1   2  -8 1.51902 4.20603   5
   1   2  -8 -0.3124 3.50720   6
   1   2  -8 -1.7292 4.59518   4
  -1  -2   8 12.5865 4.95482   4
  -1  -2   8 -1.4292 3.57384   1
  -1  -2   8 2.21417 3.54553   6
  -1  -2   8 1.33384 3.20634   6
   0   2  -8 104.379 9.43171   6
   0   2  -8 122.095 11.0667   4
   0   2  -8 113.052 9.53910   6
   0   2  -8 131.906 14.4134   3
   0   2  -8 120.578 11.0002   5
   0  -2   8 110.310 8.37200   6
   0  -2   8 115.593 7.91883   1
   0  -2   8 115.449 10.5182   4
   0  -2   8 113.384 8.46160   6
  -1   2  -8 1719.79 42.6263   6
  -1   2  -8 1792.53 47.8208   3
  -1   2  -8 1769.14 40.2966   2
  -1   2  -8 1794.06 45.6260   4
   1  -2   8 1847.22 41.3989   6
   1  -2   8 1776.81 40.5208   2
   1  -2   8 1772.51 37.9338   1
   1  -2   8 1847.83 45.0919   4
   1  -2   8 1858.34 41.2723   6
  -2   2  -8 -4.9910 3.60720   6
  -2   2  -8 -1.4786 3.55690   2
  -2   2  -8 2.69425 4.27472   6
  -2   2  -8 8.23456 4.72612   4
  -2   2  -8 -0.0893 4.96399   3
   2  -2   8 4.97085 4.53727   2
   2  -2   8 6.56454 4.30210   4
   2  -2   8 -0.0172 3.76721   6
   2  -2   8 8.91387 4.74607   6
   2  -2   8 -0.8369 2.73643   1
  -3   2  -8 326.195 15.2812   6
  -3   2  -8 306.639 15.5248   2
  -3   2  -8 330.971 16.8663   4
  -3   2  -8 323.148 15.7354   6
  -3   2  -8 320.761 18.3002   3
   3  -2   8 278.471 13.7958   6
   3  -2   8 323.366 11.1582   1
   3  -2   8 324.446 16.8057   2
   3  -2   8 336.648 15.3800   6
   3  -2   8 309.823 16.6197   3
   3  -2   8 294.996 15.7509   4
  -4   2  -8 290.707 17.1042   2
  -4   2  -8 308.679 18.5332   3
  -4   2  -8 287.747 15.9690   6
  -4   2  -8 289.557 15.7172   6
   4  -2   8 308.281 15.7625   4
   4  -2   8 278.272 12.0255   1
   4  -2   8 308.682 17.1049   3
   4  -2   8 305.211 14.8112   6
   4  -2   8 289.199 15.7685   6
  -5   2  -8 543.693 24.4085   2
  -5   2  -8 497.818 22.7272   6
  -5   2  -8 556.531 22.4517   6
  -5   2  -8 512.804 24.8655   3
   5  -2   8 470.976 17.9138   1
   5  -2   8 507.295 21.8502   6
  -6   2  -8 51.4436 10.6779   2
  -6   2  -8 63.8815 10.4819   6
  -6   2  -8 72.8891 11.4341   6
  -6   2  -8 62.8658 12.0395   3
   6  -2   8 41.4531 9.28370   6
   6  -2   8 74.0845 12.9772   3
   6  -2   8 48.9091 8.17153   4
   6  -2   8 63.3014 8.48770   1
   6  -2   8 58.5364 9.31866   6
  -7   2  -8 99.5361 13.0805   6
  -7   2  -8 80.1672 11.9067   5
  -7   2  -8 94.8730 14.8014   3
   7  -2   8 86.8613 12.1230   6
   7  -2   8 80.3152 12.7463   6
   7  -2   8 81.0368 13.2674   3
   7  -2   8 99.4146 12.4569   4
   7  -2   8 99.5324 12.1200   1
  -8   2  -8 93.1851 12.8710   6
  -8   2  -8 139.457 15.9130   5
  -8   2  -8 107.068 17.1956   3
   8  -2   8 104.293 13.3256   1
   8  -2   8 91.4855 17.1946   6
   6   1  -8 110.500 12.0464   5
   6   1  -8 130.745 17.8091   1
   6   1  -8 110.594 13.5365   4
   6   1  -8 86.4207 11.1752   6
  -6  -1   8 92.9224 12.0808   6
  -6  -1   8 94.0278 13.2038   6
   5   1  -8 9.04220 6.05421   4
   5   1  -8 8.67313 5.67210   5
   5   1  -8 7.43772 5.38612   6
   5   1  -8 7.26493 7.09149   1
   5   1  -8 8.84725 6.99628   6
  -5  -1   8 8.03171 4.72352   6
  -5  -1   8 -1.2758 7.76319   1
  -5  -1   8 0.32444 4.83264   6
   4   1  -8 1384.26 42.7245   1
   4   1  -8 1377.63 39.1649   5
   4   1  -8 1398.25 40.6662   4
   4   1  -8 1373.31 39.1996   6
   4   1  -8 1507.84 48.1275   6
  -4  -1   8 1318.79 35.5779   6
  -4  -1   8 1383.70 36.4422   6
   3   1  -8 24.9582 7.71230   1
   3   1  -8 30.5309 7.05901   6
   3   1  -8 27.9263 7.18680   4
   3   1  -8 30.6667 7.35402   6
   3   1  -8 25.7623 7.31131   5
  -3  -1   8 19.5572 6.05623   6
  -3  -1   8 28.6658 7.90565   4
  -3  -1   8 36.1287 8.51175   1
  -3  -1   8 19.5482 6.82427   6
   2   1  -8 791.378 25.1611   6
   2   1  -8 836.672 27.7188   1
   2   1  -8 811.208 25.7265   6
   2   1  -8 883.104 27.8394   5
   2   1  -8 842.152 27.6296   4
  -2  -1   8 808.931 23.8256   6
  -2  -1   8 833.918 24.4125   6
  -2  -1   8 742.791 27.0026   4
  -2  -1   8 847.155 27.3510   1
   1   1  -8 884.433 27.9068   4
   1   1  -8 874.464 28.2975   5
   1   1  -8 909.076 26.6641   6
  -1  -1   8 913.747 25.3395   6
  -1  -1   8 861.389 26.2720   1
  -1  -1   8 903.208 24.9465   6
  -1  -1   8 885.476 28.3274   4
   0   1  -8 29.7858 6.02610   6
   0   1  -8 42.0966 5.77180   2
   0   1  -8 28.0083 6.62092   4
   0   1  -8 44.1392 8.65583   3
   0   1  -8 43.0122 7.04942   6
   0  -1   8 40.8241 7.21741   4
   0  -1   8 38.3209 6.30738   6
   0  -1   8 25.9218 5.31965   1
   0  -1   8 35.0159 5.07843   2
   0  -1   8 38.5478 6.44343   6
  -1   1  -8 5838.31 109.837   2
  -1   1  -8 5920.13 112.508   6
  -1   1  -8 5754.00 116.262   3
  -1   1  -8 5857.62 115.060   4
  -1   1  -8 5611.79 112.149   6
   1  -1   8 5882.73 111.380   6
   1  -1   8 5842.66 111.270   6
   1  -1   8 5894.10 110.093   2
   1  -1   8 5756.76 109.198   1
  -2   1  -8 5.12964 4.70352   3
  -2   1  -8 -1.8954 4.16631   6
  -2   1  -8 0.85384 4.49051   4
  -2   1  -8 6.43657 4.67676   6
  -2   1  -8 9.95775 4.00075   2
   2  -1   8 0.17450 4.51747   4
   2  -1   8 8.07385 4.60715   2
   2  -1   8 6.88462 4.22024   6
   2  -1   8 6.39514 4.01965   6
  -3   1  -8 66.9059 9.10276   4
  -3   1  -8 78.5936 12.3194   2
  -3   1  -8 66.2075 8.27032   6
  -3   1  -8 84.1996 9.42628   6
  -3   1  -8 88.0904 10.4048   3
   3  -1   8 65.4729 6.74137   1
   3  -1   8 78.7567 10.2339   2
   3  -1   8 75.6842 8.91507   6
   3  -1   8 81.9943 8.63440   6
   3  -1   8 79.4630 9.05356   4
  -4   1  -8 1782.41 47.3571   3
  -4   1  -8 1866.58 44.8479   6
  -4   1  -8 1765.47 46.4266   2
   4  -1   8 1750.32 46.6817   2
   4  -1   8 1778.23 41.3184   1
   4  -1   8 1776.98 44.4735   4
   4  -1   8 1819.37 43.0675   6
   4  -1   8 1808.85 45.0088   6
   4  -1   8 1813.58 46.2044   3
  -5   1  -8 10.1267 6.00886   6
  -5   1  -8 7.71682 6.65355   2
  -5   1  -8 10.7029 6.97360   3
   5  -1   8 5.35209 5.89529   6
   5  -1   8 14.6444 5.55393   1
   5  -1   8 8.83461 6.26112   3
   5  -1   8 13.7541 7.32484   2
   5  -1   8 14.5962 5.46507   4
  -6   1  -8 335.847 18.8315   6
  -6   1  -8 321.158 18.4714   6
  -6   1  -8 357.347 20.9532   2
  -6   1  -8 371.109 33.4067   3
   6  -1   8 356.819 19.7747   3
   6  -1   8 335.466 18.4250   4
   6  -1   8 320.677 19.2068   6
   6  -1   8 355.259 17.6761   6
   6  -1   8 373.682 18.5531   1
   6  -1   8 372.711 22.2568   2
  -7   1  -8 158.669 15.9112   6
  -7   1  -8 123.946 13.3799   6
  -7   1  -8 152.408 18.6412   2
  -7   1  -8 199.695 18.6945   3
   7  -1   8 148.073 15.5283   6
   7  -1   8 179.264 14.9768   1
   7  -1   8 161.350 14.1358   6
   7  -1   8 174.319 15.8230   4
   7  -1   8 151.849 16.4651   3
  -8   1  -8 95.2613 12.8596   5
  -8   1  -8 97.5792 16.7345   3
  -8   1  -8 112.802 13.4256   6
   8  -1   8 105.516 14.9218   1
   8  -1   8 106.925 13.8257   6
   7   0  -8 237.268 18.5469   4
   7   0  -8 225.119 17.8453   6
   7   0  -8 228.311 22.0248   1
   7   0  -8 207.577 17.2306   5
  -7   0   8 207.477 17.1793   6
  -7   0   8 237.023 17.8061   6
   6   0  -8 72.9056 10.8831   5
   6   0  -8 44.2172 10.8297   4
   6   0  -8 56.2835 9.45034   6
   6   0  -8 42.7413 11.4948   1
  -6   0   8 56.6869 9.25039   6
  -6   0   8 51.4181 10.0582   6
   5   0  -8 31.3083 10.0419   1
   5   0  -8 31.6066 8.30433   4
   5   0  -8 31.5037 7.72479   6
   5   0  -8 10.2869 9.10026   6
   5   0  -8 30.7177 9.63732   3
   5   0  -8 39.9452 8.81739   5
  -5   0   8 42.2710 8.17900   5
  -5   0   8 25.9902 7.46916   6
   4   0  -8 1012.89 32.1845   4
   4   0  -8 969.084 30.7729   6
   4   0  -8 956.958 33.1930   6
   4   0  -8 953.866 34.7014   1
   4   0  -8 979.966 31.4316   5
  -4   0   8 1042.20 32.3885   5
  -4   0   8 994.375 29.9173   6
  -4   0   8 970.907 29.5875   6
   3   0  -8 920.369 29.3843   5
   3   0  -8 887.822 27.7795   6
   3   0  -8 948.575 29.4933   4
   3   0  -8 890.087 28.1211   6
   3   0  -8 887.796 31.2325   1
  -3   0   8 915.852 27.5122   6
  -3   0   8 903.209 29.9147   4
  -3   0   8 879.688 30.8451   1
  -3   0   8 908.340 27.4297   6
   2   0  -8 110.859 11.0115   1
   2   0  -8 121.288 12.4590   5
   2   0  -8 133.347 10.2625   6
   2   0  -8 113.111 9.47771   6
   2   0  -8 122.140 12.1731   4
  -2   0   8 113.761 10.4322   4
  -2   0   8 113.710 9.32606   6
  -2   0   8 91.1428 8.80006   6
  -2   0   8 114.470 10.8308   1
   1   0  -8 430.938 17.0586   6
   1   0  -8 430.046 17.2194   6
   1   0  -8 419.155 18.1523   5
   1   0  -8 413.450 17.4193   4
  -1   0   8 415.359 25.8607   4
  -1   0   8 416.872 17.3341   1
  -1   0   8 410.186 16.1668   6
  -1   0   8 405.773 16.0778   6
  -1   0   8 434.943 13.5717   2
   0   0  -8 79.9368 9.72989   4
   0   0  -8 66.6548 6.71459   2
   0   0  -8 77.6794 9.75889   5
   0   0  -8 85.3000 9.10163   6
   0   0  -8 81.0586 8.61334   6
   0   0   8 75.2897 7.16393   2
   0   0   8 73.7792 8.90318   4
   0   0   8 81.7108 8.85388   6
   0   0   8 76.5985 8.38902   6
   0   0   8 72.3016 8.61266   1
  -1   0  -8 2731.08 58.2472   6
  -1   0  -8 2654.23 58.2272   6
  -1   0  -8 2710.33 60.0369   3
  -1   0  -8 2765.75 56.9869   2
  -1   0  -8 2636.69 59.5864   4
  -1   0  -8 2642.69 59.7977   5
   1   0   8 2782.93 58.2742   6
   1   0   8 2746.84 56.7896   2
   1   0   8 2660.85 59.2221   4
  -2   0  -8 12.5332 4.83433   3
  -2   0  -8 18.3911 4.69214   6
  -2   0  -8 27.4326 5.40299   6
  -2   0  -8 23.4963 6.18792   5
  -2   0  -8 20.7620 5.08704   2
  -2   0  -8 17.2310 5.23673   4
   2   0   8 13.0724 4.67198   6
   2   0   8 12.2244 3.94662   6
   2   0   8 14.8744 5.00638   4
   2   0   8 13.6674 5.08565   2
  -3   0  -8 25.8719 6.10270   2
  -3   0  -8 27.1345 5.88508   6
  -3   0  -8 29.6094 6.37950   4
  -3   0  -8 18.6724 5.30492   6
  -3   0  -8 24.8999 5.97662   3
   3   0   8 44.3326 7.31576   3
   3   0   8 42.6894 7.32672   2
   3   0   8 33.1868 6.01288   6
   3   0   8 50.2453 6.76932   1
   3   0   8 30.7506 6.00766   4
   3   0   8 34.6238 6.62935   6
  -4   0  -8 3386.83 76.3914   2
  -4   0  -8 3509.15 73.3502   6
  -4   0  -8 3486.98 75.4495   3
  -4   0  -8 3410.11 74.1709   6
   4   0   8 3533.70 72.4320   6
   4   0   8 3427.91 73.8381   4
   4   0   8 3496.30 72.6142   1
   4   0   8 3530.51 77.4188   2
   4   0   8 3600.68 75.3126   6
   4   0   8 3506.50 74.2821   3
  -5   0  -8 4.77915 5.98177   3
  -5   0  -8 1.70618 4.40807   6
  -5   0  -8 5.89269 5.40144   6
  -5   0  -8 12.6400 6.13465   2
   5   0   8 9.47337 5.54588   4
   5   0   8 1.22300 6.17668   2
   5   0   8 8.63402 5.72986   3
   5   0   8 7.27748 5.97377   6
   5   0   8 3.23580 5.42446   1
  -6   0  -8 263.759 16.1964   6
  -6   0  -8 227.942 16.9241   3
  -6   0  -8 233.426 15.2192   6
  -6   0  -8 253.193 23.4359   2
   6   0   8 261.031 18.0448   2
   6   0   8 255.736 15.0784   6
   6   0   8 260.453 16.4086   1
   6   0   8 233.130 16.0176   3
   6   0   8 236.719 15.5190   4
   6   0   8 266.450 17.1297   6
  -7   0  -8 593.538 28.9814   2
  -7   0  -8 677.296 29.7337   3
  -7   0  -8 697.799 27.3936   6
  -7   0  -8 656.652 26.5674   6
   7   0   8 663.781 29.9579   2
   7   0   8 638.088 27.3890   3
   7   0   8 622.283 25.5794   6
   7   0   8 691.464 27.6647   4
   7   0   8 685.618 27.9635   6
   7   0   8 676.735 28.6385   1
  -8   0  -8 53.2285 10.2398   5
  -8   0  -8 47.4774 11.8863   3
  -8   0  -8 44.1665 10.1356   6
   8   0   8 42.0539 10.2835   6
   8   0   8 36.8916 10.5207   1
   8   0   8 36.2344 11.4325   3
   7  -1  -8 69.4914 14.7012   1
   7  -1  -8 47.7113 11.6510   5
   7  -1  -8 43.2275 9.91076   6
   7  -1  -8 55.4093 11.5801   4
  -7   1   8 50.3329 10.0666   6
  -7   1   8 60.3341 9.45328   2
  -7   1   8 73.3438 11.5334   5
   6  -1  -8 22.4457 7.97987   5
   6  -1  -8 28.0909 9.60749   1
   6  -1  -8 13.8697 7.28744   4
   6  -1  -8 34.8920 9.10560   6
  -6   1   8 35.1239 8.81719   6
  -6   1   8 44.6538 8.17649   2
  -6   1   8 21.0261 7.57231   6
   5  -1  -8 51.9855 11.0345   1
   5  -1  -8 71.1089 9.79102   6
   5  -1  -8 80.8248 14.9261   6
   5  -1  -8 84.5613 11.6412   4
   5  -1  -8 64.2167 10.4561   5
  -5   1   8 53.3802 9.44956   6
  -5   1   8 74.4958 9.93197   6
  -5   1   8 65.8813 8.46456   2
  -5   1   8 89.4244 11.7390   5
   4  -1  -8 904.950 31.3100   6
   4  -1  -8 800.407 28.0088   5
   4  -1  -8 823.654 27.6998   6
   4  -1  -8 823.658 32.0320   1
   4  -1  -8 835.311 28.1339   4
  -4   1   8 837.613 27.5563   6
  -4   1   8 857.051 24.4655   2
  -4   1   8 782.702 27.1520   6
  -4   1   8 826.223 28.8044   5
   3  -1  -8 822.817 28.0859   5
   3  -1  -8 910.788 31.9024   1
   3  -1  -8 888.097 27.7646   6
   3  -1  -8 879.366 27.9240   4
   3  -1  -8 870.400 27.6131   6
  -3   1   8 863.993 30.9267   1
  -3   1   8 906.998 27.8506   6
  -3   1   8 932.511 29.4164   5
  -3   1   8 888.271 28.8744   4
  -3   1   8 927.849 27.8528   6
   2  -1  -8 177.684 11.6295   6
   2  -1  -8 184.519 11.8293   4
   2  -1  -8 163.383 10.8088   6
   2  -1  -8 164.509 11.9682   5
  -2   1   8 173.581 11.1253   6
  -2   1   8 166.522 9.50188   2
  -2   1   8 183.220 11.2042   6
  -2   1   8 179.032 12.5158   5
  -2   1   8 165.958 15.5297   1
   1  -1  -8 1276.74 33.7178   6
   1  -1  -8 1274.86 33.8578   4
   1  -1  -8 1286.81 35.1190   5
   1  -1  -8 1322.10 33.5200   6
  -1   1   8 1298.70 30.8737   2
  -1   1   8 1291.84 35.4706   5
  -1   1   8 1287.14 34.3601   4
  -1   1   8 1247.18 33.1288   6
  -1   1   8 1307.29 33.4642   6
  -1   1   8 1282.88 35.6152   1
   0  -1  -8 1190.51 31.0687   6
   0  -1  -8 1152.80 29.7085   2
   0  -1  -8 1124.08 30.2011   6
   0  -1  -8 1165.53 31.3793   4
   0  -1  -8 1171.10 32.2159   5
   0   1   8 1142.44 32.1667   1
   0   1   8 1176.62 31.5886   2
   0   1   8 1166.86 31.4283   4
   0   1   8 1177.90 30.6884   6
   0   1   8 1160.17 30.7866   6
  -1  -1  -8 1460.86 35.3785   2
  -1  -1  -8 1410.64 35.0529   6
  -1  -1  -8 1415.98 36.5467   5
  -1  -1  -8 1361.21 34.4005   6
  -1  -1  -8 1467.86 36.3508   4
  -1  -1  -8 1375.79 34.7838   3
   1   1   8 1389.30 35.1101   6
   1   1   8 1390.37 34.6044   2
   1   1   8 1419.91 35.2551   4
   1   1   8 1361.30 34.2636   6
  -2  -1  -8 106.999 9.18521   4
  -2  -1  -8 101.976 8.59980   6
  -2  -1  -8 107.085 9.67638   5
  -2  -1  -8 91.1247 8.13443   6
  -2  -1  -8 98.5432 8.81513   2
  -2  -1  -8 113.288 8.83176   3
   2   1   8 115.361 9.16572   6
   2   1   8 118.024 9.05877   4
   2   1   8 109.233 8.07606   6
   2   1   8 104.600 9.30667   2
  -3  -1  -8 4.66341 4.40334   2
  -3  -1  -8 10.0358 4.49784   6
  -3  -1  -8 6.35583 4.38621   5
  -3  -1  -8 5.56365 4.40080   3
   3   1   8 -0.5013 4.61917   2
   3   1   8 3.09062 4.27146   3
   3   1   8 0.33906 4.48263   6
   3   1   8 1.39663 3.67078   6
   3   1   8 4.46369 3.96782   4
  -4  -1  -8 3212.88 68.8581   5
  -4  -1  -8 3187.09 71.8355   2
  -4  -1  -8 3289.90 68.2970   6
  -4  -1  -8 3284.41 68.8721   3
  -4  -1  -8 3183.92 69.0551   6
   4   1   8 3174.97 69.1980   4
   4   1   8 3276.23 67.9688   3
   4   1   8 3240.50 72.6121   2
   4   1   8 3219.72 67.5522   6
   4   1   8 3277.52 70.4188   6
   4   1   8 3249.46 69.7657   1
  -5  -1  -8 151.424 11.2246   5
  -5  -1  -8 150.797 11.6552   6
  -5  -1  -8 151.513 11.6738   6
  -5  -1  -8 148.639 12.5569   3
   5   1   8 132.334 12.0040   6
   5   1   8 125.267 11.9490   1
   5   1   8 141.311 11.5111   4
   5   1   8 134.942 13.1315   2
  -6  -1  -8 60.8675 11.5150   6
  -6  -1  -8 52.5684 9.48768   3
  -6  -1  -8 58.0283 8.59764   5
  -6  -1  -8 67.7655 9.73050   6
   6   1   8 61.1682 10.7548   2
   6   1   8 65.1464 10.1710   4
   6   1   8 75.3537 10.8059   1
   6   1   8 55.5261 9.89300   6
   6   1   8 67.9546 9.64648   3
  -7  -1  -8 781.459 28.8949   5
  -7  -1  -8 793.161 34.1378   6
  -7  -1  -8 743.353 36.9171   3
  -7  -1  -8 860.192 33.8919   2
  -7  -1  -8 807.646 28.9941   6
   7   1   8 824.158 33.9180   2
   7   1   8 780.884 30.0197   4
   7   1   8 869.873 29.3084   6
   7   1   8 840.319 31.0255   6
   7   1   8 888.965 30.6409   3
   7   1   8 864.495 32.4902   1
  -8  -1  -8 7.03005 7.12656   6
  -8  -1  -8 12.8771 7.00522   5
  -8  -1  -8 -1.5414 9.13469   3
  -8  -1  -8 -6.0111 8.10816   6
   8   1   8 6.27912 8.21380   6
   8   1   8 2.41987 9.02636   2
   8   1   8 4.83307 8.22028   1
   8   1   8 14.2697 9.47511   3
   7  -2  -8 19.5691 7.48533   6
   7  -2  -8 -5.2447 9.24824   1
   7  -2  -8 8.11263 8.50462   4
   7  -2  -8 4.39566 9.11022   5
  -7   2   8 7.14321 9.03566   5
  -7   2   8 14.8297 7.92981   6
   6  -2  -8 8.88870 6.75530   6
   6  -2  -8 2.01463 5.80423   4
   6  -2  -8 9.21409 7.44011   5
   6  -2  -8 3.24420 7.15165   1
  -6   2   8 12.6184 7.63496   6
  -6   2   8 7.17498 7.23681   2
  -6   2   8 3.01479 7.54599   5
  -6   2   8 -2.9816 5.93252   6
   5  -2  -8 -0.3016 5.41586   6
   5  -2  -8 4.79426 6.97771   3
   5  -2  -8 2.09316 6.02802   6
   5  -2  -8 1.16381 6.12885   5
   5  -2  -8 5.19477 5.41097   4
   5  -2  -8 5.31637 7.11536   1
  -5   2   8 12.5337 8.85709   1
  -5   2   8 3.63125 5.25871   6
  -5   2   8 4.97091 5.42172   6
   4  -2  -8 66.1070 11.0803   1
   4  -2  -8 121.739 13.1424   5
   4  -2  -8 91.2953 10.2622   4
   4  -2  -8 92.7224 14.1880   6
  -4   2   8 129.230 14.2322   5
  -4   2   8 108.804 11.3933   6
  -4   2   8 145.738 23.4639   1
   3  -2  -8 269.223 15.1015   5
   3  -2  -8 264.460 17.5045   1
   3  -2  -8 249.953 13.9071   4
   3  -2  -8 212.855 13.3857   6
  -3   2   8 244.712 13.4829   4
  -3   2   8 248.600 13.2018   2
  -3   2   8 214.099 13.3910   6
  -3   2   8 229.156 16.0038   1
  -3   2   8 264.059 14.2542   6
  -3   2   8 221.298 14.7338   5
   2  -2  -8 106.236 11.3361   5
   2  -2  -8 100.694 8.76709   6
   2  -2  -8 93.6448 9.67962   4
   2  -2  -8 94.7286 10.1307   6
  -2   2   8 122.595 12.7129   5
  -2   2   8 94.8355 8.97092   4
  -2   2   8 104.112 9.04602   2
  -2   2   8 112.315 11.2335   6
  -2   2   8 85.9060 9.43942   6
  -2   2   8 112.199 13.3371   1
   1  -2  -8 1174.83 31.6220   6
   1  -2  -8 1135.93 30.5698   6
   1  -2  -8 1167.65 30.7335   4
   1  -2  -8 1166.97 32.7469   5
  -1   2   8 1156.76 31.5133   6
  -1   2   8 1184.76 34.7030   1
  -1   2   8 1196.00 31.3696   6
  -1   2   8 1164.84 31.3029   4
  -1   2   8 1178.23 30.6471   2
  -1   2   8 1161.11 32.9333   5
   0  -2  -8 1081.45 29.2136   6
   0  -2  -8 1079.08 29.0296   4
   0  -2  -8 1115.71 30.7593   5
   0  -2  -8 1055.89 28.5799   6
   0  -2  -8 1051.72 29.3936   2
   0   2   8 1087.08 29.2434   4
   0   2   8 1086.29 29.4073   6
   0   2   8 1134.83 29.5010   2
   0   2   8 1072.59 32.0911   1
   0   2   8 1051.90 30.5747   5
   0   2   8 1099.54 29.5655   6
  -1  -2  -8 23.5716 5.83773   5
  -1  -2  -8 30.9776 5.54614   3
  -1  -2  -8 23.4003 5.01091   6
  -1  -2  -8 41.1804 6.29538   4
  -1  -2  -8 30.6434 5.55655   6
  -1  -2  -8 34.2042 6.61165   2
   1   2   8 23.8997 5.26403   6
   1   2   8 24.9643 5.64473   4
   1   2   8 27.4752 5.58332   6
   1   2   8 32.9918 6.70282   5
   1   2   8 33.3845 6.20398   2
  -2  -2  -8 41.3406 5.81406   3
  -2  -2  -8 53.7225 6.92631   6
  -2  -2  -8 58.1140 8.01218   5
  -2  -2  -8 50.3378 7.02163   6
  -2  -2  -8 41.5032 6.83710   2
  -2  -2  -8 46.7257 6.70636   4
   2   2   8 39.3069 5.69632   4
   2   2   8 50.2644 6.98084   6
   2   2   8 49.6119 6.42147   6
   2   2   8 54.7740 7.87861   2
  -3  -2  -8 4.30550 4.44762   5
  -3  -2  -8 10.9469 4.04260   3
  -3  -2  -8 -1.6311 3.33486   6
  -3  -2  -8 5.31008 3.98517   6
   3   2   8 4.15842 4.15574   6
   3   2   8 9.49519 3.87870   3
   3   2   8 9.90659 5.30128   2
  -4  -2  -8 418.621 19.5476   2
  -4  -2  -8 428.645 17.2105   6
  -4  -2  -8 402.584 15.9200   3
  -4  -2  -8 400.418 16.5339   5
  -4  -2  -8 438.414 16.8174   6
   4   2   8 420.932 19.6940   2
   4   2   8 399.351 17.4146   4
   4   2   8 407.373 16.3811   6
   4   2   8 444.941 19.1766   1
   4   2   8 433.582 15.5978   3
   4   2   8 426.071 18.4709   6
  -5  -2  -8 194.209 12.3937   6
  -5  -2  -8 186.687 12.2734   3
  -5  -2  -8 187.287 12.1834   6
  -5  -2  -8 166.172 11.0612   5
   5   2   8 173.396 11.7331   6
   5   2   8 200.391 15.0705   2
   5   2   8 184.741 11.6127   3
   5   2   8 188.988 13.6883   1
   5   2   8 203.507 14.0568   6
  -6  -2  -8 90.4375 11.3315   3
  -6  -2  -8 113.695 10.1093   5
  -6  -2  -8 66.3899 11.0780   2
  -6  -2  -8 100.088 10.9346   6
   6   2   8 87.2855 11.5147   4
   6   2   8 89.7390 11.4452   6
   6   2   8 104.934 13.7925   2
   6   2   8 91.2741 9.61806   3
   6   2   8 90.3520 11.8556   1
   6   2   8 80.4411 9.98068   6
  -7  -2  -8 821.968 28.5022   6
  -7  -2  -8 797.670 23.9134   5
  -7  -2  -8 818.063 30.9944   3
  -7  -2  -8 786.736 27.5717   6
  -7  -2  -8 772.737 32.3376   2
   7   2   8 778.097 30.1455   6
   7   2   8 817.014 33.2256   2
   7   2   8 742.029 27.9254   3
   7   2   8 738.831 29.2390   4
   7   2   8 794.827 32.3877   1
   7   2   8 796.855 27.9595   6
  -8  -2  -8 59.6310 10.0773   6
  -8  -2  -8 59.3321 7.22207   5
  -8  -2  -8 68.8309 11.7916   6
   8   2   8 86.2898 15.5882   3
   8   2   8 60.0693 13.2800   1
   8   2   8 71.8001 13.2185   2
   8   2   8 40.0064 11.1193   6
   7  -3  -8 216.679 17.3033   4
   7  -3  -8 239.120 22.4634   1
   7  -3  -8 232.793 20.4997   5
   7  -3  -8 241.555 17.5627   6
  -7   3   8 224.076 18.7915   5
  -7   3   8 245.533 21.3197   2
   6  -3  -8 15.5857 7.19211   6
   6  -3  -8 11.0854 7.51450   4
   6  -3  -8 3.98781 6.16366   1
   6  -3  -8 26.4516 15.7481   5
  -6   3   8 9.76490 6.44615   6
  -6   3   8 13.4947 8.41132   5
   5  -3  -8 10.1035 7.60158   1
   5  -3  -8 6.09587 5.53204   6
   5  -3  -8 -2.0776 5.01303   4
   5  -3  -8 7.26609 6.38514   6
   5  -3  -8 2.60725 6.17333   5
   5  -3  -8 -0.8083 7.06593   3
  -5   3   8 -3.9485 4.99154   6
  -5   3   8 3.16305 6.94058   1
  -5   3   8 -2.2789 5.89404   6
  -5   3   8 -2.0377 5.42634   5
   4  -3  -8 146.582 11.5167   4
   4  -3  -8 129.679 15.0505   3
   4  -3  -8 132.285 15.7785   1
   4  -3  -8 149.909 12.6723   5
   4  -3  -8 134.280 11.2527   6
  -4   3   8 132.490 12.9921   5
  -4   3   8 135.780 12.1802   6
   3  -3  -8 176.326 11.6234   6
   3  -3  -8 186.428 11.7291   4
   3  -3  -8 178.928 12.8858   5
   3  -3  -8 159.218 12.8763   3
   3  -3  -8 168.056 12.0867   6
  -3   3   8 164.723 11.9850   6
  -3   3   8 172.581 13.5635   5
  -3   3   8 169.784 12.3753   2
  -3   3   8 175.244 11.1967   4
   2  -3  -8 553.554 18.5899   4
   2  -3  -8 523.170 20.1996   3
   2  -3  -8 510.815 18.7663   6
   2  -3  -8 524.733 20.8622   5
  -2   3   8 496.504 22.1176   1
  -2   3   8 494.824 19.5768   6
  -2   3   8 550.240 21.4437   5
  -2   3   8 521.589 18.6048   4
  -2   3   8 527.933 19.8358   2
  -2   3   8 534.522 19.9600   6
   1  -3  -8 153.278 9.98888   6
   1  -3  -8 150.095 9.50276   4
   1  -3  -8 110.316 9.50567   6
  -1   3   8 141.731 10.0319   6
  -1   3   8 156.855 11.6838   5
  -1   3   8 147.532 9.62009   4
  -1   3   8 163.990 16.3051   1
  -1   3   8 150.822 10.7217   2
   0  -3  -8 346.475 14.2246   6
   0  -3  -8 357.998 14.9025   6
   0  -3  -8 347.307 14.0351   4
   0  -3  -8 356.195 16.0460   5
   0   3   8 375.589 15.4637   6
   0   3   8 364.241 15.8660   2
   0   3   8 365.509 16.2644   5
   0   3   8 355.947 14.4713   4
   0   3   8 383.159 15.2168   6
  -1  -3  -8 844.112 23.6780   6
  -1  -3  -8 821.467 20.9869   3
  -1  -3  -8 877.430 24.3541   4
  -1  -3  -8 837.409 25.4266   5
  -1  -3  -8 808.640 26.2476   2
  -1  -3  -8 862.611 23.7590   6
   1   3   8 790.989 24.5174   6
   1   3   8 868.669 25.9167   5
   1   3   8 819.378 23.3073   4
   1   3   8 870.333 26.5982   2
   1   3   8 852.859 24.3404   6
  -2  -3  -8 350.684 13.7111   6
  -2  -3  -8 324.760 16.0496   2
  -2  -3  -8 365.375 15.2916   5
  -2  -3  -8 349.503 14.1738   6
   2   3   8 362.201 14.5678   4
   2   3   8 346.614 16.6087   2
   2   3   8 357.002 15.3480   6
   2   3   8 353.443 14.0007   6
   2   3   8 359.190 15.8792   5
  -3  -3  -8 31.4009 5.55442   6
  -3  -3  -8 35.7861 6.34439   5
  -3  -3  -8 45.6840 7.89097   2
  -3  -3  -8 47.1353 5.18739   3
  -3  -3  -8 44.1672 6.75004   6
   3   3   8 49.4140 8.42137   2
   3   3   8 57.3349 7.45167   6
   3   3   8 37.4381 7.05872   6
  -4  -3  -8 -2.0865 3.77196   3
  -4  -3  -8 3.54276 3.21948   2
  -4  -3  -8 4.50852 4.15843   5
  -4  -3  -8 -1.4800 3.61736   6
  -4  -3  -8 1.12370 4.27983   6
   4   3   8 2.81780 3.30044   6
   4   3   8 -2.9976 4.17390   6
   4   3   8 3.09323 3.11739   3
   4   3   8 -0.4468 4.47787   4
   4   3   8 3.19544 5.24817   2
   4   3   8 -2.5192 4.68299   1
  -5  -3  -8 285.623 12.9881   5
  -5  -3  -8 272.177 13.5746   3
  -5  -3  -8 323.755 14.7266   6
  -5  -3  -8 297.329 14.6615   6
   5   3   8 297.937 16.4381   6
   5   3   8 301.608 13.4501   3
   5   3   8 280.285 17.6170   2
   5   3   8 295.101 17.7875   1
   5   3   8 310.885 14.7770   6
  -6  -3  -8 124.265 9.35155   5
  -6  -3  -8 106.417 10.2988   6
  -6  -3  -8 121.802 11.2181   6
  -6  -3  -8 131.530 12.5914   3
   6   3   8 129.139 15.8999   2
   6   3   8 144.647 11.8279   6
   6   3   8 130.722 10.9398   3
   6   3   8 116.831 12.6252   6
   6   3   8 129.712 16.1048   1
  -7  -3  -8 94.3959 13.1755   2
  -7  -3  -8 85.6594 10.1623   6
   7   3   8 83.3929 12.6886   1
   7   3   8 109.618 13.3532   4
   7   3   8 96.0632 12.1187   6
   7   3   8 93.4255 11.2761   6
   7   3   8 104.633 15.0887   2
   7   3   8 132.028 12.2346   3
  -8  -3  -8 148.225 14.5938   6
  -8  -3  -8 151.980 14.6576   6
   8   3   8 125.850 15.9503   2
   8   3   8 149.451 18.9062   1
   8   3   8 146.561 15.3310   3
   8   3   8 142.110 15.8335   6
   7  -4  -8 390.010 28.2434   1
   7  -4  -8 389.455 20.4010   4
   7  -4  -8 374.571 22.6066   6
  -7   4   8 416.775 22.8881   6
  -7   4   8 400.135 23.5668   5
  -7   4   8 409.776 26.5234   2
   6  -4  -8 71.7929 12.3238   5
   6  -4  -8 49.9087 9.31283   4
   6  -4  -8 39.7424 8.98969   6
   6  -4  -8 63.7752 14.6105   1
  -6   4   8 51.9275 9.71604   5
  -6   4   8 44.4473 9.77427   6
   5  -4  -8 37.1606 7.78016   4
   5  -4  -8 41.0626 8.90423   6
   5  -4  -8 33.0756 9.32050   3
   5  -4  -8 27.0497 7.37474   6
   5  -4  -8 26.1357 8.65238   5
  -5   4   8 34.1330 7.83834   6
  -5   4   8 20.9772 7.97172   6
  -5   4   8 34.0171 8.99144   5
  -5   4   8 21.8120 9.60920   1
   4  -4  -8 490.883 30.8497   6
   4  -4  -8 391.664 21.9288   3
   4  -4  -8 487.776 22.7589   5
   4  -4  -8 497.982 18.6954   4
   4  -4  -8 463.442 19.9481   6
  -4   4   8 456.215 26.0575   5
  -4   4   8 510.681 21.3739   6
  -4   4   8 460.927 25.0373   1
   3  -4  -8 10.7606 5.68022   6
   3  -4  -8 30.5337 7.14830   5
   3  -4  -8 17.3517 6.30571   3
   3  -4  -8 12.4585 5.05223   4
   3  -4  -8 12.6512 5.06275   6
  -3   4   8 6.83641 5.18145   5
  -3   4   8 10.9378 5.08849   6
  -3   4   8 11.9570 4.24474   4
   2  -4  -8 667.046 24.7519   5
   2  -4  -8 697.608 20.7671   4
   2  -4  -8 669.586 22.9092   3
   2  -4  -8 685.113 22.0699   6
   2  -4  -8 698.430 23.5456   6
  -2   4   8 715.623 25.6825   5
  -2   4   8 689.545 23.7954   6
  -2   4   8 673.745 23.0016   6
  -2   4   8 697.749 24.6893   2
  -2   4   8 698.755 21.0225   4
  -2   4   8 643.846 27.0661   1
   1  -4  -8 42.3024 7.14596   5
   1  -4  -8 26.5774 5.30656   3
   1  -4  -8 24.8884 5.41596   6
   1  -4  -8 34.8047 6.15471   6
   1  -4  -8 41.9448 6.17304   4
  -1   4   8 27.8755 6.10590   6
  -1   4   8 28.0005 7.85411   1
  -1   4   8 27.7968 5.17910   4
  -1   4   8 27.5909 7.21107   2
  -1   4   8 36.2741 8.01175   5
  -1   4   8 30.3254 6.34674   6
   0  -4  -8 110.051 8.69119   6
   0  -4  -8 121.405 8.26412   4
   0  -4  -8 128.886 10.3763   5
   0  -4  -8 140.742 8.87134   6
   0  -4  -8 131.453 7.47464   3
   0   4   8 123.582 9.41694   6
   0   4   8 128.889 8.74291   4
   0   4   8 132.379 9.75437   6
   0   4   8 138.493 11.1533   2
   0   4   8 123.365 10.5605   5
  -1  -4  -8 2930.13 59.1417   6
  -1  -4  -8 2918.42 62.6172   5
  -1  -4  -8 2868.41 58.8482   6
  -1  -4  -8 2833.28 65.1514   2
   1   4   8 2889.96 61.7067   6
   1   4   8 2868.82 62.8229   5
   1   4   8 2885.05 60.8829   6
   1   4   8 2930.19 65.2135   2
   1   4   8 2884.70 59.3125   4
  -2  -4  -8 -2.2970 3.23367   2
  -2  -4  -8 2.42432 3.17726   6
  -2  -4  -8 -1.6825 3.06044   6
  -2  -4  -8 -0.8791 3.54784   5
   2   4   8 0.51337 3.11804   4
   2   4   8 -2.0966 3.24122   6
   2   4   8 3.67686 4.07695   5
   2   4   8 -1.0870 4.21060   2
   2   4   8 2.48605 3.11354   6
  -3  -4  -8 66.3984 7.82008   5
  -3  -4  -8 56.7339 8.69914   2
  -3  -4  -8 61.8386 6.58521   6
  -3  -4  -8 60.5672 6.89143   6
   3   4   8 70.3697 8.62048   4
   3   4   8 62.0945 7.45873   6
   3   4   8 76.1553 9.18493   6
   3   4   8 45.0741 8.36221   2
   3   4   8 59.6379 7.60613   5
  -4  -4  -8 1460.70 34.1680   6
  -4  -4  -8 1456.65 34.8629   5
  -4  -4  -8 1529.93 43.0802   2
  -4  -4  -8 1518.40 35.4255   6
   4   4   8 1370.82 37.9319   6
   4   4   8 1517.10 42.9711   2
   4   4   8 1453.95 35.8742   6
   4   4   8 1499.57 42.2750   1
   4   4   8 1439.37 38.2732   4
  -5  -4  -8 307.541 13.6727   6
  -5  -4  -8 298.900 12.6753   5
  -5  -4  -8 311.578 14.2489   6
   5   4   8 292.089 14.4837   6
   5   4   8 297.185 16.3715   4
   5   4   8 318.376 12.6171   3
   5   4   8 331.227 19.3601   1
   5   4   8 323.165 19.5685   2
   5   4   8 292.220 16.3293   6
  -6  -4  -8 137.971 11.1013   6
  -6  -4  -8 113.325 13.9136   2
  -6  -4  -8 140.077 11.0902   6
  -6  -4  -8 131.950 8.34829   5
   6   4   8 149.222 15.4859   1
   6   4   8 142.805 13.2059   4
   6   4   8 144.721 13.6195   6
   6   4   8 140.643 10.5150   3
   6   4   8 151.693 12.4406   6
   6   4   8 133.888 15.2931   2
  -7  -4  -8 43.7202 8.23446   6
  -7  -4  -8 58.0359 11.8090   2
  -7  -4  -8 24.4271 6.52994   6
   7   4   8 48.7174 8.59311   3
   7   4   8 43.5017 10.2598   6
   7   4   8 48.6497 9.22059   6
   7   4   8 33.8728 10.0062   1
   7   4   8 25.8662 8.84208   4
   7   4   8 57.4968 12.4810   2
  -8  -4  -8 340.088 17.5889   6
   8   4   8 290.840 22.9384   1
   8   4   8 324.077 19.6201   3
   8   4   8 313.575 20.3459   6
   8   4   8 338.227 23.1018   2
   6  -5  -8 65.7248 10.9233   6
   6  -5  -8 85.7301 10.1936   4
  -6   5   8 89.3307 14.1153   5
  -6   5   8 73.3787 11.9262   6
   5  -5  -8 60.1743 9.42330   6
   5  -5  -8 91.2461 16.6834   3
   5  -5  -8 62.6789 10.2631   6
   5  -5  -8 71.3960 9.18117   4
   5  -5  -8 77.6257 11.6942   5
  -5   5   8 44.4425 9.13891   6
  -5   5   8 69.8687 11.0516   6
  -5   5   8 54.4928 14.1025   1
  -5   5   8 45.7120 10.3911   5
   4  -5  -8 1100.34 32.6671   6
   4  -5  -8 1122.69 28.9842   4
   4  -5  -8 1089.44 38.4368   6
   4  -5  -8 1095.59 36.9717   5
  -4   5   8 1022.40 39.4571   1
  -4   5   8 1139.57 35.7659   6
  -4   5   8 1104.08 36.9394   5
  -4   5   8 1080.28 34.1632   6
   3  -5  -8 181.303 14.4542   5
   3  -5  -8 166.840 12.7830   6
   3  -5  -8 165.422 13.0541   3
   3  -5  -8 189.919 11.9401   6
   3  -5  -8 186.905 10.3915   4
  -3   5   8 186.069 15.1912   5
  -3   5   8 183.116 13.3230   6
  -3   5   8 179.524 16.2791   1
  -3   5   8 173.871 13.0740   6
   2  -5  -8 919.162 26.5531   6
   2  -5  -8 945.997 28.2273   6
   2  -5  -8 920.842 27.5192   3
   2  -5  -8 979.070 26.4939   4
  -2   5   8 868.076 28.5244   6
  -2   5   8 952.593 34.2428   1
  -2   5   8 936.841 31.5151   2
  -2   5   8 905.798 28.1843   6
  -2   5   8 968.746 24.1701   4
  -2   5   8 914.873 30.6428   5
   1  -5  -8 482.434 17.7678   6
   1  -5  -8 483.395 16.3678   3
   1  -5  -8 473.148 16.4575   6
   1  -5  -8 479.672 20.3388   5
  -1   5   8 470.917 18.6956   6
  -1   5   8 460.950 20.7352   2
  -1   5   8 482.633 18.3682   6
  -1   5   8 484.966 15.8799   4
  -1   5   8 501.203 23.2888   1
  -1   5   8 449.048 20.1324   5
   0  -5  -8 14.5095 4.46433   6
   0  -5  -8 13.6445 4.24903   6
   0  -5  -8 17.9320 5.70916   5
   0   5   8 18.0281 6.35418   5
   0   5   8 18.9224 4.76216   4
   0   5   8 20.6839 5.41180   6
   0   5   8 21.0863 7.36200   2
   0   5   8 24.4612 5.77941   6
  -1  -5  -8 3268.82 70.2820   5
  -1  -5  -8 3347.10 64.9583   6
  -1  -5  -8 3371.11 65.0673   6
   1   5   8 3340.93 68.8838   6
   1   5   8 3268.22 73.8898   2
   1   5   8 3380.27 71.1423   5
   1   5   8 3278.78 66.3215   4
   1   5   8 3224.17 68.1500   6
  -2  -5  -8 5.61116 3.66035   6
  -2  -5  -8 4.94696 3.08782   6
  -2  -5  -8 -2.7575 4.29658   2
  -2  -5  -8 6.88754 4.09338   5
   2   5   8 6.45373 5.56282   2
   2   5   8 6.44583 3.73921   6
   2   5   8 5.73209 4.21292   5
   2   5   8 9.56794 4.82445   6
   2   5   8 14.1415 4.45557   4
  -3  -5  -8 12.7236 4.48819   5
  -3  -5  -8 10.9999 5.95804   6
  -3  -5  -8 8.16162 6.01482   2
  -3  -5  -8 10.8422 3.57745   6
   3   5   8 9.93321 3.89006   6
   3   5   8 1.86741 4.29234   6
   3   5   8 8.77599 4.26414   4
   3   5   8 5.32051 5.71135   2
   3   5   8 15.0262 5.30363   5
  -4  -5  -8 1414.21 33.9657   5
  -4  -5  -8 1476.28 32.1224   6
  -4  -5  -8 1487.14 32.7685   6
  -4  -5  -8 1413.77 42.5116   2
   4   5   8 1429.85 35.4324   6
   4   5   8 1428.16 38.3277   4
   4   5   8 1442.40 43.4145   2
   4   5   8 1448.17 38.2381   6
   4   5   8 1446.43 42.7042   1
  -5  -5  -8 7.99215 3.97045   5
  -5  -5  -8 5.04869 6.25787   2
  -5  -5  -8 9.08251 4.33385   6
  -5  -5  -8 10.1580 4.35714   6
   5   5   8 13.1696 6.62542   4
   5   5   8 2.74666 5.81940   1
   5   5   8 9.14083 5.40893   6
   5   5   8 13.3276 5.15409   6
  -6  -5  -8 4.55496 4.22956   6
  -6  -5  -8 3.74286 8.46783   2
  -6  -5  -8 1.93588 4.65908   6
   6   5   8 8.08719 6.96734   6
   6   5   8 10.6295 7.90647   1
   6   5   8 5.29927 8.31614   2
   6   5   8 10.0597 4.78500   3
   6   5   8 7.23705 6.09689   6
  -7  -5  -8 34.9798 6.42263   6
  -7  -5  -8 47.6911 11.6481   2
  -7  -5  -8 30.2661 6.71339   6
   7   5   8 39.5699 8.30519   6
   7   5   8 31.8924 9.13835   2
   7   5   8 37.4843 9.26324   6
   7   5   8 44.5870 7.65295   3
   7   5   8 33.7159 9.96824   1
  -8  -5  -8 151.940 11.6043   6
   8   5   8 90.7747 11.9154   6
   8   5   8 147.355 13.9143   3
   8   5   8 151.802 19.2687   1
   8   5   8 148.472 18.4816   2
   6  -6  -8 63.8925 10.6218   6
  -6   6   8 80.4174 14.2670   5
  -6   6   8 75.6977 11.6496   6
   5  -6  -8 157.845 17.2824   3
   5  -6  -8 144.852 13.9454   6
   5  -6  -8 171.174 26.9013   5
   5  -6  -8 186.696 13.9350   6
  -5   6   8 168.597 17.1778   5
  -5   6   8 161.888 14.9795   6
   4  -6  -8 914.607 29.0973   6
   4  -6  -8 932.692 34.6308   5
  -4   6   8 967.943 31.9287   6
  -4   6   8 899.298 33.9660   5
  -4   6   8 957.938 33.0353   6
  -4   6   8 856.029 43.1779   1
   3  -6  -8 421.649 21.3847   5
   3  -6  -8 421.605 18.8978   6
   3  -6  -8 421.227 17.2824   6
   3  -6  -8 426.924 19.4597   3
  -3   6   8 386.085 23.3401   1
  -3   6   8 420.701 19.7360   6
  -3   6   8 409.338 21.5933   5
  -3   6   8 423.533 19.7295   6
   2  -6  -8 307.438 13.3701   6
   2  -6  -8 306.293 14.8188   3
   2  -6  -8 315.533 14.8361   6
  -2   6   8 306.191 19.9342   1
  -2   6   8 284.657 18.6541   2
  -2   6   8 306.712 16.1071   6
  -2   6   8 324.000 16.2189   6
  -2   6   8 289.312 17.6374   5
   1  -6  -8 638.811 20.2025   6
   1  -6  -8 641.101 24.7438   5
   1  -6  -8 652.412 19.4888   6
   1  -6  -8 665.191 19.8162   3
  -1   6   8 647.772 18.0592   4
  -1   6   8 650.954 22.3113   6
  -1   6   8 674.055 22.9875   6
  -1   6   8 655.613 26.3804   2
  -1   6   8 676.789 25.7023   5
  -1   6   8 655.854 28.1109   1
   0  -6  -8 143.252 8.52120   6
   0  -6  -8 152.571 11.9177   5
   0  -6  -8 140.610 7.90639   6
   0   6   8 140.795 10.3911   6
   0   6   8 133.048 13.0032   5
   0   6   8 138.772 12.5037   2
   0   6   8 137.989 10.7055   6
   0   6   8 139.603 8.63100   4
  -1  -6  -8 2108.63 42.5666   6
  -1  -6  -8 2136.41 50.5785   5
  -1  -6  -8 2131.39 42.6688   6
   1   6   8 2115.03 55.5266   2
   1   6   8 2124.22 45.7426   4
   1   6   8 2174.22 51.7673   5
   1   6   8 2121.05 48.2893   6
   1   6   8 2188.38 48.6467   6
  -2  -6  -8 56.7672 4.69146   6
  -2  -6  -8 64.2496 8.05976   5
  -2  -6  -8 46.2233 9.50643   2
  -2  -6  -8 57.2106 4.63894   6
   2   6   8 46.2951 7.67507   5
   2   6   8 54.7736 10.5270   2
   2   6   8 76.7882 8.31786   4
   2   6   8 60.7810 7.82838   6
   2   6   8 68.5154 7.55344   6
  -3  -6  -8 18.9663 6.38035   2
  -3  -6  -8 8.64024 4.30117   5
   3   6   8 6.16728 4.84007   4
   3   6   8 10.7913 7.51337   2
   3   6   8 12.6512 5.35619   5
   3   6   8 10.0675 4.62700   6
   3   6   8 5.83452 5.23541   6
  -4  -6  -8 3249.22 65.8547   5
   4   6   8 3284.10 67.7516   5
   4   6   8 3265.98 70.6267   6
   4   6   8 3159.14 70.5850   4
   4   6   8 3292.40 67.4109   6
   4   6   8 3307.32 78.4781   2
  -5  -6  -8 45.4430 9.71270   2
  -5  -6  -8 45.4679 5.60608   5
   5   6   8 32.2357 9.37487   1
   5   6   8 40.1264 7.15079   6
   5   6   8 40.3567 10.2735   2
   5   6   8 42.1491 8.43703   6
  -6  -6  -8 460.058 26.2108   2
   6   6   8 442.500 19.4753   6
   6   6   8 453.633 25.0069   2
   6   6   8 433.280 20.8249   6
   6   6   8 455.774 24.6482   1
   7   6   8 695.366 26.1879   6
   7   6   8 744.804 33.9018   1
   7   6   8 709.324 32.5512   2
   7   6   8 719.219 27.8180   6
   5  -7  -8 80.8320 10.6647   6
   5  -7  -8 88.5407 12.1601   6
   5  -7  -8 90.2122 13.2288   3
  -5   7   8 85.7712 12.2504   6
  -5   7   8 105.869 15.6355   5
   4  -7  -8 515.851 26.0354   5
   4  -7  -8 506.435 24.9973   3
   4  -7  -8 501.631 22.3750   6
  -4   7   8 460.594 22.6093   6
  -4   7   8 476.162 27.8171   1
  -4   7   8 492.693 22.7894   6
  -4   7   8 514.278 26.0415   5
   3  -7  -8 482.148 19.6672   6
   3  -7  -8 500.102 24.5620   5
   3  -7  -8 527.003 22.0435   3
   3  -7  -8 490.199 18.6134   6
  -3   7   8 493.689 24.2932   5
  -3   7   8 529.929 22.7528   6
  -3   7   8 440.315 26.2102   1
  -3   7   8 500.688 21.9738   6
   2  -7  -8 103.317 8.47385   6
   2  -7  -8 104.660 11.9460   5
   2  -7  -8 117.093 10.3487   3
   2  -7  -8 105.570 9.68620   6
  -2   7   8 110.178 13.1567   5
  -2   7   8 106.843 14.8252   1
  -2   7   8 95.0913 10.8689   6
  -2   7   8 118.012 15.0280   2
  -2   7   8 96.3267 10.8497   6
   1  -7  -8 599.231 17.1357   6
   1  -7  -8 583.857 17.7114   6
   1  -7  -8 566.293 18.1408   3
  -1   7   8 575.939 21.4932   6
  -1   7   8 588.194 25.0400   5
  -1   7   8 589.144 27.5317   1
  -1   7   8 605.134 21.5513   6
   0  -7  -8 880.824 29.9380   5
   0   7   8 886.744 30.3264   5
   0   7   8 939.299 22.9430   4
   0   7   8 906.079 33.0200   2
   0   7   8 889.672 26.5743   6
   0   7   8 878.774 26.9769   6
  -1  -7  -8 957.918 30.2811   5
   1   7   8 973.239 25.0789   4
   1   7   8 981.550 35.0705   2
   1   7   8 975.822 27.7211   6
   1   7   8 984.400 31.2192   5
  -2  -7  -8 5.06410 5.05515   5
   2   7   8 -0.7480 4.03136   6
   2   7   8 -0.0721 5.37342   5
   2   7   8 12.9415 7.05139   2
   2   7   8 6.76555 4.63781   6
   2   7   8 2.08512 3.81504   4
  -3  -7  -8 91.4417 13.2813   2
  -3  -7  -8 83.6115 9.35102   5
   3   7   8 98.0662 10.0284   4
   3   7   8 84.1757 19.8685   2
   3   7   8 85.7344 9.46964   6
   3   7   8 90.9639 9.55477   5
  -4  -7  -8 1367.92 43.7281   2
  -4  -7  -8 1318.59 33.1307   5
   4   7   8 1332.61 36.3862   6
   4   7   8 1403.92 34.2678   6
   4   7   8 1343.09 43.3039   1
   4   7   8 1439.63 35.0239   5
   4   7   8 1283.23 43.4913   2
   4   7   8 1311.93 37.0867   4
   5   7   8 53.8491 11.3901   1
   5   7   8 58.4797 8.07423   6
   5   7   8 50.9653 11.3724   2
   5   7   8 70.0292 9.55047   6
  -6  -7  -8 2.84147 9.23294   2
   6   7   8 -2.8361 6.13602   6
   6   7   8 4.54769 6.64563   6
   6   7   8 4.17594 7.95682   1
   6   7   8 -2.2230 7.33349   2
   7   7   8 912.446 36.8745   2
   7   7   8 810.197 37.6305   1
   7   7   8 858.338 29.5722   6
   7   7   8 845.335 31.0228   6
   5  -8  -8 112.398 15.7194   3
   5  -8  -8 99.7045 12.1817   6
   5  -8  -8 85.0769 11.6965   6
  -5   8   8 70.2200 12.1951   6
  -5   8   8 98.9533 15.1265   5
   4  -8  -8 116.553 14.3804   3
   4  -8  -8 135.649 12.7479   6
  -4   8   8 101.155 12.1874   6
  -4   8   8 78.7741 15.4195   1
  -4   8   8 80.1378 12.1548   5
   3  -8  -8 323.813 21.3171   5
   3  -8  -8 318.921 18.3207   3
   3  -8  -8 334.550 15.5448   6
   3  -8  -8 305.291 13.9294   6
  -3   8   8 287.711 22.3050   1
  -3   8   8 341.767 18.0643   6
  -3   8   8 294.355 20.7463   5
  -3   8   8 305.345 22.0761   2
  -3   8   8 325.855 18.4424   6
   2  -8  -8 18.3914 6.51730   5
   2  -8  -8 4.36867 4.19418   6
   2  -8  -8 2.33731 3.65298   6
   2  -8  -8 9.63836 5.97072   3
  -2   8   8 5.72100 6.74506   1
  -2   8   8 4.31034 6.87442   5
  -2   8   8 2.40093 7.62978   2
  -2   8   8 1.27148 5.10180   6
  -2   8   8 -1.5615 5.26330   6
   1  -8  -8 449.709 22.7436   5
   1  -8  -8 480.835 16.8077   3
  -1   8   8 459.315 19.3582   6
  -1   8   8 457.798 25.5868   1
  -1   8   8 484.748 23.7566   5
  -1   8   8 456.062 24.9070   2
  -1   8   8 469.206 19.4713   6
   0  -8  -8 801.432 37.0673   5
   0   8   8 757.641 24.5577   6
   0   8   8 803.105 36.5480   5
   0   8   8 721.252 31.0086   2
   0   8   8 725.065 24.0399   6
  -1  -8  -8 171.623 13.2977   5
   1   8   8 183.473 9.87218   4
   1   8   8 189.686 12.1890   6
   1   8   8 180.091 11.8165   6
   1   8   8 175.380 17.0140   2
   1   8   8 161.820 14.2062   5
  -2  -8  -8 158.696 12.3389   5
   2   8   8 178.132 16.5475   2
   2   8   8 160.272 10.7376   4
   2   8   8 167.989 13.1512   5
   2   8   8 179.986 11.5759   6
  -3  -8  -8 146.715 11.6786   5
   3   8   8 131.185 16.1028   2
   3   8   8 155.973 11.9630   5
   3   8   8 145.067 10.0456   6
   3   8   8 143.422 11.2148   6
   3   8   8 159.877 11.9545   4
  -4  -8  -8 914.016 26.5733   5
   4   8   8 878.800 26.2311   6
   4   8   8 973.554 28.2723   5
   4   8   8 980.854 37.3705   2
   4   8   8 932.101 29.2205   6
   4   8   8 926.677 29.9580   4
   4   8   8 992.430 36.7858   1
  -5  -8  -8 159.426 18.1415   2
   5   8   8 118.292 12.2255   6
   5   8   8 134.041 11.3383   6
   5   8   8 128.792 16.8422   2
   5   8   8 108.882 15.6474   1
   6   8   8 15.6806 9.45075   1
   6   8   8 31.5879 8.28339   6
   6   8   8 12.3376 8.00038   6
   6   8   8 19.7959 9.07320   2
   4  -9  -8 10.6111 17.2879   3
   4  -9  -8 32.1825 7.71875   6
   4  -9  -8 24.3572 5.97379   6
  -4   9   8 19.3201 8.07784   6
  -4   9   8 40.9364 12.8873   5
   3  -9  -8 14.1266 7.67010   3
   3  -9  -8 5.98407 4.42141   6
   3  -9  -8 7.34713 4.37223   6
  -3   9   8 18.2766 10.1072   2
  -3   9   8 10.2791 7.77053   5
  -3   9   8 -0.5964 9.63259   1
  -3   9   8 4.20014 7.47269   6
  -3   9   8 13.3644 6.11473   6
   2  -9  -8 86.8716 12.1531   3
  -2   9   8 44.9432 11.2848   5
  -2   9   8 50.8046 9.36350   6
  -2   9   8 56.7133 13.5082   1
  -2   9   8 56.9706 13.1453   2
  -2   9   8 45.6048 8.54288   6
   1  -9  -8 80.7129 12.6214   5
   1  -9  -8 117.463 10.5166   3
  -1   9   8 99.2824 14.2475   2
  -1   9   8 114.604 10.8306   6
  -1   9   8 109.329 11.5958   6
  -1   9   8 85.8091 13.2116   5
  -1   9   8 128.525 23.9151   1
   0  -9  -8 364.902 20.4681   5
   0   9   8 374.031 17.0214   6
   0   9   8 374.908 17.1587   6
   0   9   8 395.146 24.1172   2
   0   9   8 404.709 21.9008   5
  -1  -9  -8 203.532 15.6184   5
   1   9   8 167.470 18.5449   2
   1   9   8 178.793 11.8358   6
   1   9   8 179.503 15.6723   5
   1   9   8 164.132 12.1817   6
   1   9   8 159.854 9.26121   4
   2   9   8 93.0679 10.2183   6
   2   9   8 98.6534 15.4521   2
   2   9   8 114.466 12.3310   5
   2   9   8 95.1491 10.1051   4
  -3  -9  -8 57.0480 8.82728   5
   3   9   8 61.3249 8.17150   6
   3   9   8 65.5365 9.25884   4
   3   9   8 61.7565 12.3668   2
   3   9   8 71.3621 8.50054   6
   3   9   8 62.1973 10.3236   5
   3   9   8 51.8382 10.8825   1
   4   9   8 10.0951 6.58162   5
   4   9   8 2.12379 5.01151   6
   4   9   8 11.1697 7.00466   4
   4   9   8 9.97641 9.79563   2
   4   9   8 -0.4230 5.90105   6
   4   9   8 8.82314 7.18897   1
   5   9   8 100.199 10.0907   6
   5   9   8 81.8948 14.6668   2
   5   9   8 97.8600 11.3070   6
   5   9   8 76.5648 14.4301   1
   3 -10  -8 -8.0472 14.7204   3
  -3  10   8 3.18514 6.51414   6
  -3  10   8 7.31315 10.6095   2
  -3  10   8 -6.4126 8.32458   5
   2 -10  -8 148.702 13.9171   3
  -2  10   8 130.729 13.4863   6
  -2  10   8 133.958 19.6498   1
  -2  10   8 101.967 13.9351   5
  -2  10   8 100.500 12.5781   6
  -2  10   8 107.816 20.5613   2
   1 -10  -8 48.2150 7.68050   3
  -1  10   8 31.5607 7.95969   6
  -1  10   8 24.2429 9.20606   5
  -1  10   8 26.9221 10.5666   2
  -1  10   8 26.5910 11.2904   1
  -1  10   8 54.7454 9.01265   6
   0 -10  -8 94.1125 14.3502   5
   0  10   8 95.8653 10.5264   6
   0  10   8 82.3870 9.95497   6
   0  10   8 99.1021 15.2935   2
   0  10   8 88.0818 12.1409   5
  -1 -10  -8 439.374 28.5012   5
   1  10   8 452.123 27.1425   2
   1  10   8 414.266 18.0553   6
   1  10   8 430.723 22.6126   5
   1  10   8 433.211 18.2402   6
  -2 -10  -8 25.3315 8.39087   5
   2  10   8 30.1491 7.53093   6
   2  10   8 26.2723 10.0471   2
   2  10   8 45.6930 7.99595   6
   2  10   8 41.9541 9.61965   5
   3  10   8 101.658 9.91215   6
   3  10   8 76.9324 9.79481   4
   3  10   8 96.2516 12.5443   5
   3  10   8 73.0866 11.6211   1
   3  10   8 89.4416 14.4937   2
   3  10   8 78.4587 9.59836   6
   4  10   8 228.827 20.7889   2
   4  10   8 272.806 15.1148   6
   4  10   8 229.652 17.2845   4
   4  10   8 236.852 14.9377   5
   4  10   8 221.655 13.1630   6
   4  10   8 250.707 19.7566   1
  -1  11   8 88.2302 16.5168   2
  -1  11   8 103.451 12.1970   6
  -1  11   8 34.7803 15.5906   5
  -1  11   8 72.4082 10.5968   6
   0  11   8 6.19425 9.34366   5
   0  11   8 9.12994 10.5961   2
   0  11   8 25.9995 8.04733   6
   0  11   8 15.8208 7.44132   6
   1  11   8 510.387 21.1179   6
   1  11   8 506.908 25.4995   5
   1  11   8 544.003 20.6032   6
   2  11   8 4.92896 8.52044   5
   2  11   8 8.17424 8.01745   1
   2  11   8 3.34763 14.8601   2
   2  11   8 9.50723 6.62535   6
   2  11   8 4.85739 6.80996   6
   1   7  -9 0.39952 8.68958   4
   1   7  -9 8.25132 9.53791   3
   1   7  -9 -3.2022 6.07716   6
   1   7  -9 -12.024 6.79933   6
   0   7  -9 46.5349 10.0072   6
   0   7  -9 41.6153 8.21177   6
   0   7  -9 32.8320 9.79792   4
  -1   7  -9 360.463 21.9516   4
  -1   7  -9 448.430 41.3121   3
  -1   7  -9 339.053 16.0755   2
  -1   7  -9 369.926 19.2491   6
   1  -7   9 391.623 22.0980   4
  -2   7  -9 111.846 14.4991   4
  -2   7  -9 107.961 11.8855   2
  -2   7  -9 84.7587 16.5861   3
  -2   7  -9 109.047 12.7570   6
  -2   7  -9 128.229 13.9325   6
   2  -7   9 118.649 13.9687   4
  -3   7  -9 108.581 12.4768   6
  -3   7  -9 117.625 14.6836   4
  -3   7  -9 112.324 15.9029   2
  -3   7  -9 115.603 17.9612   3
   3  -7   9 104.982 14.1864   4
   3   6  -9 32.5401 11.6726   6
   3   6  -9 41.6090 9.11763   6
   3   6  -9 44.7898 12.1304   4
   3   6  -9 10.7353 10.3008   5
   3   6  -9 47.1723 13.1717   3
   3   6  -9 38.5542 8.65726   1
  -3  -6   9 52.1175 8.94183   1
   2   6  -9 309.086 20.5188   5
   2   6  -9 360.647 24.1402   3
   2   6  -9 306.023 17.8241   6
   2   6  -9 281.548 19.7254   4
   2   6  -9 332.366 17.1565   6
  -2  -6   9 297.804 14.3253   1
   1   6  -9 -8.8107 6.37951   6
   1   6  -9 2.01091 7.38103   4
   1   6  -9 -2.3564 6.71574   6
   1   6  -9 0.81954 6.91898   3
   1   6  -9 11.1654 8.13933   5
  -1  -6   9 15.9374 7.57052   4
   0   6  -9 127.522 18.9788   3
   0   6  -9 119.647 18.9617   6
   0   6  -9 112.646 14.1065   4
   0   6  -9 150.914 13.6881   6
   0  -6   9 125.550 13.6546   4
  -1   6  -9 622.889 31.3766   3
  -1   6  -9 717.110 28.7573   4
  -1   6  -9 717.652 26.5823   6
  -1   6  -9 665.978 22.3983   2
  -1   6  -9 706.055 25.2030   6
   1  -6   9 634.971 35.7140   4
  -2   6  -9 -8.4529 6.43930   3
  -2   6  -9 -7.6401 6.77469   4
  -2   6  -9 -4.0966 6.07898   6
  -2   6  -9 2.29709 5.78313   2
  -2   6  -9 -13.233 6.69248   6
   2  -6   9 -15.641 7.07195   4
  -3   6  -9 22.7713 11.2717   3
  -3   6  -9 27.6284 7.76033   6
  -3   6  -9 23.1943 7.70779   4
  -3   6  -9 23.9786 8.82498   2
  -3   6  -9 10.1820 8.14088   6
   3  -6   9 6.84970 8.18706   4
  -4   6  -9 84.8576 14.6719   3
  -4   6  -9 112.902 13.2286   4
  -4   6  -9 52.7898 12.0812   2
  -4   6  -9 95.9307 12.2862   6
   4  -6   9 101.988 8.87994   6
   4  -6   9 111.127 9.78182   6
  -5   6  -9 218.056 19.6449   6
  -5   6  -9 268.811 24.3740   3
   5  -6   9 242.837 18.3913   4
   5  -6   9 253.798 14.8327   6
   4   5  -9 29.5761 9.55885   4
   4   5  -9 34.3222 10.0089   1
   4   5  -9 20.2817 6.74317   6
   4   5  -9 34.9567 8.76056   6
  -4  -5   9 19.6683 9.48747   1
   3   5  -9 19.9864 7.14742   1
   3   5  -9 26.5219 8.15025   6
   3   5  -9 16.7901 7.85296   6
   3   5  -9 21.2618 8.60727   3
   3   5  -9 12.4063 8.96225   5
   3   5  -9 14.5789 7.82253   4
  -3  -5   9 21.5706 7.57543   1
   2   5  -9 43.6553 13.0036   3
   2   5  -9 55.9939 11.5448   5
   2   5  -9 39.3374 10.1385   4
   2   5  -9 35.1115 7.94592   6
   2   5  -9 36.6322 8.02332   1
  -2  -5   9 47.3673 11.5161   4
  -2  -5   9 42.4749 7.79330   1
   1   5  -9 95.4282 10.7915   6
   1   5  -9 82.2031 12.0023   4
   1   5  -9 58.8428 11.3265   3
   1   5  -9 67.8333 8.79129   6
   1   5  -9 65.6094 11.6916   5
  -1  -5   9 72.6639 12.0162   4
  -1  -5   9 71.4157 7.39080   1
   0   5  -9 189.469 16.2062   4
   0   5  -9 197.466 13.5471   6
   0   5  -9 207.374 18.1003   3
   0   5  -9 198.026 13.3340   6
   0  -5   9 206.647 16.1107   4
  -1   5  -9 379.097 24.0899   3
  -1   5  -9 366.941 15.7249   2
  -1   5  -9 420.545 18.8293   6
  -1   5  -9 403.787 18.8915   6
  -1   5  -9 409.879 21.0043   4
   1  -5   9 356.949 19.6149   4
  -2   5  -9 103.345 12.6150   6
  -2   5  -9 105.702 16.0668   3
  -2   5  -9 118.005 12.7381   6
  -2   5  -9 117.078 13.4152   4
  -2   5  -9 111.027 11.0496   2
   2  -5   9 84.1654 10.6514   4
   2  -5   9 94.0082 7.41719   6
  -3   5  -9 14.0558 7.83405   3
  -3   5  -9 12.7522 7.87267   4
  -3   5  -9 25.0543 7.42585   2
  -3   5  -9 19.1245 7.34705   6
  -3   5  -9 25.5261 8.40500   6
   3  -5   9 19.8287 5.78646   6
   3  -5   9 24.4212 7.31672   4
   3  -5   9 19.3661 5.31253   6
  -4   5  -9 101.957 15.8350   3
  -4   5  -9 95.4502 12.2316   6
  -4   5  -9 99.4536 12.8639   2
  -4   5  -9 131.583 14.1209   6
  -4   5  -9 119.526 13.2880   4
   4  -5   9 115.783 10.5351   6
   4  -5   9 92.9083 10.0906   6
   4  -5   9 113.028 12.8371   4
  -5   5  -9 -6.7985 6.75839   6
  -5   5  -9 -13.077 8.20564   3
  -5   5  -9 10.2838 10.1784   2
   5  -5   9 10.4114 7.32124   6
  -6   5  -9 33.3826 11.3371   3
  -6   5  -9 61.5938 23.3619   5
  -6   5  -9 30.0489 10.2149   6
   6  -5   9 45.5532 10.5865   6
   6  -5   9 54.7658 11.6133   4
   6  -5   9 47.0715 10.7057   6
   5   4  -9 400.956 25.0604   4
   5   4  -9 399.361 23.9828   1
   5   4  -9 407.955 21.8050   5
   5   4  -9 426.510 22.0287   6
   4   4  -9 61.0641 10.3666   6
   4   4  -9 66.8475 11.0324   1
   4   4  -9 56.7548 10.4676   6
   4   4  -9 67.4121 11.7072   4
   4   4  -9 58.4126 10.9222   5
  -4  -4   9 70.7632 12.4911   1
   3   4  -9 15.0092 7.31212   1
   3   4  -9 15.7206 7.86670   5
   3   4  -9 29.0374 8.35032   6
   3   4  -9 26.7783 9.11077   4
  -3  -4   9 18.2741 7.27603   1
  -3  -4   9 20.2954 7.34605   4
   2   4  -9 254.286 17.4082   4
   2   4  -9 232.895 14.3939   6
   2   4  -9 245.878 18.8854   3
   2   4  -9 223.705 16.4389   5
   2   4  -9 233.125 14.7870   6
   2   4  -9 263.272 15.1260   1
  -2  -4   9 229.720 17.6150   4
  -2  -4   9 265.379 16.7523   1
   1   4  -9 230.993 17.0512   5
   1   4  -9 254.834 14.6882   6
   1   4  -9 265.866 14.7847   6
   1   4  -9 246.051 16.8388   4
   1   4  -9 261.593 19.2891   3
  -1  -4   9 244.735 12.1659   1
  -1  -4   9 242.265 16.8953   4
   0   4  -9 290.581 18.1281   4
   0   4  -9 260.638 18.3118   3
   0   4  -9 257.512 14.5649   6
   0   4  -9 257.623 14.7058   6
   0  -4   9 255.451 16.5830   4
   0  -4   9 238.775 10.0872   1
  -1   4  -9 25.5018 6.78069   6
  -1   4  -9 31.8282 6.55784   2
  -1   4  -9 14.0046 6.80730   4
  -1   4  -9 22.7799 6.70932   6
  -1   4  -9 21.1431 7.79736   3
   1  -4   9 24.0595 5.24128   6
   1  -4   9 27.4556 4.95535   6
  -2   4  -9 584.259 25.1453   4
  -2   4  -9 571.719 22.3552   6
  -2   4  -9 546.841 27.3576   3
  -2   4  -9 514.162 20.4667   2
  -2   4  -9 539.346 21.9381   6
   2  -4   9 588.892 18.6405   6
   2  -4   9 531.816 18.4482   6
  -3   4  -9 452.998 20.4495   2
  -3   4  -9 493.780 21.4257   6
  -3   4  -9 489.367 21.5239   6
  -3   4  -9 483.327 23.0106   4
  -3   4  -9 498.574 26.8734   3
   3  -4   9 485.523 18.6968   6
  -4   4  -9 34.7769 11.9871   3
  -4   4  -9 25.7320 8.41591   2
  -4   4  -9 13.8615 8.40185   4
  -4   4  -9 20.1259 8.01917   6
   4  -4   9 26.4384 9.17167   3
   4  -4   9 34.2729 7.43478   6
   4  -4   9 16.2910 6.61933   6
   4  -4   9 34.8685 8.97073   4
  -5   4  -9 62.1817 11.1036   6
  -5   4  -9 80.7503 13.2738   2
  -5   4  -9 47.4236 10.0750   6
  -5   4  -9 73.3978 13.2475   3
   5  -4   9 72.1237 9.70536   6
   5  -4   9 52.8726 10.2559   4
   5  -4   9 70.0670 13.4704   6
   5  -4   9 48.9711 12.7372   3
  -6   4  -9 -11.228 9.62899   3
  -6   4  -9 -8.9101 6.75656   6
   6  -4   9 -0.2598 7.85426   6
   6  -4   9 -0.6624 7.85328   4
   6  -4   9 -3.7451 7.26297   6
  -7   4  -9 26.0804 11.7956   3
  -7   4  -9 40.7713 12.0419   5
   7  -4   9 29.3100 9.29480   6
   5   3  -9 352.957 20.2524   5
   5   3  -9 384.077 20.4841   6
   5   3  -9 393.548 23.7684   1
   5   3  -9 416.284 23.5647   4
  -5  -3   9 368.732 24.3526   1
   4   3  -9 43.9683 11.0417   4
   4   3  -9 49.1370 10.3369   1
   4   3  -9 44.8947 8.70912   6
   4   3  -9 24.3934 7.47983   5
  -4  -3   9 37.9086 5.70429   6
  -4  -3   9 31.4466 8.92425   1
  -4  -3   9 47.2241 5.88387   6
   3   3  -9 337.309 18.8876   5
   3   3  -9 315.034 19.7995   4
   3   3  -9 363.115 18.4462   6
   3   3  -9 339.619 18.7431   1
  -3  -3   9 353.196 12.8590   6
  -3  -3   9 357.328 13.4220   6
  -3  -3   9 366.387 18.8862   1
   2   3  -9 1064.05 31.5924   6
   2   3  -9 1032.75 34.1311   5
   2   3  -9 1063.97 32.0681   6
   2   3  -9 1058.04 32.3790   1
   2   3  -9 992.052 34.2035   4
  -2  -3   9 992.654 25.2684   6
  -2  -3   9 1079.47 26.2533   6
   1   3  -9 343.163 18.5518   5
   1   3  -9 418.612 17.7026   6
   1   3  -9 385.299 24.9688   4
   1   3  -9 292.024 24.1519   3
   1   3  -9 381.674 17.4628   6
  -1  -3   9 411.080 14.5248   6
  -1  -3   9 390.130 13.8030   6
  -1  -3   9 367.021 20.2700   4
  -1  -3   9 376.846 15.5775   1
   0   3  -9 130.991 11.1695   6
   0   3  -9 107.847 9.85390   6
   0   3  -9 128.283 13.5860   4
   0   3  -9 109.059 12.6984   5
   0   3  -9 107.702 12.8054   3
   0  -3   9 126.762 8.57546   6
   0  -3   9 144.127 9.19928   6
   0  -3   9 117.421 7.98148   1
  -1   3  -9 177.105 15.4071   3
  -1   3  -9 173.334 12.4564   6
  -1   3  -9 173.494 14.0001   4
  -1   3  -9 174.426 10.3800   2
  -1   3  -9 157.694 11.6729   6
   1  -3   9 175.433 7.71186   1
   1  -3   9 181.634 10.5207   6
   1  -3   9 173.990 10.4611   6
   1  -3   9 165.425 13.1361   4
  -2   3  -9 2337.48 60.8449   3
  -2   3  -9 2283.92 52.5670   2
  -2   3  -9 2323.98 57.4948   4
  -2   3  -9 2233.25 53.9486   6
  -2   3  -9 2320.02 54.3952   6
   2  -3   9 2259.76 51.0072   6
   2  -3   9 2291.36 50.9482   6
   2  -3   9 2238.73 55.5457   4
  -3   3  -9 199.384 14.2113   6
  -3   3  -9 223.667 16.0708   4
  -3   3  -9 223.932 14.7237   2
  -3   3  -9 216.926 14.5488   6
  -3   3  -9 228.338 22.6267   3
   3  -3   9 167.867 14.8661   3
   3  -3   9 182.126 14.1430   4
   3  -3   9 226.109 13.3634   6
   3  -3   9 229.444 12.8623   6
  -4   3  -9 49.1032 9.95372   4
  -4   3  -9 77.8218 10.7847   6
  -4   3  -9 89.7893 14.9882   3
  -4   3  -9 51.2934 8.65506   2
  -4   3  -9 66.3707 10.2634   6
   4  -3   9 90.0739 9.55237   6
   4  -3   9 58.3277 9.17912   6
   4  -3   9 85.2579 11.8409   3
  -5   3  -9 601.864 29.3108   3
  -5   3  -9 564.148 27.1264   2
  -5   3  -9 579.956 24.8402   6
  -5   3  -9 604.387 25.5575   6
   5  -3   9 542.462 17.0244   1
   5  -3   9 584.868 23.9360   6
   5  -3   9 604.439 22.8944   6
   5  -3   9 601.816 27.7120   3
   5  -3   9 562.104 23.9282   4
  -6   3  -9 230.104 20.5726   3
  -6   3  -9 243.416 24.2403   2
  -6   3  -9 185.198 16.4671   6
   6  -3   9 193.949 11.8771   1
   6  -3   9 190.352 15.8440   6
   6  -3   9 182.798 15.0910   6
   6  -3   9 208.581 20.5458   4
   6  -3   9 214.363 21.9491   3
  -7   3  -9 93.9252 12.5736   5
  -7   3  -9 42.5677 12.1874   3
   7  -3   9 121.153 14.6825   6
   7  -3   9 88.4642 10.9064   1
   7  -3   9 88.9057 12.4261   4
   6   2  -9 44.5253 10.3625   5
   6   2  -9 55.2940 11.8883   1
   6   2  -9 49.9638 11.3504   4
   6   2  -9 30.4394 8.94936   6
  -6  -2   9 47.4092 7.80306   6
  -6  -2   9 51.6611 8.43672   6
   5   2  -9 552.083 23.6526   6
   5   2  -9 524.250 24.1334   5
   5   2  -9 545.326 24.8125   6
   5   2  -9 547.690 28.0641   1
  -5  -2   9 517.536 19.6770   6
  -5  -2   9 519.744 19.9777   6
  -5  -2   9 496.243 26.9533   1
   4   2  -9 163.435 13.1271   6
   4   2  -9 122.671 15.2278   1
   4   2  -9 131.354 12.7063   6
   4   2  -9 129.555 14.7995   4
   4   2  -9 132.684 13.2099   5
  -4  -2   9 131.452 13.8965   1
  -4  -2   9 123.591 10.0104   6
  -4  -2   9 121.037 9.72166   6
   3   2  -9 149.351 12.5223   6
   3   2  -9 153.158 12.9866   6
   3   2  -9 164.939 14.1545   5
   3   2  -9 177.607 14.8867   1
   3   2  -9 187.112 15.0182   4
  -3  -2   9 152.344 14.2845   4
  -3  -2   9 183.657 13.5879   1
  -3  -2   9 168.528 11.0128   6
  -3  -2   9 192.010 10.9559   6
   2   2  -9 1948.79 48.4173   6
   2   2  -9 2113.65 62.9154   4
   2   2  -9 1932.33 50.1139   1
   2   2  -9 1930.63 50.5507   5
  -2  -2   9 1960.29 49.5262   1
  -2  -2   9 1929.10 44.2191   6
  -2  -2   9 2014.94 45.1305   6
   1   2  -9 33.1211 7.13792   6
   1   2  -9 22.4320 6.97943   5
   1   2  -9 29.0188 8.27055   3
   1   2  -9 23.7219 7.17842   4
   1   2  -9 32.5141 6.96138   6
  -1  -2   9 29.8232 5.75249   6
  -1  -2   9 23.2132 5.66786   1
  -1  -2   9 31.0477 6.00558   6
   0   2  -9 12.8538 5.41137   6
   0   2  -9 13.9416 6.52277   5
   0   2  -9 19.7785 6.67816   4
   0   2  -9 18.4572 7.67049   3
   0   2  -9 7.82444 4.79595   6
   0  -2   9 16.6408 4.68632   1
   0  -2   9 6.33097 4.88663   4
   0  -2   9 11.9802 4.57559   6
   0  -2   9 6.21045 4.57892   6
  -1   2  -9 535.958 22.4479   4
  -1   2  -9 557.283 20.7081   6
  -1   2  -9 510.498 17.6004   2
  -1   2  -9 564.217 24.3826   3
  -1   2  -9 526.195 20.4549   6
   1  -2   9 544.526 18.8653   6
   1  -2   9 530.060 21.7132   4
   1  -2   9 543.189 16.7554   1
   1  -2   9 556.838 18.5657   2
   1  -2   9 514.957 18.8151   6
  -2   2  -9 305.397 15.2682   6
  -2   2  -9 327.797 17.8671   4
  -2   2  -9 310.397 16.0636   6
  -2   2  -9 308.268 15.0061   2
  -2   2  -9 315.845 18.5787   3
   2  -2   9 327.305 15.1923   6
   2  -2   9 300.127 16.3081   4
   2  -2   9 322.794 11.8512   1
   2  -2   9 314.803 15.5397   2
  -3   2  -9 247.065 15.1281   6
  -3   2  -9 256.537 14.6098   6
  -3   2  -9 272.554 16.2995   4
  -3   2  -9 290.523 18.4384   3
  -3   2  -9 291.600 15.8145   2
   3  -2   9 249.396 10.4138   1
   3  -2   9 241.292 15.8906   3
   3  -2   9 227.684 14.7317   4
   3  -2   9 269.268 15.8269   2
   3  -2   9 282.577 14.0034   6
   3  -2   9 291.816 15.1378   6
  -4   2  -9 9.18120 5.98492   2
  -4   2  -9 20.1597 12.2072   6
  -4   2  -9 20.0301 6.61851   6
  -4   2  -9 19.3619 7.84976   3
   4  -2   9 14.0839 7.38669   3
   4  -2   9 20.5666 5.89851   6
   4  -2   9 26.4928 7.39030   6
   4  -2   9 21.9267 4.97502   1
  -5   2  -9 898.580 34.7596   3
  -5   2  -9 909.831 30.6359   6
  -5   2  -9 887.067 32.5556   2
  -5   2  -9 885.486 30.7471   6
   5  -2   9 862.148 30.3186   4
   5  -2   9 904.184 31.3723   6
   5  -2   9 883.411 25.5476   1
   5  -2   9 891.842 32.5643   3
   5  -2   9 879.994 28.3133   6
  -6   2  -9 661.865 30.5525   3
  -6   2  -9 704.322 27.6020   6
  -6   2  -9 626.353 27.1293   6
  -6   2  -9 616.362 28.8615   2
   6  -2   9 608.628 24.5167   6
   6  -2   9 582.633 26.3236   4
   6  -2   9 633.806 23.1262   1
   6  -2   9 672.664 27.1405   6
   6  -2   9 584.518 27.2116   3
  -7   2  -9 239.942 18.1254   6
  -7   2  -9 233.116 21.2197   3
   7  -2   9 226.099 16.2446   1
   7  -2   9 198.505 16.9049   4
   7  -2   9 212.869 18.0715   6
   6   1  -9 3.43509 6.67415   6
   6   1  -9 -7.1399 7.90259   5
   6   1  -9 10.2784 8.58102   4
   6   1  -9 8.58712 9.63425   1
  -6  -1   9 9.85037 7.00567   6
  -6  -1   9 13.4742 6.84958   6
   5   1  -9 87.1021 14.9482   1
   5   1  -9 81.0917 12.0134   4
   5   1  -9 64.5184 10.3775   5
   5   1  -9 96.4934 12.2062   6
   5   1  -9 76.5221 11.4175   6
  -5  -1   9 115.372 15.9665   1
  -5  -1   9 85.8615 10.2406   6
   4   1  -9 166.416 14.3466   5
   4   1  -9 180.573 15.3901   4
   4   1  -9 170.286 13.5897   6
   4   1  -9 143.786 13.7467   6
   4   1  -9 172.314 15.5617   1
  -4  -1   9 176.440 14.9971   1
  -4  -1   9 161.854 11.6277   6
  -4  -1   9 193.354 12.6865   6
   3   1  -9 298.962 18.4280   1
   3   1  -9 319.878 16.8754   6
   3   1  -9 313.745 20.2127   4
   3   1  -9 302.971 16.4440   6
   3   1  -9 295.599 16.8448   5
  -3  -1   9 296.953 14.9268   6
  -3  -1   9 297.010 14.1655   6
  -3  -1   9 266.771 17.4370   4
  -3  -1   9 308.675 17.9596   1
   2   1  -9 1854.18 49.0026   4
   2   1  -9 1854.71 47.1090   6
   2   1  -9 1928.45 49.2908   5
  -2  -1   9 1985.12 45.5101   6
  -2  -1   9 1885.69 56.8767   6
  -2  -1   9 1895.67 51.2444   4
  -2  -1   9 1931.26 48.8129   1
   1   1  -9 200.877 13.6328   5
   1   1  -9 209.202 13.0218   6
   1   1  -9 217.711 12.9799   6
   1   1  -9 218.968 14.1297   4
  -1  -1   9 193.920 12.4029   1
  -1  -1   9 229.736 12.0915   6
  -1  -1   9 209.658 12.0028   6
   0   1  -9 114.868 7.76162   2
   0   1  -9 104.253 9.44641   6
   0   1  -9 111.565 11.8907   4
   0   1  -9 111.838 11.9435   5
   0   1  -9 120.017 10.1118   6
   0   1  -9 103.764 12.3146   3
   0  -1   9 100.266 8.59928   1
   0  -1   9 97.4359 9.08222   6
   0  -1   9 101.140 7.71722   2
   0  -1   9 112.941 9.24202   6
   0  -1   9 116.476 10.1410   4
  -1   1  -9 3051.98 66.4467   6
  -1   1  -9 3012.44 63.4792   2
  -1   1  -9 3062.32 68.7891   4
  -1   1  -9 2923.98 65.5774   6
  -1   1  -9 3137.01 69.4055   5
  -1   1  -9 3079.47 70.2686   3
   1  -1   9 3123.11 65.1334   6
   1  -1   9 3080.29 63.4760   2
   1  -1   9 3017.78 63.0860   1
   1  -1   9 3069.19 67.9424   4
   1  -1   9 3058.24 64.9470   6
  -2   1  -9 233.667 15.0788   4
  -2   1  -9 256.021 13.9985   6
  -2   1  -9 221.850 13.0040   6
  -2   1  -9 234.712 15.2432   3
  -2   1  -9 251.479 13.1318   2
   2  -1   9 258.662 13.8380   6
   2  -1   9 230.494 13.1492   2
   2  -1   9 238.504 12.9775   6
   2  -1   9 256.782 14.5118   4
  -3   1  -9 562.117 21.3750   6
  -3   1  -9 500.762 20.6740   2
  -3   1  -9 539.849 22.5370   4
  -3   1  -9 534.528 20.7683   6
  -3   1  -9 553.836 23.1974   3
   3  -1   9 531.158 17.8428   1
   3  -1   9 537.397 21.1129   4
   3  -1   9 493.816 20.9661   2
   3  -1   9 550.760 20.9689   6
   3  -1   9 519.212 19.2919   6
   3  -1   9 519.090 21.5455   3
  -4   1  -9 630.063 25.8203   3
  -4   1  -9 637.047 23.4916   6
  -4   1  -9 605.486 24.3844   2
   4  -1   9 615.847 24.0805   3
   4  -1   9 656.313 25.3733   2
   4  -1   9 588.403 23.1238   6
   4  -1   9 583.304 21.5531   6
   4  -1   9 603.731 23.1411   4
   4  -1   9 597.459 19.8202   1
  -5   1  -9 586.148 23.6007   6
  -5   1  -9 571.576 25.7329   2
  -5   1  -9 643.274 26.7913   3
   5  -1   9 612.585 25.2444   3
   5  -1   9 605.972 30.0379   2
   5  -1   9 629.693 21.9925   1
   5  -1   9 577.611 31.6728   6
   5  -1   9 610.701 28.6985   4
   5  -1   9 596.506 22.7327   6
  -6   1  -9 809.456 30.4534   6
  -6   1  -9 846.655 30.4292   6
  -6   1  -9 908.660 34.1528   2
  -6   1  -9 868.884 33.8326   3
   6  -1   9 850.552 28.7985   1
   6  -1   9 864.811 34.4805   2
   6  -1   9 910.750 31.9472   6
   6  -1   9 824.149 31.4957   3
   6  -1   9 887.952 30.9763   6
   6  -1   9 842.675 30.4282   4
  -7   1  -9 109.261 14.4522   3
  -7   1  -9 110.018 13.4404   6
   7  -1   9 114.566 13.5779   4
   7  -1   9 117.758 14.6609   3
   7  -1   9 141.358 13.6161   1
   7  -1   9 110.456 14.2197   6
  -8   1  -9 373.537 24.9692   3
  -8   1  -9 378.671 21.7583   5
  -8   1  -9 225.891 25.6624   6
   8  -1   9 282.562 24.1615   6
   8  -1   9 351.755 22.1637   1
   6   0  -9 135.452 15.3438   6
   6   0  -9 177.234 18.4177   1
   6   0  -9 169.977 15.9740   5
   6   0  -9 186.427 17.0457   4
  -6   0   9 173.800 14.8880   6
  -6   0   9 169.151 15.1023   6
   5   0  -9 197.685 15.2646   6
   5   0  -9 167.450 14.4446   6
   5   0  -9 199.007 16.1601   5
   5   0  -9 207.057 16.8501   4
   5   0  -9 194.495 17.9926   1
  -5   0   9 175.320 13.7056   6
  -5   0   9 182.288 18.2762   1
  -5   0   9 185.352 13.8556   6
   4   0  -9 20.1530 7.84354   4
   4   0  -9 27.5012 8.49233   1
   4   0  -9 25.0114 7.06139   6
   4   0  -9 28.3110 7.55370   6
   4   0  -9 16.7063 6.35989   5
  -4   0   9 31.9281 6.72055   6
  -4   0   9 16.2207 6.45756   6
  -4   0   9 26.1214 7.93679   1
   3   0  -9 26.5787 8.77498   1
   3   0  -9 8.02283 6.62544   4
   3   0  -9 18.4834 6.58736   6
   3   0  -9 18.9181 6.41035   6
   3   0  -9 5.59331 5.68163   5
  -3   0   9 11.3099 4.71414   6
  -3   0   9 11.3091 5.50420   4
  -3   0   9 14.1165 6.56384   1
  -3   0   9 14.0109 5.37427   6
   2   0  -9 1057.18 31.9568   4
   2   0  -9 957.478 29.8150   6
   2   0  -9 985.436 31.5701   5
  -2   0   9 1015.96 29.4179   6
  -2   0   9 950.472 28.6470   6
  -2   0   9 958.412 31.7162   4
  -2   0   9 1010.40 32.3450   1
   1   0  -9 -3.2035 4.42160   5
   1   0  -9 4.42524 5.28649   4
   1   0  -9 1.26989 4.15135   6
   1   0  -9 1.03257 4.27496   6
  -1   0   9 0.07250 4.86129   6
  -1   0   9 5.82690 4.85183   1
  -1   0   9 -2.0112 2.94236   2
  -1   0   9 2.53431 4.36415   6
  -1   0   9 5.39684 5.18715   4
   0   0  -9 234.513 14.2634   5
   0   0  -9 237.089 11.5797   2
   0   0  -9 246.152 14.5667   3
   0   0  -9 236.909 13.0807   6
   0   0  -9 249.175 14.4167   4
   0   0  -9 239.369 13.3111   6
   0   0   9 255.199 13.2699   6
   0   0   9 224.925 12.6731   6
   0   0   9 243.116 13.3787   1
   0   0   9 229.736 13.5581   4
  -1   0  -9 2653.66 57.1569   2
  -1   0  -9 2653.60 61.0767   3
  -1   0  -9 2619.13 60.8094   5
  -1   0  -9 2696.47 61.0922   4
  -1   0  -9 2645.37 59.2658   6
  -1   0  -9 2625.62 58.6456   6
   1   0   9 2648.54 58.3166   1
   1   0   9 2703.74 57.2626   2
   1   0   9 2685.44 60.3728   4
   1   0   9 2689.13 58.8755   6
   1   0   9 2776.45 63.4157   6
  -2   0  -9 37.7941 7.27369   6
  -2   0  -9 34.1553 7.00334   5
  -2   0  -9 32.0138 6.96638   3
  -2   0  -9 21.1578 6.42493   4
  -2   0  -9 28.8465 6.22607   2
  -2   0  -9 27.4225 5.95430   6
   2   0   9 33.5199 6.70177   2
   2   0   9 50.5305 7.60280   6
   2   0   9 38.4752 6.63342   6
   2   0   9 35.2914 6.85803   4
  -3   0  -9 86.2906 10.1056   4
  -3   0  -9 83.0881 9.50085   6
  -3   0  -9 93.7546 10.8670   5
  -3   0  -9 81.3608 9.36262   2
  -3   0  -9 84.4516 9.45418   6
  -3   0  -9 78.2373 9.68137   3
   3   0   9 97.1625 10.4797   4
   3   0   9 90.9160 9.33761   6
   3   0   9 85.9082 11.0121   2
   3   0   9 98.0666 9.47981   3
   3   0   9 75.4837 9.56852   6
  -4   0  -9 964.578 29.4992   6
  -4   0  -9 967.543 31.0064   3
  -4   0  -9 920.966 30.6873   2
   4   0   9 1001.86 29.9623   3
   4   0   9 978.786 30.3812   6
   4   0   9 916.506 27.7147   1
   4   0   9 942.073 31.6738   2
   4   0   9 941.516 28.0568   6
   4   0   9 931.878 29.4959   4
  -5   0  -9 280.726 17.0673   6
  -5   0  -9 313.029 20.0318   6
  -5   0  -9 276.087 17.6749   2
  -5   0  -9 271.312 17.4416   3
   5   0   9 267.377 21.2142   6
   5   0   9 294.336 19.3746   2
   5   0   9 279.129 15.9415   3
   5   0   9 295.264 15.7837   1
   5   0   9 273.284 15.8505   6
  -6   0  -9 593.086 26.7031   3
  -6   0  -9 640.583 25.3418   6
  -6   0  -9 681.150 26.3526   6
   6   0   9 614.722 25.3228   4
   6   0   9 662.394 28.9233   2
   6   0   9 641.224 26.8555   6
   6   0   9 636.667 25.8120   3
   6   0   9 624.122 24.9566   1
  -7   0  -9 99.1029 12.3116   6
  -7   0  -9 104.684 12.6948   6
  -7   0  -9 97.9759 13.7411   3
   7   0   9 81.9521 12.2415   6
   7   0   9 109.712 13.8617   4
   7   0   9 103.157 14.1660   3
   7   0   9 109.723 15.4256   2
  -8   0  -9 219.125 16.8555   5
  -8   0  -9 253.574 22.4987   3
  -8   0  -9 230.269 18.7947   6
   8   0   9 187.246 22.9859   6
   8   0   9 207.101 18.7928   1
   6  -1  -9 113.028 16.2866   1
   6  -1  -9 141.497 16.0384   5
   6  -1  -9 101.669 13.0098   6
   6  -1  -9 113.149 14.1239   4
  -6   1   9 91.3004 12.0745   6
  -6   1   9 75.5643 11.1551   6
  -6   1   9 124.747 14.6317   5
   5  -1  -9 56.8849 9.92031   6
   5  -1  -9 44.7344 10.5875   3
   5  -1  -9 65.8959 10.6658   4
   5  -1  -9 44.4124 9.84362   5
   5  -1  -9 61.2042 10.2114   6
   5  -1  -9 69.6065 13.6592   1
  -5   1   9 61.1655 13.4081   1
  -5   1   9 62.6143 10.1393   6
  -5   1   9 61.9552 14.6079   5
  -5   1   9 72.3946 8.61542   2
  -5   1   9 61.4349 9.87743   6
   4  -1  -9 443.770 24.2232   1
   4  -1  -9 416.797 19.9359   6
   4  -1  -9 450.890 21.2729   5
   4  -1  -9 432.840 20.7220   4
   4  -1  -9 449.558 20.7003   6
  -4   1   9 408.068 23.4083   1
  -4   1   9 445.459 16.5431   2
  -4   1   9 450.863 20.1776   6
  -4   1   9 471.475 22.0199   5
   3  -1  -9 32.6653 7.47420   6
   3  -1  -9 31.0408 7.45298   6
   3  -1  -9 36.7517 7.67279   4
   3  -1  -9 63.0395 10.4933   5
   3  -1  -9 37.2251 9.32565   1
  -3   1   9 34.5218 7.32913   6
  -3   1   9 47.1527 8.58776   4
  -3   1   9 42.2548 8.97566   5
  -3   1   9 29.5446 7.35020   6
  -3   1   9 50.1185 9.79333   1
  -3   1   9 45.8824 6.65015   2
   2  -1  -9 636.824 22.7675   6
   2  -1  -9 634.400 23.5056   4
   2  -1  -9 645.484 24.2957   5
  -2   1   9 683.985 23.3419   6
  -2   1   9 599.642 25.0516   1
  -2   1   9 691.165 24.8558   4
  -2   1   9 673.916 25.3300   5
  -2   1   9 654.172 22.8373   6
  -2   1   9 712.230 23.5746   2
   1  -1  -9 89.7663 10.4464   5
   1  -1  -9 63.5819 8.28302   4
   1  -1  -9 86.6933 9.62907   6
   1  -1  -9 81.9576 9.50154   6
  -1   1   9 78.5522 9.31696   4
  -1   1   9 103.902 10.1745   6
  -1   1   9 73.3821 7.83983   2
  -1   1   9 84.2937 10.2503   1
  -1   1   9 73.2667 8.68860   6
  -1   1   9 91.9529 11.1490   5
   0  -1  -9 296.929 14.1624   6
   0  -1  -9 310.019 15.1420   4
   0  -1  -9 276.418 15.0922   5
   0  -1  -9 288.290 13.1898   2
   0  -1  -9 315.200 14.8497   6
   0   1   9 323.345 14.8062   6
   0   1   9 272.310 14.8779   1
   0   1   9 280.718 12.9622   2
  -1  -1  -9 863.221 26.0213   6
  -1  -1  -9 824.452 25.0691   2
  -1  -1  -9 825.086 26.4883   4
  -1  -1  -9 793.055 25.2694   6
  -1  -1  -9 826.460 25.7897   3
   1   1   9 863.530 25.3649   2
   1   1   9 859.900 26.1143   6
  -2  -1  -9 32.6839 9.15755   5
  -2  -1  -9 31.5733 6.32558   2
  -2  -1  -9 36.1963 6.69657   3
  -2  -1  -9 28.1341 6.17207   4
  -2  -1  -9 31.3871 6.31273   6
  -2  -1  -9 38.1424 6.35895   6
   2   1   9 37.3118 6.41302   6
   2   1   9 24.3134 5.53500   6
   2   1   9 37.6124 7.25188   2
   2   1   9 31.4278 6.25992   4
  -3  -1  -9 103.215 9.22535   3
  -3  -1  -9 118.260 11.1042   4
  -3  -1  -9 116.882 10.8417   2
  -3  -1  -9 117.531 10.2102   6
  -3  -1  -9 103.075 9.60114   6
  -3  -1  -9 153.625 18.6814   5
   3   1   9 113.513 9.27361   6
   3   1   9 105.968 9.08978   3
   3   1   9 115.020 12.2378   2
   3   1   9 102.512 9.75850   4
   3   1   9 122.325 10.5881   6
  -4  -1  -9 986.571 32.1733   2
  -4  -1  -9 996.387 30.2522   6
  -4  -1  -9 1031.25 29.9984   6
  -4  -1  -9 1005.23 30.1174   3
   4   1   9 1052.90 31.6594   6
   4   1   9 938.991 32.0040   2
   4   1   9 1048.27 29.4146   3
   4   1   9 1004.34 30.5615   1
  -5  -1  -9 28.3284 7.11487   3
  -5  -1  -9 14.1773 5.16314   5
  -5  -1  -9 31.6335 8.54897   2
  -5  -1  -9 21.8370 6.62685   6
   5   1   9 24.5550 6.97865   1
   5   1   9 20.8136 5.96478   3
   5   1   9 21.1070 6.62073   6
   5   1   9 25.6436 7.85849   2
  -6  -1  -9 240.409 15.8254   6
  -6  -1  -9 234.117 14.6094   5
  -6  -1  -9 246.328 17.1501   3
  -6  -1  -9 227.880 15.3262   6
  -6  -1  -9 243.458 17.9366   2
   6   1   9 248.716 18.5520   2
   6   1   9 242.414 16.6984   1
   6   1   9 245.006 15.2566   6
   6   1   9 225.119 15.8731   4
   6   1   9 255.904 17.4962   6
   6   1   9 249.313 15.6237   3
  -7  -1  -9 20.8139 8.46340   2
  -7  -1  -9 13.4998 6.12317   5
  -7  -1  -9 14.4364 7.90934   6
  -7  -1  -9 18.2047 8.81824   3
  -7  -1  -9 19.5943 8.35886   6
   7   1   9 17.4391 7.66415   6
   7   1   9 15.4352 7.32397   4
   7   1   9 29.3515 8.43442   1
   7   1   9 21.5846 7.86869   6
   7   1   9 18.5821 8.19130   2
   7   1   9 17.5302 7.87762   3
  -8  -1  -9 154.313 18.3285   3
  -8  -1  -9 105.550 13.0473   6
  -8  -1  -9 146.555 13.0403   5
  -8  -1  -9 143.251 14.1327   5
   8   1   9 148.091 16.5650   6
   8   1   9 148.907 15.6532   3
   8   1   9 133.362 16.1047   1
   8   1   9 134.508 17.7049   2
   6  -2  -9 141.873 19.0850   1
   6  -2  -9 191.939 16.1169   4
   6  -2  -9 183.393 17.1893   5
   6  -2  -9 182.973 15.5560   6
  -6   2   9 157.444 15.4843   6
  -6   2   9 184.001 17.0172   5
  -6   2   9 177.383 15.3310   2
   5  -2  -9 317.786 21.5965   3
   5  -2  -9 337.285 19.5317   5
   5  -2  -9 304.604 22.4383   1
   5  -2  -9 334.147 18.9966   6
   5  -2  -9 348.551 18.7669   4
   5  -2  -9 328.905 18.9486   6
  -5   2   9 335.520 18.7831   6
  -5   2   9 319.005 16.5157   2
  -5   2   9 335.313 22.5840   1
  -5   2   9 317.786 19.7390   5
  -5   2   9 313.609 18.2072   6
   4  -2  -9 59.2254 11.0381   5
   4  -2  -9 52.8832 10.7994   1
   4  -2  -9 61.8534 9.79662   6
   4  -2  -9 57.0665 11.9258   6
   4  -2  -9 53.2358 11.1855   3
   4  -2  -9 62.9935 10.0029   4
  -4   2   9 53.6662 8.70545   2
  -4   2   9 59.6539 10.7873   5
  -4   2   9 48.1184 8.38333   6
  -4   2   9 66.8166 12.3323   1
  -4   2   9 40.9636 8.59758   6
   3  -2  -9 184.756 13.4065   6
   3  -2  -9 172.096 12.7809   4
   3  -2  -9 173.697 13.5458   5
  -3   2   9 197.456 13.2777   6
  -3   2   9 210.458 13.8292   6
  -3   2   9 173.271 12.8010   4
  -3   2   9 192.839 14.6369   5
  -3   2   9 193.610 11.6291   2
   2  -2  -9 122.589 11.0367   5
   2  -2  -9 129.708 11.5684   6
   2  -2  -9 133.355 10.7489   4
  -2   2   9 134.966 10.9530   6
  -2   2   9 131.597 11.9720   5
  -2   2   9 125.020 13.8467   1
  -2   2   9 136.860 10.8797   4
  -2   2   9 125.702 10.0050   2
  -2   2   9 110.055 10.2518   6
   1  -2  -9 12.3095 4.48793   6
   1  -2  -9 9.92485 4.76468   4
   1  -2  -9 8.74483 4.92648   5
   1  -2  -9 10.5418 5.27984   6
  -1   2   9 16.2960 5.42751   6
  -1   2   9 4.77915 4.99566   5
  -1   2   9 14.5348 4.96430   1
  -1   2   9 7.29762 5.00986   4
  -1   2   9 13.6004 4.90675   2
  -1   2   9 11.6193 5.53252   6
   0  -2  -9 86.6052 8.79947   2
   0  -2  -9 106.615 10.5437   6
   0  -2  -9 95.5346 8.98258   6
   0  -2  -9 106.542 9.48496   5
   0  -2  -9 94.7949 8.99395   4
   0   2   9 94.0465 8.75717   4
   0   2   9 102.924 10.5234   1
   0   2   9 94.5449 9.12895   2
   0   2   9 97.7020 9.47790   6
   0   2   9 89.2169 8.80744   6
   0   2   9 102.781 11.4107   5
  -1  -2  -9 368.935 17.0547   5
  -1  -2  -9 362.299 15.7909   6
  -1  -2  -9 378.311 15.1520   3
  -1  -2  -9 386.888 16.5094   4
  -1  -2  -9 369.822 16.5473   6
  -1  -2  -9 353.632 16.0405   2
   1   2   9 378.540 15.9707   4
   1   2   9 380.229 16.6278   2
   1   2   9 374.724 16.3989   6
   1   2   9 349.146 19.6188   6
  -2  -2  -9 1438.81 37.9212   4
  -2  -2  -9 1460.62 38.2618   5
  -2  -2  -9 1512.10 39.2263   2
  -2  -2  -9 1541.25 37.0704   6
   2   2   9 1457.57 38.0871   6
   2   2   9 1409.19 40.9488   4
   2   2   9 1454.78 38.8444   2
   2   2   9 1386.55 35.6681   6
  -3  -2  -9 286.401 13.1210   3
  -3  -2  -9 316.194 15.3285   5
  -3  -2  -9 289.712 15.8425   2
  -3  -2  -9 315.311 14.7005   6
  -3  -2  -9 280.799 14.1839   6
   3   2   9 268.135 14.7117   6
   3   2   9 297.846 16.4329   2
   3   2   9 275.716 13.9798   4
   3   2   9 302.732 13.8150   6
  -4  -2  -9 57.3116 7.77845   3
  -4  -2  -9 47.6046 7.56595   6
  -4  -2  -9 45.3957 7.99433   5
  -4  -2  -9 44.2791 8.63103   2
  -4  -2  -9 37.0168 6.93895   6
   4   2   9 38.4915 6.79747   6
   4   2   9 49.2399 8.10060   6
   4   2   9 47.4605 6.99016   3
   4   2   9 39.9607 9.45543   2
   4   2   9 49.2048 8.51795   1
  -5  -2  -9 84.5645 9.61344   5
  -5  -2  -9 79.3130 9.51045   6
  -5  -2  -9 84.5703 9.84703   3
  -5  -2  -9 89.5177 10.2683   6
   5   2   9 71.5321 8.60120   3
   5   2   9 84.7613 10.9934   1
   5   2   9 81.5151 10.6393   6
   5   2   9 87.9680 12.8297   2
   5   2   9 96.5151 10.6309   6
  -6  -2  -9 4.72957 5.82943   2
  -6  -2  -9 4.54325 6.76986   3
  -6  -2  -9 0.12242 7.06496   6
  -6  -2  -9 8.73072 6.43815   6
  -6  -2  -9 9.75292 4.95922   5
   6   2   9 4.17499 6.20391   6
   6   2   9 8.15306 6.95553   2
   6   2   9 -0.4227 6.17417   1
   6   2   9 13.9612 6.73193   4
   6   2   9 19.0891 6.69920   3
   6   2   9 -0.6630 5.99618   6
  -7  -2  -9 1.68086 5.82650   5
  -7  -2  -9 6.92872 7.58063   2
  -7  -2  -9 4.87478 7.81682   3
  -7  -2  -9 10.9371 7.32698   6
  -7  -2  -9 -2.7651 6.55273   6
   7   2   9 12.3350 7.58113   4
   7   2   9 4.47043 6.55455   6
   7   2   9 7.67209 6.60720   3
   7   2   9 13.2210 8.19334   6
   7   2   9 7.14645 7.47077   1
   7   2   9 10.4364 8.07708   2
  -8  -2  -9 4.66039 5.70224   5
  -8  -2  -9 -5.3903 6.23464   5
  -8  -2  -9 -9.1301 8.08984   3
  -8  -2  -9 2.97490 8.68198   6
  -8  -2  -9 -6.5070 7.21785   6
   8   2   9 4.99414 7.88346   6
   8   2   9 5.11412 8.81256   1
   8   2   9 -3.0207 8.25115   2
   6  -3  -9 110.841 13.7797   6
   6  -3  -9 124.082 15.2205   5
   6  -3  -9 65.4925 13.1642   1
   6  -3  -9 114.083 12.5754   4
  -6   3   9 105.266 13.1792   6
  -6   3   9 107.379 14.5875   5
   5  -3  -9 304.259 21.8057   3
   5  -3  -9 340.220 19.2888   6
   5  -3  -9 307.605 17.6569   6
   5  -3  -9 348.250 20.7755   5
   5  -3  -9 369.647 18.7111   4
   5  -3  -9 326.847 23.2883   1
  -5   3   9 308.615 19.6256   5
  -5   3   9 319.421 19.3323   6
  -5   3   9 271.614 17.8500   6
  -5   3   9 315.087 24.0790   1
   4  -3  -9 13.3250 6.72915   4
   4  -3  -9 9.23752 6.32472   5
   4  -3  -9 16.6893 6.65634   6
   4  -3  -9 11.5419 5.75304   6
  -4   3   9 14.9958 6.48520   2
  -4   3   9 9.33249 5.10937   6
  -4   3   9 0.13055 5.24438   6
  -4   3   9 15.2943 7.80862   1
   3  -3  -9 345.434 16.1674   4
   3  -3  -9 345.446 18.6195   3
   3  -3  -9 324.426 17.7867   5
   3  -3  -9 332.428 17.2751   6
  -3   3   9 340.620 16.9465   2
  -3   3   9 350.212 17.7930   6
  -3   3   9 309.480 15.7600   4
  -3   3   9 358.025 19.4095   5
   2  -3  -9 1675.72 44.8832   5
   2  -3  -9 1689.20 41.3855   4
   2  -3  -9 1687.39 42.5087   6
   2  -3  -9 1760.98 43.8949   6
  -2   3   9 1736.37 42.8151   2
  -2   3   9 1688.66 45.3900   5
  -2   3   9 1671.20 41.9805   4
  -2   3   9 1645.78 47.4832   1
  -2   3   9 1709.01 43.2893   6
   1  -3  -9 94.9196 9.61742   6
   1  -3  -9 92.9062 8.97965   4
   1  -3  -9 99.7790 10.6447   5
   1  -3  -9 98.6675 10.5535   6
  -1   3   9 88.4442 10.6225   2
  -1   3   9 87.9398 9.75390   4
  -1   3   9 96.1143 11.3812   5
  -1   3   9 112.158 13.1665   1
  -1   3   9 101.707 10.6785   6
  -1   3   9 82.6567 9.40082   6
   0  -3  -9 107.879 9.14124   4
   0  -3  -9 108.032 9.50309   6
   0  -3  -9 125.606 12.8544   5
   0   3   9 97.4612 12.4516   1
   0   3   9 108.611 9.38298   6
   0   3   9 95.4146 8.93934   6
   0   3   9 110.968 9.03044   4
   0   3   9 102.017 9.95405   2
   0   3   9 106.096 11.9112   5
  -1  -3  -9 458.914 17.3397   6
  -1  -3  -9 461.591 17.6794   4
  -1  -3  -9 462.764 19.2264   2
  -1  -3  -9 463.899 17.4883   6
  -1  -3  -9 434.680 18.5905   5
  -1  -3  -9 439.137 15.2400   3
   1   3   9 490.354 19.6281   2
   1   3   9 483.783 18.7107   6
   1   3   9 440.630 17.8542   6
   1   3   9 456.203 19.1457   5
   1   3   9 450.607 17.0885   4
  -2  -3  -9 1261.13 32.5784   6
  -2  -3  -9 1222.52 33.9403   5
  -2  -3  -9 1215.47 35.8376   2
  -2  -3  -9 1268.81 28.7819   3
  -2  -3  -9 1289.36 32.3814   6
   2   3   9 1213.15 32.1229   6
   2   3   9 1300.39 36.7142   4
   2   3   9 1270.15 34.4284   6
   2   3   9 1249.84 35.9652   2
  -3  -3  -9 756.480 26.8460   2
  -3  -3  -9 742.413 24.2428   5
  -3  -3  -9 793.610 26.4878   6
  -3  -3  -9 743.025 22.7779   6
  -3  -3  -9 751.564 19.9424   3
   3   3   9 740.849 23.0560   6
   3   3   9 740.367 24.1250   4
   3   3   9 745.721 27.1897   2
   3   3   9 750.428 25.2081   6
  -4  -3  -9 7.00747 4.82551   6
  -4  -3  -9 3.43022 3.76650   5
  -4  -3  -9 9.73139 5.04258   6
   4   3   9 -1.6702 5.34420   1
   4   3   9 4.80667 4.82293   4
   4   3   9 5.13753 3.87580   6
   4   3   9 9.72607 5.14200   6
   4   3   9 10.3273 6.42090   2
   4   3   9 3.51710 4.42993   3
  -5  -3  -9 940.228 27.7691   6
  -5  -3  -9 939.930 27.1648   5
  -5  -3  -9 961.247 27.3045   3
  -5  -3  -9 883.574 28.4048   6
   5   3   9 967.886 31.4301   6
   5   3   9 925.241 36.7673   2
   5   3   9 931.491 28.4987   6
   5   3   9 931.102 26.1163   3
   5   3   9 975.098 33.3099   1
  -6  -3  -9 276.172 16.2700   3
  -6  -3  -9 219.139 13.8888   6
  -6  -3  -9 261.368 14.9732   6
  -6  -3  -9 240.737 12.7046   5
   6   3   9 249.988 15.3053   6
   6   3   9 227.278 18.0812   2
   6   3   9 251.338 15.8601   3
   6   3   9 250.487 19.9802   4
   6   3   9 222.359 16.6752   6
   6   3   9 272.916 19.0642   1
  -7  -3  -9 127.182 12.4367   6
  -7  -3  -9 137.121 10.2719   5
  -7  -3  -9 119.048 15.2915   2
  -7  -3  -9 129.898 13.2263   6
   7   3   9 107.958 14.8926   1
   7   3   9 104.527 14.3290   4
   7   3   9 116.579 12.2594   3
   7   3   9 132.196 13.4676   6
   7   3   9 144.739 16.1193   6
   7   3   9 132.064 16.9917   2
  -8  -3  -9 -16.963 7.97400   6
  -8  -3  -9 0.61370 6.98620   6
   8   3   9 16.0892 8.58205   3
   8   3   9 -7.7027 7.98703   1
   8   3   9 -8.3947 6.68375   6
   8   3   9 5.62367 9.19994   2
   6  -4  -9 23.5156 8.04278   6
   6  -4  -9 4.20519 7.00627   4
  -6   4   9 13.6066 6.97247   6
  -6   4   9 -2.7066 8.01978   5
   5  -4  -9 476.980 26.0116   3
   5  -4  -9 497.183 23.4631   6
   5  -4  -9 421.807 24.0858   5
   5  -4  -9 508.937 21.0499   4
   5  -4  -9 458.230 22.1027   6
  -5   4   9 472.883 23.3052   6
  -5   4   9 500.050 31.1865   1
  -5   4   9 465.997 24.1911   5
  -5   4   9 460.912 22.3016   6
   4  -4  -9 104.341 12.9880   5
   4  -4  -9 124.787 13.3388   6
   4  -4  -9 104.418 10.7491   4
   4  -4  -9 125.597 11.3098   6
  -4   4   9 117.713 22.0868   1
  -4   4   9 131.992 16.2962   6
  -4   4   9 106.435 12.4636   2
  -4   4   9 97.3459 11.9036   6
  -4   4   9 101.986 12.5815   5
   3  -4  -9 171.679 11.1922   4
   3  -4  -9 153.509 13.1283   3
   3  -4  -9 170.815 13.4727   6
   3  -4  -9 182.069 14.3642   5
  -3   4   9 184.676 14.7990   5
  -3   4   9 154.909 10.9603   4
  -3   4   9 169.029 13.7595   2
   2  -4  -9 2066.07 49.3554   3
   2  -4  -9 2066.67 46.4031   4
   2  -4  -9 2095.45 49.9626   6
   2  -4  -9 1859.01 62.1075   5
   2  -4  -9 2000.78 47.9613   6
  -2   4   9 2097.06 51.2800   2
  -2   4   9 2028.53 47.0289   4
  -2   4   9 1995.52 51.8564   5
  -2   4   9 2086.23 49.9610   6
   1  -4  -9 112.799 9.22188   4
   1  -4  -9 144.423 10.0397   6
   1  -4  -9 133.002 10.4218   6
   1  -4  -9 122.248 10.8648   5
   1  -4  -9 128.377 9.41246   3
  -1   4   9 138.286 9.56761   4
  -1   4   9 126.253 11.3594   2
  -1   4   9 147.710 12.4439   5
  -1   4   9 148.009 13.1612   1
  -1   4   9 124.324 10.7962   6
  -1   4   9 121.980 10.4379   6
   0  -4  -9 208.991 11.4352   6
   0  -4  -9 180.525 12.4904   5
   0  -4  -9 200.420 11.7965   6
   0  -4  -9 193.913 10.9943   4
   0   4   9 208.668 13.6187   5
   0   4   9 199.152 12.3567   6
   0   4   9 221.347 12.5093   6
   0   4   9 212.830 11.5411   4
   0   4   9 201.779 13.6601   2
  -1  -4  -9 1559.06 42.7178   2
  -1  -4  -9 1598.13 38.5065   4
  -1  -4  -9 1571.37 37.7005   6
  -1  -4  -9 1623.59 38.2233   6
   1   4   9 1576.37 41.4952   5
   1   4   9 1578.24 37.8686   4
   1   4   9 1604.87 40.2590   6
   1   4   9 1643.16 42.9907   2
   1   4   9 1537.78 39.1318   6
  -2  -4  -9 1326.14 35.5619   5
  -2  -4  -9 1287.39 38.1630   2
  -2  -4  -9 1343.46 32.7406   6
  -2  -4  -9 1352.02 33.2881   6
   2   4   9 1323.08 34.2325   4
   2   4   9 1332.22 36.1657   5
   2   4   9 1353.89 33.9623   6
   2   4   9 1370.41 36.2556   6
   2   4   9 1316.50 38.3148   2
  -3  -4  -9 129.632 9.70158   6
  -3  -4  -9 161.914 11.1724   5
  -3  -4  -9 144.637 13.0053   2
  -3  -4  -9 138.668 9.59617   6
   3   4   9 145.825 10.8939   4
   3   4   9 135.305 9.87465   6
   3   4   9 133.963 10.7530   6
   3   4   9 144.169 12.8218   2
  -4  -4  -9 62.6035 7.73855   6
  -4  -4  -9 56.4455 7.50136   6
  -4  -4  -9 43.3010 6.74286   5
   4   4   9 66.5137 10.6934   1
   4   4   9 38.9656 8.06697   2
   4   4   9 52.9093 7.66696   6
   4   4   9 52.1306 8.63389   6
   4   4   9 45.8998 7.70217   4
  -5  -4  -9 1539.09 38.3832   6
  -5  -4  -9 1469.63 36.3765   5
  -5  -4  -9 1511.99 36.9607   6
  -5  -4  -9 1454.68 44.6829   2
   5   4   9 1534.25 47.9623   2
   5   4   9 1510.46 39.0367   6
   5   4   9 1496.28 34.5356   3
   5   4   9 1524.11 51.3545   1
   5   4   9 1576.77 42.3931   6
   5   4   9 1520.42 41.6663   4
  -6  -4  -9 472.970 18.3711   6
  -6  -4  -9 458.349 19.3965   6
  -6  -4  -9 440.970 16.1235   5
   6   4   9 436.980 21.8248   4
   6   4   9 475.900 24.7785   1
   6   4   9 453.662 17.4033   3
   6   4   9 462.333 24.8413   2
   6   4   9 449.171 20.0896   6
   6   4   9 463.456 22.4068   6
  -7  -4  -9 81.8830 15.5760   2
  -7  -4  -9 76.8633 9.38016   6
  -7  -4  -9 72.2997 10.9441   6
   7   4   9 94.5293 12.1449   6
   7   4   9 80.1579 11.0914   6
   7   4   9 77.2546 9.69123   3
   7   4   9 73.5550 12.9483   2
   7   4   9 64.3730 12.4117   1
  -8  -4  -9 190.065 16.5162   6
  -8  -4  -9 185.793 15.7959   6
   8   4   9 190.817 17.2349   6
   8   4   9 202.985 16.9047   3
   8   4   9 208.719 19.6648   2
   8   4   9 196.124 21.0164   1
   6  -5  -9 -3.2172 7.04131   4
   6  -5  -9 -4.7731 6.55847   6
  -6   5   9 5.73179 7.30335   6
  -6   5   9 12.8485 8.33455   5
   5  -5  -9 279.297 21.0950   3
   5  -5  -9 302.053 18.7011   6
   5  -5  -9 281.041 21.1194   5
   5  -5  -9 269.482 17.2363   6
   5  -5  -9 274.429 14.9586   4
  -5   5   9 292.924 18.3250   6
  -5   5   9 234.025 18.7776   5
   4  -5  -9 312.180 17.9279   6
   4  -5  -9 319.558 14.3007   4
   4  -5  -9 313.068 16.9107   6
   4  -5  -9 328.286 24.3876   5
  -4   5   9 306.089 17.7900   6
  -4   5   9 275.692 19.2676   5
  -4   5   9 331.798 19.1860   6
  -4   5   9 271.180 21.3908   1
   3  -5  -9 81.0539 8.62117   4
   3  -5  -9 82.7590 11.1410   3
   3  -5  -9 85.3515 11.9192   5
  -3   5   9 74.2371 11.3315   1
  -3   5   9 87.7005 12.1916   2
  -3   5   9 78.6052 10.2855   6
  -3   5   9 110.650 12.1232   6
  -3   5   9 88.2756 12.1961   5
   2  -5  -9 2232.54 48.3224   4
   2  -5  -9 2247.16 52.2851   3
   2  -5  -9 2315.53 53.3398   6
   2  -5  -9 2159.70 50.9802   6
  -2   5   9 2263.13 57.3215   5
  -2   5   9 2207.97 54.3606   6
  -2   5   9 2295.74 54.1348   6
  -2   5   9 2236.39 49.0294   4
  -2   5   9 2258.43 56.7934   2
   1  -5  -9 125.910 10.2592   6
   1  -5  -9 121.188 9.23020   6
   1  -5  -9 113.645 11.4618   5
   1  -5  -9 127.618 8.82040   4
   1  -5  -9 119.783 9.16165   3
  -1   5   9 110.985 8.41014   4
  -1   5   9 105.823 10.3293   6
  -1   5   9 122.493 12.4046   2
  -1   5   9 116.321 13.0265   5
  -1   5   9 129.223 10.8057   6
   0  -5  -9 22.1898 5.30418   4
   0  -5  -9 15.0545 6.16020   5
   0  -5  -9 16.0026 4.78095   6
   0  -5  -9 17.9026 4.72285   6
   0   5   9 25.7337 5.26079   4
   0   5   9 11.1871 5.19870   6
   0   5   9 14.5094 6.22368   2
   0   5   9 13.8362 6.57614   5
   0   5   9 12.4986 5.37040   6
  -1  -5  -9 3175.54 63.1829   6
  -1  -5  -9 3082.11 62.4185   6
  -1  -5  -9 3030.33 67.7611   5
   1   5   9 3077.03 63.7301   4
   1   5   9 3013.18 66.2711   6
   1   5   9 3146.13 71.3711   2
   1   5   9 3024.83 68.2071   5
  -2  -5  -9 31.5453 6.74189   5
  -2  -5  -9 34.2293 5.82761   6
  -2  -5  -9 26.8396 5.13300   6
  -2  -5  -9 25.0941 7.33769   2
   2   5   9 33.8257 6.50096   6
   2   5   9 28.7723 6.75675   6
   2   5   9 30.4063 7.99990   2
   2   5   9 34.5486 6.21581   4
   2   5   9 24.7161 6.73313   5
  -3  -5  -9 555.632 17.5331   6
  -3  -5  -9 556.323 17.2925   6
  -3  -5  -9 515.227 19.2328   5
   3   5   9 526.337 21.0797   6
   3   5   9 561.615 19.4250   6
   3   5   9 538.043 20.1867   4
   3   5   9 550.748 24.5138   2
   3   5   9 581.506 20.9357   5
  -4  -5  -9 246.355 12.4878   5
  -4  -5  -9 243.217 11.8991   6
  -4  -5  -9 248.109 11.2828   6
   4   5   9 245.959 17.3525   1
   4   5   9 234.369 12.9645   6
   4   5   9 232.692 13.9328   4
   4   5   9 224.735 14.5339   6
   4   5   9 265.628 18.1961   2
  -5  -5  -9 177.316 16.3147   2
  -5  -5  -9 198.140 10.6723   5
  -5  -5  -9 186.687 10.8212   6
  -5  -5  -9 162.812 10.6467   6
   5   5   9 203.059 14.5918   6
   5   5   9 180.158 17.4291   2
   5   5   9 169.699 13.8224   4
   5   5   9 190.672 12.6643   6
   5   5   9 165.670 15.4769   1
  -6  -5  -9 1074.69 26.0625   5
  -6  -5  -9 1071.94 39.9000   2
  -6  -5  -9 1108.95 28.4051   6
  -6  -5  -9 1064.35 30.1420   6
   6   5   9 1069.19 34.7464   6
   6   5   9 1048.76 32.4399   6
   6   5   9 1082.02 39.5308   2
   6   5   9 1045.97 35.3107   4
   6   5   9 1073.21 39.4028   1
  -7  -5  -9 24.5925 7.04984   6
  -7  -5  -9 30.3008 6.89987   6
   7   5   9 29.1282 8.65131   6
   7   5   9 25.4321 10.9123   2
   7   5   9 16.2278 8.06055   6
   7   5   9 26.2669 9.18595   1
   7   5   9 17.9034 7.76909   3
  -8  -5  -9 132.581 12.6442   6
  -8  -5  -9 180.310 13.0307   6
   8   5   9 167.529 16.5179   6
   8   5   9 145.071 14.1773   3
   8   5   9 143.852 19.9328   1
   6  -6  -9 71.0347 11.5912   6
  -6   6   9 40.8657 9.17679   6
   5  -6  -9 70.8211 9.97480   6
   5  -6  -9 78.7366 8.52842   4
   5  -6  -9 95.5885 14.4075   3
   5  -6  -9 78.3550 11.7426   6
  -5   6   9 57.2914 11.4680   5
  -5   6   9 66.0551 10.7866   6
   4  -6  -9 171.399 16.2799   3
   4  -6  -9 192.059 10.7816   4
   4  -6  -9 204.961 13.9293   6
   4  -6  -9 160.912 16.8296   5
  -4   6   9 176.749 14.5543   6
  -4   6   9 160.424 14.9060   6
  -4   6   9 159.398 16.0187   5
  -4   6   9 155.229 20.4686   1
   3  -6  -9 16.7695 4.97666   4
   3  -6  -9 25.6510 7.48695   6
   3  -6  -9 16.6290 8.19501   5
   3  -6  -9 25.3891 7.95857   3
  -3   6   9 22.2103 9.19142   1
  -3   6   9 16.8500 8.79487   2
  -3   6   9 12.7177 6.98215   6
  -3   6   9 10.8550 6.92196   6
  -3   6   9 27.0599 7.98446   5
   2  -6  -9 951.332 28.3055   3
   2  -6  -9 943.464 23.6233   4
   2  -6  -9 922.739 28.1322   6
   2  -6  -9 895.035 26.7890   6
  -2   6   9 931.878 29.6710   6
  -2   6   9 888.300 23.4144   4
  -2   6   9 938.536 33.4518   2
  -2   6   9 925.001 32.4131   5
  -2   6   9 877.922 29.6224   6
  -2   6   9 861.459 34.7353   1
   1  -6  -9 5.52668 4.97888   6
   1  -6  -9 8.82122 4.80409   3
   1  -6  -9 3.47053 4.15601   6
  -1   6   9 4.04412 5.35763   6
  -1   6   9 10.1143 7.00563   5
  -1   6   9 8.09716 5.48422   6
  -1   6   9 9.73170 6.20672   1
  -1   6   9 -5.4903 4.82296   2
  -1   6   9 -4.3505 3.35885   4
   0  -6  -9 131.418 8.40976   6
   0  -6  -9 138.564 11.8017   5
   0  -6  -9 160.479 9.76431   6
   0   6   9 145.627 11.2893   6
   0   6   9 136.406 9.20835   4
   0   6   9 141.681 13.3100   5
   0   6   9 134.773 10.8633   6
   0   6   9 149.272 13.6838   2
  -1  -6  -9 2494.36 57.7870   5
  -1  -6  -9 2438.68 49.7994   6
  -1  -6  -9 2479.01 50.0504   6
   1   6   9 2485.95 52.4760   4
   1   6   9 2350.39 57.3955   5
   1   6   9 2442.73 55.4072   6
   1   6   9 2361.09 60.7714   2
  -2  -6  -9 146.689 11.8128   5
  -2  -6  -9 147.469 8.11878   6
   2   6   9 134.775 10.8628   4
   2   6   9 151.678 10.4977   6
   2   6   9 129.761 14.8281   2
   2   6   9 152.380 11.6576   6
   2   6   9 143.996 11.9647   5
  -3  -6  -9 46.4711 7.45296   5
  -3  -6  -9 41.3935 5.01059   6
  -3  -6  -9 51.3857 5.37906   6
   3   6   9 51.1535 7.59762   6
   3   6   9 43.5092 9.60795   2
   3   6   9 43.6216 7.82791   6
   3   6   9 57.7304 8.58303   4
   3   6   9 40.0181 8.02807   5
  -4  -6  -9 1933.60 54.9326   2
  -4  -6  -9 1976.79 45.7063   5
   4   6   9 2115.36 57.3072   2
   4   6   9 1973.87 46.4750   6
   4   6   9 1944.76 48.9559   4
   4   6   9 2097.08 50.4213   6
   4   6   9 1975.71 55.1853   1
  -5  -6  -9 275.799 22.0467   2
  -5  -6  -9 273.650 12.4104   5
   5   6   9 289.826 20.5280   2
   5   6   9 261.188 16.4589   6
   5   6   9 263.826 19.2274   1
   5   6   9 284.967 15.3155   6
   5   6   9 261.169 16.6353   4
  -6  -6  -9 1297.96 45.0692   2
   6   6   9 1315.82 36.6529   6
   6   6   9 1229.76 43.7434   2
   6   6   9 1284.98 38.4483   6
   6   6   9 1217.95 39.3949   4
   6   6   9 1196.44 43.3590   1
   7   6   9 171.664 16.0680   6
   7   6   9 231.083 17.3289   6
   7   6   9 196.918 18.3264   2
   7   6   9 160.610 19.8888   1
   5  -7  -9 -1.1146 6.78544   6
   5  -7  -9 22.9001 10.7388   3
  -5   7   9 -1.6985 7.26373   5
   4  -7  -9 254.128 16.5334   6
   4  -7  -9 256.540 18.7128   3
   4  -7  -9 236.502 14.8547   6
  -4   7   9 270.604 17.7122   6
  -4   7   9 244.701 19.7114   5
  -4   7   9 283.531 20.9549   2
   3  -7  -9 166.557 11.6402   6
   3  -7  -9 159.018 13.2828   3
   3  -7  -9 152.786 16.9157   5
   3  -7  -9 172.718 13.1351   6
  -3   7   9 143.193 16.7690   1
  -3   7   9 159.693 14.3447   6
  -3   7   9 156.337 16.7351   2
  -3   7   9 167.122 16.1539   5
  -3   7   9 154.064 13.6058   6
   2  -7  -9 616.902 21.6501   3
   2  -7  -9 631.852 30.1313   5
   2  -7  -9 590.980 19.9552   6
   2  -7  -9 616.422 21.4972   6
  -2   7   9 547.610 26.3866   2
  -2   7   9 574.658 23.6900   6
  -2   7   9 599.549 26.6545   5
  -2   7   9 539.997 28.5115   1
  -2   7   9 609.479 23.7306   6
   1  -7  -9 3.63859 5.69855   5
   1  -7  -9 12.0828 4.59461   6
   1  -7  -9 3.91884 4.42366   3
   1  -7  -9 12.3202 4.96946   6
  -1   7   9 8.89513 5.43022   6
  -1   7   9 3.30006 5.67351   5
  -1   7   9 4.72071 4.92878   6
  -1   7   9 1.58240 6.63208   1
  -1   7   9 4.48407 6.64486   2
   0  -7  -9 33.5462 5.30935   6
   0  -7  -9 24.4022 4.63188   6
   0   7   9 30.3762 6.63779   6
   0   7   9 35.9220 6.85295   6
   0   7   9 46.6595 14.3859   2
   0   7   9 33.4115 5.46124   4
   0   7   9 30.5384 7.90067   5
  -1  -7  -9 1483.03 41.0288   5
   1   7   9 1490.68 38.8073   6
   1   7   9 1510.47 38.6084   6
   1   7   9 1493.90 35.2834   4
   1   7   9 1431.87 41.5194   5
  -2  -7  -9 245.305 14.5581   5
   2   7   9 226.748 14.8292   5
   2   7   9 239.091 13.0223   6
   2   7   9 264.443 14.9026   6
   2   7   9 216.339 17.1584   2
  -3  -7  -9 0.69031 6.16792   2
  -3  -7  -9 17.0394 6.01526   5
   3   7   9 11.8511 6.45301   2
   3   7   9 10.6468 6.65086   5
   3   7   9 19.1842 6.05505   6
   3   7   9 3.15582 5.54910   6
   3   7   9 6.41683 5.20452   4
  -4  -7  -9 515.530 26.4992   2
  -4  -7  -9 546.684 19.3281   5
   4   7   9 519.631 21.8652   6
   4   7   9 518.266 20.1408   5
   4   7   9 557.983 19.9410   6
   4   7   9 538.458 27.9047   2
   4   7   9 507.992 21.4954   4
   4   7   9 538.315 26.6206   1
  -5  -7  -9 19.3069 5.43203   5
  -5  -7  -9 22.2989 9.24636   2
   5   7   9 12.4580 5.82932   6
   5   7   9 12.3511 9.53367   4
   5   7   9 11.0432 7.65328   1
   5   7   9 14.3544 6.46104   6
   5   7   9 23.0398 9.98884   2
   6   7   9 113.807 16.1771   1
   6   7   9 122.636 12.6205   6
   6   7   9 130.345 13.0393   6
   6   7   9 122.793 15.1892   2
   7   7   9 125.786 16.7749   2
   7   7   9 88.7257 16.0187   1
   7   7   9 107.811 19.6435   6
   4  -8  -9 39.2287 8.85501   6
   4  -8  -9 33.9691 10.3518   3
   4  -8  -9 16.5202 7.24367   6
  -4   8   9 45.7214 11.9538   2
  -4   8   9 26.6211 9.97570   5
  -4   8   9 41.9838 9.74582   6
   3  -8  -9 145.466 14.1478   3
   3  -8  -9 120.801 10.4487   6
   3  -8  -9 114.407 11.3132   6
  -3   8   9 137.499 19.2870   1
  -3   8   9 117.575 13.3621   6
  -3   8   9 101.149 14.4456   5
  -3   8   9 129.447 16.8838   2
  -3   8   9 113.094 13.4811   6
   2  -8  -9 19.8884 8.35215   5
   2  -8  -9 32.6321 7.19094   3
   2  -8  -9 25.8004 5.91501   6
   2  -8  -9 18.8612 5.21045   6
  -2   8   9 38.5066 10.2394   1
  -2   8   9 24.9266 7.79447   6
  -2   8   9 24.1292 7.38899   6
  -2   8   9 15.2599 8.10005   5
  -2   8   9 24.0642 9.53529   2
   1  -8  -9 30.5947 4.77971   6
   1  -8  -9 39.1727 6.73122   6
  -1   8   9 19.4106 8.66213   5
  -1   8   9 34.4717 9.79773   1
  -1   8   9 36.3229 9.26184   6
  -1   8   9 38.2790 8.39186   6
  -1   8   9 31.3747 9.88535   2
   0  -8  -9 38.9109 8.55280   5
   0   8   9 50.2918 7.59592   6
   0   8   9 34.9279 7.19791   6
   0   8   9 38.0505 10.6020   2
   0   8   9 47.3146 10.2145   5
   1   8   9 340.080 13.7246   4
   1   8   9 349.074 16.4870   6
   1   8   9 344.324 19.1889   5
   1   8   9 359.501 16.6424   6
   1   8   9 346.388 21.9518   2
  -2  -8  -9 121.053 11.8875   5
   2   8   9 109.378 14.4838   2
   2   8   9 101.482 10.7598   4
   2   8   9 121.326 11.3969   6
   2   8   9 117.049 11.1967   6
   2   8   9 104.507 11.5487   5
  -3  -8  -9 58.3685 8.33529   5
   3   8   9 59.0805 12.3831   2
   3   8   9 69.9254 9.84619   5
   3   8   9 64.5682 9.11917   4
   3   8   9 68.6911 9.40692   6
   3   8   9 62.5598 8.43029   6
  -4  -8  -9 388.222 19.8155   5
   4   8   9 399.611 19.5167   4
   4   8   9 409.127 19.4997   6
   4   8   9 459.820 26.1306   2
   4   8   9 426.543 17.8199   6
   4   8   9 412.894 24.1521   1
   4   8   9 422.429 18.6690   5
  -5  -8  -9 179.017 10.4510   5
  -5  -8  -9 153.618 19.3235   2
   5   8   9 177.170 15.6632   4
   5   8   9 128.647 15.5977   1
   5   8   9 172.927 17.3745   2
   5   8   9 172.797 13.2725   6
   6   8   9 -2.3472 7.71570   2
   6   8   9 3.37317 8.06180   6
   4  -9  -9 -14.413 16.0124   3
   4  -9  -9 1.07076 6.41625   6
  -4   9   9 7.06660 10.3874   6
  -4   9   9 5.87465 10.6410   2
  -4   9   9 -14.645 7.12305   5
   3  -9  -9 115.641 9.73206   6
   3  -9  -9 104.289 15.0777   3
  -3   9   9 108.540 17.4969   2
  -3   9   9 115.513 13.2342   6
  -3   9   9 93.7056 13.6180   5
  -2   9   9 189.210 15.1695   6
  -2   9   9 233.577 21.3962   1
  -2   9   9 211.250 15.4389   6
  -2   9   9 184.907 17.7140   5
  -2   9   9 225.411 20.5344   2
   1  -9  -9 41.1427 10.9161   5
  -1   9   9 36.0335 9.94862   5
  -1   9   9 51.3243 11.3807   1
  -1   9   9 38.7337 9.79525   2
  -1   9   9 38.2489 8.51996   6
  -1   9   9 38.4543 8.64984   6
   0  -9  -9 32.1012 9.28555   5
   0   9   9 21.6111 6.74486   6
   0   9   9 31.3323 9.01549   5
   0   9   9 14.6589 6.78465   6
   0   9   9 27.5943 10.7320   2
  -1  -9  -9 144.510 14.3991   5
   1   9   9 130.334 16.4538   2
   1   9   9 107.170 11.3170   6
   1   9   9 115.533 8.70111   4
   1   9   9 117.606 14.1135   5
   1   9   9 132.554 11.3932   6
   2   9   9 378.895 18.2005   6
   2   9   9 347.021 15.5167   4
   2   9   9 343.435 21.5721   5
   2   9   9 397.783 24.7407   2
  -3  -9  -9 158.315 13.5338   5
   3   9   9 146.839 12.8663   6
   3   9   9 205.963 19.7817   2
   3   9   9 151.264 14.0553   5
   3   9   9 129.015 12.0444   4
   3   9   9 147.389 12.0472   6
  -4  -9  -9 29.5945 7.35839   5
   4   9   9 14.8716 9.98053   2
   4   9   9 19.0617 7.64283   6
   4   9   9 19.7406 5.91247   6
   4   9   9 22.7750 8.35455   4
   4   9   9 11.2501 8.26274   1
   4   9   9 26.3047 7.63719   5
   5   9   9 373.349 19.0733   6
   5   9   9 359.296 24.6009   2
   5   9   9 372.841 18.2304   6
   5   9   9 347.086 25.3093   1
   5   9   9 403.196 21.9787   4
   2 -10  -9 637.533 24.0371   3
  -2  10   9 624.175 26.0724   6
  -2  10   9 653.801 33.3659   6
  -2  10   9 527.814 42.2729   5
  -2  10   9 652.483 33.4776   2
  -1  10   9 12.9667 7.84831   6
  -1  10   9 -8.8894 9.57392   6
  -1  10   9 19.4764 9.25448   2
  -1  10   9 23.1071 9.45904   5
   0 -10  -9 1.07482 8.43567   5
   0  10   9 5.16211 6.03632   6
   0  10   9 -20.251 5.95111   6
   0  10   9 0.65608 8.01470   5
   0  10   9 7.92080 9.96566   2
  -1 -10  -9 376.737 23.0623   5
   1  10   9 385.932 19.0500   6
   1  10   9 423.960 22.8293   5
   1  10   9 429.548 27.4163   2
   1  10   9 422.604 19.2414   6
  -2 -10  -9 193.290 16.8654   5
   2  10   9 181.326 21.2455   2
   2  10   9 171.139 14.1910   6
   2  10   9 227.118 13.8708   6
   2  10   9 201.375 12.0935   4
   2  10   9 217.672 17.1664   5
  -3 -10  -9 102.606 16.7659   5
   3  10   9 107.641 12.1550   6
   3  10   9 106.662 11.0130   6
   3  10   9 107.947 11.5277   4
   3  10   9 92.6635 14.2099   1
   3  10   9 115.352 16.0144   2
   4  10   9 41.8063 9.53915   6
   4  10   9 56.1302 9.74041   5
   4  10   9 52.1290 15.5977   1
   4  10   9 67.9331 9.39149   6
   4  10   9 55.8064 14.2179   2
   0  11   9 15.2817 9.61670   2
   0  11   9 -10.583 7.86234   5
   0  11   9 -2.8782 7.23913   6
   1  11   9 931.152 41.6588   2
   1  11   9 902.182 29.1328   6
   1  11   9 865.051 29.6780   6
   1  11   9 889.427 35.1532   5
   2   6 -10 127.751 14.1844   6
   2   6 -10 101.828 12.1639   6
   2   6 -10 103.778 19.1712   4
   2   6 -10 99.0522 15.0360   3
  -2  -6  10 104.115 10.1680   1
   1   6 -10 0.08341 8.40408   6
   1   6 -10 -0.1364 5.69720   6
   1   6 -10 13.7364 7.08210   4
   0   6 -10 5.15414 6.50075   6
   0   6 -10 16.0366 8.43619   3
   0   6 -10 4.71149 7.59835   4
  -1   6 -10 7.83892 6.42695   6
  -1   6 -10 -3.0260 7.42695   3
  -1   6 -10 9.05552 7.81399   6
  -1   6 -10 3.81373 7.60304   4
   1  -6  10 -9.6628 7.88311   4
  -2   6 -10 97.9671 17.6380   3
  -2   6 -10 78.8466 11.0752   2
  -2   6 -10 91.9647 12.7328   6
  -2   6 -10 95.9141 13.8437   4
  -2   6 -10 71.0249 10.8262   6
   2  -6  10 59.5934 10.0297   4
  -3   6 -10 16.5268 9.83100   4
  -3   6 -10 20.7195 8.36462   2
  -3   6 -10 22.6453 8.54213   6
   3  -6  10 7.65351 9.09437   4
  -4   6 -10 46.3230 12.4354   2
  -4   6 -10 69.0310 15.4033   3
  -4   6 -10 66.3558 12.8705   4
  -4   6 -10 34.4129 9.60861   6
   4  -6  10 38.4137 10.6321   4
   3   5 -10 110.475 24.0665   4
   3   5 -10 117.486 13.6866   1
   3   5 -10 105.188 13.1604   6
   3   5 -10 145.408 16.2191   5
   3   5 -10 118.800 18.9032   3
   3   5 -10 141.891 13.5837   6
   2   5 -10 20.1308 8.08762   4
   2   5 -10 41.4819 8.03948   6
   2   5 -10 29.8206 9.54191   5
   2   5 -10 35.6950 12.0674   3
  -2  -5  10 31.4205 9.54640   1
   1   5 -10 323.689 22.1528   3
   1   5 -10 332.832 17.4576   6
   1   5 -10 355.975 22.0749   5
   1   5 -10 310.411 17.6232   6
   1   5 -10 306.455 20.1783   4
  -1  -5  10 371.221 14.0825   1
  -1  -5  10 339.272 26.2632   4
   0   5 -10 100.063 11.6881   6
   0   5 -10 108.764 14.2268   4
   0   5 -10 86.7025 10.8009   6
   0   5 -10 69.7421 13.7370   3
   0  -5  10 81.1477 11.0106   4
  -1   5 -10 6.47864 4.86319   2
  -1   5 -10 9.38168 6.29574   6
  -1   5 -10 11.9467 6.86503   6
  -1   5 -10 11.0391 9.67098   3
  -1   5 -10 -3.2082 5.78332   4
   1  -5  10 13.0705 7.43761   4
  -2   5 -10 4.88998 10.4561   6
  -2   5 -10 2.48207 6.73878   3
  -2   5 -10 -3.2283 7.02913   4
  -2   5 -10 5.44804 6.50642   6
  -2   5 -10 -2.5926 5.61291   2
   2  -5  10 4.58872 4.09985   6
   2  -5  10 4.39970 7.75899   4
   2  -5  10 2.66696 4.78101   6
  -3   5 -10 104.878 13.0510   6
  -3   5 -10 133.982 14.3735   2
  -3   5 -10 108.283 15.9611   3
  -3   5 -10 144.240 14.7777   6
  -3   5 -10 107.433 13.9810   4
   3  -5  10 125.762 10.3316   6
   3  -5  10 124.904 14.7791   4
   3  -5  10 102.893 9.79961   6
  -4   5 -10 201.197 16.6034   6
  -4   5 -10 213.270 17.6434   2
  -4   5 -10 209.378 18.3344   4
  -4   5 -10 184.617 21.2371   3
   4  -5  10 219.158 16.9208   4
   4  -5  10 231.085 14.4803   6
  -5   5 -10 3.41057 11.4627   3
  -5   5 -10 5.88018 7.87298   6
   5  -5  10 10.9588 8.36062   6
   5  -5  10 2.69580 8.82020   4
   5  -5  10 9.90594 9.78659   6
   4   4 -10 530.758 26.3348   1
   4   4 -10 521.267 25.9649   5
   4   4 -10 533.275 27.3740   4
  -4  -4  10 556.749 33.0244   1
   3   4 -10 0.95789 7.72539   5
   3   4 -10 -1.3756 6.52085   4
   3   4 -10 3.31601 5.64298   6
   3   4 -10 -1.3148 6.26521   6
   3   4 -10 -4.6391 6.42217   1
   2   4 -10 83.7150 12.4946   3
   2   4 -10 73.4573 10.7292   6
   2   4 -10 92.8851 11.3634   6
   2   4 -10 77.3611 11.9497   4
  -2  -4  10 96.5244 11.3576   1
  -2  -4  10 67.3850 12.3319   4
   1   4 -10 1679.68 46.7652   6
   1   4 -10 1704.76 52.2710   3
   1   4 -10 1670.91 44.0849   6
   1   4 -10 1700.53 48.3436   4
   1   4 -10 1473.37 62.3755   5
  -1  -4  10 1608.39 39.2701   1
   0   4 -10 160.010 14.9339   4
   0   4 -10 148.317 15.6427   3
   0   4 -10 154.579 20.4818   6
   0   4 -10 161.918 13.6707   6
   0  -4  10 140.099 8.17867   1
   0  -4  10 182.513 18.6140   4
  -1   4 -10 99.7650 12.3382   6
  -1   4 -10 94.3732 9.42204   2
  -1   4 -10 108.310 15.5149   3
  -1   4 -10 90.6078 12.3871   4
   1  -4  10 102.872 8.31294   6
   1  -4  10 108.738 8.68065   6
   1  -4  10 91.0508 11.8722   4
  -2   4 -10 500.094 24.2326   4
  -2   4 -10 465.340 21.0509   6
  -2   4 -10 462.497 19.3453   2
  -2   4 -10 421.788 25.2325   3
  -2   4 -10 482.067 21.6385   6
   2  -4  10 493.061 17.4528   6
   2  -4  10 453.915 17.2912   6
   2  -4  10 475.716 22.0504   4
  -3   4 -10 15.7443 10.1243   6
  -3   4 -10 5.76969 6.43264   2
  -3   4 -10 14.0821 7.46340   6
  -3   4 -10 -0.4115 7.24597   3
  -3   4 -10 14.6813 6.93262   4
   3  -4  10 6.86988 5.43669   6
   3  -4  10 9.95354 7.27889   4
   3  -4  10 19.5159 6.26927   6
  -4   4 -10 447.212 22.7567   6
  -4   4 -10 447.566 23.5013   2
  -4   4 -10 430.002 23.9034   4
  -4   4 -10 472.771 27.9840   3
  -4   4 -10 458.656 22.8762   6
   4  -4  10 427.425 25.1825   4
   4  -4  10 453.542 19.6637   6
   4  -4  10 434.582 24.7439   3
  -5   4 -10 5.53692 8.15532   6
  -5   4 -10 3.78067 8.09830   2
  -5   4 -10 4.41193 9.95512   3
   5  -4  10 -6.6638 6.55383   6
   5  -4  10 13.6080 8.81774   4
   5  -4  10 -14.019 6.79849   6
  -6   4 -10 77.3039 17.3421   6
   6  -4  10 41.3812 9.94414   6
   6  -4  10 62.9957 11.0761   6
   6  -4  10 77.8781 15.1047   4
   5   3 -10 297.126 21.5162   1
   5   3 -10 221.427 19.4891   4
   5   3 -10 241.464 17.7917   6
   5   3 -10 255.372 19.1409   5
   4   3 -10 229.823 15.6186   6
   4   3 -10 166.105 16.0878   6
   4   3 -10 216.313 17.9460   1
   4   3 -10 249.334 17.9921   5
   4   3 -10 185.614 17.8378   4
  -4  -3  10 235.422 33.7999   1
  -4  -3  10 227.000 10.5318   6
   3   3 -10 -3.6410 6.49964   5
   3   3 -10 6.76462 7.20364   1
   3   3 -10 -0.0705 7.77415   6
   3   3 -10 1.47621 7.63013   4
  -3  -3  10 8.80227 4.42320   6
  -3  -3  10 7.94981 4.04648   6
  -3  -3  10 3.09368 5.42332   4
   2   3 -10 25.8212 7.96777   4
   2   3 -10 25.8759 7.60560   6
   2   3 -10 24.3028 8.23976   6
   2   3 -10 36.0852 8.71145   5
  -2  -3  10 33.9629 7.49763   1
  -2  -3  10 22.3802 6.98860   4
  -2  -3  10 28.5953 5.27018   6
  -2  -3  10 19.1614 5.49900   6
   1   3 -10 1215.01 35.6365   6
   1   3 -10 1211.05 38.5238   4
   1   3 -10 1230.86 41.2032   3
   1   3 -10 1166.76 38.0592   5
   1   3 -10 1252.38 35.1922   6
  -1  -3  10 1157.92 38.8331   4
  -1  -3  10 1240.02 30.4493   6
  -1  -3  10 1172.50 29.4403   6
  -1  -3  10 1146.14 32.0762   1
   0   3 -10 0.43537 5.52333   4
   0   3 -10 8.22571 5.39160   6
   0   3 -10 0.25658 5.16279   6
   0   3 -10 4.56144 6.51121   3
   0   3 -10 9.22796 5.91769   5
   0  -3  10 6.90558 4.30044   1
   0  -3  10 10.2432 6.58650   4
   0  -3  10 5.80975 4.54764   6
   0  -3  10 6.81966 4.43409   6
  -1   3 -10 3.87843 5.23422   6
  -1   3 -10 2.45387 5.84420   6
  -1   3 -10 4.57501 4.50418   2
  -1   3 -10 2.16201 7.51344   3
  -1   3 -10 9.46148 7.27443   4
   1  -3  10 6.06869 4.88706   6
   1  -3  10 7.11562 3.42713   1
   1  -3  10 14.3384 6.61871   4
   1  -3  10 13.0160 5.43145   6
  -2   3 -10 1354.68 50.5676   4
  -2   3 -10 1361.30 38.9172   6
  -2   3 -10 1371.46 37.2002   2
  -2   3 -10 1469.38 42.2442   6
  -2   3 -10 1397.81 45.0818   3
   2  -3  10 1364.13 35.7322   6
   2  -3  10 1372.43 35.4746   6
   2  -3  10 1377.55 40.5237   4
  -3   3 -10 147.599 13.1895   6
  -3   3 -10 176.476 14.4298   6
  -3   3 -10 164.753 16.8454   3
  -3   3 -10 147.724 13.1296   2
  -3   3 -10 160.994 15.9747   4
   3  -3  10 141.584 12.0710   6
   3  -3  10 173.762 12.5087   6
   3  -3  10 178.727 14.1000   4
  -4   3 -10 481.235 26.9480   3
  -4   3 -10 478.599 23.1110   2
  -4   3 -10 505.375 24.6406   4
  -4   3 -10 480.827 25.7862   6
  -4   3 -10 521.458 23.5439   6
   4  -3  10 445.801 21.7553   4
   4  -3  10 491.528 21.1410   6
   4  -3  10 487.279 31.9335   3
  -5   3 -10 97.0807 15.2481   3
  -5   3 -10 101.442 12.9643   6
  -5   3 -10 95.0249 13.0496   6
  -5   3 -10 100.408 13.8033   2
   5  -3  10 80.8338 15.3059   4
   5  -3  10 103.435 11.7289   6
   5  -3  10 89.7107 13.7025   3
   5  -3  10 99.9871 11.6719   6
  -6   3 -10 -5.5973 8.29565   3
  -6   3 -10 -3.4715 7.06842   6
   6  -3  10 -10.877 6.71981   6
   6  -3  10 8.00503 8.39491   6
   6  -3  10 4.97169 4.93071   1
   6  -3  10 5.75174 8.35389   4
  -7   3 -10 527.937 40.8305   3
   7  -3  10 596.512 27.4227   6
   7  -3  10 568.332 21.4364   1
   5   2 -10 465.324 23.1027   6
   5   2 -10 496.706 27.8025   5
   5   2 -10 481.348 26.6669   1
   5   2 -10 519.920 26.9479   4
  -5  -2  10 508.707 19.7960   6
  -5  -2  10 466.873 19.1115   6
   4   2 -10 172.491 16.5231   4
   4   2 -10 154.443 15.7386   1
   4   2 -10 180.315 15.6820   6
   4   2 -10 171.684 15.2107   5
   4   2 -10 165.075 14.6930   6
  -4  -2  10 181.999 11.5877   6
  -4  -2  10 159.973 16.8421   1
  -4  -2  10 184.278 12.3017   6
   3   2 -10 22.5244 7.63472   4
   3   2 -10 60.1896 9.61197   6
   3   2 -10 35.9495 8.75239   5
   3   2 -10 50.7051 10.6612   1
  -3  -2  10 27.8661 7.32164   4
  -3  -2  10 39.8814 6.82567   6
  -3  -2  10 45.6315 7.06284   6
   2   2 -10 590.709 23.6827   6
   2   2 -10 612.537 25.7085   5
   2   2 -10 711.068 35.0288   6
   2   2 -10 602.728 25.7997   4
  -2  -2  10 555.348 25.7581   4
  -2  -2  10 624.404 20.9604   6
  -2  -2  10 612.106 23.9205   1
   1   2 -10 744.789 28.6230   5
   1   2 -10 741.868 25.6838   6
   1   2 -10 764.591 26.3543   6
   1   2 -10 740.986 28.2584   4
  -1  -2  10 725.239 24.9424   1
  -1  -2  10 788.464 23.9481   6
  -1  -2  10 792.674 25.9412   6
   0   2 -10 842.705 27.2486   6
   0   2 -10 804.656 21.9357   2
   0   2 -10 816.477 29.3949   4
   0   2 -10 789.965 29.3772   5
   0   2 -10 760.803 26.2074   6
   0   2 -10 805.715 31.0505   3
   0  -2  10 809.451 24.8561   6
   0  -2  10 815.709 24.2007   1
  -1   2 -10 29.5603 7.13794   6
  -1   2 -10 15.5096 6.88177   3
  -1   2 -10 30.3458 6.13835   2
  -1   2 -10 16.8303 7.37004   4
  -1   2 -10 42.1213 8.52517   6
   1  -2  10 18.2443 5.63116   6
   1  -2  10 24.9029 6.40302   6
   1  -2  10 25.7250 5.99826   2
   1  -2  10 17.2511 4.56472   1
  -2   2 -10 982.760 32.4454   2
  -2   2 -10 998.651 31.1447   6
  -2   2 -10 1017.35 35.6093   3
  -2   2 -10 983.494 31.5938   6
  -2   2 -10 1033.58 34.2639   4
   2  -2  10 1049.98 30.6981   2
   2  -2  10 1071.95 30.6227   6
   2  -2  10 1060.20 29.9375   6
   2  -2  10 1002.45 25.4241   1
  -3   2 -10 322.047 27.6474   6
  -3   2 -10 329.935 20.4707   3
  -3   2 -10 329.461 17.5853   2
  -3   2 -10 300.527 17.1353   6
  -3   2 -10 315.370 18.8249   4
   3  -2  10 358.751 16.5900   6
   3  -2  10 345.365 13.0503   1
   3  -2  10 329.951 16.7676   6
   3  -2  10 372.111 18.5998   2
   3  -2  10 340.427 12.5324   1
  -4   2 -10 518.760 22.9971   6
  -4   2 -10 512.379 24.4781   4
  -4   2 -10 549.080 23.1929   6
  -4   2 -10 540.830 26.9143   3
  -4   2 -10 531.497 23.2196   2
   4  -2  10 535.548 22.6142   6
   4  -2  10 524.627 23.1211   4
   4  -2  10 547.753 24.9524   3
  -5   2 -10 631.224 26.1957   6
  -5   2 -10 589.006 27.9093   2
  -5   2 -10 612.047 25.7229   6
  -5   2 -10 659.898 30.2126   3
   5  -2  10 627.259 28.6153   3
   5  -2  10 618.018 20.6375   1
   5  -2  10 616.215 23.9496   6
   5  -2  10 643.083 25.9562   6
   5  -2  10 611.294 25.2648   4
  -6   2 -10 115.514 14.6463   6
  -6   2 -10 99.2283 15.0840   2
  -6   2 -10 99.7462 15.0668   3
   6  -2  10 102.595 11.0065   1
   6  -2  10 110.719 13.6034   6
   6  -2  10 84.2079 12.2693   3
   6  -2  10 99.4685 11.5929   6
   6  -2  10 94.6658 12.9943   4
  -7   2 -10 805.981 38.9172   6
  -7   2 -10 717.423 34.9628   3
   7  -2  10 704.466 29.9842   6
   7  -2  10 714.314 26.9712   1
   5   1 -10 413.725 21.3325   6
   5   1 -10 387.812 22.6612   4
   5   1 -10 366.412 21.6351   5
   5   1 -10 368.602 23.8370   1
  -5  -1  10 359.430 18.7597   6
   4   1 -10 29.4259 9.36026   4
   4   1 -10 14.2886 6.74119   6
   4   1 -10 25.2384 9.28066   1
   4   1 -10 17.6370 7.90404   5
   4   1 -10 9.93659 7.88784   6
  -4  -1  10 25.5952 6.66953   6
  -4  -1  10 9.67703 6.05968   6
  -4  -1  10 23.5971 7.56722   1
   3   1 -10 301.828 18.5699   5
   3   1 -10 325.623 19.1764   4
   3   1 -10 342.063 20.4183   1
   3   1 -10 322.925 18.0886   6
   3   1 -10 303.915 17.2895   6
  -3  -1  10 341.138 16.2420   6
  -3  -1  10 276.438 18.9832   4
  -3  -1  10 314.596 15.4706   6
   2   1 -10 504.323 21.5483   6
   2   1 -10 506.987 23.2189   4
   2   1 -10 530.511 23.2129   5
   2   1 -10 548.134 22.4930   6
  -2  -1  10 522.142 19.6051   6
  -2  -1  10 514.140 22.3778   1
  -2  -1  10 531.878 20.0151   6
  -2  -1  10 534.580 23.8550   4
   1   1 -10 623.669 22.9376   6
   1   1 -10 565.869 23.7854   5
   1   1 -10 603.947 24.3292   4
   1   1 -10 585.284 22.4629   6
  -1  -1  10 570.913 22.0534   1
  -1  -1  10 607.543 21.3604   6
  -1  -1  10 577.520 20.5189   6
   0   1 -10 90.5547 11.6154   4
   0   1 -10 107.029 13.7040   3
   0   1 -10 90.2927 7.95885   2
   0   1 -10 89.6957 11.1605   5
   0   1 -10 114.299 11.6259   6
   0   1 -10 94.1900 10.6434   6
   0  -1  10 94.4524 11.7079   2
   0  -1  10 92.7173 10.1158   6
   0  -1  10 81.1911 8.29417   1
   0  -1  10 104.553 9.76157   6
  -1   1 -10 324.951 14.1559   2
  -1   1 -10 315.761 16.3172   6
  -1   1 -10 276.135 15.2337   6
  -1   1 -10 288.483 16.6246   4
  -1   1 -10 284.489 17.3362   3
   1  -1  10 296.116 13.7328   1
   1  -1  10 307.880 14.0896   2
   1  -1  10 301.167 15.2283   6
   1  -1  10 293.176 14.7304   6
  -2   1 -10 1504.48 40.9393   6
  -2   1 -10 1465.38 42.8239   4
  -2   1 -10 1566.20 41.1194   6
  -2   1 -10 1485.93 42.9776   5
  -2   1 -10 1505.59 43.8767   3
  -2   1 -10 1526.29 39.4290   2
   2  -1  10 1522.01 41.7913   4
   2  -1  10 1567.39 39.9204   2
   2  -1  10 1549.74 39.3882   6
   2  -1  10 1548.45 37.3220   1
   2  -1  10 1620.84 40.6764   6
  -3   1 -10 1057.55 34.9393   4
  -3   1 -10 1118.49 36.5142   3
  -3   1 -10 1142.18 33.8123   6
  -3   1 -10 1123.45 33.6104   6
  -3   1 -10 1103.02 33.1805   2
   3  -1  10 1116.87 33.7912   2
   3  -1  10 1093.29 32.8170   6
   3  -1  10 1022.85 30.9445   6
   3  -1  10 1122.11 29.0958   1
  -4   1 -10 97.4279 11.3043   6
  -4   1 -10 111.075 12.4462   2
  -4   1 -10 144.156 14.7242   3
   4  -1  10 79.8865 11.8291   4
   4  -1  10 107.994 11.9740   2
   4  -1  10 105.850 9.42167   1
   4  -1  10 88.2552 10.8826   6
   4  -1  10 105.961 12.0805   3
  -5   1 -10 470.529 31.5803   6
  -5   1 -10 475.927 23.7745   2
  -5   1 -10 479.616 22.2109   6
   5  -1  10 485.637 20.8858   6
   5  -1  10 511.121 23.1314   6
   5  -1  10 439.747 22.1286   3
   5  -1  10 456.555 18.8710   1
   5  -1  10 486.615 21.8718   4
   5  -1  10 475.072 24.2266   2
  -6   1 -10 38.2065 11.4461   2
  -6   1 -10 57.5751 10.6987   6
  -6   1 -10 41.3871 9.80518   6
  -6   1 -10 57.8042 11.3097   3
   6  -1  10 64.9264 9.59857   1
   6  -1  10 60.4710 11.0530   6
   6  -1  10 49.7247 9.13311   6
   6  -1  10 36.4189 11.2705   2
   6  -1  10 58.0223 9.89332   4
   6  -1  10 48.8321 13.3600   3
  -7   1 -10 297.226 22.5560   3
  -7   1 -10 339.941 20.6559   6
   7  -1  10 343.940 21.5848   6
   7  -1  10 323.876 19.2701   1
   7  -1  10 303.277 21.1915   3
   6   0 -10 3.44116 8.94759   4
   6   0 -10 10.3884 7.66705   6
   6   0 -10 2.41094 10.6890   5
   6   0 -10 8.90081 13.1021   1
  -6   0  10 -1.7265 7.12959   6
  -6   0  10 7.06825 6.80435   6
   5   0 -10 165.185 17.8034   1
   5   0 -10 179.137 15.4224   5
   5   0 -10 163.345 15.9957   4
   5   0 -10 189.723 15.4521   6
  -5   0  10 184.380 14.0179   6
  -5   0  10 208.564 15.0009   6
   4   0 -10 25.8534 8.53198   5
   4   0 -10 23.8945 7.55345   6
   4   0 -10 14.8041 7.02246   6
   4   0 -10 23.6247 8.29772   4
   4   0 -10 8.48729 7.18582   1
  -4   0  10 18.2440 7.66188   6
  -4   0  10 29.1476 7.09394   6
  -4   0  10 20.9924 8.09442   1
   3   0 -10 236.343 16.3920   4
   3   0 -10 249.493 15.8836   6
   3   0 -10 246.650 16.6300   5
   3   0 -10 256.731 15.8980   6
  -3   0  10 269.948 15.1801   6
  -3   0  10 263.802 17.5694   4
  -3   0  10 260.072 14.8453   6
   2   0 -10 946.928 30.0651   6
   2   0 -10 872.807 30.9517   5
   2   0 -10 910.300 29.9088   6
   2   0 -10 871.835 30.2972   4
  -2   0  10 946.929 28.9465   6
  -2   0  10 913.885 31.1536   1
  -2   0  10 894.808 28.0673   6
  -2   0  10 880.513 31.5741   4
   1   0 -10 12.8618 5.47340   6
   1   0 -10 25.7984 7.31561   5
   1   0 -10 13.8270 5.56519   6
   1   0 -10 13.9287 6.70980   4
  -1   0  10 13.0694 5.45209   6
  -1   0  10 29.6262 7.47666   4
  -1   0  10 13.2677 5.85439   6
  -1   0  10 8.45966 3.86260   2
  -1   0  10 9.08186 5.30180   1
   0   0 -10 4.44861 3.70046   2
   0   0 -10 0.78229 4.31370   6
   0   0 -10 2.52735 4.67563   5
   0   0 -10 6.53110 4.67567   6
   0   0 -10 9.64802 6.02192   4
   0   0 -10 5.47368 5.63968   3
   0   0  10 2.22107 4.88934   4
   0   0  10 9.94110 5.61893   6
   0   0  10 3.34521 4.52927   1
   0   0  10 3.24423 4.63223   6
   0   0  10 3.83830 3.75279   2
  -1   0 -10 117.661 9.68745   2
  -1   0 -10 109.926 10.6135   6
  -1   0 -10 103.120 9.97279   6
  -1   0 -10 130.425 13.1843   5
  -1   0 -10 105.613 11.5829   4
  -1   0 -10 113.781 13.3913   3
   1   0  10 124.287 10.8702   6
   1   0  10 113.499 9.77827   2
   1   0  10 105.464 9.91750   6
   1   0  10 127.295 10.1050   1
   1   0  10 108.766 12.3813   4
  -2   0 -10 680.264 26.5238   6
  -2   0 -10 606.936 24.2972   5
  -2   0 -10 654.608 23.7469   6
  -2   0 -10 610.644 24.3213   3
  -2   0 -10 625.266 24.6093   4
  -2   0 -10 611.464 22.4504   2
   2   0  10 625.143 22.1563   6
   2   0  10 681.990 23.7544   6
   2   0  10 665.418 23.1227   2
  -3   0 -10 570.748 23.2027   3
  -3   0 -10 538.137 21.6975   2
  -3   0 -10 574.707 23.7128   4
  -3   0 -10 559.095 21.9818   6
  -3   0 -10 525.133 22.5787   5
   3   0  10 570.153 20.7986   6
   3   0  10 540.440 21.9599   6
   3   0  10 544.579 22.9184   4
   3   0  10 528.062 22.2426   2
  -4   0 -10 4.10410 6.11383   3
  -4   0 -10 -4.2032 4.52203   6
  -4   0 -10 6.32374 5.72864   2
  -4   0 -10 11.0288 5.21851   5
   4   0  10 -1.2976 5.47157   6
   4   0  10 -2.3490 5.28202   3
   4   0  10 1.34469 4.77677   1
   4   0  10 3.25297 6.03574   2
  -5   0 -10 869.632 30.9137   3
  -5   0 -10 789.201 28.5718   6
  -5   0 -10 836.573 28.9739   6
  -5   0 -10 805.211 29.2884   5
   5   0  10 814.938 27.3970   1
   5   0  10 804.128 31.6206   2
   5   0  10 773.166 26.7523   6
   5   0  10 837.512 29.9256   6
   5   0  10 806.472 28.8699   4
   5   0  10 775.921 28.6577   3
  -6   0 -10 360.112 20.3361   6
  -6   0 -10 385.382 21.8233   2
  -6   0 -10 386.353 20.4995   6
   6   0  10 336.211 21.8138   2
   6   0  10 376.397 19.5695   1
   6   0  10 369.050 20.5087   3
   6   0  10 386.426 21.0976   4
   6   0  10 369.766 18.8222   6
   6   0  10 368.581 21.0902   6
  -7   0 -10 79.1308 12.0495   6
  -7   0 -10 77.5741 12.9748   3
   7   0  10 109.485 13.6111   6
   7   0  10 93.7328 14.6430   2
   7   0  10 84.0981 14.1791   3
   7   0  10 90.2876 14.4090   1
  -8   0 -10 -0.6445 9.37160   3
  -8   0 -10 3.22062 7.84859   5
  -8   0 -10 14.5727 9.19563   5
   8   0  10 -9.6418 8.61709   1
   8   0  10 11.1201 9.27706   6
   6  -1 -10 13.9602 7.13588   6
   6  -1 -10 9.15717 8.88847   4
   6  -1 -10 6.92303 8.68533   5
  -6   1  10 -2.0208 6.49556   6
  -6   1  10 6.42935 7.50327   5
   5  -1 -10 52.2449 10.5515   6
   5  -1 -10 47.1088 10.9021   1
   5  -1 -10 60.7734 10.4182   4
   5  -1 -10 62.2458 14.5545   5
  -5   1  10 48.5245 9.56527   6
  -5   1  10 64.7186 10.5301   6
  -5   1  10 60.2228 11.0012   5
   4  -1 -10 140.206 13.2779   6
   4  -1 -10 140.487 18.2186   1
   4  -1 -10 158.216 13.8647   4
   4  -1 -10 115.308 13.2623   5
   4  -1 -10 135.406 13.9129   6
  -4   1  10 150.756 24.7874   1
  -4   1  10 147.091 15.3715   5
  -4   1  10 127.896 13.7486   6
  -4   1  10 117.913 12.6436   6
   3  -1 -10 14.2727 6.04047   5
   3  -1 -10 14.2924 6.30683   6
   3  -1 -10 10.8283 5.45604   6
   3  -1 -10 4.41573 5.74790   4
  -3   1  10 8.32050 6.47209   5
  -3   1  10 10.5344 6.33752   6
  -3   1  10 13.1268 6.93559   4
   2  -1 -10 27.1978 7.65082   5
   2  -1 -10 42.9180 8.44419   6
   2  -1 -10 46.3184 9.38169   4
  -2   1  10 46.5850 10.1082   1
  -2   1  10 44.4527 9.35185   5
  -2   1  10 23.2010 7.16681   4
  -2   1  10 31.5229 7.10017   6
  -2   1  10 30.7732 6.83439   6
  -2   1  10 35.5099 6.26616   2
   1  -1 -10 814.292 27.0744   4
   1  -1 -10 746.781 27.5717   5
   1  -1 -10 781.041 26.1646   6
  -1   1  10 806.544 27.2644   4
  -1   1  10 754.768 27.4367   1
  -1   1  10 776.180 25.7465   6
  -1   1  10 814.989 23.1423   2
  -1   1  10 755.857 25.8619   6
   0  -1 -10 560.107 22.6767   5
   0  -1 -10 569.230 22.2113   4
   0  -1 -10 595.888 21.6215   6
   0  -1 -10 574.062 21.7926   6
   0  -1 -10 577.724 20.4775   2
   0   1  10 573.940 19.9055   2
   0   1  10 615.337 22.7907   4
   0   1  10 589.732 22.5821   1
   0   1  10 594.369 21.4104   6
   0   1  10 589.437 21.6674   6
  -1  -1 -10 70.7631 9.69720   5
  -1  -1 -10 101.179 10.8182   2
  -1  -1 -10 87.7174 10.2027   3
  -1  -1 -10 82.4845 10.1145   6
  -1  -1 -10 74.0385 9.62192   4
  -1  -1 -10 83.6780 9.57801   6
   1   1  10 99.9905 11.6294   1
   1   1  10 90.2916 10.5947   4
   1   1  10 87.1846 9.72444   6
   1   1  10 103.089 11.1093   6
   1   1  10 83.2507 9.04444   2
  -2  -1 -10 5.34473 4.75928   5
  -2  -1 -10 -1.3346 3.72513   6
  -2  -1 -10 2.86985 4.83451   6
  -2  -1 -10 5.51881 5.02294   3
  -2  -1 -10 2.25674 5.35067   4
   2   1  10 9.89383 5.25538   2
   2   1  10 1.67536 4.68195   6
   2   1  10 0.48312 4.74015   6
   2   1  10 1.12198 4.34132   4
  -3  -1 -10 234.984 13.7821   6
  -3  -1 -10 196.388 13.7809   2
  -3  -1 -10 216.289 13.4727   3
  -3  -1 -10 228.219 14.1931   6
  -3  -1 -10 207.057 14.4377   5
  -3  -1 -10 232.203 15.1161   4
   3   1  10 226.401 15.0639   2
   3   1  10 240.029 13.3774   6
   3   1  10 238.220 14.6153   6
  -4  -1 -10 204.473 14.2322   3
  -4  -1 -10 202.488 14.2902   2
  -4  -1 -10 215.775 14.0324   5
  -4  -1 -10 192.698 13.7038   6
   4   1  10 224.057 14.2090   1
   4   1  10 221.933 14.6769   6
   4   1  10 187.038 14.9662   2
  -5  -1 -10 152.173 13.0005   6
  -5  -1 -10 135.740 13.1040   3
  -5  -1 -10 160.320 14.4009   6
  -5  -1 -10 159.451 14.5870   2
  -5  -1 -10 143.999 12.1626   5
   5   1  10 151.511 13.0599   1
   5   1  10 132.537 14.0130   6
   5   1  10 168.567 13.5455   4
   5   1  10 173.543 15.7394   2
   5   1  10 161.274 12.7318   3
  -6  -1 -10 224.970 17.3672   2
  -6  -1 -10 189.598 18.6804   6
  -6  -1 -10 185.110 15.1338   6
  -6  -1 -10 203.923 14.6701   5
  -6  -1 -10 193.226 15.5673   3
   6   1  10 207.236 15.1628   3
   6   1  10 205.010 15.6742   4
   6   1  10 199.822 15.0127   6
   6   1  10 210.777 17.9414   2
   6   1  10 180.412 15.6118   1
   6   1  10 179.809 15.2299   6
  -7  -1 -10 267.262 16.4844   5
  -7  -1 -10 253.067 17.5598   6
  -7  -1 -10 225.082 18.7128   3
  -7  -1 -10 250.642 18.2332   6
   7   1  10 279.439 19.6439   6
   7   1  10 243.830 20.4255   2
   7   1  10 247.168 17.8623   3
   7   1  10 270.667 19.6560   1
  -8  -1 -10 29.1120 12.0278   3
  -8  -1 -10 17.4492 8.79771   5
  -8  -1 -10 23.1926 8.02394   5
  -8  -1 -10 39.9119 9.22635   6
   8   1  10 27.9326 11.3702   2
   8   1  10 26.8997 9.20481   6
   8   1  10 25.1115 9.42007   1
   8   1  10 32.0487 10.7914   3
   6  -2 -10 94.4949 14.7992   5
   6  -2 -10 142.473 26.6844   1
   6  -2 -10 96.0402 12.5783   4
   6  -2 -10 100.607 13.8206   6
  -6   2  10 103.019 13.0947   6
  -6   2  10 98.9529 14.4704   5
  -6   2  10 115.163 12.3798   2
  -6   2  10 125.990 12.6980   2
   5  -2 -10 154.303 19.3196   3
   5  -2 -10 193.795 18.9847   5
   5  -2 -10 189.373 15.2314   4
   5  -2 -10 155.312 15.2940   6
   5  -2 -10 143.337 18.2008   1
  -5   2  10 172.456 16.3682   5
  -5   2  10 158.488 16.2110   6
  -5   2  10 189.176 13.5372   2
  -5   2  10 173.642 15.1347   6
   4  -2 -10 279.893 19.5572   3
   4  -2 -10 274.828 17.0632   6
   4  -2 -10 295.566 17.4528   6
   4  -2 -10 276.245 18.0460   5
  -4   2  10 260.473 22.8570   1
  -4   2  10 261.668 16.9923   6
  -4   2  10 273.227 17.4075   6
  -4   2  10 283.759 14.6158   2
  -4   2  10 264.723 18.3325   5
   3  -2 -10 238.812 16.3192   5
   3  -2 -10 242.487 15.0180   4
   3  -2 -10 242.646 15.4329   6
  -3   2  10 233.174 19.0615   6
  -3   2  10 234.187 16.7736   5
  -3   2  10 223.777 17.0978   1
  -3   2  10 233.992 15.3965   6
  -3   2  10 250.752 13.7559   2
  -3   2  10 256.737 15.8917   4
   2  -2 -10 45.7716 8.33053   4
   2  -2 -10 29.1191 6.94275   5
   2  -2 -10 41.9869 8.10921   6
  -2   2  10 26.6608 7.76542   1
  -2   2  10 33.5999 7.60414   6
  -2   2  10 18.4808 6.63014   6
  -2   2  10 35.9213 8.83472   5
  -2   2  10 36.1444 6.81809   2
  -2   2  10 37.8894 7.33325   4
   1  -2 -10 956.495 31.7734   5
   1  -2 -10 972.314 30.2530   4
   1  -2 -10 1042.24 30.8202   6
   1  -2 -10 1006.88 31.0990   6
  -1   2  10 995.337 30.4454   6
  -1   2  10 1019.11 28.8399   2
  -1   2  10 966.941 32.2557   5
  -1   2  10 1021.05 30.6565   6
  -1   2  10 973.576 33.0068   1
  -1   2  10 996.877 30.7687   4
   0  -2 -10 5.72806 5.48554   2
   0  -2 -10 17.5005 6.51849   5
   0  -2 -10 12.3154 5.62296   4
   0  -2 -10 7.53338 5.16132   6
   0  -2 -10 11.4250 5.34412   6
   0   2  10 19.9869 5.68935   4
   0   2  10 12.1084 5.19558   6
   0   2  10 14.5498 5.02300   2
   0   2  10 4.85886 5.38804   5
   0   2  10 10.5946 4.84877   6
   0   2  10 8.10852 5.74315   1
  -1  -2 -10 83.6685 10.2114   2
  -1  -2 -10 81.4335 9.58344   3
  -1  -2 -10 63.7882 8.72103   4
  -1  -2 -10 92.1431 10.6690   6
  -1  -2 -10 62.5715 8.96075   5
  -1  -2 -10 89.6005 10.1083   6
   1   2  10 69.8484 9.16884   6
   1   2  10 75.8420 8.89892   4
   1   2  10 71.5905 9.98812   2
  -2  -2 -10 1432.11 38.1351   6
  -2  -2 -10 1449.12 39.5258   5
  -2  -2 -10 1446.96 37.8406   6
  -2  -2 -10 1471.40 39.9649   2
  -2  -2 -10 1473.18 36.7061   3
  -2  -2 -10 1467.85 39.6129   4
   2   2  10 1460.30 39.8162   2
   2   2  10 1426.70 38.0098   4
   2   2  10 1517.81 39.8546   6
   2   2  10 1481.38 37.6900   6
  -3  -2 -10 238.053 15.0129   2
  -3  -2 -10 259.231 14.6290   6
  -3  -2 -10 262.435 14.3650   6
  -3  -2 -10 282.301 15.4412   5
  -3  -2 -10 244.714 13.1965   3
   3   2  10 260.574 15.1706   6
   3   2  10 254.368 16.1600   2
   3   2  10 262.350 14.6264   4
  -4  -2 -10 345.841 17.0883   6
  -4  -2 -10 372.550 17.6522   5
  -4  -2 -10 332.332 16.8508   6
  -4  -2 -10 352.874 19.4119   2
  -4  -2 -10 369.350 16.1526   3
   4   2  10 360.830 19.7732   2
   4   2  10 398.690 19.2200   6
   4   2  10 358.131 15.6439   3
   4   2  10 344.027 18.3535   1
  -5  -2 -10 51.7126 8.65928   5
  -5  -2 -10 53.5906 8.73577   6
  -5  -2 -10 44.0118 8.19896   3
  -5  -2 -10 45.8455 9.93365   2
   5   2  10 42.5755 9.42970   1
   5   2  10 67.1834 9.07902   3
   5   2  10 39.7257 7.15603   6
   5   2  10 48.5680 9.55911   2
   5   2  10 42.9322 9.17337   6
  -6  -2 -10 327.938 17.9407   6
  -6  -2 -10 317.966 16.8051   5
  -6  -2 -10 295.180 20.0959   2
  -6  -2 -10 316.814 17.6443   6
  -6  -2 -10 318.151 18.5676   3
   6   2  10 346.780 32.5562   1
   6   2  10 299.090 17.5035   6
   6   2  10 311.842 20.2407   2
   6   2  10 338.207 18.8647   4
   6   2  10 337.562 19.7786   6
   6   2  10 345.093 17.4536   3
  -7  -2 -10 399.234 20.5336   6
  -7  -2 -10 358.433 19.9977   6
  -7  -2 -10 380.016 21.6426   3
  -7  -2 -10 398.559 18.9489   5
   7   2  10 393.689 24.0772   2
   7   2  10 341.715 19.6508   3
   7   2  10 425.349 24.2044   1
   7   2  10 425.999 23.0707   6
  -8  -2 -10 -5.0566 8.10820   6
  -8  -2 -10 5.87074 7.51150   5
  -8  -2 -10 12.0615 11.5835   3
  -8  -2 -10 -3.3303 6.63857   5
   8   2  10 8.44818 7.85154   6
   8   2  10 10.6752 9.59923   1
   8   2  10 1.85879 8.90543   3
   8   2  10 19.2337 10.3258   2
   6  -3 -10 229.389 18.7132   6
   6  -3 -10 224.015 17.3404   4
  -6   3  10 277.323 20.8093   5
  -6   3  10 220.013 17.8402   6
   5  -3 -10 346.361 20.0804   6
   5  -3 -10 325.206 23.4815   3
   5  -3 -10 376.913 23.0339   5
   5  -3 -10 366.839 19.6465   4
  -5   3  10 362.107 20.9277   6
  -5   3  10 378.943 22.2484   5
  -5   3  10 345.023 19.5227   2
   4  -3 -10 539.567 25.9691   3
   4  -3 -10 601.554 25.2193   6
   4  -3 -10 580.868 26.3105   5
   4  -3 -10 565.807 23.1552   4
   4  -3 -10 560.478 23.6013   6
  -4   3  10 509.045 27.8464   1
  -4   3  10 541.990 25.7672   5
  -4   3  10 505.877 24.1644   6
  -4   3  10 581.802 24.7725   6
  -4   3  10 599.667 23.2862   2
   3  -3 -10 18.0051 7.36391   5
   3  -3 -10 28.0811 8.45139   3
   3  -3 -10 14.8023 6.14947   6
   3  -3 -10 23.6674 7.27667   4
  -3   3  10 16.6602 6.95254   6
  -3   3  10 22.4531 8.46242   1
  -3   3  10 30.6402 8.13394   4
  -3   3  10 22.7036 7.03953   2
  -3   3  10 23.5427 7.22315   6
   2  -3 -10 539.304 20.8897   4
   2  -3 -10 529.279 23.2565   5
   2  -3 -10 551.639 22.4153   6
  -2   3  10 595.143 24.7886   5
  -2   3  10 544.557 21.3429   4
  -2   3  10 577.585 22.4331   6
  -2   3  10 543.835 21.5757   2
   1  -3 -10 2908.59 63.6614   6
   1  -3 -10 2838.79 62.3435   4
   1  -3 -10 2842.10 62.8269   6
  -1   3  10 2738.84 62.5128   4
  -1   3  10 2795.55 63.6591   6
  -1   3  10 2735.08 65.8423   5
  -1   3  10 2805.90 68.3464   1
  -1   3  10 2842.31 63.1471   2
   0  -3 -10 494.216 19.7785   6
   0  -3 -10 478.474 19.1157   6
   0  -3 -10 507.464 19.5269   4
   0  -3 -10 502.404 21.1537   5
   0   3  10 503.409 20.2149   6
   0   3  10 527.186 21.1247   2
   0   3  10 510.645 20.1915   6
   0   3  10 522.102 20.7186   4
   0   3  10 485.781 22.4716   1
   0   3  10 516.015 21.9644   5
  -1  -3 -10 97.3899 9.49236   6
  -1  -3 -10 101.817 10.3091   4
  -1  -3 -10 121.165 13.0064   2
  -1  -3 -10 110.225 10.7758   6
  -1  -3 -10 123.310 12.2811   5
   1   3  10 103.513 11.1146   2
   1   3  10 114.593 11.6819   6
   1   3  10 106.416 9.45619   4
   1   3  10 104.846 12.4820   5
  -2  -3 -10 1758.11 45.8805   2
  -2  -3 -10 1772.45 44.1165   4
  -2  -3 -10 1735.23 42.5389   6
  -2  -3 -10 1704.33 44.4258   5
  -2  -3 -10 1720.23 38.7454   3
  -2  -3 -10 1710.79 42.3962   6
   2   3  10 1704.75 42.6543   4
   2   3  10 1710.05 42.4025   6
   2   3  10 1770.68 46.1830   2
   2   3  10 1769.94 44.6711   6
  -3  -3 -10 14.8058 5.35531   6
  -3  -3 -10 16.4201 4.69965   3
  -3  -3 -10 19.4783 7.70894   2
  -3  -3 -10 15.8118 5.66925   6
  -3  -3 -10 17.4596 6.02155   5
   3   3  10 22.7305 6.35001   6
   3   3  10 14.6838 5.19071   6
   3   3  10 7.29992 4.87455   4
   3   3  10 9.50128 5.99197   2
  -4  -3 -10 654.363 23.2617   6
  -4  -3 -10 654.101 20.3743   3
  -4  -3 -10 704.680 23.2283   6
  -4  -3 -10 655.489 26.8536   2
   4   3  10 662.148 24.2373   4
   4   3  10 649.707 25.2096   6
   4   3  10 634.633 26.8811   2
   4   3  10 654.253 26.2149   1
   4   3  10 646.265 22.6486   6
  -5  -3 -10 685.480 24.3555   6
  -5  -3 -10 653.677 22.4349   3
  -5  -3 -10 686.167 23.8159   6
  -5  -3 -10 649.390 25.6422   5
   5   3  10 635.474 27.3119   1
   5   3  10 647.891 25.3024   4
   5   3  10 625.787 23.4582   6
   5   3  10 676.284 28.5637   2
   5   3  10 634.797 21.1446   3
   5   3  10 710.597 26.9223   6
  -6  -3 -10 83.9429 10.6929   3
  -6  -3 -10 94.4722 9.96834   5
  -6  -3 -10 63.3079 10.7752   2
  -6  -3 -10 68.2520 9.97436   6
  -6  -3 -10 89.4842 12.3026   6
   6   3  10 71.0707 10.8356   4
   6   3  10 90.6812 14.1075   2
   6   3  10 91.8470 12.2225   6
   6   3  10 95.7797 11.1783   6
   6   3  10 68.5090 12.0916   1
   6   3  10 103.790 11.7370   3
  -7  -3 -10 880.401 31.4723   6
  -7  -3 -10 918.270 31.9145   3
  -7  -3 -10 915.541 27.4833   5
  -7  -3 -10 919.627 30.4019   6
   7   3  10 889.605 29.4322   3
   7   3  10 883.349 33.7270   6
   7   3  10 882.386 35.8845   1
   7   3  10 848.366 36.4065   2
  -8  -3 -10 79.3670 8.61022   5
  -8  -3 -10 84.4102 10.8022   6
  -8  -3 -10 97.6952 13.3914   6
   8   3  10 90.4215 14.2093   1
   8   3  10 83.8570 12.7521   3
   8   3  10 61.9039 16.6155   6
   8   3  10 90.6233 16.4332   2
   6  -4 -10 104.241 13.4024   4
   6  -4 -10 119.229 14.7070   6
  -6   4  10 118.731 14.4268   2
  -6   4  10 132.160 16.0327   5
  -6   4  10 123.978 14.8897   6
   5  -4 -10 789.771 33.1744   5
   5  -4 -10 769.824 30.6429   6
   5  -4 -10 797.566 34.4511   3
   5  -4 -10 799.232 27.8139   4
  -5   4  10 747.681 31.7563   5
  -5   4  10 801.817 30.9158   6
  -5   4  10 775.048 30.4048   2
   4  -4 -10 100.572 12.3308   6
   4  -4 -10 68.8849 9.42643   4
   4  -4 -10 93.0825 13.1568   5
   4  -4 -10 71.6245 11.3646   3
   4  -4 -10 80.0099 11.6099   6
  -4   4  10 67.4455 13.3213   1
  -4   4  10 63.1158 10.2932   6
  -4   4  10 82.3866 11.7119   6
  -4   4  10 67.0625 10.7948   2
  -4   4  10 69.3207 11.2286   5
   3  -4 -10 93.7798 10.0126   4
   3  -4 -10 85.5558 11.1044   6
   3  -4 -10 83.8787 11.9847   5
   3  -4 -10 101.195 11.7201   3
  -3   4  10 88.9468 13.7362   6
  -3   4  10 97.7008 12.5603   2
  -3   4  10 86.5202 11.8119   5
  -3   4  10 79.2571 10.9523   6
  -3   4  10 78.9109 11.8215   1
  -3   4  10 73.5753 9.31100   4
   2  -4 -10 370.401 20.2909   3
   2  -4 -10 382.369 18.4238   6
   2  -4 -10 400.756 16.8548   4
   2  -4 -10 289.674 18.2440   6
  -2   4  10 396.654 18.7728   6
  -2   4  10 398.412 21.5470   4
  -2   4  10 352.549 18.2917   2
  -2   4  10 408.266 20.7488   5
   1  -4 -10 1078.50 31.8149   6
   1  -4 -10 1169.44 31.6412   4
   1  -4 -10 1194.53 33.4879   6
   1  -4 -10 1149.86 31.6157   3
  -1   4  10 1131.17 33.7026   6
  -1   4  10 1132.65 37.8773   1
  -1   4  10 1131.73 31.8928   4
  -1   4  10 1159.91 36.1478   5
  -1   4  10 1167.29 35.0888   2
  -1   4  10 1140.67 33.4308   6
   0  -4 -10 154.693 12.5757   5
   0  -4 -10 145.761 10.6608   6
   0  -4 -10 148.946 11.2767   6
   0  -4 -10 138.475 10.6153   4
   0   4  10 182.535 12.3191   6
   0   4  10 156.638 11.9705   6
   0   4  10 140.824 12.7916   5
   0   4  10 146.183 12.5472   2
   0   4  10 153.743 13.9793   1
   0   4  10 136.805 10.4743   4
  -1  -4 -10 5.86129 5.89159   2
  -1  -4 -10 12.3072 4.18893   3
  -1  -4 -10 14.9366 5.48572   5
  -1  -4 -10 12.9631 5.17932   4
  -1  -4 -10 7.52200 4.80957   6
  -1  -4 -10 10.5317 4.87347   6
   1   4  10 10.6208 6.16325   5
   1   4  10 7.29711 5.50963   2
   1   4  10 13.5671 5.61037   6
  -2  -4 -10 1701.38 41.1693   6
  -2  -4 -10 1694.14 45.9508   2
  -2  -4 -10 1618.81 42.4553   5
  -2  -4 -10 1665.15 40.0981   6
   2   4  10 1658.94 43.1607   6
   2   4  10 1687.19 41.1753   4
   2   4  10 1635.34 45.2916   2
   2   4  10 1601.37 40.8810   6
   2   4  10 1651.48 43.8539   5
  -3  -4 -10 562.565 24.3571   2
  -3  -4 -10 593.533 20.8409   6
  -3  -4 -10 598.057 25.4056   5
  -3  -4 -10 629.148 20.7086   6
   3   4  10 614.130 25.9391   2
   3   4  10 587.186 21.1966   6
   3   4  10 626.150 22.2413   4
   3   4  10 641.114 24.1259   6
  -4  -4 -10 177.525 12.2516   6
  -4  -4 -10 200.301 12.1815   6
  -4  -4 -10 195.266 12.5528   5
   4   4  10 180.272 13.6308   6
   4   4  10 177.142 12.0064   6
   4   4  10 171.270 14.8972   1
   4   4  10 173.183 13.0328   4
   4   4  10 163.885 15.3467   2
  -5  -4 -10 277.512 14.3070   6
  -5  -4 -10 292.513 18.9102   2
  -5  -4 -10 255.149 14.7129   6
  -5  -4 -10 263.923 14.0485   5
  -5  -4 -10 250.237 14.4041   3
   5   4  10 292.039 19.7554   1
   5   4  10 275.286 17.4811   6
   5   4  10 257.511 16.2031   4
   5   4  10 278.881 19.3809   2
   5   4  10 269.417 11.9218   3
   5   4  10 272.280 15.4352   6
  -6  -4 -10 34.5929 6.32018   5
  -6  -4 -10 38.9202 7.73275   6
  -6  -4 -10 43.4356 10.0175   2
  -6  -4 -10 30.3781 7.24802   6
   6   4  10 29.6597 7.75880   6
   6   4  10 28.9107 10.1381   2
   6   4  10 24.6091 8.63505   1
   6   4  10 33.5555 6.66076   3
   6   4  10 26.1515 7.61775   4
   6   4  10 39.8014 9.47845   6
  -7  -4 -10 613.231 27.5273   6
  -7  -4 -10 644.670 30.2890   6
  -7  -4 -10 663.342 20.3150   5
   7   4  10 648.133 31.5279   2
   7   4  10 664.450 29.0028   6
   7   4  10 664.642 23.7956   3
   7   4  10 710.506 32.7830   1
  -8  -4 -10 68.1661 13.3435   6
  -8  -4 -10 52.4369 9.51147   6
   8   4  10 59.3400 10.7610   3
   8   4  10 62.6244 13.1226   6
   8   4  10 30.8091 11.6084   2
   5  -5 -10 353.156 21.1327   6
   5  -5 -10 356.851 24.5542   3
   5  -5 -10 355.948 18.1003   4
  -5   5  10 390.729 22.5633   2
  -5   5  10 362.082 21.0976   6
  -5   5  10 391.878 23.3672   5
   4  -5 -10 60.8865 9.75883   6
   4  -5 -10 53.8631 7.71820   4
   4  -5 -10 75.5729 12.7502   3
   4  -5 -10 65.7918 11.4546   5
  -4   5  10 77.2786 13.3643   5
  -4   5  10 53.4605 10.6839   6
  -4   5  10 81.1760 12.6304   2
  -4   5  10 55.5230 13.5746   1
  -4   5  10 67.9529 11.9491   6
   3  -5 -10 212.033 13.9118   6
   3  -5 -10 228.017 17.3902   5
   3  -5 -10 199.518 12.2967   4
   3  -5 -10 230.418 15.4524   6
   3  -5 -10 224.177 15.7201   3
  -3   5  10 241.765 17.1018   2
  -3   5  10 252.358 17.7011   5
  -3   5  10 218.246 15.5527   6
  -3   5  10 253.847 23.4067   6
  -3   5  10 209.045 13.9259   4
   2  -5 -10 1527.81 41.1892   3
   2  -5 -10 1541.97 37.4500   4
   2  -5 -10 1481.91 39.5790   6
   2  -5 -10 1564.75 41.3831   6
  -2   5  10 1498.56 44.4326   5
  -2   5  10 1439.66 41.9312   6
  -2   5  10 1488.09 42.4407   6
  -2   5  10 1572.92 44.3987   2
  -2   5  10 1586.79 38.6928   4
   1  -5 -10 473.408 18.8429   6
   1  -5 -10 515.698 18.5669   4
   1  -5 -10 507.264 18.5504   3
   1  -5 -10 569.849 21.1001   6
  -1   5  10 517.708 23.4014   2
  -1   5  10 546.619 19.4189   4
  -1   5  10 532.709 21.6924   6
  -1   5  10 551.887 21.7806   6
   0  -5 -10 370.393 13.7787   3
   0  -5 -10 380.916 16.0712   4
   0  -5 -10 405.228 16.2540   6
   0  -5 -10 390.504 16.8729   6
   0  -5 -10 384.124 19.1440   5
   0   5  10 395.262 18.0532   6
   0   5  10 354.564 19.4339   2
   0   5  10 395.295 19.6457   5
   0   5  10 401.857 16.5023   4
   0   5  10 421.416 18.4677   6
  -1  -5 -10 729.473 22.7051   6
  -1  -5 -10 762.650 23.3244   6
  -1  -5 -10 738.521 26.1475   5
   1   5  10 725.996 25.3390   6
   1   5  10 738.270 23.5919   4
   1   5  10 764.016 27.3482   5
   1   5  10 743.149 28.2018   2
  -2  -5 -10 1128.16 29.6434   6
  -2  -5 -10 1116.08 36.5325   2
  -2  -5 -10 1149.76 29.5087   6
  -2  -5 -10 1100.69 33.0177   5
   2   5  10 1112.01 30.9910   4
   2   5  10 1104.89 33.3658   6
   2   5  10 1123.76 31.7803   6
   2   5  10 1139.00 36.7929   2
   2   5  10 1137.75 33.9565   5
  -3  -5 -10 1996.55 45.2539   6
  -3  -5 -10 2065.22 49.5024   5
  -3  -5 -10 2109.81 46.3784   6
   3   5  10 2045.58 55.5985   2
   3   5  10 2080.21 48.4950   6
   3   5  10 2025.05 50.5498   5
   3   5  10 2095.48 51.8168   6
   3   5  10 2069.46 49.5010   4
  -4  -5 -10 359.210 16.6537   5
  -4  -5 -10 350.392 14.7755   6
  -4  -5 -10 359.255 15.5774   6
   4   5  10 353.225 18.8501   6
   4   5  10 423.377 17.4359   6
   4   5  10 376.591 21.7361   2
   4   5  10 375.327 18.2507   4
  -5  -5 -10 579.465 25.2991   6
  -5  -5 -10 567.312 19.2881   6
  -5  -5 -10 536.808 19.4822   5
   5   5  10 560.382 27.1535   2
   5   5  10 587.050 27.5456   1
   5   5  10 538.117 23.5911   4
   5   5  10 532.396 23.9574   6
   5   5  10 548.578 21.2670   6
  -6  -5 -10 576.426 19.0061   5
  -6  -5 -10 597.698 30.0609   2
  -6  -5 -10 563.379 19.9882   6
  -6  -5 -10 598.398 21.2542   6
   6   5  10 592.006 29.4613   2
   6   5  10 572.166 25.4419   6
   6   5  10 466.543 23.8066   4
   6   5  10 562.231 23.5374   6
   6   5  10 579.499 28.9255   1
  -7  -5 -10 702.439 23.4302   6
  -7  -5 -10 709.486 24.4271   6
   7   5  10 703.436 29.3954   6
   7   5  10 714.957 22.8688   3
   7   5  10 730.989 34.1719   1
   7   5  10 682.229 32.5560   2
   5  -6 -10 294.982 15.0454   4
   5  -6 -10 329.463 23.3546   3
  -5   6  10 360.583 31.5456   6
  -5   6  10 280.796 22.4385   5
  -5   6  10 282.461 20.9718   2
   4  -6 -10 35.7257 10.3082   3
   4  -6 -10 25.3018 6.43580   4
   4  -6 -10 21.3771 7.27206   6
   4  -6 -10 6.05479 6.64272   6
  -4   6  10 14.9556 8.24910   2
  -4   6  10 28.5274 9.66773   5
  -4   6  10 23.2428 8.18895   6
   3  -6 -10 17.8589 5.37531   4
   3  -6 -10 25.7883 8.35115   5
   3  -6 -10 14.9396 6.61555   6
   3  -6 -10 21.0934 8.14203   3
   3  -6 -10 21.4533 6.11374   6
  -3   6  10 23.8666 7.26596   6
  -3   6  10 21.3355 8.09987   2
  -3   6  10 6.83772 6.84015   1
  -3   6  10 10.5904 6.63680   6
  -3   6  10 8.90869 8.71528   5
   2  -6 -10 528.156 24.7463   5
   2  -6 -10 528.950 20.1151   6
   2  -6 -10 572.760 18.2524   4
   2  -6 -10 578.575 21.8185   3
   2  -6 -10 530.398 21.2990   6
  -2   6  10 557.159 18.3576   4
  -2   6  10 535.069 22.7626   6
  -2   6  10 521.396 25.2553   2
  -2   6  10 530.977 23.2673   6
  -2   6  10 608.174 28.8417   1
  -2   6  10 545.210 25.5808   5
   1  -6 -10 10.8077 4.93701   3
   1  -6 -10 15.5341 6.77625   5
   1  -6 -10 8.44882 4.30141   6
   1  -6 -10 0.42095 4.39773   6
   1  -6 -10 0.33911 4.12117   4
  -1   6  10 3.30497 5.21034   6
  -1   6  10 -1.1053 5.73058   1
  -1   6  10 7.02155 7.43798   5
  -1   6  10 -0.9380 4.28500   4
  -1   6  10 6.52305 5.93515   6
  -1   6  10 -2.4225 5.83326   2
   0  -6 -10 86.3603 10.4272   6
   0  -6 -10 95.8368 9.47710   6
   0   6  10 103.065 13.2977   2
   0   6  10 92.4243 10.6661   6
   0   6  10 100.477 12.5161   5
   0   6  10 102.683 8.85743   4
   0   6  10 91.7438 11.1150   6
  -1  -6 -10 350.150 18.6415   5
  -1  -6 -10 383.112 14.7173   6
  -1  -6 -10 384.117 14.5054   6
   1   6  10 397.416 19.8599   5
   1   6  10 429.473 21.7044   2
   1   6  10 386.097 17.8222   6
   1   6  10 370.860 17.8044   6
   1   6  10 355.532 15.3601   4
  -2  -6 -10 1051.87 26.4632   6
  -2  -6 -10 1025.88 31.7801   5
  -2  -6 -10 1006.88 25.9427   6
   2   6  10 1004.07 29.0818   4
   2   6  10 1046.74 36.5253   2
   2   6  10 1075.88 32.7464   5
   2   6  10 1003.11 31.7501   6
   2   6  10 1012.21 29.8838   6
  -3  -6 -10 620.466 18.5544   6
  -3  -6 -10 638.133 18.8378   6
  -3  -6 -10 625.596 22.8615   5
   3   6  10 598.259 22.5181   4
   3   6  10 717.844 25.1326   5
   3   6  10 645.743 28.1926   2
   3   6  10 616.311 21.9135   6
   3   6  10 664.555 24.6461   6
  -4  -6 -10 118.565 14.6964   2
  -4  -6 -10 134.382 11.2238   5
  -4  -6 -10 138.656 8.95209   6
  -4  -6 -10 133.787 8.87049   6
   4   6  10 160.837 17.8554   1
   4   6  10 138.911 12.3541   6
   4   6  10 161.593 16.0593   2
   4   6  10 146.746 12.6266   4
   4   6  10 157.843 11.9821   6
  -5  -6 -10 776.206 21.4316   6
  -5  -6 -10 767.175 33.3549   2
  -5  -6 -10 771.980 21.0289   6
  -5  -6 -10 748.587 23.2825   5
   5   6  10 826.195 34.0531   1
   5   6  10 782.699 32.4895   4
   5   6  10 758.695 32.9425   2
   5   6  10 785.327 29.0464   6
   5   6  10 775.837 26.3648   6
  -6  -6 -10 447.593 15.4550   6
  -6  -6 -10 432.929 15.3613   5
  -6  -6 -10 431.542 14.9949   6
   6   6  10 470.647 23.2774   6
   6   6  10 459.517 20.8511   6
   6   6  10 369.505 24.7878   1
   6   6  10 456.657 24.1538   4
   6   6  10 425.212 25.8262   2
   7   6  10 96.5797 15.0825   2
   7   6  10 65.2585 11.5666   6
   7   6  10 73.3476 17.6735   1
   5  -7 -10 41.4734 10.4133   6
  -5   7  10 56.7143 14.0993   5
  -5   7  10 55.9322 10.7945   6
  -5   7  10 66.7097 14.1119   2
   4  -7 -10 5.80265 6.74473   6
   4  -7 -10 2.74938 8.57119   3
   4  -7 -10 2.39813 5.89154   6
  -4   7  10 4.06403 8.56135   2
  -4   7  10 15.1105 7.27362   5
  -4   7  10 2.14943 5.80143   6
   3  -7 -10 66.5489 10.4426   3
   3  -7 -10 63.7309 9.13127   6
  -3   7  10 61.7066 12.7167   2
  -3   7  10 56.2953 9.72192   6
  -3   7  10 49.0134 10.3364   5
  -3   7  10 47.6396 9.61541   6
  -3   7  10 44.4700 11.4063   1
   2  -7 -10 617.745 27.9410   5
   2  -7 -10 649.131 21.7473   6
   2  -7 -10 607.874 22.4596   3
   2  -7 -10 659.405 23.1675   6
  -2   7  10 625.701 28.2063   5
  -2   7  10 610.542 24.9861   6
  -2   7  10 595.852 28.4500   6
  -2   7  10 618.806 28.9608   2
  -2   7  10 634.593 31.1211   1
   1  -7 -10 103.126 8.77241   6
   1  -7 -10 98.3331 8.68369   3
   1  -7 -10 97.6259 12.1133   5
   1  -7 -10 94.8084 9.57023   6
  -1   7  10 80.8904 12.2933   5
  -1   7  10 92.1804 10.9049   6
  -1   7  10 98.8414 11.8281   6
  -1   7  10 108.615 15.7099   1
  -1   7  10 96.6142 8.11151   4
  -1   7  10 98.4547 14.0815   2
   0  -7 -10 3.86039 6.00904   5
   0  -7 -10 3.13318 3.59608   6
   0  -7 -10 4.24480 4.15279   6
   0   7  10 1.57012 4.16924   4
   0   7  10 3.98875 6.42955   5
   0   7  10 1.19596 4.91051   6
   0   7  10 10.5825 7.47199   2
   0   7  10 -0.9184 4.88275   6
  -1  -7 -10 179.171 9.06249   6
  -1  -7 -10 196.696 9.76831   6
   1   7  10 197.122 13.5224   6
   1   7  10 182.641 13.0242   6
   1   7  10 146.709 13.8910   5
   1   7  10 190.098 11.1946   4
   1   7  10 189.234 16.0991   2
  -2  -7 -10 53.2315 8.58478   5
  -2  -7 -10 54.7390 5.35846   6
   2   7  10 62.4356 9.59482   6
   2   7  10 69.5411 8.58246   4
   2   7  10 38.1808 9.96308   2
   2   7  10 58.1899 8.81463   6
   2   7  10 59.3482 10.0470   5
  -3  -7 -10 62.7879 11.9996   2
  -3  -7 -10 57.6782 8.69526   5
   3   7  10 66.7470 12.0402   2
   3   7  10 68.4182 9.77308   5
   3   7  10 71.3269 8.96133   4
   3   7  10 81.1444 10.5633   6
   3   7  10 77.5736 9.44577   6
  -4  -7 -10 0.66663 8.02880   2
  -4  -7 -10 27.8821 6.55815   5
   4   7  10 11.6238 8.66152   2
   4   7  10 24.9980 6.73018   6
   4   7  10 22.4296 6.82509   4
   4   7  10 21.5716 7.12936   5
   4   7  10 19.8933 7.18287   6
   4   7  10 13.1594 8.23207   1
  -5  -7 -10 412.417 16.4109   5
  -5  -7 -10 405.651 26.2573   2
   5   7  10 414.245 19.2023   6
   5   7  10 354.597 24.3773   2
   5   7  10 406.445 20.6446   6
   5   7  10 371.368 24.0355   1
   5   7  10 407.335 20.7176   4
   6   7  10 429.085 26.4488   2
   6   7  10 425.074 26.8818   1
   6   7  10 438.794 20.6116   6
   6   7  10 449.045 22.7774   6
   7   7  10 13.4102 8.52532   6
   7   7  10 -2.3158 8.06314   1
   7   7  10 4.02395 12.0652   2
   4  -8 -10 169.375 18.3804   3
   4  -8 -10 144.264 14.1235   6
  -4   8  10 140.133 18.2956   5
  -4   8  10 132.452 17.0271   2
   3  -8 -10 44.3517 9.85901   3
   3  -8 -10 57.9057 9.30951   6
  -3   8  10 47.1381 11.5914   5
  -3   8  10 41.7791 9.55837   6
  -3   8  10 61.6325 12.2271   2
   2  -8 -10 8.32109 5.04857   6
   2  -8 -10 10.4708 5.80119   6
   2  -8 -10 11.3698 6.17162   3
   2  -8 -10 -7.9371 10.2327   5
  -2   8  10 10.0514 8.93935   2
  -2   8  10 0.42348 7.40785   5
  -2   8  10 2.12248 6.38634   6
  -2   8  10 -4.2128 5.45253   6
  -2   8  10 4.68711 8.79308   1
   1  -8 -10 466.678 16.3244   3
   1  -8 -10 468.739 16.1983   6
   1  -8 -10 412.356 23.0568   5
   1  -8 -10 450.940 15.5157   6
  -1   8  10 473.474 24.4871   5
  -1   8  10 493.642 21.5413   6
  -1   8  10 476.137 25.7511   2
  -1   8  10 460.675 21.0922   6
  -1   8  10 430.337 26.7304   1
   0  -8 -10 224.622 17.2030   5
   0   8  10 227.482 17.7951   5
   0   8  10 224.089 21.5373   6
   0   8  10 282.803 20.2623   2
   0   8  10 238.204 15.1671   6
  -1  -8 -10 18.2471 7.03123   5
   1   8  10 27.0064 9.15400   2
   1   8  10 26.3745 6.66155   6
   1   8  10 18.3549 5.42103   4
   1   8  10 17.8026 8.12526   5
   1   8  10 24.7912 6.79893   6
   2   8  10 295.324 17.6989   5
   2   8  10 306.250 16.4140   6
   2   8  10 280.788 14.3569   4
   2   8  10 343.916 22.0539   2
   2   8  10 331.325 17.3927   6
  -3  -8 -10 10.8852 5.67120   5
   3   8  10 -0.2168 5.42877   4
   3   8  10 -4.7382 6.02511   5
   3   8  10 3.08373 5.23266   6
   3   8  10 6.02304 5.92763   6
   3   8  10 7.91043 8.08090   2
  -4  -8 -10 105.038 10.7919   5
  -4  -8 -10 91.0725 13.8970   2
   4   8  10 78.5475 13.7668   6
   4   8  10 72.1454 9.94153   5
   4   8  10 60.6515 10.0052   4
   4   8  10 86.5956 14.1625   2
   4   8  10 98.3161 10.6737   6
   4   8  10 67.1007 12.4566   1
  -5  -8 -10 0.72581 5.24613   5
   5   8  10 5.84684 8.23397   1
   5   8  10 1.13563 6.37302   6
   5   8  10 6.34870 6.67132   6
   5   8  10 9.58441 7.80800   4
   5   8  10 2.39079 7.54721   2
   6   8  10 57.9401 9.96500   6
   6   8  10 65.7390 14.8702   2
   6   8  10 41.1519 10.8638   1
   6   8  10 73.5977 10.4513   6
   3  -9 -10 44.2416 7.38917   6
   3  -9 -10 44.0799 7.12991   6
  -3   9  10 43.9422 15.7779   2
  -3   9  10 24.3937 9.43461   5
  -3   9  10 37.9348 8.94733   6
   2  -9 -10 117.592 8.48370   6
   2  -9 -10 162.987 19.9918   3
   2  -9 -10 113.547 9.00676   6
  -2   9  10 130.645 15.7970   5
  -2   9  10 133.817 14.4326   6
  -2   9  10 115.808 13.3895   6
  -2   9  10 133.855 17.3070   2
  -1   9  10 741.889 34.1570   2
  -1   9  10 721.063 29.9337   6
  -1   9  10 768.959 28.3132   6
  -1   9  10 801.832 41.8272   1
  -1   9  10 752.927 32.6767   5
   0  -9 -10 141.286 15.0869   5
   0   9  10 175.705 19.8051   2
   0   9  10 160.767 13.2376   6
   0   9  10 155.918 16.8802   5
   0   9  10 153.122 13.6478   6
   1   9  10 20.6824 9.11122   6
   1   9  10 14.0880 8.76478   5
   1   9  10 -2.7566 7.35738   2
   1   9  10 6.45707 4.78968   4
   1   9  10 28.2377 7.55288   6
  -2  -9 -10 724.900 28.4886   5
   2   9  10 736.914 23.6364   4
   2   9  10 751.103 34.2935   2
   2   9  10 758.268 27.3994   6
   2   9  10 764.915 29.2587   5
   3   9  10 79.3455 10.6107   6
   3   9  10 89.6991 10.8152   6
   3   9  10 74.6422 11.0779   5
   3   9  10 56.0549 9.17421   4
   3   9  10 77.7707 13.9844   2
  -4  -9 -10 96.9509 11.5840   5
   4   9  10 94.3275 14.5016   2
   4   9  10 105.482 11.9388   4
   4   9  10 87.5930 11.8997   6
   4   9  10 108.951 12.0593   6
   4   9  10 87.2288 13.7294   1
   4   9  10 112.058 12.2317   5
   5   9  10 97.0383 16.1159   1
   5   9  10 110.115 15.1558   6
   5   9  10 83.5754 15.3770   2
   5   9  10 72.1552 11.2741   6
   5   9  10 53.2924 16.4489   4
   2 -10 -10 411.876 26.2699   3
  -2  10  10 369.083 24.7047   5
  -2  10  10 352.445 25.9336   2
  -2  10  10 405.535 21.2667   6
  -1  10  10 338.526 19.2917   6
  -1  10  10 326.818 31.0558   2
  -1  10  10 325.776 19.7591   6
  -1  10  10 347.883 23.1610   5
   0  10  10 46.9798 12.1719   2
   0  10  10 45.9121 10.9291   5
   0  10  10 46.3707 9.14982   6
  -1 -10 -10 202.820 20.3552   5
   1  10  10 144.816 18.7800   2
   1  10  10 170.965 14.2317   6
   1  10  10 163.598 14.2102   6
   1  10  10 193.087 17.1801   5
  -2 -10 -10 944.660 35.2240   5
   2  10  10 977.517 32.0703   6
   2  10  10 946.916 40.3621   2
   2  10  10 946.803 26.9325   4
   2  10  10 909.138 34.2179   5
   2  10  10 940.772 30.5995   6
  -3 -10 -10 388.578 21.3288   5
   3  10  10 398.079 20.9967   5
   3  10  10 357.870 18.2512   4
   3  10  10 390.255 25.2785   1
   3  10  10 351.349 25.5527   2
   3  10  10 346.954 18.5288   6
   3  10  10 359.780 19.2009   6
   4  10  10 89.8714 15.5059   1
   4  10  10 118.691 12.9670   5
   4  10  10 90.1868 11.5791   4
   4  10  10 85.0934 11.9219   6
   4  10  10 89.1891 10.5760   6
   4  10  10 80.6792 15.8544   2
   0   6 -11 120.945 15.8290   6
   0   6 -11 68.5705 13.4534   3
   0   6 -11 114.655 12.5710   6
   0   6 -11 116.516 14.2199   4
  -1   6 -11 361.269 19.8873   6
  -1   6 -11 348.932 22.3422   4
  -1   6 -11 404.799 27.9856   3
  -2   6 -11 17.6183 8.17112   2
  -2   6 -11 4.89175 10.1875   3
  -2   6 -11 11.0532 7.89072   6
  -2   6 -11 13.9197 9.11587   4
   2   5 -11 171.045 15.9377   6
   2   5 -11 162.189 14.3913   6
   2   5 -11 120.105 17.9601   3
   2   5 -11 152.049 16.8361   4
  -2  -5  11 130.245 12.0955   1
   1   5 -11 34.7289 9.86609   3
   1   5 -11 62.1010 9.46248   6
   1   5 -11 35.3697 9.66550   4
  -1  -5  11 40.7103 6.06911   1
   0   5 -11 106.844 12.5524   6
   0   5 -11 135.477 19.8999   3
   0   5 -11 132.942 15.8408   4
   0   5 -11 116.476 13.0137   6
  -1   5 -11 348.868 24.4335   3
  -1   5 -11 359.934 20.3058   6
  -1   5 -11 339.832 19.0674   6
  -1   5 -11 366.444 21.8123   4
  -2   5 -11 10.5154 6.40500   2
  -2   5 -11 14.2405 8.32271   6
  -2   5 -11 15.9704 9.89595   3
  -2   5 -11 18.6685 6.98520   6
  -2   5 -11 -1.2198 7.98669   4
   2  -5  11 7.16967 7.74114   4
  -3   5 -11 224.116 18.7159   4
  -3   5 -11 258.576 22.4366   3
  -3   5 -11 200.421 16.6842   2
  -3   5 -11 230.596 17.9013   6
   3  -5  11 193.719 18.3974   4
   3  -5  11 221.875 13.0332   6
  -4   5 -11 328.123 29.6651   3
  -4   5 -11 260.369 19.7599   2
  -4   5 -11 323.683 22.1414   4
  -4   5 -11 350.019 21.2121   6
   4  -5  11 305.613 16.4556   6
   4  -5  11 292.380 15.1160   6
   3   4 -11 22.6886 10.5854   3
   3   4 -11 24.9822 10.2854   5
   3   4 -11 12.2802 7.84458   4
   3   4 -11 5.67147 7.63369   6
  -3  -4  11 20.3643 8.61408   1
   2   4 -11 -1.5304 7.94867   3
   2   4 -11 7.24853 7.15950   4
   2   4 -11 -2.7331 6.30490   6
   2   4 -11 -13.211 7.26666   5
   2   4 -11 8.80425 6.21921   6
  -2  -4  11 5.77987 5.97441   1
   1   4 -11 612.237 37.9047   6
   1   4 -11 621.867 30.6929   3
   1   4 -11 679.650 28.9832   4
   1   4 -11 684.384 25.9401   6
   1   4 -11 652.736 29.4265   5
  -1  -4  11 681.886 22.3347   1
   0   4 -11 145.300 14.2819   6
   0   4 -11 131.391 12.9075   6
   0   4 -11 144.328 15.4412   4
   0   4 -11 102.712 14.7668   3
   0   4 -11 135.302 15.2770   5
   0  -4  11 153.180 17.4974   4
   0  -4  11 122.313 8.54941   1
   0  -4  11 132.334 8.93994   6
  -1   4 -11 837.755 35.9603   6
  -1   4 -11 848.959 32.7117   4
  -1   4 -11 800.961 33.3606   5
  -1   4 -11 810.081 29.3385   6
  -1   4 -11 793.411 35.0779   3
  -1   4 -11 792.777 24.6120   2
   1  -4  11 852.438 24.0019   6
   1  -4  11 837.871 31.9363   4
   1  -4  11 843.959 23.1349   6
  -2   4 -11 45.8742 12.2264   3
  -2   4 -11 58.6009 10.1018   6
  -2   4 -11 71.1874 10.0982   2
  -2   4 -11 62.0015 12.2678   4
  -2   4 -11 73.5606 11.5658   6
   2  -4  11 51.9283 7.52113   6
   2  -4  11 63.9563 8.83280   6
   2  -4  11 80.8501 12.0816   4
  -3   4 -11 120.626 14.7593   4
  -3   4 -11 163.650 15.2640   6
  -3   4 -11 122.330 13.9625   6
  -3   4 -11 103.531 15.9036   3
  -3   4 -11 129.373 13.9033   2
   3  -4  11 104.405 10.4714   6
   3  -4  11 144.579 12.1174   6
   3  -4  11 118.769 13.8983   4
  -4   4 -11 628.820 33.2004   3
  -4   4 -11 671.813 28.3799   6
  -4   4 -11 689.740 30.4913   4
   4  -4  11 643.873 24.9528   6
   4  -4  11 646.884 27.5909   4
  -5   4 -11 52.4437 11.3126   6
  -5   4 -11 47.4432 13.2091   3
   5  -4  11 68.8805 10.9687   6
   4   3 -11 235.883 19.8478   4
   4   3 -11 232.995 19.0815   5
   4   3 -11 257.445 19.7329   1
  -4  -3  11 237.636 19.8273   1
   3   3 -11 50.8262 10.2006   6
   3   3 -11 43.4918 8.59815   6
   3   3 -11 44.6158 9.87687   5
   3   3 -11 28.8888 9.17673   4
  -3  -3  11 38.6238 6.48924   6
  -3  -3  11 40.0537 6.23846   6
  -3  -3  11 40.7365 9.84965   1
   2   3 -11 64.4865 10.9674   5
   2   3 -11 28.2479 10.4984   3
   2   3 -11 52.0383 11.8634   4
   2   3 -11 37.2485 8.61174   6
   2   3 -11 59.5095 10.4071   6
  -2  -3  11 37.8048 5.64538   6
  -2  -3  11 58.0980 9.54086   1
  -2  -3  11 45.1989 6.99853   6
   1   3 -11 767.660 30.2208   4
   1   3 -11 743.746 31.1040   5
   1   3 -11 761.702 32.5304   3
   1   3 -11 806.837 27.6904   6
   1   3 -11 778.670 28.2074   6
  -1  -3  11 707.019 30.3057   4
  -1  -3  11 765.849 23.2360   6
  -1  -3  11 765.876 22.5553   6
  -1  -3  11 757.475 25.0966   1
   0   3 -11 17.6314 7.20171   6
   0   3 -11 30.7085 10.5495   3
   0   3 -11 23.7885 7.33057   6
   0   3 -11 19.6792 10.3740   5
   0   3 -11 33.8303 9.75041   4
   0  -3  11 14.3167 4.88000   1
   0  -3  11 21.4111 6.84741   6
   0  -3  11 15.8664 7.93384   4
   0  -3  11 16.0978 5.56837   6
  -1   3 -11 507.987 19.2871   2
  -1   3 -11 527.789 22.9189   6
  -1   3 -11 554.484 25.5870   4
  -1   3 -11 530.543 27.4978   3
  -1   3 -11 554.187 23.0375   6
  -1   3 -11 565.775 27.1147   5
   1  -3  11 605.196 30.9653   4
   1  -3  11 541.725 20.0374   6
   1  -3  11 545.614 19.4084   6
   1  -3  11 525.402 16.2780   1
  -2   3 -11 184.322 12.7211   2
  -2   3 -11 187.997 16.7050   4
  -2   3 -11 135.055 15.6425   3
  -2   3 -11 187.562 14.9176   6
  -2   3 -11 199.745 15.2296   6
   2  -3  11 184.976 12.3671   6
   2  -3  11 168.560 15.1861   4
   2  -3  11 203.797 13.3406   6
  -3   3 -11 87.1408 12.7646   4
  -3   3 -11 115.768 13.8488   6
  -3   3 -11 149.010 16.7342   3
  -3   3 -11 107.899 12.8581   6
  -3   3 -11 125.499 14.1614   2
   3  -3  11 111.183 11.8101   6
  -4   3 -11 1185.45 38.8632   6
  -4   3 -11 1235.49 45.0025   3
  -4   3 -11 1224.26 39.1343   6
  -4   3 -11 1239.20 41.5852   4
  -4   3 -11 1157.08 38.5971   2
   4  -3  11 1157.57 38.7829   4
   4  -3  11 1284.83 36.4624   6
   4  -3  11 1268.75 38.0861   6
  -5   3 -11 43.0552 13.1732   3
  -5   3 -11 18.1801 7.84725   6
  -5   3 -11 22.6939 10.5205   2
   5  -3  11 40.2656 10.0867   6
   5  -3  11 42.2268 9.50643   6
   5  -3  11 47.9443 10.4727   4
  -6   3 -11 11.6145 10.3755   6
  -6   3 -11 23.7769 12.8430   3
   6  -3  11 24.0166 6.60569   1
   6  -3  11 8.54955 8.79955   6
   4   2 -11 671.330 29.1151   5
   4   2 -11 644.937 30.6614   1
   4   2 -11 674.095 27.7329   6
   4   2 -11 694.839 30.7227   4
  -4  -2  11 657.725 29.9560   1
  -4  -2  11 589.584 21.9476   6
  -4  -2  11 721.318 23.8792   6
   3   2 -11 142.656 13.6924   6
   3   2 -11 154.131 17.0355   4
   3   2 -11 157.797 15.2783   6
  -3  -2  11 132.742 10.7675   6
  -3  -2  11 172.059 12.4585   6
  -3  -2  11 153.487 14.6299   1
   2   2 -11 69.5617 11.3564   4
   2   2 -11 62.2932 10.0044   6
   2   2 -11 64.6379 11.0566   5
   2   2 -11 78.8548 10.8904   6
  -2  -2  11 61.5638 8.67354   6
  -2  -2  11 56.0754 11.4913   4
  -2  -2  11 54.4601 8.29111   6
   1   2 -11 704.966 28.3752   4
   1   2 -11 658.036 27.9689   5
   1   2 -11 693.501 29.8113   3
   1   2 -11 672.990 25.9776   6
   1   2 -11 666.352 25.3175   6
  -1  -2  11 697.460 23.5746   6
  -1  -2  11 707.640 25.2476   1
  -1  -2  11 717.876 22.9942   6
   0   2 -11 197.884 15.5411   4
   0   2 -11 200.400 14.7122   6
   0   2 -11 191.235 16.4318   6
   0   2 -11 212.731 16.0838   5
   0   2 -11 198.334 16.8568   3
   0  -2  11 219.273 15.9377   4
   0  -2  11 204.662 12.7221   6
   0  -2  11 183.157 11.6243   1
   0  -2  11 203.346 12.1868   6
  -1   2 -11 108.251 12.5089   4
  -1   2 -11 107.827 19.5086   6
  -1   2 -11 143.841 14.3929   6
  -1   2 -11 103.625 13.7575   5
  -1   2 -11 94.4823 9.29359   2
  -1   2 -11 119.970 16.6865   3
   1  -2  11 89.5967 8.10965   1
   1  -2  11 118.811 10.5552   6
   1  -2  11 108.863 10.9880   6
   1  -2  11 111.747 10.1577   2
   1  -2  11 113.605 13.4166   4
  -2   2 -11 813.385 33.4118   5
  -2   2 -11 830.001 27.0165   2
  -2   2 -11 826.186 29.1282   6
  -2   2 -11 874.278 32.0946   4
  -2   2 -11 827.657 33.3390   3
  -2   2 -11 842.316 29.4408   6
   2  -2  11 825.476 30.1437   4
   2  -2  11 826.302 26.6098   6
   2  -2  11 826.573 27.3083   6
   2  -2  11 838.697 27.2894   2
   2  -2  11 825.924 22.9358   1
  -3   2 -11 42.8624 9.38221   4
  -3   2 -11 44.9794 9.33068   6
  -3   2 -11 25.8994 8.52952   6
  -3   2 -11 43.7999 11.5782   3
  -3   2 -11 38.9946 7.73776   2
   3  -2  11 43.7802 8.28041   6
   3  -2  11 45.1438 9.32746   2
   3  -2  11 42.2030 6.04615   1
   3  -2  11 60.2702 6.52999   1
   3  -2  11 51.2490 9.90200   4
  -4   2 -11 1171.69 41.9427   3
  -4   2 -11 1229.89 38.4770   6
  -4   2 -11 1198.91 40.1905   4
  -4   2 -11 1118.55 37.3918   2
  -4   2 -11 1224.70 38.1803   6
   4  -2  11 1232.04 35.4447   6
   4  -2  11 1142.39 30.1540   1
   4  -2  11 1237.03 46.1535   4
   4  -2  11 1156.51 36.2335   6
  -5   2 -11 5.62023 7.10982   6
  -5   2 -11 21.3557 8.10150   6
  -5   2 -11 2.33107 8.87377   3
  -5   2 -11 11.0416 8.08125   2
   5  -2  11 12.1658 6.72771   6
   5  -2  11 19.2932 8.57271   3
   5  -2  11 3.48399 7.45689   6
   5  -2  11 15.7553 7.80691   4
   5  -2  11 5.95841 4.51697   1
  -6   2 -11 38.0652 10.2488   6
  -6   2 -11 34.0493 12.0244   3
   6  -2  11 16.1993 6.60932   1
   6  -2  11 26.7578 9.75366   6
  -7   2 -11 544.886 27.5685   6
  -7   2 -11 535.807 31.0320   3
   7  -2  11 552.572 22.9352   1
   7  -2  11 571.084 27.4797   6
   5   1 -11 0.86867 6.09459   1
   5   1 -11 10.5797 8.83559   6
   5   1 -11 -4.7063 7.63947   5
  -5  -1  11 0.77676 6.36607   6
  -5  -1  11 -4.5751 6.54482   6
   4   1 -11 48.4196 10.8042   6
   4   1 -11 41.8526 10.5236   1
   4   1 -11 43.3703 12.1427   5
   4   1 -11 46.0280 9.73322   4
  -4  -1  11 35.7047 8.07618   6
  -4  -1  11 46.0561 10.2462   1
  -4  -1  11 48.6542 11.4466   6
   3   1 -11 5.01752 6.40851   4
   3   1 -11 3.88282 6.84676   5
   3   1 -11 2.21867 6.36788   6
  -3  -1  11 -1.4869 5.72006   4
  -3  -1  11 1.81604 4.76803   6
  -3  -1  11 -0.5147 5.84687   1
  -3  -1  11 -2.4970 5.53121   6
   2   1 -11 22.5671 6.95281   6
   2   1 -11 15.8940 6.93454   6
   2   1 -11 36.2358 10.2861   5
   2   1 -11 13.0160 7.10514   4
  -2  -1  11 26.7961 6.60717   6
  -2  -1  11 6.25209 10.1216   4
  -2  -1  11 27.3406 7.07392   6
  -2  -1  11 9.38447 5.80085   1
   1   1 -11 1005.59 35.0545   5
   1   1 -11 1104.34 35.3974   4
   1   1 -11 1084.99 53.7343   3
   1   1 -11 1038.43 36.0430   6
   1   1 -11 1010.30 32.6056   6
  -1  -1  11 1079.84 30.8464   6
  -1  -1  11 1039.39 32.3335   1
  -1  -1  11 1055.96 45.7731   4
  -1  -1  11 1054.39 31.4064   6
   0   1 -11 392.825 15.2289   2
   0   1 -11 393.391 20.9384   3
   0   1 -11 385.296 18.6312   6
   0   1 -11 337.015 22.5059   4
   0   1 -11 425.073 19.3809   6
   0   1 -11 362.566 20.1408   5
   0  -1  11 426.704 18.3042   6
   0  -1  11 372.590 17.2844   1
   0  -1  11 395.002 17.4152   6
   0  -1  11 368.917 14.8369   2
  -1   1 -11 47.1503 7.60828   2
  -1   1 -11 43.0691 8.99940   3
  -1   1 -11 52.9707 11.0272   4
  -1   1 -11 64.0936 10.1073   6
  -1   1 -11 50.9071 8.87641   6
   1  -1  11 60.0995 7.99425   1
   1  -1  11 61.7105 7.94418   2
   1  -1  11 53.0403 8.88558   6
   1  -1  11 54.9756 8.41368   6
  -2   1 -11 283.948 18.4942   3
  -2   1 -11 262.743 16.1040   6
  -2   1 -11 291.268 17.9701   5
  -2   1 -11 303.649 19.1541   6
  -2   1 -11 303.417 15.5996   2
   2  -1  11 289.905 16.0300   6
   2  -1  11 271.977 13.4679   1
   2  -1  11 308.257 17.4700   4
   2  -1  11 282.448 15.6910   2
  -3   1 -11 62.4442 10.5412   5
  -3   1 -11 55.4385 9.47734   6
  -3   1 -11 85.1985 12.5484   3
  -3   1 -11 71.4416 10.7441   6
  -3   1 -11 71.5926 10.1082   2
  -3   1 -11 80.0633 12.1536   4
   3  -1  11 70.4201 10.1381   2
   3  -1  11 57.8231 9.36570   4
   3  -1  11 68.5630 8.55912   1
   3  -1  11 60.3880 9.66103   6
  -4   1 -11 103.432 12.9158   2
  -4   1 -11 109.630 13.2802   5
  -4   1 -11 98.7052 12.4655   6
  -4   1 -11 94.0169 13.5861   3
  -4   1 -11 99.2821 12.2777   6
   4  -1  11 78.4321 13.7716   2
   4  -1  11 94.1132 11.7068   4
   4  -1  11 102.367 9.86288   1
   4  -1  11 97.9512 13.0545   3
   4  -1  11 121.202 12.2224   6
   4  -1  11 103.132 12.6387   6
  -5   1 -11 5.17054 6.84240   6
  -5   1 -11 12.4957 6.45331   6
  -5   1 -11 14.7170 9.70886   3
   5  -1  11 9.03202 6.85919   6
   5  -1  11 6.73894 5.78425   1
   5  -1  11 5.48222 7.04658   4
   5  -1  11 5.53338 7.49647   3
   5  -1  11 8.36262 7.93673   6
   5  -1  11 -5.0906 5.70355   2
  -6   1 -11 53.7215 10.1921   6
  -6   1 -11 53.7394 11.9561   3
   6  -1  11 40.1239 9.81860   4
   6  -1  11 82.2637 13.0170   6
   6  -1  11 62.7269 9.76081   1
   6  -1  11 48.3318 11.9715   2
   6  -1  11 53.4017 10.8196   6
   6  -1  11 55.2450 11.7401   3
  -7   1 -11 595.607 31.0355   3
  -7   1 -11 714.108 41.5491   6
   7  -1  11 623.492 29.7582   6
   7  -1  11 613.592 25.9980   1
   5   0 -11 127.058 14.8923   6
   5   0 -11 132.146 16.1863   5
   5   0 -11 115.587 17.4956   1
   5   0 -11 111.566 14.3535   4
  -5   0  11 148.429 13.7615   6
  -5   0  11 143.790 13.5440   6
   4   0 -11 48.6501 13.9154   6
   4   0 -11 54.4182 12.7477   5
   4   0 -11 40.9560 10.4902   4
   4   0 -11 37.7583 9.04793   6
  -4   0  11 33.5916 7.96312   6
  -4   0  11 23.9808 8.40243   4
  -4   0  11 52.7423 11.7536   1
  -4   0  11 39.2847 8.28037   6
   3   0 -11 78.4881 11.6538   6
   3   0 -11 76.6252 12.1549   5
   3   0 -11 70.7939 10.8112   4
  -3   0  11 72.3841 10.5690   6
  -3   0  11 83.3803 16.7575   4
  -3   0  11 66.5154 12.0176   1
  -3   0  11 86.5391 12.7870   6
   2   0 -11 145.432 13.3718   6
   2   0 -11 141.717 15.6572   4
   2   0 -11 137.855 15.4995   5
   2   0 -11 140.951 12.8987   6
  -2   0  11 138.016 13.4073   1
  -2   0  11 120.832 13.3732   6
  -2   0  11 135.366 11.7615   6
  -2   0  11 138.412 14.8299   4
   1   0 -11 91.2322 12.2066   5
   1   0 -11 117.991 14.6069   4
   1   0 -11 114.910 12.4369   6
   1   0 -11 89.3765 11.0949   6
  -1   0  11 93.6529 11.1460   1
  -1   0  11 95.4347 12.5708   4
  -1   0  11 76.4474 8.02174   2
  -1   0  11 94.3495 10.7228   6
  -1   0  11 76.6519 9.85785   6
   0   0 -11 194.386 13.5570   6
   0   0 -11 199.361 11.5188   2
   0   0 -11 185.257 14.3906   4
   0   0 -11 202.364 14.8258   3
   0   0 -11 193.702 13.4978   6
   0   0  11 183.910 16.1051   4
   0   0  11 191.273 12.9957   6
   0   0  11 172.802 11.1100   2
   0   0  11 201.407 13.1266   6
  -1   0 -11 308.131 18.0156   3
  -1   0 -11 316.380 16.6974   6
  -1   0 -11 334.616 18.4374   4
  -1   0 -11 333.064 15.6253   2
  -1   0 -11 308.376 16.5934   6
   1   0  11 341.733 16.0550   1
   1   0  11 325.952 16.6601   6
   1   0  11 312.666 15.2637   2
   1   0  11 308.976 15.9949   6
  -2   0 -11 522.044 21.8389   6
  -2   0 -11 520.845 20.8888   2
  -2   0 -11 470.608 22.3124   3
  -2   0 -11 481.882 22.3976   4
   2   0  11 501.885 21.1375   6
   2   0  11 508.461 20.6010   2
   2   0  11 444.815 19.6945   6
  -3   0 -11 77.6109 12.0011   4
  -3   0 -11 77.3221 11.3302   3
  -3   0 -11 63.2349 11.5780   6
  -3   0 -11 63.5280 9.24743   2
   3   0  11 77.8901 10.7455   6
   3   0  11 53.8513 9.82022   2
  -4   0 -11 -1.2891 5.82814   6
  -4   0 -11 0.09783 5.69932   2
  -4   0 -11 1.96152 7.93037   6
  -4   0 -11 6.15801 7.61508   3
   4   0  11 7.50429 5.45390   1
   4   0  11 3.25166 6.85231   3
   4   0  11 -4.4512 6.03478   6
   4   0  11 -2.0282 4.35581   6
   4   0  11 -6.1913 5.98582   2
   4   0  11 -0.3890 4.41812   4
  -5   0 -11 -4.2873 5.90931   6
  -5   0 -11 0.45456 7.46435   3
  -5   0 -11 6.75925 6.74498   6
  -5   0 -11 -2.3921 5.98973   2
  -5   0 -11 5.19244 7.42989   5
   5   0  11 2.87099 8.63772   2
   5   0  11 -1.7859 4.76478   1
   5   0  11 -2.7182 6.72689   3
   5   0  11 8.98446 6.95496   6
  -6   0 -11 12.5190 8.03122   6
  -6   0 -11 -3.9650 7.52298   3
  -6   0 -11 14.9224 8.12627   2
  -6   0 -11 8.40414 7.16198   6
  -6   0 -11 1.79402 7.34154   5
   6   0  11 -4.5978 7.40859   4
   6   0  11 -7.1916 6.43924   6
   6   0  11 -2.2628 7.88945   2
   6   0  11 0.31501 6.43898   1
   6   0  11 -2.4714 6.61680   6
   6   0  11 -4.7318 7.64120   3
  -7   0 -11 70.6495 11.3495   5
  -7   0 -11 49.4617 12.6190   3
  -7   0 -11 65.3666 11.5757   6
   7   0  11 47.0411 10.1771   3
   7   0  11 60.8216 11.6949   6
   7   0  11 50.4807 11.3180   2
   7   0  11 58.2559 11.2016   1
   5  -1 -11 44.0635 9.18161   6
   5  -1 -11 48.6635 10.6990   4
   5  -1 -11 34.8253 10.8086   5
  -5   1  11 42.5033 9.14039   6
  -5   1  11 38.6289 9.86355   6
   4  -1 -11 1006.52 44.3523   5
   4  -1 -11 894.152 33.4086   6
   4  -1 -11 925.602 33.7249   4
   4  -1 -11 935.581 33.3643   6
  -4   1  11 960.917 32.4441   6
  -4   1  11 964.238 38.1783   1
  -4   1  11 909.446 34.5810   4
   3  -1 -11 24.1313 9.62576   6
   3  -1 -11 39.0995 8.99310   4
   3  -1 -11 73.6879 12.7995   5
  -3   1  11 54.2323 11.4606   1
  -3   1  11 49.5115 9.41074   6
  -3   1  11 31.0339 8.67658   4
  -3   1  11 48.7518 9.14787   6
   2  -1 -11 121.354 12.9125   6
   2  -1 -11 98.7687 12.9181   4
   2  -1 -11 119.438 14.1486   5
   2  -1 -11 98.1258 11.9670   6
  -2   1  11 101.952 11.5698   6
  -2   1  11 99.2456 8.91834   2
  -2   1  11 100.697 12.0040   4
   1  -1 -11 44.2712 9.44009   5
   1  -1 -11 41.4556 7.87457   6
   1  -1 -11 37.3400 8.38830   4
  -1   1  11 47.4989 7.30009   2
  -1   1  11 39.4470 7.99753   6
  -1   1  11 55.1590 9.54715   1
  -1   1  11 58.6729 9.26250   6
  -1   1  11 55.2384 9.28562   4
   0  -1 -11 529.337 22.2049   4
   0  -1 -11 477.980 20.3807   6
   0  -1 -11 504.276 21.4669   3
   0  -1 -11 479.091 19.0368   2
   0   1  11 518.716 20.7737   6
   0   1  11 493.017 20.6328   6
   0   1  11 525.651 21.5243   4
   0   1  11 492.872 18.7568   2
   0   1  11 440.182 20.5843   1
  -1  -1 -11 863.071 30.1153   4
  -1  -1 -11 908.015 31.1175   5
  -1  -1 -11 975.647 30.5140   3
  -1  -1 -11 864.494 28.8355   6
  -1  -1 -11 918.042 28.2517   2
   1   1  11 887.857 29.3690   4
   1   1  11 888.834 27.7436   2
   1   1  11 864.646 28.2117   6
   1   1  11 864.358 28.8396   6
  -2  -1 -11 8.89260 5.55104   6
  -2  -1 -11 -6.7726 3.97029   2
  -2  -1 -11 0.88847 4.90391   5
  -2  -1 -11 -4.1905 5.23057   4
  -2  -1 -11 -1.2212 5.62343   3
   2   1  11 5.55966 5.23753   2
   2   1  11 3.77984 4.34517   6
   2   1  11 2.00585 4.56586   6
  -3  -1 -11 338.552 18.1085   6
  -3  -1 -11 366.445 18.3220   2
  -3  -1 -11 374.111 18.3117   3
  -3  -1 -11 327.102 18.1822   5
  -3  -1 -11 331.009 18.8402   4
   3   1  11 344.656 18.5011   2
   3   1  11 328.611 17.9093   6
  -4  -1 -11 832.153 29.4169   5
  -4  -1 -11 819.763 28.7668   3
  -4  -1 -11 845.784 30.7771   2
  -4  -1 -11 845.048 33.8148   6
  -4  -1 -11 843.903 28.9576   6
   4   1  11 863.668 30.9355   2
   4   1  11 804.629 29.5386   6
   4   1  11 812.336 28.4110   1
   4   1  11 798.663 27.2825   6
  -5  -1 -11 103.753 12.5929   5
  -5  -1 -11 127.084 14.0831   2
  -5  -1 -11 130.143 13.2857   3
  -5  -1 -11 131.744 12.7797   6
  -5  -1 -11 142.667 13.5007   6
   5   1  11 146.406 15.8769   6
   5   1  11 120.687 13.9329   6
   5   1  11 117.104 12.0933   3
   5   1  11 114.792 12.3200   1
   5   1  11 132.975 15.6717   2
   5   1  11 112.851 15.5343   4
  -6  -1 -11 2.36558 6.46193   6
  -6  -1 -11 2.30075 7.35404   6
  -6  -1 -11 1.19515 8.27533   3
  -6  -1 -11 1.17627 8.79418   2
   6   1  11 -2.9956 5.81113   1
   6   1  11 2.32194 6.21403   6
   6   1  11 5.71910 6.19806   6
   6   1  11 -2.3783 5.94486   4
   6   1  11 5.32622 7.54586   2
   6   1  11 8.14987 7.08830   3
  -7  -1 -11 18.5782 8.50059   6
  -7  -1 -11 27.0119 10.2214   3
   7   1  11 17.8142 10.9591   2
   7   1  11 24.1923 9.42417   3
   7   1  11 15.7239 8.71930   1
   7   1  11 10.3365 7.73409   6
  -8  -1 -11 136.544 14.6912   5
  -8  -1 -11 92.4168 14.6730   3
   8   1  11 103.957 13.9448   6
   8   1  11 124.223 16.4186   1
   8   1  11 89.3608 14.7456   2
   5  -2 -11 68.3989 11.7897   4
   5  -2 -11 38.8103 11.9448   5
   5  -2 -11 31.4113 9.22947   6
  -5   2  11 43.8467 8.17817   2
  -5   2  11 42.8234 9.48465   6
  -5   2  11 50.9749 11.3162   5
   4  -2 -11 664.749 27.7144   6
   4  -2 -11 705.007 31.9094   3
   4  -2 -11 729.230 28.5020   4
   4  -2 -11 759.654 29.5469   6
   4  -2 -11 701.024 30.2210   5
  -4   2  11 711.757 30.0189   5
  -4   2  11 733.351 28.4771   6
  -4   2  11 722.241 24.2848   2
  -4   2  11 699.963 33.2122   1
  -4   2  11 666.751 28.5999   4
  -4   2  11 664.597 27.8732   6
   3  -2 -11 18.6437 8.76871   5
  -3   2  11 13.9109 6.44388   4
  -3   2  11 10.8535 6.61282   6
  -3   2  11 0.07476 5.67740   6
  -3   2  11 29.5742 9.21883   5
  -3   2  11 19.4239 6.07979   2
  -3   2  11 23.9801 8.39449   1
   2  -2 -11 -2.0910 5.37678   5
   2  -2 -11 3.01046 4.47249   6
   2  -2 -11 4.30412 5.63402   4
  -2   2  11 3.42738 6.53556   6
  -2   2  11 0.61630 3.85405   4
  -2   2  11 6.26886 4.88657   6
  -2   2  11 4.02671 5.10786   2
   1  -2 -11 2197.53 52.8199   4
   1  -2 -11 2114.93 52.1195   6
  -1   2  11 2068.32 52.5766   4
  -1   2  11 2145.46 55.6568   5
  -1   2  11 2040.41 52.0902   6
  -1   2  11 2053.17 49.1673   2
  -1   2  11 2159.54 55.9245   1
   0  -2 -11 49.1662 8.27516   6
   0  -2 -11 38.3503 8.25468   6
   0  -2 -11 31.7750 7.81279   4
   0   2  11 31.7618 6.98677   4
   0   2  11 42.9579 8.20565   6
   0   2  11 46.8314 9.08377   1
   0   2  11 35.3359 7.83749   6
   0   2  11 37.2966 7.57702   2
  -1  -2 -11 2118.37 51.2933   6
  -1  -2 -11 2028.60 51.6111   4
  -1  -2 -11 2080.24 49.9675   3
  -1  -2 -11 1974.52 50.4408   2
  -1  -2 -11 2032.36 52.7255   5
  -1  -2 -11 2035.69 50.0770   6
   1   2  11 2099.46 50.7959   2
   1   2  11 2098.39 51.4661   6
   1   2  11 2173.20 54.5063   6
   1   2  11 2098.32 51.2072   4
  -2  -2 -11 3.46759 5.24580   5
  -2  -2 -11 -7.4521 4.07549   6
  -2  -2 -11 -1.0208 4.80240   3
  -2  -2 -11 -4.0733 4.32143   6
  -2  -2 -11 8.91303 5.37596   2
  -2  -2 -11 0.26642 5.36602   4
   2   2  11 3.94072 5.62312   2
   2   2  11 -2.0902 4.25583   4
   2   2  11 -1.1305 4.73808   6
  -3  -2 -11 230.900 15.5761   5
  -3  -2 -11 273.269 14.2732   3
  -3  -2 -11 249.152 16.0575   2
  -3  -2 -11 296.704 16.2343   6
  -3  -2 -11 252.908 14.8575   6
   3   2  11 260.955 16.6785   2
   3   2  11 280.271 16.5045   6
   3   2  11 251.091 15.3947   4
  -4  -2 -11 1173.64 34.5087   6
  -4  -2 -11 1180.39 32.9629   3
  -4  -2 -11 1099.78 36.6221   2
  -4  -2 -11 1095.87 34.1698   5
   4   2  11 1082.10 36.6373   6
   4   2  11 1104.10 37.6463   2
   4   2  11 1159.68 36.1214   1
  -5  -2 -11 28.5311 8.57192   2
  -5  -2 -11 30.2653 7.56968   5
  -5  -2 -11 26.3239 7.57788   3
  -5  -2 -11 44.2037 8.60088   6
  -5  -2 -11 46.4399 9.21710   6
   5   2  11 21.0867 7.06191   4
   5   2  11 37.3084 7.93817   6
   5   2  11 41.0748 8.01611   3
   5   2  11 38.9929 8.93155   1
   5   2  11 29.0433 8.69327   6
   5   2  11 37.6498 9.74920   2
  -6  -2 -11 69.1009 10.4828   6
  -6  -2 -11 73.6011 11.5519   3
  -6  -2 -11 95.6118 19.0147   6
  -6  -2 -11 90.1559 10.4070   5
  -6  -2 -11 87.8194 12.3518   2
   6   2  11 51.5964 9.17758   6
   6   2  11 83.7770 12.5071   6
   6   2  11 90.6738 14.4160   2
   6   2  11 65.5626 10.7333   4
   6   2  11 111.987 11.7605   3
   6   2  11 112.245 14.1095   1
  -7  -2 -11 161.590 15.0226   6
  -7  -2 -11 175.524 16.0302   6
  -7  -2 -11 186.300 14.9550   5
   7   2  11 194.756 15.7930   3
   7   2  11 143.599 16.7283   1
   7   2  11 142.942 16.8906   2
   7   2  11 174.519 17.1990   6
  -8  -2 -11 164.811 14.1551   5
  -8  -2 -11 163.916 18.2508   3
  -8  -2 -11 196.084 17.2815   6
   8   2  11 122.868 15.6386   6
   8   2  11 157.982 18.4904   1
   8   2  11 158.774 17.6393   3
   8   2  11 124.438 16.6194   2
   5  -3 -11 18.5806 8.97725   6
   5  -3 -11 23.0076 7.90421   4
  -5   3  11 20.2521 8.32493   5
  -5   3  11 11.7318 6.89636   6
  -5   3  11 14.4802 6.80419   2
   4  -3 -11 1500.09 46.6687   5
   4  -3 -11 1276.41 62.8369   3
   4  -3 -11 1578.88 42.8524   4
   4  -3 -11 1478.26 44.4129   6
   4  -3 -11 1452.89 43.4772   6
  -4   3  11 1515.34 50.4294   1
  -4   3  11 1283.70 43.3100   6
  -4   3  11 1556.81 46.9775   5
  -4   3  11 1605.06 41.9736   2
  -4   3  11 1464.75 43.8746   6
   3  -3 -11 10.2040 6.59036   4
   3  -3 -11 12.3339 7.62509   5
   3  -3 -11 7.69575 6.06289   6
  -3   3  11 15.9139 8.97222   1
  -3   3  11 -1.4671 5.71781   2
  -3   3  11 5.77256 6.18386   4
  -3   3  11 -4.8390 5.61569   6
  -3   3  11 3.55770 6.26320   5
  -3   3  11 4.12389 5.90655   6
   2  -3 -11 46.8320 10.4524   5
   2  -3 -11 44.7936 9.01024   4
   2  -3 -11 35.7936 7.79056   6
   2  -3 -11 53.0637 8.81006   6
  -2   3  11 39.4136 7.78729   2
  -2   3  11 61.0480 9.88744   6
  -2   3  11 50.0449 9.33430   6
  -2   3  11 60.1560 11.7718   1
  -2   3  11 38.2053 9.57329   5
  -2   3  11 49.1702 8.73680   4
   1  -3 -11 1309.28 35.9987   4
   1  -3 -11 1296.25 36.6063   6
  -1   3  11 1267.55 36.0047   4
  -1   3  11 1071.30 41.2348   1
  -1   3  11 1230.24 38.8192   5
  -1   3  11 1281.83 35.9161   2
  -1   3  11 1247.20 36.6059   6
   0  -3 -11 3.56409 5.02198   6
   0  -3 -11 -3.7548 4.01328   6
   0  -3 -11 1.94938 5.67190   4
   0   3  11 -3.0019 5.61489   2
   0   3  11 3.87391 4.30929   6
   0   3  11 3.70413 5.51826   5
   0   3  11 3.58598 4.40955   4
   0   3  11 2.20126 5.79375   1
  -1  -3 -11 113.820 12.5893   2
  -1  -3 -11 106.787 11.0299   6
  -1  -3 -11 114.300 12.8238   5
  -1  -3 -11 101.609 9.50817   3
  -1  -3 -11 99.5038 10.6543   6
  -1  -3 -11 93.9063 11.0417   4
   1   3  11 80.3586 11.1494   5
   1   3  11 81.2448 10.4506   2
   1   3  11 110.216 11.8652   6
   1   3  11 86.1924 9.67230   4
  -2  -3 -11 1209.88 35.5245   4
  -2  -3 -11 1178.17 30.4608   3
  -2  -3 -11 1124.75 35.8731   2
  -2  -3 -11 1218.69 34.0693   6
  -2  -3 -11 1192.39 33.7637   6
  -2  -3 -11 1147.15 35.6107   5
   2   3  11 1182.47 36.4825   2
   2   3  11 1168.58 33.9550   4
   2   3  11 1213.17 35.7541   6
  -3  -3 -11 298.468 16.2682   6
  -3  -3 -11 297.474 17.5679   2
  -3  -3 -11 311.094 16.2800   6
  -3  -3 -11 328.645 14.1473   3
  -3  -3 -11 361.582 18.0843   5
   3   3  11 338.817 16.8591   4
   3   3  11 290.486 15.7646   6
   3   3  11 329.293 17.9510   6
   3   3  11 339.461 19.0769   2
  -4  -3 -11 3493.07 78.2691   6
  -4  -3 -11 3694.47 77.7074   6
  -4  -3 -11 3619.69 73.7112   3
  -4  -3 -11 3599.45 83.2523   2
  -4  -3 -11 3645.60 78.8518   5
   4   3  11 3556.13 84.9706   6
   4   3  11 3622.20 77.6100   6
   4   3  11 3650.19 79.5852   4
  -5  -3 -11 2.49900 5.28584   5
  -5  -3 -11 -1.6284 5.03836   3
  -5  -3 -11 6.39542 5.99258   6
  -5  -3 -11 4.81634 7.54560   2
   5   3  11 -3.4147 5.30664   2
   5   3  11 2.11971 5.38659   4
   5   3  11 0.56068 6.08758   6
   5   3  11 2.89074 5.12664   3
   5   3  11 -2.0360 5.62180   6
  -6  -3 -11 6.95609 6.86773   3
  -6  -3 -11 -1.5616 8.19150   2
  -6  -3 -11 -2.7424 6.67496   6
  -6  -3 -11 1.19185 6.34206   6
  -6  -3 -11 1.24484 6.31966   5
   6   3  11 -1.8870 5.43600   3
   6   3  11 -2.7531 6.40563   4
   6   3  11 -2.1312 5.71870   2
   6   3  11 0.87354 6.86323   1
   6   3  11 10.4990 6.88583   6
   6   3  11 -4.2888 7.14258   6
  -7  -3 -11 633.993 25.5356   6
  -7  -3 -11 620.217 23.0664   5
  -7  -3 -11 586.701 26.2745   6
  -7  -3 -11 623.471 27.0909   3
   7   3  11 616.997 28.4137   6
   7   3  11 606.803 29.9594   1
   7   3  11 543.907 23.0480   3
   7   3  11 617.241 31.0833   2
  -8  -3 -11 48.5875 10.2547   6
  -8  -3 -11 29.7206 9.21034   5
   8   3  11 27.6413 11.9542   2
   8   3  11 35.0310 10.1528   3
   8   3  11 49.5753 12.3281   6
   8   3  11 36.7814 11.3602   1
   5  -4 -11 77.5983 12.4823   6
   5  -4 -11 76.5657 11.7286   4
  -5   4  11 74.3476 12.2387   2
  -5   4  11 75.7302 13.6405   5
  -5   4  11 68.8515 12.2732   6
   4  -4 -11 361.360 19.5569   6
   4  -4 -11 374.076 23.3275   5
   4  -4 -11 354.624 18.2422   4
   4  -4 -11 367.015 25.0965   3
  -4   4  11 329.203 19.9102   6
  -4   4  11 366.544 20.0942   2
  -4   4  11 355.498 22.0174   5
   3  -4 -11 82.0451 11.3300   6
   3  -4 -11 81.4080 10.4848   4
   3  -4 -11 69.9896 13.9890   5
  -3   4  11 77.4933 11.6439   2
  -3   4  11 72.6405 13.5484   1
  -3   4  11 59.9273 10.2569   6
  -3   4  11 63.4626 9.88483   4
  -3   4  11 62.3252 10.4358   6
  -3   4  11 65.5365 11.6884   5
   2  -4 -11 24.1932 7.57741   5
   2  -4 -11 37.4934 8.32017   3
   2  -4 -11 17.8285 6.00274   6
   2  -4 -11 21.7883 6.93611   4
   2  -4 -11 32.3192 8.03863   6
  -2   4  11 38.9445 9.00922   1
  -2   4  11 17.4823 6.19071   4
  -2   4  11 24.4486 7.97525   6
  -2   4  11 35.7911 8.46116   2
  -2   4  11 17.7444 8.17971   5
   1  -4 -11 1238.55 35.3419   6
   1  -4 -11 1116.65 32.9941   3
   1  -4 -11 1177.34 33.4333   4
  -1   4  11 1145.12 35.7923   2
  -1   4  11 1227.26 37.8793   6
  -1   4  11 1220.12 43.4808   5
  -1   4  11 1182.20 33.9710   4
   0  -4 -11 717.518 24.3790   6
   0  -4 -11 705.606 24.4555   4
   0  -4 -11 690.422 24.5492   6
   0   4  11 759.438 24.8976   4
   0   4  11 724.367 27.7843   5
   0   4  11 653.157 29.8202   1
   0   4  11 738.617 26.0267   6
   0   4  11 702.814 26.7238   2
   0   4  11 736.697 25.8901   6
  -1  -4 -11 463.048 19.0329   6
  -1  -4 -11 444.566 16.0172   3
  -1  -4 -11 480.175 21.4949   5
  -1  -4 -11 465.440 19.2983   6
  -1  -4 -11 453.166 21.6970   2
  -1  -4 -11 500.015 20.4069   4
   1   4  11 467.931 19.3496   4
   1   4  11 469.075 21.6807   2
   1   4  11 482.256 20.9338   6
   1   4  11 459.188 19.8721   6
   1   4  11 465.226 21.8846   5
  -2  -4 -11 188.940 14.6360   2
  -2  -4 -11 203.605 14.7131   5
  -2  -4 -11 184.494 12.4722   6
  -2  -4 -11 197.506 12.8408   6
   2   4  11 204.968 14.2335   6
   2   4  11 191.736 12.8371   6
   2   4  11 178.255 14.5423   5
   2   4  11 193.193 12.7571   4
   2   4  11 192.729 15.2195   2
  -3  -4 -11 162.828 13.0514   5
  -3  -4 -11 154.703 14.3345   2
  -3  -4 -11 147.909 11.6123   6
  -3  -4 -11 151.155 11.8825   6
   3   4  11 166.578 15.2540   2
   3   4  11 162.748 13.7349   6
   3   4  11 135.622 11.8277   4
   3   4  11 157.912 12.0688   6
  -4  -4 -11 814.909 26.8123   6
  -4  -4 -11 811.374 26.0293   6
  -4  -4 -11 857.691 27.7295   5
  -4  -4 -11 791.360 31.4369   2
   4   4  11 794.776 27.1333   6
   4   4  11 843.238 28.8441   4
   4   4  11 851.958 32.6301   2
   4   4  11 812.361 32.4401   6
  -5  -4 -11 82.0256 13.2697   2
  -5  -4 -11 69.4265 9.43874   6
  -5  -4 -11 74.6295 9.68124   6
  -5  -4 -11 76.4013 9.87070   5
   5   4  11 93.2844 11.6778   6
   5   4  11 84.6575 12.7958   1
   5   4  11 69.8282 12.2708   2
   5   4  11 53.2678 16.5107   4
   5   4  11 79.4196 11.9649   6
  -6  -4 -11 120.609 12.3534   6
  -6  -4 -11 118.093 11.3984   5
  -6  -4 -11 145.944 12.5129   3
  -6  -4 -11 152.341 16.4179   2
  -6  -4 -11 138.934 17.3952   6
   6   4  11 152.829 16.3898   6
   6   4  11 116.218 14.8798   2
   6   4  11 124.302 16.3849   1
   6   4  11 108.975 12.3988   4
   6   4  11 137.443 11.0558   3
   6   4  11 155.810 13.7473   6
  -7  -4 -11 1793.78 45.7836   6
  -7  -4 -11 1704.21 42.1434   5
  -7  -4 -11 1824.94 47.7422   6
   7   4  11 1695.72 55.6411   2
   7   4  11 1720.65 55.4782   1
   7   4  11 1763.88 52.2430   6
   7   4  11 1749.37 43.9998   3
   5  -5 -11 102.833 11.5113   4
  -5   5  11 85.7963 13.0729   5
  -5   5  11 102.676 14.8267   2
  -5   5  11 113.493 20.2266   6
   4  -5 -11 267.287 18.1069   6
   4  -5 -11 258.461 17.1075   6
   4  -5 -11 252.349 15.4969   4
   4  -5 -11 230.345 19.4051   3
  -4   5  11 278.507 19.3159   2
  -4   5  11 267.546 19.8013   5
  -4   5  11 272.948 18.3229   6
   3  -5 -11 29.8054 7.03942   4
   3  -5 -11 37.0825 8.69918   5
   3  -5 -11 20.6514 7.63529   6
   3  -5 -11 11.4025 7.88793   3
   3  -5 -11 20.1123 10.3624   6
  -3   5  11 39.5809 8.32703   6
  -3   5  11 20.3875 7.56175   6
  -3   5  11 13.4721 7.87869   2
  -3   5  11 20.9830 8.24233   5
  -3   5  11 20.7555 5.53892   4
  -3   5  11 17.8911 7.48746   1
   2  -5 -11 79.2533 9.44553   4
   2  -5 -11 79.9976 10.2184   3
   2  -5 -11 77.2697 12.5848   5
   2  -5 -11 76.5186 10.4166   6
  -2   5  11 65.9475 10.9975   2
  -2   5  11 58.7567 9.74571   6
  -2   5  11 78.0941 13.9222   1
  -2   5  11 114.353 14.8975   5
  -2   5  11 62.7789 8.51890   4
  -2   5  11 92.3874 11.7121   6
   1  -5 -11 1315.60 45.6290   5
   1  -5 -11 1300.02 34.5294   4
   1  -5 -11 1327.52 36.7387   6
   1  -5 -11 1279.23 35.2991   6
   1  -5 -11 1255.25 34.1335   3
  -1   5  11 1276.38 40.5075   5
  -1   5  11 1249.62 37.6403   6
  -1   5  11 1321.52 35.1852   4
  -1   5  11 1178.25 37.1303   6
  -1   5  11 1340.97 40.3509   2
   0  -5 -11 374.253 16.6801   6
   0  -5 -11 406.776 17.4539   4
   0  -5 -11 393.968 17.8569   6
   0  -5 -11 376.033 14.2391   3
   0   5  11 397.323 19.2767   6
   0   5  11 403.651 20.7586   2
   0   5  11 380.799 18.6803   6
   0   5  11 392.232 20.9236   5
   0   5  11 378.511 16.9816   4
  -1  -5 -11 307.550 14.9326   6
  -1  -5 -11 290.531 14.8946   6
  -1  -5 -11 306.879 17.0495   5
   1   5  11 286.936 14.9692   4
   1   5  11 307.867 16.0556   6
   1   5  11 307.569 16.8077   6
   1   5  11 313.102 19.1813   2
   1   5  11 306.805 18.0224   5
  -2  -5 -11 1384.57 35.6978   6
  -2  -5 -11 1410.61 39.7701   5
  -2  -5 -11 1348.33 42.6084   2
  -2  -5 -11 1348.55 35.3810   6
   2   5  11 1415.14 42.7463   2
   2   5  11 1389.57 39.6130   6
   2   5  11 1400.38 40.4747   5
   2   5  11 1374.21 37.0063   4
   2   5  11 1355.33 37.6403   6
  -3  -5 -11 230.589 14.6485   5
  -3  -5 -11 248.529 13.4274   6
  -3  -5 -11 239.419 13.0700   6
  -3  -5 -11 267.820 17.7627   2
   3   5  11 268.034 16.7568   6
   3   5  11 220.650 13.7937   4
   3   5  11 213.196 13.7572   6
   3   5  11 232.070 18.0088   2
  -4  -5 -11 1004.93 29.2311   6
  -4  -5 -11 1017.85 36.7792   2
  -4  -5 -11 975.448 30.6229   5
  -4  -5 -11 1044.21 28.7192   6
   4   5  11 993.112 32.2111   4
   4   5  11 935.988 30.2863   6
   4   5  11 1031.10 34.7207   6
   4   5  11 1055.78 37.6920   2
  -5  -5 -11 127.777 16.0861   2
  -5  -5 -11 88.4434 9.76917   6
  -5  -5 -11 95.2651 10.0269   6
  -5  -5 -11 74.6868 9.15954   5
   5   5  11 101.572 11.5300   6
   5   5  11 92.6180 13.3074   2
   5   5  11 86.6551 12.6416   6
   5   5  11 79.1191 11.1277   4
   5   5  11 93.8699 14.1100   1
  -6  -5 -11 -3.3911 5.59811   6
  -6  -5 -11 0.64614 5.91562   5
  -6  -5 -11 6.09998 6.07074   6
   6   5  11 -3.3951 7.35758   2
   6   5  11 0.98696 6.90637   1
   6   5  11 6.52392 6.96871   6
   6   5  11 15.2785 7.55283   6
  -7  -5 -11 627.947 23.0548   6
  -7  -5 -11 619.512 19.6410   5
   7   5  11 572.687 31.8219   2
   7   5  11 584.734 31.8175   1
   7   5  11 679.240 29.4129   6
   5  -6 -11 222.707 14.1921   4
  -5   6  11 213.252 17.8773   6
  -5   6  11 158.234 18.3157   2
  -5   6  11 222.330 20.0450   5
   4  -6 -11 72.8280 8.50811   4
   4  -6 -11 91.9877 14.5178   3
   4  -6 -11 84.7633 11.4017   6
   4  -6 -11 92.8140 12.3918   6
  -4   6  11 80.0022 12.0648   6
  -4   6  11 84.7535 13.8727   5
  -4   6  11 61.3745 11.6286   2
   3  -6 -11 8.72859 7.77248   5
   3  -6 -11 17.7250 6.97273   6
   3  -6 -11 12.0764 5.67967   4
   3  -6 -11 9.82581 6.79171   6
   3  -6 -11 3.27754 6.43695   3
  -3   6  11 18.3364 7.90794   6
  -3   6  11 24.6162 9.87846   1
  -3   6  11 15.5736 8.35749   2
  -3   6  11 12.4215 7.11687   6
  -3   6  11 11.0774 7.42157   5
   2  -6 -11 22.2517 6.90473   3
   2  -6 -11 32.6883 9.37653   5
   2  -6 -11 21.2601 5.41946   4
   2  -6 -11 22.6902 7.17448   6
   2  -6 -11 37.9876 8.24251   6
  -2   6  11 20.5092 7.18160   5
  -2   6  11 24.3141 8.21386   6
  -2   6  11 28.7046 7.62981   6
  -2   6  11 14.3859 9.07708   1
  -2   6  11 27.1459 6.28235   4
  -2   6  11 24.5957 7.88558   2
   1  -6 -11 169.747 11.6589   4
   1  -6 -11 181.636 11.4757   6
   1  -6 -11 178.641 12.7137   6
   1  -6 -11 156.517 15.3224   5
   1  -6 -11 171.199 11.1089   3
  -1   6  11 175.960 16.0939   2
  -1   6  11 183.398 15.4428   5
  -1   6  11 195.624 14.3652   6
  -1   6  11 185.025 13.7357   6
  -1   6  11 155.165 15.2064   1
  -1   6  11 167.708 11.1413   4
   0  -6 -11 197.428 11.8841   6
   0  -6 -11 238.213 16.6293   5
   0  -6 -11 219.380 13.0543   6
   0   6  11 197.884 14.4479   6
   0   6  11 192.733 18.8596   2
   0   6  11 216.833 16.8423   5
  -1  -6 -11 79.2871 8.83416   6
  -1  -6 -11 70.9293 8.77817   6
   1   6  11 91.2360 13.4152   2
   1   6  11 71.6463 9.67127   6
   1   6  11 78.7392 9.28955   4
   1   6  11 76.5957 11.2830   5
   1   6  11 79.7654 10.2474   6
  -2  -6 -11 528.494 22.1427   5
  -2  -6 -11 513.349 18.1280   6
  -2  -6 -11 501.863 17.8142   6
  -2  -6 -11 477.940 24.3006   2
   2   6  11 475.905 20.8192   6
   2   6  11 500.472 25.2770   2
   2   6  11 499.872 21.8781   6
   2   6  11 487.472 22.2748   5
   2   6  11 498.332 19.6046   4
  -3  -6 -11 203.077 16.7697   2
  -3  -6 -11 213.949 11.5756   6
  -3  -6 -11 205.236 14.5298   5
  -3  -6 -11 219.648 11.8386   6
   3   6  11 242.242 18.0253   2
   3   6  11 216.410 15.3703   6
   3   6  11 186.188 14.9576   5
   3   6  11 188.319 13.0915   6
   3   6  11 186.082 13.4983   4
  -4  -6 -11 8.75274 6.01570   5
  -4  -6 -11 6.47645 4.72261   6
  -4  -6 -11 -0.2001 7.27667   2
  -4  -6 -11 3.27048 4.71882   6
   4   6  11 4.41446 6.31180   6
   4   6  11 10.5164 7.56081   2
   4   6  11 11.2561 7.00589   6
   4   6  11 9.89493 6.72977   4
  -5  -6 -11 0.98126 4.93595   6
  -5  -6 -11 3.96227 5.32465   6
  -5  -6 -11 12.3028 6.63528   5
  -5  -6 -11 24.8302 9.79626   2
   5   6  11 0.63662 6.60982   6
   5   6  11 28.6993 10.0517   2
   5   6  11 7.83388 8.12861   6
   5   6  11 15.2017 8.83330   1
   5   6  11 3.78716 6.92198   4
  -6  -6 -11 -9.3216 4.78619   6
  -6  -6 -11 -9.9692 7.01123   6
  -6  -6 -11 1.13099 5.57623   5
   6   6  11 -13.712 7.66530   2
   6   6  11 -1.5614 7.32564   6
   6   6  11 -0.4133 7.93881   1
   6   6  11 -4.3332 6.50127   6
  -7  -6 -11 164.900 11.6023   6
   7   6  11 127.479 17.8283   1
   7   6  11 131.065 20.5410   2
   7   6  11 138.356 15.8658   6
   4  -7 -11 89.3593 11.7639   6
   4  -7 -11 142.715 29.0936   3
   4  -7 -11 82.4632 12.0282   6
  -4   7  11 89.8049 13.8734   2
   3  -7 -11 23.0087 7.11490   6
   3  -7 -11 22.6498 7.62586   6
   3  -7 -11 33.3015 8.38778   3
  -3   7  11 12.9871 7.99721   2
  -3   7  11 31.1280 9.83419   5
  -3   7  11 29.8965 7.90252   6
   2  -7 -11 34.1269 12.7878   3
   2  -7 -11 20.0382 9.14106   5
   2  -7 -11 16.2895 6.50857   6
  -2   7  11 24.7250 10.0980   1
  -2   7  11 13.9559 8.87110   5
  -2   7  11 20.0095 5.17432   4
  -2   7  11 30.1862 9.20891   6
  -2   7  11 28.0232 8.33146   6
  -2   7  11 23.1164 9.20159   2
   1  -7 -11 119.157 11.0494   6
   1  -7 -11 123.265 9.94987   3
   1  -7 -11 123.697 15.4012   5
   1  -7 -11 113.696 9.97796   6
  -1   7  11 110.633 12.7532   6
  -1   7  11 127.564 15.8430   2
  -1   7  11 115.379 9.37387   4
  -1   7  11 112.741 13.2811   5
  -1   7  11 132.679 12.9404   6
   0  -7 -11 260.950 13.2849   6
   0  -7 -11 258.706 17.7513   5
   0  -7 -11 265.569 12.8724   6
   0   7  11 272.875 18.4116   5
   0   7  11 253.897 15.8583   6
   0   7  11 278.407 13.5284   4
   0   7  11 274.786 19.6744   2
   0   7  11 258.097 15.9801   6
  -1  -7 -11 560.419 18.2485   6
  -1  -7 -11 526.065 23.8511   5
  -1  -7 -11 554.816 17.5897   6
   1   7  11 531.552 25.0372   5
   1   7  11 528.993 19.7130   4
   1   7  11 538.723 28.7722   6
   1   7  11 559.906 22.6774   6
   1   7  11 532.616 26.5441   2
  -2  -7 -11 75.2649 7.42135   6
  -2  -7 -11 78.9294 7.42286   6
   2   7  11 84.9352 11.1676   6
   2   7  11 63.9366 11.8217   2
   2   7  11 79.3808 10.7847   6
   2   7  11 86.1844 9.62981   4
   2   7  11 69.5342 11.1695   5
  -3  -7 -11 156.948 17.5619   2
  -3  -7 -11 189.965 13.7193   5
  -3  -7 -11 190.415 10.8036   6
  -3  -7 -11 170.419 9.06139   6
   3   7  11 184.426 13.3153   4
   3   7  11 201.521 18.2026   2
   3   7  11 165.292 14.5907   5
   3   7  11 160.405 13.4186   6
  -4  -7 -11 157.407 12.9226   5
  -4  -7 -11 199.271 18.8130   2
   4   7  11 158.223 14.2836   4
   4   7  11 168.799 13.4758   6
   4   7  11 152.540 14.1061   6
   4   7  11 142.870 17.5252   2
  -5  -7 -11 11.1221 5.51874   5
   5   7  11 1.28597 6.52311   6
   5   7  11 21.1788 10.2882   6
   5   7  11 6.87712 8.75070   2
   5   7  11 4.21572 7.73332   4
   5   7  11 17.6236 8.57113   1
  -6  -7 -11 29.0141 6.13076   5
   6   7  11 32.9494 9.27617   6
   6   7  11 28.0973 11.3988   2
   6   7  11 39.8065 14.2683   1
   6   7  11 53.2141 9.92125   6
   3  -8 -11 16.2606 6.98347   6
   3  -8 -11 20.7851 7.15870   6
   3  -8 -11 20.7408 13.1737   3
  -3   8  11 17.2701 7.95955   6
  -3   8  11 18.7994 10.1681   5
  -3   8  11 13.3013 10.0870   2
   2  -8 -11 70.7094 9.15875   6
   2  -8 -11 73.4050 8.75318   6
   2  -8 -11 60.6986 16.9780   3
  -2   8  11 56.2825 10.9276   5
  -2   8  11 71.9279 14.2418   6
  -2   8  11 73.1568 11.3338   6
  -2   8  11 88.4652 13.4415   2
   1  -8 -11 464.745 25.0711   5
   1  -8 -11 495.616 18.3844   6
   1  -8 -11 482.693 17.7224   6
  -1   8  11 471.577 26.7704   2
  -1   8  11 538.134 23.4651   6
  -1   8  11 474.251 22.7208   6
  -1   8  11 511.800 28.6621   1
  -1   8  11 508.324 26.0982   5
   0  -8 -11 14.6330 5.02522   6
   0  -8 -11 35.5958 9.02683   5
   0  -8 -11 22.5961 4.91463   6
   0   8  11 12.4594 6.42174   6
   0   8  11 12.4261 4.79461   4
   0   8  11 15.2286 8.59947   5
   0   8  11 21.0480 7.80838   6
   0   8  11 11.3391 8.32552   2
  -1  -8 -11 221.214 16.6674   5
   1   8  11 201.197 18.0478   2
   1   8  11 227.069 14.8850   4
   1   8  11 205.122 16.0959   5
   1   8  11 224.052 15.2800   6
   1   8  11 232.896 15.7405   6
  -2  -8 -11 93.9047 12.5147   5
   2   8  11 94.9308 15.1125   2
   2   8  11 94.0876 12.2775   5
   2   8  11 93.3263 11.8805   6
   2   8  11 105.290 10.4546   4
   3   8  11 339.955 19.2738   5
   3   8  11 320.400 16.9104   4
   3   8  11 350.851 19.2462   6
   3   8  11 312.683 17.5312   6
   3   8  11 344.910 23.1999   2
  -4  -8 -11 1086.41 33.4718   5
   4   8  11 1063.06 35.7664   6
   4   8  11 1184.51 43.9999   2
   4   8  11 1092.12 33.1351   6
   4   8  11 1109.83 41.8759   1
   4   8  11 1071.22 35.2490   4
   4   8  11 1130.32 34.8530   5
  -5  -8 -11 17.6450 6.34715   5
   5   8  11 10.3393 8.85857   2
   5   8  11 9.69288 8.96088   4
   5   8  11 -8.8709 7.09204   6
   5   8  11 -1.6653 8.26316   1
   5   8  11 5.65061 7.43150   6
   6   8  11 22.1936 10.1862   2
   6   8  11 26.4197 8.92101   6
   6   8  11 -1.3001 9.20387   1
   2  -9 -11 62.4796 7.80233   6
   2  -9 -11 62.9235 7.57034   6
   2  -9 -11 59.9365 14.6525   3
  -2   9  11 60.1804 14.1146   2
  -2   9  11 57.8336 10.9264   6
  -2   9  11 66.9528 19.5371   5
  -1   9  11 799.966 30.2167   6
  -1   9  11 849.857 31.0756   6
  -1   9  11 843.328 36.9625   2
  -1   9  11 770.582 33.8419   5
   0  -9 -11 23.4911 8.63763   5
   0   9  11 23.6435 9.48925   2
   0   9  11 19.9025 7.89465   6
   0   9  11 14.1467 8.62400   5
   0   9  11 13.0248 7.38318   6
  -1  -9 -11 324.311 19.9245   5
   1   9  11 321.058 17.8479   6
   1   9  11 291.146 14.4810   4
   1   9  11 312.942 21.0722   5
   1   9  11 323.970 18.4322   6
   1   9  11 350.262 23.1707   2
  -2  -9 -11 210.788 17.1843   5
   2   9  11 216.920 15.1704   6
   2   9  11 229.641 16.5247   6
   2   9  11 232.374 17.5857   5
   2   9  11 215.452 13.4467   4
   2   9  11 218.672 19.7495   2
  -3  -9 -11 22.8137 7.83111   5
   3   9  11 9.90561 6.26101   6
   3   9  11 9.34216 8.90426   2
   3   9  11 11.2164 7.29247   5
   3   9  11 6.35060 6.85843   6
   3   9  11 8.06402 6.79958   4
   4   9  11 813.464 29.8114   4
   4   9  11 870.476 39.2305   1
   4   9  11 823.948 37.4513   2
   4   9  11 857.028 31.4030   6
   4   9  11 850.600 30.1616   5
  -5  -9 -11 -0.5913 6.86370   5
   5   9  11 4.35683 8.53253   1
   5   9  11 2.06084 8.28149   6
   5   9  11 -9.0799 7.08851   6
   5   9  11 15.6744 9.76525   2
  -1  10  11 914.829 38.8114   5
  -1  10  11 886.007 40.0895   2
  -1  10  11 917.000 33.3457   6
   0  10  11 51.0817 13.3156   2
   0  10  11 77.3506 10.8207   6
   0  10  11 75.7579 11.6404   6
   0  10  11 45.6146 10.8372   5
   1  10  11 220.415 16.4162   6
   1  10  11 198.678 29.1292   2
   1  10  11 213.911 16.2491   6
   1  10  11 206.443 18.7009   5
  -2 -10 -11 240.121 19.7266   5
   2  10  11 256.701 17.8276   6
   2  10  11 264.087 13.7572   4
   2  10  11 238.838 18.7108   5
   2  10  11 292.982 32.0100   2
   3  10  11 -1.0458 6.70834   4
   3  10  11 11.7059 9.76869   2
   3  10  11 25.8317 8.98637   6
   3  10  11 16.3044 9.51027   5
   0   5 -12 288.787 17.7111   6
   0   5 -12 285.548 23.3023   3
   0   5 -12 312.744 34.5545   4
  -1   5 -12 302.778 18.3479   6
  -1   5 -12 335.211 22.1263   4
  -1   5 -12 293.569 24.1834   3
  -2   5 -12 185.751 15.4407   6
  -2   5 -12 182.470 20.1546   4
  -2   5 -12 178.308 23.0986   3
  -2   5 -12 172.774 14.0799   2
  -3   5 -12 -0.0083 10.0441   3
  -3   5 -12 10.5847 8.24901   2
  -3   5 -12 -1.2965 8.20967   4
  -3   5 -12 4.58046 7.18707   6
   3  -5  12 -2.8001 5.83539   6
   3  -5  12 -0.5479 5.88932   6
   2   4 -12 199.841 18.5573   4
   2   4 -12 222.927 20.3576   3
   2   4 -12 249.303 16.4499   6
  -2  -4  12 213.672 14.5828   1
   1   4 -12 77.5898 11.3637   6
   1   4 -12 67.3521 11.1527   4
   1   4 -12 85.1013 14.0437   6
   1   4 -12 84.7529 16.7763   3
  -1  -4  12 64.3627 8.59465   1
   0   4 -12 328.592 23.5816   3
   0   4 -12 285.419 19.5176   4
   0   4 -12 305.844 17.8498   6
   0   4 -12 297.695 19.3087   6
   0  -4  12 287.192 12.1847   1
   0  -4  12 299.711 12.1431   6
   0  -4  12 280.772 12.8495   6
  -1   4 -12 649.632 26.9099   6
  -1   4 -12 692.757 30.2478   4
  -1   4 -12 644.706 27.2463   6
  -1   4 -12 648.067 32.7310   3
   1  -4  12 639.590 21.0797   6
   1  -4  12 643.668 22.7372   6
  -2   4 -12 142.799 16.9515   4
  -2   4 -12 147.295 13.9870   6
  -2   4 -12 157.005 23.8616   6
  -2   4 -12 155.089 13.1179   2
  -2   4 -12 126.800 17.1975   3
   2  -4  12 167.706 11.9751   6
   2  -4  12 161.190 12.3600   6
  -3   4 -12 110.515 14.1837   6
  -3   4 -12 69.2737 14.0733   3
  -3   4 -12 97.9447 14.1976   4
  -3   4 -12 77.1901 11.8632   2
   3  -4  12 88.4415 11.1892   6
   3  -4  12 63.7975 10.4154   6
  -4   4 -12 241.354 20.7165   4
  -4   4 -12 286.697 20.4830   6
  -4   4 -12 352.710 26.4554   3
  -4   4 -12 293.298 20.5525   2
   4  -4  12 296.821 17.7011   6
   4  -4  12 273.867 16.7979   6
  -5   4 -12 492.918 31.5528   3
   5  -4  12 478.273 23.5036   6
   3   3 -12 11.9539 7.25572   6
   3   3 -12 -0.0371 8.53128   4
  -3  -3  12 -4.6766 4.68628   6
  -3  -3  12 3.39832 4.24079   6
  -3  -3  12 4.06492 8.12121   1
   2   3 -12 215.411 21.0726   6
   2   3 -12 259.710 18.9363   4
   2   3 -12 261.510 20.6115   3
   2   3 -12 237.429 16.2530   6
  -2  -3  12 248.259 12.9068   6
  -2  -3  12 250.108 16.6015   1
  -2  -3  12 220.791 15.3514   6
   1   3 -12 50.9015 9.86798   6
   1   3 -12 33.2417 10.5288   5
   1   3 -12 74.1286 11.5398   6
   1   3 -12 61.4706 13.5254   3
   1   3 -12 49.8477 10.7210   4
  -1  -3  12 64.1332 8.95801   6
  -1  -3  12 57.0361 8.71304   1
  -1  -3  12 66.8988 9.01535   6
   0   3 -12 300.233 19.6682   4
   0   3 -12 305.472 18.9404   6
   0   3 -12 300.717 21.6523   3
   0   3 -12 338.898 18.3536   6
   0   3 -12 308.856 20.9242   5
   0  -3  12 319.649 14.7833   6
   0  -3  12 312.576 20.2702   4
   0  -3  12 314.365 14.3096   1
   0  -3  12 317.429 15.6931   6
  -1   3 -12 797.128 33.3645   5
  -1   3 -12 937.902 31.7757   6
  -1   3 -12 908.774 37.3818   3
  -1   3 -12 914.180 34.3405   4
  -1   3 -12 896.627 31.7929   6
  -1   3 -12 866.584 26.0265   2
   1  -3  12 924.250 27.1591   6
   1  -3  12 926.666 27.8276   6
   1  -3  12 866.959 23.2987   1
   1  -3  12 858.593 33.0064   4
  -2   3 -12 58.0576 10.4972   6
  -2   3 -12 66.4433 13.9988   3
  -2   3 -12 49.5450 11.6921   4
  -2   3 -12 51.8168 10.7519   6
  -2   3 -12 60.9729 9.15636   2
  -2   3 -12 71.0178 14.0564   5
   2  -3  12 78.0306 10.3049   6
   2  -3  12 64.6240 9.50564   6
   2  -3  12 46.6445 10.2881   4
  -3   3 -12 121.397 17.7017   3
  -3   3 -12 141.281 15.2108   6
  -3   3 -12 106.067 13.6066   6
  -3   3 -12 113.071 15.2768   4
  -3   3 -12 118.631 13.2718   2
   3  -3  12 111.050 12.6404   6
   3  -3  12 103.279 13.0629   4
   3  -3  12 112.994 14.1687   6
  -4   3 -12 342.029 24.9992   3
  -4   3 -12 338.828 21.3412   6
  -4   3 -12 306.780 21.7743   4
   4  -3  12 338.522 18.9680   6
   4  -3  12 353.068 19.6195   6
  -5   3 -12 108.068 16.8885   3
  -5   3 -12 130.311 15.9287   6
   5  -3  12 162.060 15.7472   6
   5  -3  12 186.889 16.9922   6
   4   2 -12 284.029 21.0748   4
   4   2 -12 359.043 30.5472   6
  -4  -2  12 327.712 16.6402   6
  -4  -2  12 292.014 18.5216   6
   3   2 -12 84.8453 12.3363   4
   3   2 -12 99.1588 14.8038   5
   3   2 -12 79.0071 11.7241   6
  -3  -2  12 93.6952 10.4470   6
  -3  -2  12 121.066 15.8700   1
  -3  -2  12 96.5413 10.8180   6
   2   2 -12 15.2696 7.22361   3
   2   2 -12 21.4850 8.29866   5
   2   2 -12 2.46712 6.61387   6
   2   2 -12 6.39873 6.13865   6
   2   2 -12 4.53209 6.87065   4
  -2  -2  12 7.47201 5.43778   6
  -2  -2  12 0.39423 4.64308   6
   1   2 -12 77.3566 11.2802   5
   1   2 -12 89.0446 12.3561   6
   1   2 -12 73.3188 11.8727   4
   1   2 -12 79.5727 11.2024   6
   1   2 -12 77.9824 13.8884   3
  -1  -2  12 82.4078 10.8314   1
  -1  -2  12 70.7556 9.68160   6
  -1  -2  12 81.2743 12.0513   4
  -1  -2  12 85.8452 9.60874   6
   0   2 -12 205.566 17.3504   5
   0   2 -12 261.446 19.4605   3
   0   2 -12 212.909 16.1983   4
   0   2 -12 217.490 15.4695   6
   0  -2  12 199.544 13.7385   6
   0  -2  12 243.120 13.8547   6
   0  -2  12 208.307 13.1633   1
   0  -2  12 212.885 16.1002   4
  -1   2 -12 468.903 25.2056   3
  -1   2 -12 475.713 22.0575   6
  -1   2 -12 452.681 23.8114   4
  -1   2 -12 460.739 18.1273   2
  -1   2 -12 458.152 26.2526   6
  -1   2 -12 426.344 23.0657   5
   1  -2  12 447.005 17.3921   1
   1  -2  12 490.392 19.4699   6
   1  -2  12 452.084 19.6191   6
   1  -2  12 464.362 22.7345   4
  -2   2 -12 12.2818 8.27798   3
  -2   2 -12 13.6636 7.48901   6
  -2   2 -12 17.5458 7.58883   4
  -2   2 -12 3.52513 7.33162   5
  -2   2 -12 1.37927 7.16902   6
  -2   2 -12 4.32364 5.33586   2
   2  -2  12 -2.8636 5.15905   6
   2  -2  12 7.81327 4.14333   1
   2  -2  12 -3.8298 5.59607   4
   2  -2  12 1.94495 6.36564   2
  -3   2 -12 238.003 17.3427   6
  -3   2 -12 226.193 17.1424   6
  -3   2 -12 224.686 19.0116   3
  -3   2 -12 214.390 18.4090   4
  -3   2 -12 233.857 16.3340   2
  -3   2 -12 238.866 17.9095   5
   3  -2  12 206.422 11.8305   1
   3  -2  12 240.404 11.5180   1
   3  -2  12 229.340 17.0507   4
   3  -2  12 219.386 15.8329   2
   3  -2  12 211.791 15.7495   6
  -4   2 -12 545.823 28.5663   3
  -4   2 -12 482.686 23.7571   2
  -4   2 -12 496.565 25.0645   6
  -4   2 -12 497.150 24.6929   6
  -4   2 -12 457.432 25.7312   4
   4  -2  12 481.169 24.4282   4
   4  -2  12 466.031 22.2567   6
   4  -2  12 468.512 22.9182   6
   4  -2  12 506.879 17.1470   1
   4  -2  12 476.286 16.8078   1
  -5   2 -12 0.57306 8.56993   3
  -5   2 -12 12.6669 9.67934   2
  -5   2 -12 9.99177 8.48803   6
   5  -2  12 18.7149 5.82683   1
   5  -2  12 30.3215 9.30559   6
   5  -2  12 14.1212 8.08106   6
   5  -2  12 20.6046 9.07837   3
  -6   2 -12 20.4640 11.1515   3
  -6   2 -12 23.3306 10.0339   6
   6  -2  12 39.8703 9.73292   6
   6  -2  12 29.0003 7.20170   1
   4   1 -12 93.8294 13.9285   4
   4   1 -12 150.766 23.6792   5
  -4  -1  12 105.524 12.2908   6
  -4  -1  12 139.244 12.5620   6
   3   1 -12 79.2906 12.1328   6
   3   1 -12 89.9689 13.6725   4
   3   1 -12 89.5371 13.1821   5
  -3  -1  12 107.869 15.6103   1
  -3  -1  12 111.192 12.2385   6
  -3  -1  12 115.184 17.9012   6
   2   1 -12 16.9606 7.50095   4
   2   1 -12 29.4852 7.70292   6
   2   1 -12 34.5014 9.03393   6
   2   1 -12 26.3501 7.68200   5
  -2  -1  12 27.9766 7.55309   6
  -2  -1  12 13.5238 6.04903   4
   1   1 -12 157.600 13.5264   6
   1   1 -12 163.069 15.4661   3
   1   1 -12 148.770 13.8980   4
  -1  -1  12 154.698 15.2073   6
  -1  -1  12 159.766 13.0577   1
  -1  -1  12 142.884 12.2435   6
  -1  -1  12 159.497 17.3812   4
   0   1 -12 36.4390 7.76543   4
   0   1 -12 33.8138 8.24913   6
   0   1 -12 44.6914 7.00971   2
   0   1 -12 34.2455 8.86786   3
   0   1 -12 37.8656 8.98977   5
   0   1 -12 36.3587 8.33427   6
   0  -1  12 41.1016 7.92526   6
   0  -1  12 42.6353 8.34154   1
   0  -1  12 40.6177 9.35115   4
   0  -1  12 36.6641 6.44637   2
   0  -1  12 50.4085 8.45897   6
  -1   1 -12 54.1881 10.6704   4
  -1   1 -12 78.6837 11.2956   6
  -1   1 -12 73.9220 11.0473   5
  -1   1 -12 77.7214 9.35416   2
  -1   1 -12 65.4642 10.0990   6
   1  -1  12 65.1178 8.57559   1
   1  -1  12 69.2039 9.89966   6
   1  -1  12 55.4510 8.31410   2
   1  -1  12 73.0515 11.7401   4
  -2   1 -12 210.664 15.6966   6
  -2   1 -12 219.285 15.8345   6
  -2   1 -12 207.001 16.2212   5
  -2   1 -12 205.805 14.0878   2
  -2   1 -12 183.744 15.9792   4
   2  -1  12 220.916 15.2028   6
   2  -1  12 201.924 12.0672   1
   2  -1  12 205.817 15.5464   4
   2  -1  12 173.527 13.5399   2
  -3   1 -12 200.982 15.7547   2
  -3   1 -12 229.180 19.9179   5
  -3   1 -12 235.296 19.3868   3
  -3   1 -12 234.309 16.8748   6
  -3   1 -12 197.987 17.6571   4
  -3   1 -12 278.019 29.7796   6
   3  -1  12 243.510 15.1745   6
   3  -1  12 221.017 13.1340   1
   3  -1  12 220.910 16.0319   2
   3  -1  12 209.253 15.7018   6
  -4   1 -12 328.467 21.7579   3
  -4   1 -12 322.728 19.0753   6
  -4   1 -12 289.845 18.2927   2
  -4   1 -12 302.059 19.2051   6
  -4   1 -12 300.070 20.8040   4
  -4   1 -12 281.803 19.8112   5
   4  -1  12 299.999 15.1538   1
   4  -1  12 319.970 18.5407   6
   4  -1  12 277.268 18.4901   4
   4  -1  12 277.523 18.2115   6
   4  -1  12 314.872 19.3548   2
  -5   1 -12 71.7454 12.2909   5
  -5   1 -12 49.6126 10.2916   2
  -5   1 -12 90.5536 15.4375   3
  -5   1 -12 77.4460 11.8108   6
   5  -1  12 79.1864 12.7004   6
   5  -1  12 92.0022 12.4678   4
   5  -1  12 61.4181 11.1654   3
   5  -1  12 89.1692 10.5731   1
   5  -1  12 93.6519 12.1328   6
   5  -1  12 59.7799 11.4354   2
  -6   1 -12 31.9988 9.16028   6
  -6   1 -12 33.7927 10.8165   5
  -6   1 -12 24.5597 10.5722   3
   6  -1  12 27.2638 10.5337   3
   6  -1  12 21.6909 9.16569   6
   6  -1  12 23.3058 9.42344   2
   6  -1  12 29.9027 8.41706   1
  -7   1 -12 26.9244 13.4803   3
  -7   1 -12 49.0904 11.8279   6
   7  -1  12 56.2071 10.9436   1
   7  -1  12 62.3496 12.3007   6
   4   0 -12 49.8882 12.3895   5
   4   0 -12 64.9879 12.4391   4
  -4   0  12 44.0290 9.11367   6
  -4   0  12 44.6651 9.14759   6
   3   0 -12 288.835 20.2088   5
   3   0 -12 257.235 17.6602   6
   3   0 -12 316.723 19.3328   6
   3   0 -12 322.544 19.8271   4
  -3   0  12 288.349 20.5251   4
  -3   0  12 347.171 18.3364   6
  -3   0  12 264.986 16.6394   6
   2   0 -12 635.012 25.2894   6
   2   0 -12 577.853 25.2579   6
   2   0 -12 622.295 26.6280   4
  -2   0  12 597.411 27.2989   4
  -2   0  12 588.593 31.7343   1
  -2   0  12 591.154 23.4869   6
   1   0 -12 -0.1891 5.77072   4
   1   0 -12 8.30732 5.83707   6
   1   0 -12 -9.4717 4.79099   5
   1   0 -12 7.83259 6.17818   6
  -1   0  12 -0.4069 4.09449   2
  -1   0  12 3.24546 5.40756   6
  -1   0  12 7.14673 5.85018   1
  -1   0  12 3.18281 6.78461   4
   0   0 -12 93.6797 13.7724   3
   0   0 -12 97.7971 12.0338   6
   0   0 -12 63.0678 8.60205   2
   0   0 -12 72.8734 11.0687   5
   0   0 -12 70.6691 11.7912   4
   0   0 -12 80.2051 11.0619   6
   0   0  12 88.0099 10.6404   6
   0   0  12 85.6927 9.20824   2
   0   0  12 74.7851 11.0551   4
   0   0  12 73.4931 10.1221   1
  -1   0 -12 270.753 16.5102   6
  -1   0 -12 275.913 17.8326   4
  -1   0 -12 264.101 17.4749   3
  -1   0 -12 291.974 16.7337   6
   1   0  12 244.978 17.6059   1
   1   0  12 284.210 16.4077   6
   1   0  12 269.466 14.7213   2
  -2   0 -12 230.906 16.9195   3
  -2   0 -12 237.095 14.6237   2
  -2   0 -12 235.429 17.1523   5
  -2   0 -12 212.467 15.5553   6
  -2   0 -12 241.158 17.2570   4
   2   0  12 215.852 14.5949   2
   2   0  12 248.713 15.8985   6
   2   0  12 231.411 14.1748   1
  -3   0 -12 32.6018 8.03101   6
  -3   0 -12 32.5850 8.76762   5
  -3   0 -12 41.5298 8.80079   6
  -3   0 -12 30.1221 9.14426   3
  -3   0 -12 29.5448 8.10508   2
  -3   0 -12 24.2596 8.35661   4
   3   0  12 36.0665 8.44050   4
   3   0  12 38.0573 9.19074   2
   3   0  12 40.1477 8.85872   6
   3   0  12 49.3187 8.59716   6
  -4   0 -12 32.2796 8.36084   2
  -4   0 -12 26.9073 8.98074   3
  -4   0 -12 30.6276 8.66049   6
  -4   0 -12 25.2450 8.30258   5
  -4   0 -12 17.8736 7.54129   6
   4   0  12 24.2537 7.21354   1
   4   0  12 25.2830 8.11721   6
   4   0  12 21.1271 8.58094   4
   4   0  12 22.7590 7.62056   6
   4   0  12 24.0653 7.72355   2
  -5   0 -12 681.369 29.3709   2
  -5   0 -12 699.631 28.2519   6
  -5   0 -12 648.768 27.8906   5
  -5   0 -12 700.723 30.6078   3
  -5   0 -12 732.413 29.0598   6
   5   0  12 679.255 28.5393   6
   5   0  12 720.785 26.2813   1
   5   0  12 710.353 30.8438   2
   5   0  12 682.154 27.1661   6
   5   0  12 682.248 28.0582   3
   5   0  12 686.541 28.3071   4
  -6   0 -12 106.395 13.5867   6
  -6   0 -12 87.0532 13.7775   3
  -6   0 -12 105.007 14.3170   5
   6   0  12 102.105 14.7365   2
   6   0  12 107.116 17.7979   3
   6   0  12 111.404 14.5791   6
   6   0  12 129.896 14.0505   1
  -7   0 -12 -6.0463 7.55369   5
  -7   0 -12 26.3737 10.7421   3
   7   0  12 -0.6566 11.1510   6
   7   0  12 -0.6492 7.81393   1
   7   0  12 12.6095 11.3096   2
   7   0  12 11.8714 10.7729   3
   5  -1 -12 112.176 15.0045   4
   5  -1 -12 90.1115 13.8671   6
  -5   1  12 93.0586 13.0573   6
   4  -1 -12 63.3008 11.5091   5
   4  -1 -12 77.1572 12.0189   4
  -4   1  12 76.9097 11.5721   6
  -4   1  12 58.7901 10.7801   6
   3  -1 -12 348.666 21.2645   5
   3  -1 -12 395.045 21.1956   4
   3  -1 -12 391.920 20.8923   6
   3  -1 -12 385.762 21.0981   6
  -3   1  12 409.457 24.1529   1
  -3   1  12 344.478 21.1263   4
  -3   1  12 369.599 19.7977   6
   2  -1 -12 440.274 21.8892   6
   2  -1 -12 427.379 23.1139   5
   2  -1 -12 416.986 21.2400   4
   2  -1 -12 415.327 20.6423   6
  -2   1  12 397.341 19.6495   6
  -2   1  12 451.232 16.5848   2
  -2   1  12 451.642 22.7675   4
  -2   1  12 415.288 20.2633   6
  -2   1  12 401.235 21.7695   1
   1  -1 -12 143.603 12.6950   6
   1  -1 -12 145.526 15.6243   4
   1  -1 -12 134.186 12.8555   6
   1  -1 -12 167.435 17.6126   5
  -1   1  12 140.663 10.7475   2
  -1   1  12 137.201 12.5081   1
  -1   1  12 137.092 13.5657   6
  -1   1  12 141.211 13.3335   4
   0  -1 -12 552.612 23.8429   3
   0  -1 -12 572.191 21.4146   2
   0  -1 -12 580.227 23.4041   6
   0   1  12 546.568 23.5917   4
   0   1  12 571.727 23.7627   1
   0   1  12 537.742 22.6428   6
   0   1  12 536.157 20.3284   2
  -1  -1 -12 874.412 35.8991   4
  -1  -1 -12 822.262 27.4825   2
  -1  -1 -12 839.993 29.7380   3
  -1  -1 -12 783.855 41.4305   6
   1   1  12 868.017 29.7909   4
   1   1  12 812.892 27.2576   2
   1   1  12 881.920 29.7787   6
   1   1  12 848.654 29.0919   1
  -2  -1 -12 439.049 22.8735   6
  -2  -1 -12 437.330 25.2594   5
  -2  -1 -12 438.413 21.0615   3
  -2  -1 -12 469.310 20.9958   2
  -2  -1 -12 483.260 26.6559   4
   2   1  12 472.557 21.0940   2
   2   1  12 453.383 22.7711   4
   2   1  12 451.594 21.6325   6
  -3  -1 -12 85.3812 11.5231   3
  -3  -1 -12 71.9824 11.1256   6
  -3  -1 -12 92.3089 15.3992   5
  -3  -1 -12 106.219 13.0771   4
  -3  -1 -12 77.0077 10.9081   6
  -3  -1 -12 76.4693 10.7476   2
   3   1  12 103.744 11.4420   6
   3   1  12 86.5308 11.6277   6
   3   1  12 83.7104 11.4220   2
  -4  -1 -12 83.6947 12.0931   2
  -4  -1 -12 99.8732 12.0570   6
  -4  -1 -12 91.7352 12.1293   3
  -4  -1 -12 81.8358 11.1638   6
  -4  -1 -12 85.8332 12.5086   5
   4   1  12 88.8735 11.3175   6
   4   1  12 69.8853 12.2606   4
   4   1  12 98.7183 12.1366   1
   4   1  12 81.7729 12.9062   2
   4   1  12 93.4020 12.3923   6
  -5  -1 -12 838.898 30.9031   6
  -5  -1 -12 905.074 32.2176   3
  -5  -1 -12 852.057 31.6044   5
  -5  -1 -12 847.694 33.8104   2
  -5  -1 -12 885.165 32.1911   6
   5   1  12 866.333 30.0968   6
   5   1  12 926.003 35.1961   2
   5   1  12 819.800 30.4920   1
   5   1  12 883.778 30.5240   3
   5   1  12 866.070 32.7224   6
   5   1  12 850.458 31.4190   4
  -6  -1 -12 92.5161 13.1798   6
  -6  -1 -12 106.702 13.0803   5
  -6  -1 -12 94.1795 15.6353   3
   6   1  12 84.2967 13.2582   6
   6   1  12 82.4666 14.1931   2
   6   1  12 133.968 15.5414   3
   6   1  12 111.328 15.5321   1
  -7  -1 -12 4.59890 8.38095   6
  -7  -1 -12 12.7594 8.99894   5
  -7  -1 -12 -8.1549 8.52408   3
   7   1  12 -4.2562 10.5259   2
   7   1  12 -2.3251 8.72620   3
   7   1  12 1.67016 7.76528   1
   5  -2 -12 0.25955 6.40731   4
   5  -2 -12 -3.5321 7.23341   6
  -5   2  12 4.95502 8.63682   5
  -5   2  12 -4.6573 6.52671   6
   4  -2 -12 539.604 24.8727   4
   4  -2 -12 565.392 29.2458   3
   4  -2 -12 561.456 28.3434   5
  -4   2  12 541.071 27.5817   6
  -4   2  12 526.286 26.2955   4
  -4   2  12 540.334 20.6180   2
  -4   2  12 588.359 25.9773   6
  -4   2  12 574.554 28.1422   5
   3  -2 -12 465.157 23.0194   6
   3  -2 -12 441.684 22.4476   4
   3  -2 -12 453.707 24.5614   5
   3  -2 -12 534.588 23.5126   6
  -3   2  12 513.274 27.4088   1
  -3   2  12 473.977 22.9785   6
  -3   2  12 464.048 22.8329   6
  -3   2  12 508.291 25.5030   5
  -3   2  12 455.848 23.7681   4
  -3   2  12 471.208 19.2997   2
   2  -2 -12 874.395 33.8707   5
   2  -2 -12 909.551 31.3835   6
   2  -2 -12 988.307 32.3003   4
  -2   2  12 917.874 31.6218   6
  -2   2  12 914.406 34.7702   1
  -2   2  12 870.899 30.8277   6
  -2   2  12 862.002 33.5582   5
  -2   2  12 868.294 27.4464   2
  -2   2  12 900.463 32.1850   4
   1  -2 -12 253.761 22.2906   6
   1  -2 -12 216.605 15.0979   4
   1  -2 -12 243.896 15.6391   6
   1  -2 -12 240.781 16.9340   5
  -1   2  12 200.853 14.9405   6
  -1   2  12 220.751 13.5347   2
  -1   2  12 238.277 14.9873   6
  -1   2  12 217.622 14.9827   4
   0  -2 -12 427.347 20.4698   4
   0  -2 -12 389.511 27.4506   6
   0  -2 -12 400.563 19.2188   3
   0   2  12 415.639 22.8215   6
   0   2  12 436.918 22.7096   6
   0   2  12 428.403 19.1155   2
   0   2  12 444.390 21.7697   1
   0   2  12 401.081 19.6903   4
  -1  -2 -12 1374.56 39.2302   3
  -1  -2 -12 1467.69 41.7961   4
  -1  -2 -12 1446.72 40.6222   6
  -1  -2 -12 1416.55 40.1290   2
   1   2  12 1391.20 39.5550   2
   1   2  12 1482.75 42.6149   1
   1   2  12 1407.39 40.5233   4
   1   2  12 1462.25 41.2104   6
  -2  -2 -12 264.360 16.6627   6
  -2  -2 -12 315.361 17.5253   2
  -2  -2 -12 304.414 16.2523   3
  -2  -2 -12 281.258 17.6491   4
   2   2  12 322.759 21.0928   6
   2   2  12 294.058 17.5441   2
   2   2  12 289.653 16.7464   4
  -3  -2 -12 53.7923 9.23295   6
  -3  -2 -12 50.9118 8.31811   3
  -3  -2 -12 43.8169 9.66762   4
  -3  -2 -12 57.6147 9.64001   2
   3   2  12 56.6353 10.3558   6
   3   2  12 61.8989 11.2243   2
   3   2  12 52.5288 8.87298   4
  -4  -2 -12 524.777 24.7400   2
  -4  -2 -12 541.250 23.3598   6
  -4  -2 -12 525.102 21.9417   3
  -4  -2 -12 539.035 23.3598   6
   4   2  12 558.853 23.7197   4
   4   2  12 506.049 23.9433   6
   4   2  12 516.483 25.2342   2
   4   2  12 521.797 21.9350   6
  -5  -2 -12 402.035 20.2065   3
  -5  -2 -12 444.086 21.3507   6
  -5  -2 -12 422.019 23.6606   2
   5   2  12 382.859 21.2637   4
   5   2  12 411.991 22.4789   6
   5   2  12 409.649 20.5817   6
   5   2  12 407.171 23.5521   2
   5   2  12 420.844 22.7080   1
   5   2  12 423.727 19.2138   3
  -6  -2 -12 119.291 13.8600   6
  -6  -2 -12 100.620 12.6726   6
  -6  -2 -12 114.368 13.2103   3
   6   2  12 115.968 14.8709   6
   6   2  12 94.8107 12.0664   3
   6   2  12 88.4671 13.0933   2
   6   2  12 101.013 13.5530   1
  -7  -2 -12 56.6454 12.8329   5
  -7  -2 -12 44.4159 10.2008   6
  -7  -2 -12 49.6880 11.5329   3
   7   2  12 74.3827 14.3807   2
   7   2  12 41.0765 10.1882   3
   7   2  12 67.0058 15.0861   6
   7   2  12 56.4564 12.1789   1
   5  -3 -12 4.32271 7.75433   6
   5  -3 -12 14.7514 8.24117   4
  -5   3  12 12.2790 8.12636   5
  -5   3  12 3.52385 6.54047   2
  -5   3  12 13.8555 7.89014   6
   4  -3 -12 347.867 19.9187   4
   4  -3 -12 339.145 22.7200   3
  -4   3  12 316.282 22.0577   5
  -4   3  12 372.793 21.3409   6
  -4   3  12 363.807 18.9185   2
   3  -3 -12 4.20892 6.67305   6
   3  -3 -12 3.10363 5.64283   4
   3  -3 -12 8.56567 6.76766   6
   3  -3 -12 11.6785 7.19801   5
   3  -3 -12 10.7954 8.25652   3
  -3   3  12 2.61637 5.87598   6
  -3   3  12 -3.2991 5.38285   2
  -3   3  12 10.8051 6.21831   6
  -3   3  12 13.3413 8.27866   5
  -3   3  12 5.46556 7.32486   1
  -3   3  12 -7.5052 5.21125   4
   2  -3 -12 77.4975 10.6753   4
   2  -3 -12 70.6572 10.6391   6
   2  -3 -12 81.0509 16.5516   6
   2  -3 -12 45.7200 14.7494   5
  -2   3  12 59.5916 9.55773   4
  -2   3  12 60.8757 9.37560   2
  -2   3  12 62.5891 11.5797   6
  -2   3  12 64.9555 12.9503   1
  -2   3  12 50.1101 10.6316   5
  -2   3  12 49.2750 9.58021   6
   1  -3 -12 28.4496 7.37949   6
   1  -3 -12 14.9535 6.39929   6
   1  -3 -12 27.4442 7.23850   4
  -1   3  12 29.7624 9.25355   5
  -1   3  12 33.5793 8.44804   6
  -1   3  12 27.1651 6.87408   4
  -1   3  12 32.5949 7.26709   2
  -1   3  12 41.8407 8.85583   1
  -1   3  12 27.2954 7.55731   6
   0  -3 -12 773.222 39.3998   6
   0  -3 -12 790.724 28.2407   4
   0  -3 -12 883.633 29.8089   6
   0   3  12 751.324 32.9931   6
   0   3  12 928.401 41.8629   5
   0   3  12 832.197 28.2411   4
   0   3  12 819.007 28.1909   2
  -1  -3 -12 1771.30 46.5214   6
  -1  -3 -12 1814.67 48.5965   2
  -1  -3 -12 1823.46 44.4812   3
  -1  -3 -12 1788.70 47.3465   4
   1   3  12 1785.76 47.7783   2
   1   3  12 1714.20 46.1220   4
   1   3  12 1865.86 53.0613   6
  -2  -3 -12 236.806 16.2905   4
  -2  -3 -12 248.784 16.2302   2
  -2  -3 -12 258.666 15.7042   6
  -2  -3 -12 243.272 13.2518   3
   2   3  12 255.466 16.7768   2
   2   3  12 251.252 15.5628   4
  -3  -3 -12 69.0813 10.3037   6
  -3  -3 -12 74.5260 8.97255   3
  -3  -3 -12 69.4167 10.0828   5
  -3  -3 -12 73.4182 11.6472   2
   3   3  12 53.6488 9.53896   6
   3   3  12 76.9548 13.5405   6
   3   3  12 79.1379 12.3476   2
   3   3  12 70.6750 9.54863   4
  -4  -3 -12 1060.75 33.3191   6
  -4  -3 -12 1061.98 34.0412   5
  -4  -3 -12 1043.73 37.2771   2
  -4  -3 -12 1050.71 29.9281   3
   4   3  12 1038.23 36.9011   2
   4   3  12 1049.89 32.7532   6
   4   3  12 1054.00 34.3848   4
   4   3  12 1077.35 35.5614   6
  -5  -3 -12 349.565 18.5145   5
  -5  -3 -12 357.855 19.4213   6
  -5  -3 -12 374.810 19.3641   6
  -5  -3 -12 341.565 21.2526   2
  -5  -3 -12 378.641 17.4398   3
   5   3  12 366.377 22.2345   1
   5   3  12 376.434 20.5106   4
   5   3  12 365.942 19.3458   6
   5   3  12 335.414 21.8137   2
   5   3  12 350.534 21.2061   6
  -6  -3 -12 66.8244 9.55862   5
  -6  -3 -12 55.6591 9.96415   6
  -6  -3 -12 53.6221 9.98557   3
  -6  -3 -12 71.9509 10.9704   6
   6   3  12 51.5941 11.7994   2
   6   3  12 66.6453 12.5379   1
   6   3  12 63.4550 9.03206   3
   6   3  12 79.1694 12.5351   6
  -7  -3 -12 306.268 19.7946   3
  -7  -3 -12 269.007 18.6256   6
  -7  -3 -12 286.098 20.3378   6
  -7  -3 -12 262.314 17.4310   5
   7   3  12 285.270 22.1205   1
   7   3  12 235.221 16.7609   3
   7   3  12 251.224 30.4331   2
   7   3  12 317.118 21.8520   6
   5  -4 -12 6.22808 7.66940   4
  -5   4  12 -1.7998 7.12055   6
  -5   4  12 8.49809 7.84708   2
  -5   4  12 5.85441 8.14432   5
   4  -4 -12 639.071 25.2955   4
   4  -4 -12 582.119 29.2702   3
   4  -4 -12 589.217 27.1626   6
  -4   4  12 606.891 29.7778   5
  -4   4  12 609.904 27.4936   6
   3  -4 -12 138.231 13.9287   4
   3  -4 -12 145.758 15.8807   3
   3  -4 -12 165.975 18.5256   5
   3  -4 -12 141.281 15.0270   6
   3  -4 -12 146.598 15.2600   6
  -3   4  12 138.711 14.8930   4
  -3   4  12 148.561 15.2651   6
  -3   4  12 132.191 14.9748   6
  -3   4  12 144.099 19.0949   1
  -3   4  12 144.089 14.1278   2
  -3   4  12 136.887 15.3803   5
   2  -4 -12 415.787 19.3119   4
   2  -4 -12 409.041 20.5079   6
   2  -4 -12 415.014 22.8003   5
   2  -4 -12 421.050 20.3853   6
   2  -4 -12 413.635 20.5684   3
  -2   4  12 418.207 19.6680   4
  -2   4  12 366.001 19.8441   6
  -2   4  12 399.532 20.5215   6
  -2   4  12 339.731 27.4604   1
  -2   4  12 407.508 22.9008   5
  -2   4  12 370.187 19.6611   2
   1  -4 -12 366.900 18.8476   6
   1  -4 -12 398.081 23.6988   5
   1  -4 -12 370.742 18.4664   6
   1  -4 -12 358.830 17.8951   4
  -1   4  12 347.427 18.8451   6
  -1   4  12 367.486 22.2100   1
  -1   4  12 389.995 19.4810   2
  -1   4  12 386.013 22.0604   6
  -1   4  12 366.903 18.2064   4
  -1   4  12 374.321 21.2815   5
   0  -4 -12 55.3296 9.26246   4
   0  -4 -12 60.9313 9.37158   6
   0  -4 -12 72.2217 11.5667   5
   0   4  12 89.6487 13.8792   1
   0   4  12 64.8022 9.79758   4
   0   4  12 75.6213 10.3293   6
   0   4  12 59.2457 9.73950   2
   0   4  12 65.1338 12.1356   5
  -1  -4 -12 1474.02 40.0406   6
  -1  -4 -12 1516.61 43.5699   2
  -1  -4 -12 1465.87 40.5113   4
  -1  -4 -12 1499.60 36.4916   3
   1   4  12 1478.94 42.6933   2
   1   4  12 1392.79 39.4796   4
   1   4  12 1436.14 43.5554   5
   1   4  12 1382.56 47.6486   6
   1   4  12 1399.30 40.4468   6
  -2  -4 -12 10.0068 6.26577   6
  -2  -4 -12 8.77831 7.82211   2
  -2  -4 -12 1.73383 5.51904   6
   2   4  12 8.38395 7.37657   2
   2   4  12 8.75329 6.33421   6
   2   4  12 7.00340 6.22227   6
   2   4  12 11.4002 5.18427   4
  -3  -4 -12 484.549 20.9686   6
  -3  -4 -12 546.544 21.6821   6
  -3  -4 -12 480.190 21.6526   5
  -3  -4 -12 510.788 24.6885   2
   3   4  12 442.678 23.7140   2
   3   4  12 488.994 23.2226   6
   3   4  12 493.864 21.6328   4
   3   4  12 491.899 21.2285   6
  -4  -4 -12 1340.17 37.0554   6
  -4  -4 -12 1289.40 45.7369   2
  -4  -4 -12 1351.36 38.6255   5
   4   4  12 1321.50 41.0386   6
   4   4  12 1245.24 38.4229   4
   4   4  12 1307.52 43.1328   2
   4   4  12 1292.82 37.6293   6
  -5  -4 -12 189.984 14.3554   5
  -5  -4 -12 178.807 14.0577   6
  -5  -4 -12 153.081 17.0218   2
   5   4  12 183.482 16.0030   6
   5   4  12 170.926 14.8869   6
   5   4  12 189.447 15.7754   4
   5   4  12 201.401 17.8712   2
   5   4  12 172.522 16.8498   1
  -6  -4 -12 61.0066 9.94744   5
  -6  -4 -12 66.6952 9.22202   3
  -6  -4 -12 56.4914 9.89110   6
  -6  -4 -12 73.1150 11.3008   6
   6   4  12 66.9102 13.0058   6
   6   4  12 57.4500 12.1783   2
   6   4  12 80.3166 14.6802   1
   6   4  12 64.4607 8.81037   3
  -7  -4 -12 208.805 17.9324   6
  -7  -4 -12 197.896 16.1656   6
  -7  -4 -12 248.052 14.8230   5
   7   4  12 219.245 21.2061   1
   7   4  12 201.474 14.1033   3
   7   4  12 212.155 20.6869   6
   7   4  12 185.638 33.6306   2
   4  -5 -12 123.722 12.9610   4
   4  -5 -12 124.049 16.5530   3
   4  -5 -12 150.668 16.1489   6
  -4   5  12 141.837 16.6066   2
  -4   5  12 100.848 13.8079   6
  -4   5  12 121.337 16.6635   5
   3  -5 -12 46.9843 8.82638   6
   3  -5 -12 83.4636 14.9715   3
   3  -5 -12 63.3633 9.44887   4
   3  -5 -12 76.2803 12.0752   6
  -3   5  12 86.0470 13.2348   2
  -3   5  12 80.6862 13.7292   5
  -3   5  12 61.4814 9.77593   4
  -3   5  12 50.9030 10.2987   6
   2  -5 -12 89.8996 11.6794   6
   2  -5 -12 75.7794 13.1165   5
   2  -5 -12 91.7450 11.8686   3
   2  -5 -12 90.5471 10.9649   6
   2  -5 -12 74.7326 9.54148   4
  -2   5  12 87.1528 14.8808   1
  -2   5  12 86.4507 14.5817   2
  -2   5  12 74.8520 11.5140   6
  -2   5  12 70.4041 9.78180   4
  -2   5  12 82.2378 11.9812   5
  -2   5  12 105.942 12.5163   6
   1  -5 -12 483.099 20.9568   6
   1  -5 -12 536.239 31.2840   5
   1  -5 -12 524.436 20.2620   3
   1  -5 -12 530.898 21.0393   4
   1  -5 -12 562.850 27.0337   6
  -1   5  12 498.735 22.9216   6
  -1   5  12 547.250 25.2122   2
  -1   5  12 547.470 25.0146   6
  -1   5  12 496.084 28.7654   1
  -1   5  12 523.335 21.0283   4
  -1   5  12 546.489 26.0158   5
   0  -5 -12 10.0404 7.61746   5
   0  -5 -12 11.6479 6.17977   4
   0  -5 -12 7.40159 5.70246   6
   0  -5 -12 11.6945 5.11951   3
   0   5  12 13.8558 6.28766   6
   0   5  12 10.4193 5.97550   2
   0   5  12 10.9160 7.20794   5
   0   5  12 16.3464 5.83052   4
   0   5  12 12.2321 7.25940   1
   0   5  12 11.9835 6.86307   6
  -1  -5 -12 303.515 18.4341   5
  -1  -5 -12 303.099 15.4113   6
  -1  -5 -12 270.661 15.5838   6
   1   5  12 283.080 16.7179   6
   1   5  12 345.405 18.5567   6
   1   5  12 306.733 15.8956   4
   1   5  12 338.904 30.6409   2
  -2  -5 -12 11.2509 6.23916   6
  -2  -5 -12 7.92959 7.08953   2
  -2  -5 -12 11.7579 5.75744   6
   2   5  12 8.86203 6.12876   6
   2   5  12 4.30676 5.00033   4
   2   5  12 4.74509 6.27336   5
   2   5  12 4.84324 6.80411   2
   2   5  12 3.89221 6.23517   6
  -3  -5 -12 167.170 16.2468   2
  -3  -5 -12 136.342 11.7014   6
  -3  -5 -12 130.803 11.6694   6
  -3  -5 -12 124.648 12.3819   5
   3   5  12 174.603 14.4516   6
   3   5  12 148.422 17.2042   2
   3   5  12 154.013 13.0618   6
   3   5  12 163.331 12.9567   4
  -4  -5 -12 493.178 19.8949   6
  -4  -5 -12 524.845 20.6562   6
  -4  -5 -12 469.702 25.2148   2
  -4  -5 -12 532.550 22.2216   5
   4   5  12 521.051 26.6957   2
   4   5  12 471.973 23.3637   6
   4   5  12 494.713 22.5269   4
   4   5  12 498.921 21.9332   6
  -5  -5 -12 162.878 18.9806   2
  -5  -5 -12 187.846 15.2289   6
  -5  -5 -12 173.757 13.8118   5
  -5  -5 -12 175.593 13.0036   6
   5   5  12 185.335 16.1468   4
   5   5  12 184.712 17.7726   2
   5   5  12 183.716 16.3260   6
   5   5  12 199.673 18.6313   1
   5   5  12 166.450 14.8409   6
  -6  -5 -12 88.5719 10.6086   6
  -6  -5 -12 80.5316 10.1388   5
   6   5  12 74.7791 13.6403   2
   6   5  12 89.6050 13.3329   6
   6   5  12 106.598 15.7787   1
  -7  -5 -12 161.457 14.4930   6
  -7  -5 -12 166.367 14.7041   6
   7   5  12 130.972 18.3908   2
   7   5  12 175.464 32.9555   1
   4  -6 -12 -1.5875 9.95163   3
   4  -6 -12 -0.7582 6.37104   4
   4  -6 -12 3.38037 6.03323   6
  -4   6  12 0.20255 7.78280   6
  -4   6  12 -2.9789 13.1112   5
  -4   6  12 1.88390 8.31791   2
   3  -6 -12 246.007 16.7086   6
   3  -6 -12 249.762 14.4707   4
   3  -6 -12 233.598 15.7802   6
  -3   6  12 267.588 18.3755   6
  -3   6  12 254.216 19.0145   2
  -3   6  12 256.953 20.2686   5
  -3   6  12 225.236 14.0073   4
   2  -6 -12 216.714 14.1610   6
   2  -6 -12 198.977 18.3751   5
   2  -6 -12 231.494 15.5474   6
   2  -6 -12 222.342 14.7978   3
   2  -6 -12 225.028 13.1648   4
  -2   6  12 248.554 19.1182   5
  -2   6  12 185.059 15.5085   6
  -2   6  12 197.680 17.3090   2
  -2   6  12 226.338 16.4677   6
  -2   6  12 214.647 19.8407   1
  -2   6  12 216.300 13.4148   4
   1  -6 -12 3.47537 4.62399   3
   1  -6 -12 -0.5083 6.35774   5
   1  -6 -12 13.4750 5.86232   4
   1  -6 -12 0.90603 5.75807   6
  -1   6  12 -6.3476 5.61457   2
  -1   6  12 7.97994 6.26881   6
  -1   6  12 6.56561 5.12585   4
  -1   6  12 5.45417 6.30361   6
  -1   6  12 -0.7602 6.47692   5
  -1   6  12 -1.5527 5.99567   1
   0  -6 -12 176.892 15.5489   5
   0  -6 -12 180.941 12.7936   6
   0  -6 -12 151.940 11.4884   6
   0   6  12 179.473 15.9568   2
   0   6  12 159.378 14.1570   6
   0   6  12 143.007 24.9121   1
   0   6  12 164.506 12.2410   4
   0   6  12 161.667 14.1342   6
   0   6  12 176.732 16.7633   5
  -1  -6 -12 140.574 14.8738   5
  -1  -6 -12 108.586 10.3699   6
  -1  -6 -12 113.255 10.4051   6
   1   6  12 110.851 12.9552   6
   1   6  12 109.203 12.8517   6
   1   6  12 104.840 11.5798   4
   1   6  12 113.083 14.0489   5
   1   6  12 106.994 13.5121   2
  -2  -6 -12 27.2578 6.85693   6
  -2  -6 -12 29.2353 9.34166   2
  -2  -6 -12 29.4035 5.97439   6
   2   6  12 38.9898 9.66035   2
   2   6  12 26.5230 9.52498   5
   2   6  12 57.1161 9.89717   6
   2   6  12 55.3728 10.2974   6
   2   6  12 37.7795 7.46411   4
  -3  -6 -12 12.8844 5.85616   6
  -3  -6 -12 11.7354 7.28091   2
  -3  -6 -12 16.3815 5.32399   6
   3   6  12 5.29501 6.72759   4
   3   6  12 8.16175 6.70884   5
   3   6  12 7.28715 7.79545   2
   3   6  12 6.43456 6.19602   6
   3   6  12 7.35881 7.25725   6
  -4  -6 -12 154.248 11.5854   6
  -4  -6 -12 187.804 18.8923   2
  -4  -6 -12 163.145 13.1433   5
  -4  -6 -12 179.212 12.5187   6
   4   6  12 153.010 17.5303   2
   4   6  12 146.284 15.7350   6
   4   6  12 163.462 15.0840   4
  -5  -6 -12 505.311 21.4341   5
  -5  -6 -12 510.306 18.9913   6
  -5  -6 -12 506.483 19.3244   6
   5   6  12 487.275 24.6127   6
   5   6  12 451.915 26.5151   2
   5   6  12 479.005 27.5041   1
   5   6  12 477.956 22.6287   6
   5   6  12 535.271 24.6170   4
  -6  -6 -12 27.5695 6.85982   6
  -6  -6 -12 16.0649 6.71550   5
  -6  -6 -12 12.0607 6.92691   6
   6   6  12 19.2391 8.54979   6
   6   6  12 18.7619 10.0365   1
   6   6  12 26.1585 10.8882   2
   4  -7 -12 70.6566 11.4132   6
   4  -7 -12 80.7582 13.5402   3
   4  -7 -12 77.5141 8.88681   4
  -4   7  12 61.2989 13.0418   2
  -4   7  12 42.3255 9.58862   5
  -4   7  12 66.4467 12.6281   6
   3  -7 -12 249.206 13.7037   4
   3  -7 -12 230.626 16.8439   6
   3  -7 -12 248.688 16.7144   6
  -3   7  12 277.445 19.4123   6
  -3   7  12 258.397 19.6306   5
  -3   7  12 312.366 21.3269   2
   2  -7 -12 323.582 17.5282   6
   2  -7 -12 314.183 16.8947   6
   2  -7 -12 330.776 14.9943   4
   2  -7 -12 322.121 17.5280   3
  -2   7  12 348.870 20.0176   6
  -2   7  12 336.372 21.6411   5
  -2   7  12 321.280 22.0819   2
  -2   7  12 266.548 17.5437   4
   1  -7 -12 67.4985 9.37511   6
   1  -7 -12 100.983 9.92003   3
   1  -7 -12 81.2466 12.0636   5
  -1   7  12 82.7276 12.1164   6
  -1   7  12 73.9590 11.3902   6
  -1   7  12 87.8692 12.9473   2
  -1   7  12 76.8845 10.8212   4
  -1   7  12 68.9768 13.2132   1
  -1   7  12 71.9113 11.3151   5
   0  -7 -12 300.716 15.3777   6
   0  -7 -12 310.932 14.3603   6
   0  -7 -12 317.711 20.1687   5
   0   7  12 295.788 17.9720   6
   0   7  12 282.412 14.6976   4
   0   7  12 312.329 28.3821   6
   0   7  12 292.476 20.2156   2
   0   7  12 315.054 22.2728   1
   0   7  12 320.137 20.1517   5
  -1  -7 -12 681.651 21.7220   6
  -1  -7 -12 672.796 22.1004   6
  -1  -7 -12 606.484 27.0979   5
   1   7  12 696.361 29.4632   5
   1   7  12 683.184 26.9655   6
   1   7  12 655.059 30.5856   2
   1   7  12 690.679 23.8252   4
   1   7  12 668.108 25.9977   6
  -2  -7 -12 172.246 11.1611   6
  -2  -7 -12 159.231 10.6087   6
  -2  -7 -12 154.090 14.3145   5
   2   7  12 174.654 15.9225   5
   2   7  12 174.736 14.5431   6
   2   7  12 146.438 17.4885   2
   2   7  12 156.145 12.5681   4
  -3  -7 -12 1.28235 4.70297   6
  -3  -7 -12 4.87871 4.97282   6
  -3  -7 -12 -6.9398 7.82362   2
   3   7  12 0.09748 5.83229   2
   3   7  12 3.01697 6.45263   5
   3   7  12 -3.0622 6.31721   6
   3   7  12 5.81818 6.60564   4
   3   7  12 4.79044 6.02388   6
  -4  -7 -12 121.047 8.85466   6
  -4  -7 -12 113.068 8.90815   6
  -4  -7 -12 103.316 11.6975   5
   4   7  12 115.861 14.0252   6
   4   7  12 87.2608 17.5705   4
   4   7  12 134.631 13.7792   6
   4   7  12 112.416 16.2550   2
  -5  -7 -12 433.480 19.6056   5
   5   7  12 374.264 25.6408   2
   5   7  12 423.628 26.8707   1
   5   7  12 410.979 25.4282   4
   5   7  12 416.719 22.4526   6
   5   7  12 420.316 21.3269   6
  -6  -7 -12 114.406 15.7430   5
   6   7  12 127.822 14.4756   6
   6   7  12 93.0051 15.3502   1
   6   7  12 109.861 17.3298   2
   3  -8 -12 30.2639 8.62483   6
   3  -8 -12 42.6525 9.57607   6
  -3   8  12 46.0900 11.8729   5
  -3   8  12 41.5267 13.6353   2
  -3   8  12 33.0705 9.93677   6
   2  -8 -12 310.967 16.3555   6
   2  -8 -12 294.401 16.6751   3
  -2   8  12 266.732 18.8123   6
  -2   8  12 294.077 22.2548   2
  -2   8  12 321.756 22.2675   5
   1  -8 -12 49.4163 7.86726   6
   1  -8 -12 52.0734 7.74202   6
  -1   8  12 53.6310 11.2363   2
  -1   8  12 50.6594 10.7942   6
  -1   8  12 46.7565 6.95998   4
  -1   8  12 54.2947 9.71585   6
  -1   8  12 58.7836 12.2328   5
   0  -8 -12 446.942 19.5445   6
   0  -8 -12 435.427 16.8555   6
   0  -8 -12 420.939 24.7133   5
   0   8  12 427.261 23.6131   5
   0   8  12 429.392 21.4750   6
   0   8  12 422.766 25.4337   2
   0   8  12 398.247 20.8621   6
  -1  -8 -12 754.161 21.0259   6
  -1  -8 -12 797.628 31.6186   5
  -1  -8 -12 749.576 21.1732   6
   1   8  12 744.746 33.1306   2
   1   8  12 783.154 31.3346   5
   1   8  12 766.957 33.7632   6
   1   8  12 727.115 28.6723   6
   1   8  12 754.829 24.8988   4
  -2  -8 -12 179.691 16.5980   5
   2   8  12 222.094 14.1463   4
   2   8  12 210.728 16.2137   6
   2   8  12 215.723 19.6924   2
   2   8  12 233.271 17.4957   5
   2   8  12 248.602 27.6390   6
  -3  -8 -12 93.1700 12.0405   5
   3   8  12 66.4828 10.1993   4
   3   8  12 88.5914 12.6709   6
   3   8  12 76.4281 11.9577   5
   3   8  12 93.1403 15.1359   2
   4   8  12 379.441 24.8603   1
   4   8  12 355.965 19.0905   6
   4   8  12 355.416 19.9672   5
   4   8  12 322.650 19.0335   4
   4   8  12 360.285 24.9281   2
   4   8  12 354.372 21.1390   6
  -5  -8 -12 352.757 18.0262   5
   5   8  12 341.081 25.3306   1
   5   8  12 344.413 20.7670   6
   5   8  12 313.682 24.9617   6
   2  -9 -12 177.451 11.5275   6
   2  -9 -12 194.633 12.9437   6
  -2   9  12 198.491 18.6759   6
  -2   9  12 218.323 20.5216   5
  -2   9  12 188.880 21.4546   2
   1  -9 -12 292.145 13.2448   6
   1  -9 -12 288.602 13.5098   6
  -1   9  12 263.369 26.5238   2
  -1   9  12 263.529 18.3169   6
  -1   9  12 263.341 22.1925   5
   0   9  12 66.8061 11.6825   6
   0   9  12 58.7874 10.9361   6
   0   9  12 83.6732 12.6718   5
   0   9  12 76.8095 14.7715   2
   0   9  12 65.7116 6.76053   4
  -1  -9 -12 1026.09 37.7328   5
   1   9  12 992.246 33.6537   6
   1   9  12 971.781 40.4451   2
   1   9  12 1041.43 34.7451   6
   1   9  12 972.473 28.9069   4
   1   9  12 1063.21 37.7505   5
  -2  -9 -12 61.6851 11.7762   5
   2   9  12 53.1256 8.40260   4
   2   9  12 66.9862 10.7549   6
   2   9  12 36.3849 11.6859   2
   2   9  12 38.7630 9.47095   6
   2   9  12 50.1218 11.1060   5
  -3  -9 -12 79.2197 11.9961   5
   3   9  12 75.9403 12.5680   5
   3   9  12 111.056 12.9310   6
   3   9  12 79.2406 15.3345   2
   3   9  12 70.6055 10.1649   4
   3   9  12 88.2837 12.8898   6
  -4  -9 -12 838.061 30.7102   5
   4   9  12 838.261 39.0931   2
   4   9  12 825.690 30.4138   4
   4   9  12 936.587 31.2009   6
   4   9  12 887.457 33.1862   6
   4   9  12 827.591 38.0151   1
   4   9  12 865.084 31.9848   5
   0  10  12 4.67557 6.91094   6
   0  10  12 8.64570 9.66918   2
   1  10  12 483.642 25.7222   5
   1  10  12 470.914 23.5083   6
   1  10  12 515.273 30.2267   2
   2  10  12 18.4406 9.01613   5
   2  10  12 -14.926 7.98517   6
   2  10  12 -1.7537 8.68969   2
   2  10  12 3.77715 7.84179   6
   2  10  12 3.45386 5.77284   4
   1   4 -13 81.5216 15.2435   3
   1   4 -13 103.272 14.0813   4
   0   4 -13 102.085 12.8305   6
   0   4 -13 130.285 18.2744   4
   0   4 -13 128.995 19.2443   3
   0  -4  13 96.3685 8.55739   1
  -1   4 -13 6.74169 16.5275   3
  -1   4 -13 34.9686 11.3854   4
  -1   4 -13 37.6603 9.63745   6
   1  -4  13 33.2062 7.06407   6
   1  -4  13 15.2479 5.70392   6
  -2   4 -13 664.461 31.2829   4
  -2   4 -13 595.444 27.0435   6
  -2   4 -13 599.323 23.5317   2
   2  -4  13 642.461 22.7954   6
   2  -4  13 585.660 20.8230   6
  -3   4 -13 26.5530 10.7168   4
  -3   4 -13 37.4243 9.51460   2
  -3   4 -13 20.3186 14.2467   6
  -3   4 -13 22.1888 12.1182   3
   3  -4  13 25.2087 9.05658   6
   2   3 -13 196.137 19.7136   3
   2   3 -13 235.199 19.3192   4
   2   3 -13 212.824 16.1743   6
  -2  -3  13 208.068 20.2682   1
  -2  -3  13 209.278 11.9508   6
   1   3 -13 7.10992 6.23993   6
   1   3 -13 5.36675 7.79156   4
   1   3 -13 0.96899 8.09861   3
  -1  -3  13 -1.5563 4.61006   6
  -1  -3  13 6.75564 5.61873   1
  -1  -3  13 5.79365 5.89008   6
   0   3 -13 90.6168 14.4064   3
   0   3 -13 108.663 13.5087   4
   0   3 -13 114.099 13.1117   6
   0  -3  13 118.981 11.5139   6
   0  -3  13 104.110 9.87003   1
   0  -3  13 119.003 10.7878   6
  -1   3 -13 56.6669 11.8744   3
  -1   3 -13 81.5829 11.5708   4
  -1   3 -13 76.0722 9.06296   2
  -1   3 -13 85.9213 11.7613   6
   1  -3  13 73.0734 9.74406   6
   1  -3  13 73.9834 7.63614   1
   1  -3  13 79.3180 9.81300   6
  -2   3 -13 74.7538 13.3423   4
  -2   3 -13 76.6062 10.3148   2
  -2   3 -13 91.0932 15.9386   3
  -2   3 -13 70.4771 10.8191   6
   2  -3  13 86.6116 11.1104   6
  -3   3 -13 26.3509 10.1453   3
  -3   3 -13 26.0914 8.75140   6
  -3   3 -13 20.0069 9.59781   4
  -3   3 -13 7.37709 7.44022   2
   3  -3  13 14.2938 7.48572   6
   3  -3  13 12.8557 7.51694   6
  -4   3 -13 -6.8448 7.62989   2
  -4   3 -13 6.69903 9.40724   3
  -4   3 -13 -2.1055 7.76476   4
  -4   3 -13 9.90552 8.94312   6
   4  -3  13 3.44565 7.60003   6
  -5   3 -13 388.223 24.9962   6
  -5   3 -13 381.660 34.3162   3
   5  -3  13 463.598 24.0207   6
   3   2 -13 49.2820 15.7794   6
   3   2 -13 35.2740 10.4338   4
  -3  -2  13 51.8036 8.85451   6
  -3  -2  13 33.6760 10.6040   1
   2   2 -13 104.407 13.9606   4
   2   2 -13 115.486 16.4332   3
   2   2 -13 122.557 13.2109   6
  -2  -2  13 98.9124 13.3612   1
  -2  -2  13 121.483 12.6207   6
   1   2 -13 176.421 16.7326   4
   1   2 -13 197.275 15.9802   6
   1   2 -13 200.884 18.2731   3
  -1  -2  13 183.235 13.5401   6
  -1  -2  13 187.399 14.6790   1
   0   2 -13 154.009 13.9167   6
   0   2 -13 159.896 15.0425   4
   0   2 -13 137.804 15.0087   6
   0   2 -13 159.877 16.2831   3
   0  -2  13 155.731 12.6659   6
   0  -2  13 161.493 12.4310   1
  -1   2 -13 90.1261 13.0848   6
  -1   2 -13 66.1125 12.0400   4
  -1   2 -13 79.0514 11.4198   6
  -1   2 -13 130.155 18.9177   3
   1  -2  13 84.7008 16.0476   4
   1  -2  13 84.4289 11.2527   6
   1  -2  13 85.6750 8.70712   1
  -2   2 -13 -1.9150 7.30451   6
  -2   2 -13 4.90900 7.34794   4
  -2   2 -13 7.02422 6.25144   6
  -2   2 -13 -7.3261 4.75785   2
  -2   2 -13 4.71103 8.85135   3
   2  -2  13 -0.2867 4.34729   1
   2  -2  13 1.90161 6.34324   6
   2  -2  13 0.71193 8.15732   4
   2  -2  13 10.2924 6.59198   6
  -3   2 -13 11.0606 8.99553   4
  -3   2 -13 6.23565 6.99905   6
  -3   2 -13 -7.5272 7.12008   3
  -3   2 -13 6.50664 6.66270   2
   3  -2  13 1.59769 6.16226   6
   3  -2  13 11.4266 5.21198   1
   3  -2  13 5.50799 4.87346   1
   3  -2  13 6.54177 6.71622   6
  -4   2 -13 17.8486 9.59881   4
  -4   2 -13 23.2533 10.3070   3
  -4   2 -13 5.85586 7.15132   6
  -4   2 -13 11.7388 7.73885   2
   4  -2  13 20.9349 8.29899   6
   4  -2  13 26.1840 9.75073   6
   4  -2  13 15.7674 5.11031   1
   4  -2  13 17.6346 5.65899   1
  -5   2 -13 111.441 17.9737   3
   5  -2  13 141.883 14.9379   6
   5  -2  13 145.305 10.6877   1
   3   1 -13 0.26212 6.25540   4
   3   1 -13 6.19921 7.07019   6
  -3  -1  13 -8.1134 7.88359   1
  -3  -1  13 6.65300 6.27961   6
  -3  -1  13 1.25240 5.91359   6
   2   1 -13 22.8117 8.07649   6
   2   1 -13 33.2108 9.67431   4
  -2  -1  13 20.4504 8.39519   1
  -2  -1  13 11.9799 6.62238   6
  -2  -1  13 15.8913 6.46791   6
   1   1 -13 421.110 22.2345   6
   1   1 -13 468.243 25.2576   3
   1   1 -13 426.499 22.8090   4
   1   1 -13 445.885 21.7501   6
   1   1 -13 451.320 24.6055   5
  -1  -1  13 480.663 27.0767   6
  -1  -1  13 430.077 21.6362   1
  -1  -1  13 452.138 19.9116   6
   0   1 -13 84.2893 11.5340   6
   0   1 -13 83.6782 11.3101   4
   0   1 -13 77.0296 12.8960   3
   0   1 -13 98.1722 13.7863   5
   0   1 -13 99.1240 12.0479   6
   0  -1  13 94.3192 12.3357   4
   0  -1  13 98.3477 11.3970   6
   0  -1  13 94.0969 11.2654   1
   0  -1  13 91.1198 9.25632   2
  -1   1 -13 80.1636 12.1394   5
  -1   1 -13 87.5443 11.9784   6
  -1   1 -13 111.143 13.2059   6
  -1   1 -13 97.6807 10.4794   2
  -1   1 -13 85.0823 14.1070   3
  -1   1 -13 77.3073 12.0992   4
   1  -1  13 87.0087 11.5142   1
   1  -1  13 71.2723 11.5322   4
   1  -1  13 75.7231 11.0648   6
   1  -1  13 68.2331 9.23396   2
   1  -1  13 92.7436 10.7743   6
  -2   1 -13 527.529 26.1918   4
  -2   1 -13 482.404 21.0788   2
  -2   1 -13 507.342 26.4676   3
  -2   1 -13 494.408 23.3517   6
  -2   1 -13 483.006 24.9334   5
  -2   1 -13 498.371 23.8309   6
   2  -1  13 483.160 22.2798   6
   2  -1  13 486.802 24.0418   4
   2  -1  13 493.332 21.6399   2
   2  -1  13 488.865 19.4772   1
   2  -1  13 507.550 21.3773   6
  -3   1 -13 5.54968 7.27436   4
  -3   1 -13 4.35014 6.74682   5
  -3   1 -13 -3.9267 6.84053   3
  -3   1 -13 -4.7502 6.06503   2
  -3   1 -13 -1.9428 6.27962   6
  -3   1 -13 10.2087 7.05232   6
   3  -1  13 -5.3202 6.35045   2
   3  -1  13 7.08330 6.11813   4
   3  -1  13 12.0532 6.97340   6
   3  -1  13 7.71416 5.38770   1
  -4   1 -13 39.2524 10.1476   6
  -4   1 -13 41.3968 9.34883   5
  -4   1 -13 74.7961 14.9158   3
  -4   1 -13 54.4674 11.6455   4
   4  -1  13 38.5231 10.0078   6
   4  -1  13 58.3059 10.9820   2
   4  -1  13 38.8423 7.82259   1
   4  -1  13 51.8381 10.4486   6
  -5   1 -13 12.1670 10.4889   3
  -5   1 -13 3.01650 7.52039   6
  -5   1 -13 -9.7638 12.8251   2
   5  -1  13 8.76719 7.51979   2
   5  -1  13 -1.0876 5.58958   1
   5  -1  13 16.2873 9.31296   6
  -6   1 -13 9.64505 9.22783   6
  -6   1 -13 -10.197 9.62556   3
   6  -1  13 7.81696 7.19056   1
   6  -1  13 22.5460 10.7663   6
   6  -1  13 14.3888 10.5034   2
   4   0 -13 76.1880 11.3780   6
   4   0 -13 87.6789 22.5384   4
  -4   0  13 117.840 13.8807   6
  -4   0  13 80.0588 11.1152   6
   3   0 -13 290.255 19.8087   4
   3   0 -13 267.690 18.6010   6
  -3   0  13 281.965 17.7960   6
  -3   0  13 287.954 17.5693   6
  -3   0  13 313.458 21.7156   1
   2   0 -13 128.643 14.7207   6
   2   0 -13 154.955 17.5727   5
   2   0 -13 132.248 15.1429   4
  -2   0  13 137.234 15.5714   1
  -2   0  13 125.445 12.4011   6
  -2   0  13 149.805 14.8702   6
  -2   0  13 168.418 22.4175   4
   1   0 -13 886.765 32.1533   6
   1   0 -13 853.600 33.7883   3
   1   0 -13 907.252 31.8512   6
   1   0 -13 911.345 35.0387   5
   1   0 -13 908.335 33.4734   4
  -1   0  13 937.618 30.3201   6
  -1   0  13 911.465 31.0441   6
  -1   0  13 964.362 34.8494   4
   0   0 -13 3.79305 6.68322   6
   0   0 -13 7.43295 7.72121   3
   0   0 -13 1.59927 5.60843   4
   0   0 -13 2.06529 5.85689   6
   0   0 -13 -1.6576 6.00974   5
   0   0  13 8.42317 5.72882   1
   0   0  13 -1.3834 4.25187   2
   0   0  13 0.81957 5.10223   6
   0   0  13 1.13453 5.29844   4
   0   0  13 2.34143 5.75679   6
  -1   0 -13 13.4481 7.08705   4
  -1   0 -13 18.5844 5.92118   2
  -1   0 -13 18.4357 8.16290   5
  -1   0 -13 11.0557 6.17706   6
  -1   0 -13 9.69900 7.15116   6
   1   0  13 11.6661 6.43844   6
   1   0  13 3.41861 5.44969   4
   1   0  13 10.3340 5.91979   2
   1   0  13 7.89213 5.49673   1
   1   0  13 10.4825 6.45845   6
  -2   0 -13 1467.61 46.3557   5
  -2   0 -13 1366.98 41.7655   6
  -2   0 -13 1481.17 45.8182   4
  -2   0 -13 1469.82 45.5308   3
  -2   0 -13 1458.20 41.5187   2
  -2   0 -13 1459.14 43.4033   6
   2   0  13 1490.13 41.4230   2
   2   0  13 1440.58 39.9889   1
   2   0  13 1490.08 42.6080   6
   2   0  13 1445.21 43.7305   4
   2   0  13 1435.61 41.1342   6
  -3   0 -13 4.41951 9.67331   3
  -3   0 -13 19.8403 7.48204   6
  -3   0 -13 28.8143 9.02005   6
  -3   0 -13 10.5840 7.35889   4
  -3   0 -13 28.6980 8.98672   5
  -3   0 -13 11.5448 7.31732   2
   3   0  13 15.4147 6.58075   4
   3   0  13 21.6535 9.91453   6
   3   0  13 23.8849 8.01648   6
   3   0  13 17.1912 8.12591   2
  -4   0 -13 3.16279 7.19241   6
  -4   0 -13 20.1164 8.81619   2
  -4   0 -13 8.05378 7.69010   5
  -4   0 -13 7.90343 7.80386   6
  -4   0 -13 8.20876 7.89048   3
   4   0  13 1.39624 6.40358   4
   4   0  13 7.66723 7.15319   2
   4   0  13 7.99357 6.68394   6
   4   0  13 14.1371 7.37666   6
   4   0  13 1.44847 5.66904   1
  -5   0 -13 280.752 20.3076   6
  -5   0 -13 329.287 22.2007   3
  -5   0 -13 279.088 21.3222   2
  -5   0 -13 290.154 20.6077   5
   5   0  13 309.581 21.1768   2
   5   0  13 321.027 17.9719   1
   5   0  13 356.490 21.5124   6
  -6   0 -13 57.8427 10.8422   6
  -6   0 -13 41.4156 11.7637   3
  -6   0 -13 51.8379 11.6193   5
   6   0  13 75.0966 14.1122   3
   6   0  13 63.6525 12.8288   6
   6   0  13 52.1912 11.8704   2
   6   0  13 52.5189 9.83931   1
   4  -1 -13 38.0531 10.0571   6
   4  -1 -13 55.7692 12.0356   4
  -4   1  13 49.9847 9.75599   6
   3  -1 -13 438.213 22.8450   6
   3  -1 -13 424.411 22.7844   4
  -3   1  13 395.758 21.2544   6
  -3   1  13 431.452 21.7934   6
  -3   1  13 414.402 25.3110   1
   2  -1 -13 348.735 19.9542   4
   2  -1 -13 306.109 18.8899   6
   2  -1 -13 326.312 21.0099   5
   2  -1 -13 308.615 18.6249   6
  -2   1  13 282.773 17.7732   6
  -2   1  13 316.164 18.4103   6
  -2   1  13 304.135 14.4700   2
  -2   1  13 271.665 19.6240   4
  -2   1  13 315.093 20.7101   1
   1  -1 -13 349.745 21.0612   5
   1  -1 -13 379.467 19.8275   6
   1  -1 -13 389.313 20.8157   4
   1  -1 -13 341.710 19.5721   6
  -1   1  13 350.422 19.2064   6
  -1   1  13 365.899 21.0799   4
  -1   1  13 373.366 19.2206   6
  -1   1  13 376.381 16.4145   2
  -1   1  13 361.327 20.7757   1
   0  -1 -13 72.0510 10.7466   6
   0  -1 -13 83.4451 12.2854   4
   0  -1 -13 103.253 19.3038   6
   0  -1 -13 74.5740 11.2269   3
   0   1  13 78.3601 10.7880   4
   0   1  13 93.0349 11.5896   6
   0   1  13 59.4137 9.17590   2
   0   1  13 79.3000 11.8712   1
   0   1  13 82.2292 11.4047   6
  -1  -1 -13 -1.4866 5.05981   2
  -1  -1 -13 1.42904 5.41312   6
  -1  -1 -13 2.59424 5.46015   5
  -1  -1 -13 3.28111 5.54778   3
  -1  -1 -13 2.43856 5.57452   4
  -1  -1 -13 -5.3297 5.16481   6
   1   1  13 2.16787 5.57741   6
   1   1  13 9.01341 5.94473   2
   1   1  13 11.3850 5.77579   4
   1   1  13 -1.1426 5.54081   6
   1   1  13 -4.7280 5.30723   1
  -2  -1 -13 1523.84 43.6987   2
  -2  -1 -13 1588.79 45.2990   6
  -2  -1 -13 1585.23 46.9816   4
  -2  -1 -13 1565.11 46.6961   5
  -2  -1 -13 1612.57 45.9432   3
  -2  -1 -13 1659.30 47.4252   6
   2   1  13 1530.71 43.3661   6
   2   1  13 1498.23 45.5442   4
   2   1  13 1586.75 43.8688   2
   2   1  13 1604.70 45.3311   6
   2   1  13 1583.06 44.5563   1
  -3  -1 -13 43.6024 9.48192   6
  -3  -1 -13 53.0198 10.3183   5
  -3  -1 -13 57.4030 10.5782   6
  -3  -1 -13 62.4864 11.4650   4
  -3  -1 -13 81.3713 12.6478   2
  -3  -1 -13 60.1410 10.7406   3
   3   1  13 58.6195 11.0164   6
   3   1  13 70.5335 11.7441   4
   3   1  13 53.0202 13.4811   2
  -4  -1 -13 11.2336 7.84412   3
  -4  -1 -13 15.4657 8.89990   2
  -4  -1 -13 -1.9411 6.92360   5
  -4  -1 -13 4.14027 6.89194   6
  -4  -1 -13 8.47553 7.95129   6
   4   1  13 -5.4384 6.27235   1
   4   1  13 5.09629 7.07574   6
   4   1  13 4.87436 7.05555   2
   4   1  13 9.05708 6.85592   6
   4   1  13 11.0061 6.65148   4
  -5  -1 -13 820.700 36.9402   6
  -5  -1 -13 782.846 31.9611   3
  -5  -1 -13 771.607 30.9218   6
  -5  -1 -13 746.727 32.6525   2
   5   1  13 762.864 33.1397   2
   5   1  13 784.841 31.7797   6
   5   1  13 805.693 30.2090   1
  -6  -1 -13 45.6482 10.7405   6
  -6  -1 -13 40.4547 10.9763   5
  -6  -1 -13 48.5541 11.4841   3
   6   1  13 20.8982 8.97346   2
   6   1  13 52.5198 11.3749   3
   6   1  13 30.6628 9.92283   6
   6   1  13 42.3989 9.65769   1
  -7  -1 -13 311.034 22.0628   5
  -7  -1 -13 297.088 21.9104   6
  -7  -1 -13 275.893 21.8917   3
   7   1  13 293.720 22.1180   6
   7   1  13 270.819 20.6590   3
   7   1  13 265.681 22.9239   2
   7   1  13 301.257 22.0976   1
   4  -2 -13 39.2951 11.1310   4
  -4   2  13 46.0591 9.83692   6
   3  -2 -13 591.844 25.9772   4
   3  -2 -13 522.969 24.6711   6
  -3   2  13 532.392 24.8670   6
  -3   2  13 558.089 29.0536   1
  -3   2  13 543.845 25.1692   6
  -3   2  13 574.412 21.5400   2
  -3   2  13 501.380 26.1116   4
   2  -2 -13 466.695 22.8607   4
   2  -2 -13 477.547 22.7518   6
   2  -2 -13 425.466 24.1888   5
   2  -2 -13 440.768 22.2269   6
  -2   2  13 443.284 22.4415   6
  -2   2  13 438.785 18.9256   2
  -2   2  13 478.253 25.1564   4
  -2   2  13 422.758 29.6788   1
  -2   2  13 468.102 22.2965   6
   1  -2 -13 313.579 18.0901   6
   1  -2 -13 335.640 18.5354   6
   1  -2 -13 317.643 18.8804   4
   1  -2 -13 329.266 20.7834   5
  -1   2  13 301.950 19.3648   1
  -1   2  13 311.593 18.8694   4
  -1   2  13 354.266 19.5650   6
  -1   2  13 280.307 24.8716   6
  -1   2  13 335.285 16.9805   2
   0  -2 -13 232.653 15.8774   6
   0  -2 -13 230.018 16.4966   4
   0  -2 -13 196.808 14.6576   3
   0  -2 -13 197.966 16.8126   5
   0  -2 -13 232.446 15.8410   6
   0   2  13 200.308 14.1070   2
   0   2  13 182.503 14.5023   4
   0   2  13 242.760 15.4333   6
   0   2  13 186.787 14.9576   6
  -1  -2 -13 523.799 22.6637   3
  -1  -2 -13 479.461 24.0142   5
  -1  -2 -13 542.020 23.0465   2
  -1  -2 -13 519.424 24.0073   4
  -1  -2 -13 537.807 23.2300   6
  -1  -2 -13 481.117 22.2874   6
   1   2  13 444.066 22.9539   1
   1   2  13 519.549 22.4362   2
   1   2  13 513.855 23.3871   6
   1   2  13 539.550 23.3823   4
   1   2  13 518.820 22.0484   6
  -2  -2 -13 920.995 32.7440   6
  -2  -2 -13 1002.87 34.9931   5
  -2  -2 -13 934.897 34.3334   4
  -2  -2 -13 1017.34 32.8932   6
  -2  -2 -13 999.482 32.3557   3
  -2  -2 -13 988.604 33.4722   2
   2   2  13 1019.83 33.8087   4
   2   2  13 1022.62 34.0558   6
   2   2  13 973.203 32.9354   2
  -3  -2 -13 218.456 17.7826   4
  -3  -2 -13 213.687 16.3430   2
  -3  -2 -13 182.246 16.0032   5
  -3  -2 -13 235.815 16.6816   6
  -3  -2 -13 193.451 15.0782   6
  -3  -2 -13 200.762 14.9335   3
   3   2  13 222.896 18.6721   2
   3   2  13 216.379 16.0102   6
   3   2  13 211.072 19.7190   4
  -4  -2 -13 8.49079 7.29419   6
  -4  -2 -13 12.1719 7.44194   6
  -4  -2 -13 20.7745 7.71631   3
  -4  -2 -13 6.39415 7.72089   5
   4   2  13 27.5526 8.44746   2
   4   2  13 6.65750 6.06110   4
   4   2  13 20.0585 6.85621   6
   4   2  13 22.0111 7.43084   6
  -5  -2 -13 1247.19 37.8794   3
  -5  -2 -13 1165.32 41.8589   2
  -5  -2 -13 1239.10 39.6577   6
  -5  -2 -13 1257.17 39.5625   6
  -5  -2 -13 1196.41 39.3725   5
   5   2  13 1232.48 40.6081   1
   5   2  13 1188.69 42.0081   2
   5   2  13 1284.46 53.4560   6
   5   2  13 1224.88 41.0904   6
  -6  -2 -13 94.9644 13.5052   3
  -6  -2 -13 85.9908 12.6929   5
  -6  -2 -13 74.8530 12.0352   6
   6   2  13 77.1396 12.7865   1
   6   2  13 95.3416 15.5910   2
   6   2  13 88.8241 12.1979   3
   6   2  13 80.0274 13.4779   6
  -7  -2 -13 224.578 19.6003   3
  -7  -2 -13 239.565 18.5348   6
  -7  -2 -13 225.254 21.0271   5
   7   2  13 188.458 17.5597   3
   7   2  13 226.210 19.4997   6
   7   2  13 170.259 19.1819   1
   7   2  13 232.801 21.0776   2
   4  -3 -13 2.25738 7.12215   4
  -4   3  13 4.79864 7.81661   4
  -4   3  13 4.94762 8.92014   5
  -4   3  13 11.7140 5.80720   2
  -4   3  13 3.96811 7.69126   6
   3  -3 -13 34.0905 9.21274   4
   3  -3 -13 42.6291 12.0679   3
   3  -3 -13 42.6003 9.81995   6
  -3   3  13 45.9936 8.70587   2
  -3   3  13 35.1803 9.24984   6
  -3   3  13 36.3494 9.94574   4
  -3   3  13 47.2205 11.1839   5
   2  -3 -13 476.636 22.4976   6
   2  -3 -13 506.577 22.7951   4
   2  -3 -13 449.168 22.0408   6
   2  -3 -13 455.983 24.5620   5
  -2   3  13 477.313 21.5919   2
  -2   3  13 400.653 23.9730   5
  -2   3  13 461.942 22.9360   6
  -2   3  13 503.659 23.5148   4
  -2   3  13 482.956 25.9316   1
  -2   3  13 447.487 22.8543   6
   1  -3 -13 -4.3192 5.65739   5
   1  -3 -13 0.42934 5.99800   6
   1  -3 -13 6.37722 6.28929   6
   1  -3 -13 8.38424 6.82501   4
  -1   3  13 15.7841 7.82464   5
  -1   3  13 -0.8784 5.50923   2
  -1   3  13 3.33629 7.01607   1
  -1   3  13 9.25657 5.27656   4
  -1   3  13 0.95872 5.68764   6
  -1   3  13 -1.6408 5.07040   6
   0  -3 -13 270.719 16.7369   6
   0  -3 -13 297.920 19.1780   5
   0  -3 -13 241.466 15.8649   6
   0  -3 -13 233.045 14.8543   3
   0  -3 -13 246.635 18.4181   4
   0   3  13 235.322 16.6812   6
   0   3  13 245.322 16.0855   6
   0   3  13 245.939 17.7113   1
   0   3  13 277.285 16.9256   4
   0   3  13 266.656 16.8234   2
  -1  -3 -13 412.894 20.0192   6
  -1  -3 -13 401.209 20.7648   2
  -1  -3 -13 414.595 21.4142   4
  -1  -3 -13 440.674 19.2734   3
  -1  -3 -13 417.439 20.5109   6
  -1  -3 -13 368.077 21.1689   5
   1   3  13 399.825 20.0370   4
   1   3  13 410.465 21.0249   2
   1   3  13 389.532 19.3975   6
   1   3  13 425.083 20.8829   6
  -2  -3 -13 527.387 24.3084   4
  -2  -3 -13 475.480 22.9238   2
  -2  -3 -13 460.280 19.6646   3
  -2  -3 -13 513.175 22.2410   6
  -2  -3 -13 487.830 23.3129   5
  -2  -3 -13 489.287 22.4125   6
   2   3  13 444.017 21.5215   4
   2   3  13 476.147 23.2045   2
   2   3  13 450.620 22.3006   6
  -3  -3 -13 9.91861 5.98815   6
  -3  -3 -13 4.34531 5.43616   3
  -3  -3 -13 5.01631 6.70110   6
  -3  -3 -13 -8.5946 5.39956   5
  -3  -3 -13 5.92463 7.37521   2
   3   3  13 0.02389 5.61575   6
   3   3  13 -1.0342 5.27573   4
   3   3  13 -4.2182 6.29176   2
  -4  -3 -13 111.636 14.8494   2
  -4  -3 -13 149.655 14.2464   6
  -4  -3 -13 144.456 14.3006   6
  -4  -3 -13 162.406 15.2272   5
  -4  -3 -13 148.414 12.0315   3
   4   3  13 141.097 16.7686   2
   4   3  13 184.820 15.0903   6
   4   3  13 145.454 14.2731   4
   4   3  13 124.287 14.1854   6
  -5  -3 -13 967.907 30.9836   3
  -5  -3 -13 977.539 34.2148   5
  -5  -3 -13 1004.25 34.1008   6
  -5  -3 -13 1004.35 34.1597   6
   5   3  13 1007.16 36.6595   6
   5   3  13 1083.58 43.2173   4
   5   3  13 991.019 37.6237   1
   5   3  13 1006.14 38.7543   2
   5   3  13 1121.92 43.2027   6
  -6  -3 -13 315.385 19.6255   6
  -6  -3 -13 269.554 18.5101   6
  -6  -3 -13 277.411 17.8739   3
  -6  -3 -13 317.358 19.4362   5
   6   3  13 313.168 21.9125   1
   6   3  13 288.307 20.6075   6
   6   3  13 289.916 22.2724   2
  -7  -3 -13 13.9460 9.12544   5
  -7  -3 -13 18.4456 8.45545   6
  -7  -3 -13 16.5135 9.39653   3
   7   3  13 11.0177 9.85637   2
   7   3  13 24.7154 9.42844   1
   7   3  13 37.3337 11.1954   6
   7   3  13 12.5090 8.99957   3
   4  -4 -13 111.017 13.7837   4
  -4   4  13 107.764 13.7906   2
  -4   4  13 117.088 22.9969   6
  -4   4  13 119.652 17.5484   5
   3  -4 -13 129.859 14.8904   3
   3  -4 -13 95.3524 12.7983   6
   3  -4 -13 99.2440 12.2117   4
  -3   4  13 102.750 15.0098   5
  -3   4  13 109.735 14.5444   6
  -3   4  13 84.4000 13.7863   2
  -3   4  13 93.6727 12.7716   4
   2  -4 -13 605.389 29.1618   5
   2  -4 -13 660.781 25.4327   4
   2  -4 -13 605.162 25.6470   6
   2  -4 -13 589.524 25.6297   6
  -2   4  13 673.268 29.9825   5
  -2   4  13 563.668 29.3814   1
  -2   4  13 634.102 27.0871   6
  -2   4  13 583.583 25.0397   2
  -2   4  13 603.799 25.6364   4
  -2   4  13 636.393 27.0093   6
   1  -4 -13 3.18451 6.72625   5
   1  -4 -13 3.08318 6.18926   4
   1  -4 -13 5.70733 5.85436   6
  -1   4  13 3.07004 5.13846   6
  -1   4  13 4.35160 7.48961   5
  -1   4  13 2.35859 6.40836   2
  -1   4  13 5.40905 6.50546   6
  -1   4  13 -1.9218 7.94849   1
  -1   4  13 1.04839 5.18187   4
   0  -4 -13 242.347 15.7561   6
   0  -4 -13 217.368 13.6711   3
   0  -4 -13 219.029 15.2931   4
   0  -4 -13 215.907 14.8401   6
   0   4  13 191.066 15.5109   6
   0   4  13 181.710 14.1301   4
   0   4  13 215.985 17.1957   5
   0   4  13 169.359 14.8834   2
   0   4  13 191.449 16.6611   1
  -1  -4 -13 334.359 15.9578   3
  -1  -4 -13 323.981 19.7767   2
  -1  -4 -13 349.948 18.3470   6
  -1  -4 -13 320.647 18.1356   6
  -1  -4 -13 311.551 19.5479   5
  -1  -4 -13 359.840 19.8159   4
   1   4  13 321.312 17.9317   6
   1   4  13 318.155 19.6338   2
   1   4  13 388.837 21.6660   5
   1   4  13 334.809 19.4702   6
   1   4  13 359.139 18.3408   4
  -2  -4 -13 12.2388 7.43887   6
  -2  -4 -13 18.4222 7.71542   5
  -2  -4 -13 5.31974 4.58420   3
  -2  -4 -13 14.4990 7.58568   6
  -2  -4 -13 8.67113 6.63882   2
   2   4  13 13.3554 8.14121   2
   2   4  13 18.5198 7.71249   6
   2   4  13 19.9694 7.50269   4
  -3  -4 -13 9.25146 6.39780   6
  -3  -4 -13 9.09332 7.22126   5
  -3  -4 -13 -0.4597 6.72244   2
  -3  -4 -13 6.81462 5.07944   3
  -3  -4 -13 2.75419 5.67569   6
   3   4  13 7.42701 6.99732   6
   3   4  13 0.89952 5.51556   4
   3   4  13 -6.6260 7.07978   2
   3   4  13 8.53728 6.42975   6
  -4  -4 -13 76.8616 11.0403   6
  -4  -4 -13 62.7746 10.0044   6
  -4  -4 -13 66.7232 12.5530   2
  -4  -4 -13 85.7862 13.5418   5
   4   4  13 65.4731 11.2246   6
   4   4  13 74.6873 10.2878   6
   4   4  13 63.3951 10.2458   4
   4   4  13 85.9783 13.5599   2
  -5  -4 -13 179.870 15.9802   6
  -5  -4 -13 191.166 14.9839   6
  -5  -4 -13 171.907 11.7038   3
   5   4  13 182.113 16.9842   6
   5   4  13 210.662 20.4484   4
   5   4  13 198.191 24.4015   6
   5   4  13 183.812 18.2781   1
   5   4  13 163.116 17.8652   2
  -6  -4 -13 174.858 13.0387   3
  -6  -4 -13 181.385 16.1823   6
  -6  -4 -13 200.579 16.4842   6
   6   4  13 176.898 18.5617   1
   6   4  13 178.158 19.0457   6
   6   4  13 140.562 16.6544   2
  -7  -4 -13 6.86081 9.32695   6
  -7  -4 -13 7.49233 8.00455   6
   7   4  13 3.12706 8.53314   6
   7   4  13 -7.0754 6.84884   3
   7   4  13 4.62527 9.03310   1
   7   4  13 3.53069 10.6110   2
   4  -5 -13 14.6240 7.19314   4
   4  -5 -13 34.3987 12.0707   6
   4  -5 -13 28.3175 12.0558   3
  -4   5  13 44.3805 11.6282   5
  -4   5  13 14.3417 9.13389   2
  -4   5  13 14.4694 8.22002   6
   3  -5 -13 5.08618 6.30550   6
   3  -5 -13 -1.4807 6.67530   4
   3  -5 -13 3.04966 8.13629   3
  -3   5  13 10.7536 7.71764   2
  -3   5  13 10.7469 7.20727   6
  -3   5  13 7.03194 8.50579   5
  -3   5  13 10.1018 7.14335   4
   2  -5 -13 11.2112 7.42913   3
   2  -5 -13 0.49376 6.26104   6
   2  -5 -13 2.52044 5.86300   4
   2  -5 -13 0.41249 5.65620   6
  -2   5  13 4.25219 6.08036   5
  -2   5  13 10.2480 6.21177   2
  -2   5  13 2.73440 7.08532   6
  -2   5  13 0.21060 5.50948   4
   1  -5 -13 215.981 14.8123   4
   1  -5 -13 260.556 16.5658   6
   1  -5 -13 211.539 18.3173   5
   1  -5 -13 246.602 16.1415   6
   1  -5 -13 242.110 14.9277   3
  -1   5  13 271.630 19.9607   1
  -1   5  13 257.443 17.5775   2
  -1   5  13 242.647 17.1040   6
  -1   5  13 237.223 15.5203   4
  -1   5  13 265.970 16.9767   6
  -1   5  13 217.977 17.5511   5
   0  -5 -13 129.304 14.8157   5
   0  -5 -13 134.979 12.9331   6
   0  -5 -13 102.586 9.91834   3
   0  -5 -13 126.874 12.8643   6
   0  -5 -13 116.517 12.4143   4
   0   5  13 127.441 14.2492   6
   0   5  13 132.919 15.8429   5
   0   5  13 132.483 16.2471   2
   0   5  13 112.173 15.5926   1
   0   5  13 116.363 13.1032   6
   0   5  13 113.956 11.8503   4
  -1  -5 -13 145.725 13.0105   6
  -1  -5 -13 152.209 16.6030   6
  -1  -5 -13 167.768 13.7538   4
  -1  -5 -13 145.265 14.3951   5
   1   5  13 146.642 12.8570   4
   1   5  13 140.632 13.7085   6
   1   5  13 171.616 16.2127   5
   1   5  13 129.949 14.6816   2
  -2  -5 -13 556.881 26.8525   2
  -2  -5 -13 571.481 22.6993   6
  -2  -5 -13 503.492 24.2468   5
   2   5  13 528.009 22.9338   4
   2   5  13 549.436 26.7023   2
   2   5  13 583.197 26.1078   5
   2   5  13 530.866 24.5985   6
  -3  -5 -13 -14.846 5.13475   5
  -3  -5 -13 8.34244 5.92819   6
  -3  -5 -13 9.14197 8.78912   2
   3   5  13 -5.6175 5.11355   4
   3   5  13 4.90735 7.89907   2
   3   5  13 6.57705 6.47832   6
   3   5  13 5.21363 7.12460   6
  -4  -5 -13 1.81775 6.09933   6
  -4  -5 -13 -4.0466 8.31595   2
   4   5  13 1.84777 6.14257   4
   4   5  13 -5.2940 7.15784   2
   4   5  13 -5.1228 6.43742   6
   4   5  13 2.89669 7.19937   6
  -5  -5 -13 15.8742 7.96834   6
  -5  -5 -13 1.93487 6.81723   6
   5   5  13 -4.3279 7.71486   2
   5   5  13 4.76982 7.46274   6
   5   5  13 1.09350 7.11968   1
  -6  -5 -13 69.7513 11.2850   6
  -6  -5 -13 49.8938 9.59582   6
  -6  -5 -13 58.1997 9.73054   5
   6   5  13 51.2751 12.6988   1
   6   5  13 43.6299 11.5427   6
   6   5  13 50.3314 13.2399   2
   3  -6 -13 200.583 15.9502   6
   3  -6 -13 180.953 14.2885   4
   3  -6 -13 219.098 18.6377   3
  -3   6  13 224.100 18.7177   2
  -3   6  13 184.008 18.0106   6
  -3   6  13 220.286 19.9841   5
  -3   6  13 218.512 14.7957   4
   2  -6 -13 110.305 11.6744   4
   2  -6 -13 111.973 12.8419   6
   2  -6 -13 131.826 14.3438   3
   2  -6 -13 107.604 11.7683   6
  -2   6  13 77.3132 9.94442   4
  -2   6  13 139.507 16.8952   5
  -2   6  13 107.926 13.5154   6
  -2   6  13 114.761 15.0386   2
   1  -6 -13 418.449 18.3887   3
   1  -6 -13 412.338 19.6244   6
   1  -6 -13 402.656 18.8631   4
   1  -6 -13 396.708 19.2367   6
   1  -6 -13 415.811 24.4910   5
  -1   6  13 422.166 19.2840   4
  -1   6  13 427.376 23.3265   2
  -1   6  13 412.392 21.6781   6
  -1   6  13 381.353 20.9683   6
  -1   6  13 412.438 27.3248   1
  -1   6  13 400.372 23.8311   5
   0  -6 -13 42.3395 8.53609   4
   0  -6 -13 47.4768 8.32747   6
   0  -6 -13 47.4703 10.4410   5
   0   6  13 37.4954 9.58350   2
   0   6  13 60.0962 10.0548   6
   0   6  13 28.7909 9.63655   5
   0   6  13 48.4924 10.0227   6
   0   6  13 45.1740 8.14733   4
   0   6  13 44.0742 11.4636   1
  -1  -6 -13 31.2989 7.27801   6
   1   6  13 27.3842 8.40256   5
   1   6  13 46.1329 10.4488   2
   1   6  13 53.5250 9.86427   6
   1   6  13 32.1094 7.98124   6
   1   6  13 45.9652 8.44788   4
  -2  -6 -13 757.985 26.0626   6
  -2  -6 -13 802.941 30.5772   5
  -2  -6 -13 790.138 25.8634   6
   2   6  13 824.679 32.8863   2
   2   6  13 756.837 30.4890   5
   2   6  13 789.849 30.2015   6
   2   6  13 746.548 27.2560   4
  -3  -6 -13 3.75374 8.36395   2
  -3  -6 -13 11.9860 6.74456   5
  -3  -6 -13 6.42770 5.71005   6
  -3  -6 -13 13.4839 6.35877   6
   3   6  13 -6.0900 5.60852   6
   3   6  13 0.72706 5.68134   4
   3   6  13 1.44759 6.43912   6
   3   6  13 10.5681 8.21984   2
  -4  -6 -13 5.65731 7.97400   5
  -4  -6 -13 15.6280 6.65166   6
  -4  -6 -13 10.1040 6.16777   6
   4   6  13 7.81316 7.84271   4
   4   6  13 18.9064 8.14953   6
   4   6  13 21.1876 8.67926   6
   4   6  13 24.8044 9.28709   2
  -5  -6 -13 319.323 16.6546   6
  -5  -6 -13 334.443 17.1549   6
   5   6  13 340.191 24.5534   1
   5   6  13 369.016 24.8437   2
   5   6  13 359.295 21.8560   6
  -6  -6 -13 17.6606 7.21850   6
  -6  -6 -13 -3.7663 6.65151   5
   6   6  13 12.5393 9.80218   2
   6   6  13 -2.1188 7.94726   6
   3  -7 -13 437.862 18.7310   4
   3  -7 -13 433.217 23.7478   3
   3  -7 -13 475.091 23.2882   6
  -3   7  13 455.427 25.8983   2
  -3   7  13 408.399 25.8738   5
  -3   7  13 424.419 24.1433   6
   2  -7 -13 226.490 14.1850   4
   2  -7 -13 234.173 16.1365   6
   2  -7 -13 220.415 15.6938   6
   2  -7 -13 213.239 15.8504   3
  -2   7  13 219.409 17.7228   6
  -2   7  13 225.760 18.9100   2
  -2   7  13 254.523 20.0793   5
  -2   7  13 244.086 14.2524   4
   1  -7 -13 531.487 19.4424   3
   1  -7 -13 507.369 21.1949   6
   1  -7 -13 524.446 22.0241   6
  -1   7  13 523.538 27.5574   2
  -1   7  13 555.475 25.4678   6
  -1   7  13 507.414 27.5183   5
  -1   7  13 516.121 20.4303   4
   0  -7 -13 105.483 11.0180   6
   0  -7 -13 78.4669 13.3837   5
   0   7  13 87.5940 13.8379   5
   0   7  13 123.943 14.2452   6
   0   7  13 101.622 10.6520   4
   0   7  13 90.8763 13.8636   2
   0   7  13 120.984 13.6962   6
  -1  -7 -13 168.268 16.6598   5
  -1  -7 -13 156.575 11.9539   6
  -1  -7 -13 140.104 11.4331   6
   1   7  13 138.182 18.2205   2
   1   7  13 145.341 14.1078   6
   1   7  13 138.573 13.5772   6
   1   7  13 114.606 14.5412   5
   1   7  13 170.922 12.7489   4
  -2  -7 -13 1477.71 37.4331   6
  -2  -7 -13 1425.77 36.6314   6
   2   7  13 1466.42 42.8865   6
   2   7  13 1473.74 48.5108   2
   2   7  13 1456.40 40.8635   4
   2   7  13 1477.79 44.5233   6
   2   7  13 1435.43 45.3143   5
  -3  -7 -13 113.123 10.6015   6
  -3  -7 -13 142.125 14.2106   5
  -3  -7 -13 108.450 10.3298   6
   3   7  13 153.117 15.2887   6
   3   7  13 132.456 14.4121   5
   3   7  13 120.394 16.1328   2
   3   7  13 120.647 14.2257   6
   3   7  13 97.2324 11.9407   4
  -4  -7 -13 -6.8867 6.72009   5
  -4  -7 -13 -2.2881 5.18946   6
  -4  -7 -13 10.5034 8.70940   6
   4   7  13 1.00750 7.59848   6
   4   7  13 -10.487 8.19729   2
   4   7  13 1.12012 7.26415   6
   4   7  13 -6.0770 7.62626   4
  -5  -7 -13 542.140 23.7283   6
  -5  -7 -13 567.276 19.0705   6
   5   7  13 619.742 37.1515   1
   5   7  13 606.781 28.0824   6
   5   7  13 711.984 50.2550   2
   2  -8 -13 361.913 22.0308   6
   2  -8 -13 333.017 17.4448   3
   2  -8 -13 368.366 18.6779   6
  -2   8  13 283.381 19.6541   4
  -2   8  13 346.537 23.4102   5
  -2   8  13 354.481 24.8629   2
   1  -8 -13 91.1265 10.9675   6
  -1   8  13 61.1621 12.6623   5
  -1   8  13 109.031 15.6063   2
  -1   8  13 64.6210 10.9459   6
  -1   8  13 68.2356 8.70580   4
   0  -8 -13 119.197 10.9412   6
   0  -8 -13 114.610 11.1907   6
   0   8  13 135.905 14.7526   6
   0   8  13 133.993 17.7868   5
   0   8  13 134.326 18.3495   2
   0   8  13 129.165 11.3294   4
  -1  -8 -13 199.519 17.9007   5
  -1  -8 -13 218.362 12.8405   6
  -1  -8 -13 234.193 12.8242   6
   1   8  13 239.268 17.8493   6
   1   8  13 221.307 16.7498   6
   1   8  13 225.592 13.6940   4
   1   8  13 226.991 18.3470   5
   1   8  13 223.521 19.9555   2
  -2  -8 -13 657.056 19.8593   6
  -2  -8 -13 649.389 19.5652   6
  -2  -8 -13 625.542 28.1237   5
   2   8  13 701.848 28.8566   6
   2   8  13 649.003 28.9073   5
   2   8  13 667.330 27.1231   6
   2   8  13 633.745 24.6828   4
   2   8  13 671.092 32.6794   2
   3   8  13 30.1454 11.0022   2
   3   8  13 32.9830 8.89398   4
   3   8  13 60.6025 10.5668   6
   3   8  13 52.4676 11.6855   5
   3   8  13 64.3270 11.3931   6
  -4  -8 -13 4.29654 8.14411   5
   4   8  13 21.5409 9.55077   4
   4   8  13 10.3167 8.00571   6
   5   8  13 658.303 35.2690   2
   5   8  13 685.043 30.3147   6
   5   8  13 762.198 36.5133   1
   1  -9 -13 61.3658 8.57522   6
   1  -9 -13 64.4554 7.87242   6
  -1   9  13 66.4824 11.6002   6
  -1   9  13 50.4073 13.6843   2
  -1   9  13 55.2552 14.2301   5
   0   9  13 90.2289 17.7120   2
   0   9  13 119.298 14.4266   6
   0   9  13 114.379 16.0702   5
   0   9  13 104.141 9.34947   4
   1   9  13 447.227 18.6938   4
   1   9  13 488.087 23.9738   6
   1   9  13 488.058 26.4538   5
  -2  -9 -13 366.368 27.6663   5
   2   9  13 412.866 22.2654   6
   2   9  13 388.554 27.3385   2
   2   9  13 381.144 23.0087   5
   2   9  13 359.060 18.7473   4
  -3  -9 -13 15.3382 9.54570   5
   3   9  13 -2.9934 9.17345   2
   3   9  13 11.4264 7.95429   6
   3   9  13 0.82823 9.39929   5
   0   3 -14 55.2741 11.7697   3
   0   3 -14 69.7524 11.8270   6
   0   3 -14 59.0256 12.3312   4
   0  -3  14 80.1282 13.6703   6
   0  -3  14 89.7818 10.4696   6
  -1   3 -14 50.4605 13.2979   4
  -1   3 -14 38.8397 8.85212   6
  -1   3 -14 57.5476 24.0956   3
   1  -3  14 32.8634 8.26164   6
   1  -3  14 14.6367 5.41693   1
  -2   3 -14 181.926 19.4453   6
  -2   3 -14 201.753 30.4975   4
  -2   3 -14 183.682 22.3712   3
  -2   3 -14 171.231 13.2855   2
   2  -3  14 151.187 14.1626   6
   2  -3  14 143.131 14.1456   6
  -3   3 -14 82.3755 12.5625   2
  -3   3 -14 133.419 16.0347   6
  -3   3 -14 84.0910 15.1647   4
   3  -3  14 97.3949 12.8284   6
   3  -3  14 100.149 12.5218   6
   2   2 -14 2.15217 6.12904   6
   2   2 -14 19.1446 8.94364   4
   2   2 -14 4.46155 9.65999   3
  -2  -2  14 10.8710 8.45652   6
  -2  -2  14 7.65263 8.54993   1
  -2  -2  14 2.70012 6.62131   6
   1   2 -14 99.9281 12.3740   6
   1   2 -14 119.838 18.6154   3
   1   2 -14 67.9937 12.5747   4
  -1  -2  14 121.593 14.8765   6
  -1  -2  14 102.726 11.3257   6
   0   2 -14 28.8790 8.39961   6
   0   2 -14 26.7446 9.73525   3
   0   2 -14 36.5188 10.5594   4
   0  -2  14 44.6567 8.96909   6
   0  -2  14 37.6220 8.48311   1
   0  -2  14 34.7940 8.60847   6
  -1   2 -14 42.5490 10.7219   4
  -1   2 -14 48.7534 7.87502   2
  -1   2 -14 46.1737 11.0728   3
  -1   2 -14 57.3595 10.4693   6
   1  -2  14 54.2262 9.02403   6
   1  -2  14 44.1059 9.44892   6
   1  -2  14 55.5016 8.81969   1
  -2   2 -14 47.1207 9.14179   6
  -2   2 -14 38.2243 7.76991   2
  -2   2 -14 32.3037 9.80196   4
  -2   2 -14 35.2594 10.6595   3
   2  -2  14 35.7069 8.85349   6
   2  -2  14 33.0995 5.85430   1
   2  -2  14 14.9462 11.7402   6
  -3   2 -14 136.677 20.0387   3
  -3   2 -14 119.897 14.2813   2
  -3   2 -14 111.540 16.0748   4
  -3   2 -14 137.155 16.5678   6
   3  -2  14 124.962 14.1221   6
   3  -2  14 133.781 10.1539   1
   3  -2  14 125.948 13.2236   6
   3  -2  14 113.562 8.64849   1
  -4   2 -14 128.427 17.9553   6
  -4   2 -14 180.824 18.4045   2
  -4   2 -14 147.142 18.8875   3
  -4   2 -14 154.381 27.5381   4
   4  -2  14 173.669 10.5051   1
   4  -2  14 173.409 16.7047   6
   4  -2  14 190.123 11.2187   1
   2   1 -14 17.9733 9.63792   4
   2   1 -14 23.2929 9.08863   3
   2   1 -14 31.1642 10.0503   6
  -2  -1  14 30.4108 10.0663   1
  -2  -1  14 30.1979 8.72042   6
   1   1 -14 575.782 28.8247   3
   1   1 -14 508.340 25.9597   4
   1   1 -14 493.214 23.7110   6
  -1  -1  14 545.305 23.3776   6
  -1  -1  14 566.916 23.1354   6
  -1  -1  14 528.419 25.0333   1
   0   1 -14 87.9280 15.5251   3
   0   1 -14 87.5390 11.3765   6
   0   1 -14 113.337 14.2051   4
   0  -1  14 99.8164 12.1941   1
   0  -1  14 86.8132 11.2126   6
  -1   1 -14 62.9226 11.3911   4
  -1   1 -14 59.2150 11.6685   3
  -1   1 -14 83.9350 10.4041   2
  -1   1 -14 53.3512 9.80773   6
   1  -1  14 64.1317 9.32817   2
   1  -1  14 77.4467 10.3824   1
   1  -1  14 61.8009 10.8452   6
   1  -1  14 73.8122 11.3332   6
  -2   1 -14 193.355 17.8792   4
  -2   1 -14 180.781 16.0799   6
  -2   1 -14 194.243 15.0078   2
  -2   1 -14 229.901 19.0149   3
   2  -1  14 193.445 14.9031   2
   2  -1  14 199.922 15.3639   6
   2  -1  14 194.827 13.0723   1
   2  -1  14 215.658 15.9845   6
  -3   1 -14 232.689 19.6847   3
  -3   1 -14 214.993 18.9237   4
  -3   1 -14 232.787 18.6756   6
  -3   1 -14 228.134 17.3250   2
   3  -1  14 200.576 16.6275   2
   3  -1  14 238.272 16.6169   6
   3  -1  14 236.820 17.0279   6
  -4   1 -14 458.585 27.4334   3
  -4   1 -14 461.310 24.8588   2
  -4   1 -14 501.012 26.5132   6
  -4   1 -14 524.635 29.0575   4
   4  -1  14 496.091 20.4596   1
   4  -1  14 503.347 24.8381   6
   4  -1  14 568.765 31.7613   1
   4  -1  14 506.725 25.7183   2
  -5   1 -14 31.7069 12.9187   3
  -5   1 -14 36.5440 10.0849   6
   5  -1  14 53.4321 11.1727   2
   5  -1  14 44.6978 10.6039   6
   5  -1  14 43.8120 9.24818   1
   3   0 -14 50.8667 10.3790   6
   3   0 -14 51.1908 12.0882   4
  -3   0  14 30.4593 8.65345   6
  -3   0  14 57.3619 10.2109   6
   2   0 -14 48.5858 10.1027   6
   2   0 -14 45.3312 9.51553   4
  -2   0  14 72.6483 12.7385   1
  -2   0  14 86.5312 12.4006   6
  -2   0  14 64.5359 10.0692   6
   1   0 -14 1142.94 37.6418   6
   1   0 -14 1133.67 40.3681   3
   1   0 -14 1085.47 38.6965   4
  -1   0  14 1151.84 36.6519   6
  -1   0  14 1091.73 37.8600   1
  -1   0  14 1116.20 35.5715   6
   0   0 -14 22.1267 9.24626   3
   0   0 -14 37.0452 10.5005   4
   0   0 -14 28.2296 8.42490   6
   0   0  14 25.5183 6.56203   2
   0   0  14 15.8118 7.86689   6
   0   0  14 9.09775 7.55025   6
  -1   0 -14 -0.1604 5.90125   6
  -1   0 -14 0.70743 5.97505   6
  -1   0 -14 12.8187 7.51762   4
  -1   0 -14 0.41798 5.93332   2
  -1   0 -14 11.9888 7.60600   3
  -1   0 -14 8.95282 7.88754   5
   1   0  14 23.1119 7.39482   6
   1   0  14 10.7372 7.45561   6
   1   0  14 14.7521 6.54412   1
   1   0  14 17.2682 8.23173   4
   1   0  14 3.70581 5.55189   2
  -2   0 -14 368.842 21.7638   6
  -2   0 -14 351.379 22.0550   4
  -2   0 -14 296.277 20.3309   3
  -2   0 -14 322.855 19.5869   6
  -2   0 -14 332.608 21.6791   5
  -2   0 -14 287.448 17.5840   2
   2   0  14 297.758 21.8445   4
   2   0  14 328.177 17.6947   1
   2   0  14 298.724 17.9749   6
   2   0  14 347.027 20.0426   6
   2   0  14 299.151 17.5109   2
  -3   0 -14 182.081 17.7090   4
  -3   0 -14 178.853 17.3423   3
  -3   0 -14 193.660 18.4972   5
  -3   0 -14 178.598 15.2274   2
  -3   0 -14 183.085 16.6139   6
   3   0  14 162.569 15.1534   2
   3   0  14 167.454 15.5878   6
   3   0  14 195.413 14.3139   1
  -4   0 -14 271.691 20.0058   2
  -4   0 -14 312.373 21.0631   6
  -4   0 -14 311.339 22.0572   3
   4   0  14 321.507 20.7453   2
   4   0  14 317.203 18.2270   1
   4   0  14 330.512 20.8697   6
  -5   0 -14 113.081 15.1338   6
  -5   0 -14 111.276 15.7255   3
   5   0  14 132.561 15.8050   2
   5   0  14 108.814 15.0760   6
   5   0  14 130.152 13.9511   1
  -6   0 -14 242.082 20.7594   6
  -6   0 -14 258.298 22.6613   3
   6   0  14 250.241 21.6987   1
   6   0  14 265.823 21.7535   6
   3  -1 -14 10.8560 7.65829   6
   3  -1 -14 14.7290 8.98877   4
  -3   1  14 3.94139 7.12335   6
   2  -1 -14 13.1115 6.70936   6
   2  -1 -14 13.2099 8.79600   4
  -2   1  14 14.7790 6.93353   6
  -2   1  14 9.05348 8.10102   1
  -2   1  14 17.0601 6.91619   6
   1  -1 -14 882.163 32.1754   6
   1  -1 -14 939.692 34.3494   4
   1  -1 -14 863.277 33.8889   3
  -1   1  14 898.578 34.4768   4
  -1   1  14 870.072 33.7605   1
  -1   1  14 891.302 31.1499   6
  -1   1  14 840.063 26.8606   2
  -1   1  14 873.091 31.9508   6
   0  -1 -14 12.7452 8.86843   4
   0  -1 -14 16.8603 7.74310   5
   0  -1 -14 15.9388 8.19280   6
   0  -1 -14 18.9190 8.59663   3
   0  -1 -14 11.6689 6.93345   6
   0   1  14 19.1401 7.57628   6
   0   1  14 9.13027 6.73813   1
   0   1  14 17.1390 6.34809   2
   0   1  14 11.4266 6.71506   4
   0   1  14 13.9720 6.81554   6
  -1  -1 -14 0.67249 6.83753   5
  -1  -1 -14 5.90738 5.92847   6
  -1  -1 -14 6.78630 5.30735   2
  -1  -1 -14 -6.1734 4.84203   4
  -1  -1 -14 7.22821 6.90395   6
   1   1  14 -2.5928 5.07009   4
   1   1  14 -2.6572 6.02035   6
   1   1  14 -1.9794 5.84042   6
   1   1  14 -3.3653 5.23708   2
  -2  -1 -14 1007.05 36.7870   4
  -2  -1 -14 1004.12 35.2993   3
  -2  -1 -14 993.685 33.6586   2
  -2  -1 -14 936.628 35.7974   5
  -2  -1 -14 1006.05 34.8729   6
  -2  -1 -14 963.813 33.7463   6
   2   1  14 944.092 33.0565   1
   2   1  14 975.320 32.9358   2
   2   1  14 989.859 34.7741   6
   2   1  14 952.078 34.6674   4
   2   1  14 946.976 32.6446   6
  -3  -1 -14 19.2754 7.64841   6
  -3  -1 -14 9.30000 8.07064   3
  -3  -1 -14 3.99149 8.38031   5
  -3  -1 -14 7.64036 5.66282   2
  -3  -1 -14 17.8667 8.49373   6
  -3  -1 -14 11.4900 9.21192   4
   3   1  14 5.77952 7.01434   2
   3   1  14 10.2755 7.27917   4
   3   1  14 12.7467 6.84322   6
  -4  -1 -14 500.510 25.9702   5
  -4  -1 -14 574.018 27.3540   2
  -4  -1 -14 547.922 26.8568   6
   4   1  14 612.373 27.9577   2
   4   1  14 565.391 25.0361   1
   4   1  14 528.942 26.3645   6
  -5  -1 -14 205.802 18.7445   3
  -5  -1 -14 186.425 17.8602   5
  -5  -1 -14 208.778 18.7990   6
   5   1  14 213.187 20.7214   1
   5   1  14 206.450 19.0936   2
   5   1  14 199.966 18.0437   6
  -6  -1 -14 123.268 16.2206   3
   6   1  14 107.043 14.4078   1
   6   1  14 104.174 14.3456   6
   6   1  14 86.2929 19.0226   2
   3  -2 -14 135.029 16.9441   4
  -3   2  14 123.570 14.9626   6
   2  -2 -14 21.4222 7.41605   4
   2  -2 -14 24.3089 8.02106   6
  -2   2  14 30.2794 8.91912   6
  -2   2  14 10.1410 7.08643   1
  -2   2  14 18.6982 8.81120   4
  -2   2  14 34.5378 8.49410   2
   1  -2 -14 868.650 31.9923   4
   1  -2 -14 896.310 39.4647   5
   1  -2 -14 794.516 36.6552   6
   1  -2 -14 861.377 30.9381   6
  -1   2  14 807.325 27.6107   2
  -1   2  14 626.642 43.9412   1
  -1   2  14 788.905 30.5579   6
  -1   2  14 812.512 31.6309   4
  -1   2  14 857.238 30.8719   6
   0  -2 -14 65.9466 10.4640   6
   0  -2 -14 76.2106 11.1206   3
   0  -2 -14 56.3727 10.8265   4
   0  -2 -14 65.3800 12.1567   5
   0  -2 -14 102.768 13.5520   6
   0   2  14 96.3412 14.2915   1
   0   2  14 78.2553 11.7174   4
   0   2  14 75.9007 11.0056   2
   0   2  14 73.4031 11.4122   6
   0   2  14 65.9146 10.7431   6
  -1  -2 -14 1.14710 7.01895   4
  -1  -2 -14 3.43205 6.03878   6
  -1  -2 -14 -1.1554 5.85315   5
  -1  -2 -14 0.48668 5.65484   3
  -1  -2 -14 -3.4576 6.06862   2
  -1  -2 -14 -0.6806 6.15724   6
   1   2  14 -6.1827 4.70983   4
   1   2  14 3.42447 6.43852   6
   1   2  14 2.36072 6.13486   6
   1   2  14 1.60682 5.81477   2
   1   2  14 -2.8546 5.38645   1
  -2  -2 -14 1061.06 37.2242   4
  -2  -2 -14 958.546 33.4537   6
  -2  -2 -14 945.040 35.8690   5
  -2  -2 -14 995.402 34.6803   6
  -2  -2 -14 969.344 33.2262   3
  -2  -2 -14 931.098 33.7496   2
   2   2  14 958.589 34.2189   4
   2   2  14 992.924 33.4498   6
   2   2  14 1088.52 36.2025   6
  -3  -2 -14 8.82075 7.39920   3
  -3  -2 -14 17.9760 8.45111   5
  -3  -2 -14 17.7551 8.18630   2
  -3  -2 -14 11.4994 7.53544   4
  -3  -2 -14 23.9336 8.33673   6
  -3  -2 -14 13.4901 8.02484   6
   3   2  14 10.9655 6.97415   6
   3   2  14 9.79556 7.11097   4
   3   2  14 23.2988 7.96333   2
   3   2  14 11.1433 7.41468   6
  -4  -2 -14 112.373 13.4383   3
  -4  -2 -14 92.7429 12.5178   6
  -4  -2 -14 116.638 14.4937   5
  -4  -2 -14 119.982 14.8252   6
  -4  -2 -14 88.2429 12.9490   2
   4   2  14 92.8040 12.4861   6
   4   2  14 88.0093 12.6455   2
  -5  -2 -14 353.707 22.3107   5
  -5  -2 -14 346.893 21.0433   3
  -5  -2 -14 381.745 22.4638   6
   5   2  14 345.932 23.3067   2
   5   2  14 383.241 22.8249   1
   5   2  14 350.631 22.5031   6
  -6  -2 -14 75.2831 12.6144   5
  -6  -2 -14 98.8166 13.6609   3
  -6  -2 -14 103.155 13.6174   6
   6   2  14 61.7281 13.9312   2
   6   2  14 89.7969 16.4742   6
   6   2  14 87.6920 13.9646   1
   3  -3 -14 27.7328 8.63035   6
   3  -3 -14 27.7645 10.3513   3
   3  -3 -14 46.4672 11.0218   4
  -3   3  14 29.9448 8.12129   2
  -3   3  14 38.6214 11.1801   5
  -3   3  14 10.9788 7.30077   6
   2  -3 -14 18.8020 7.34474   6
   2  -3 -14 15.7815 6.86876   4
  -2   3  14 17.3569 12.5928   1
  -2   3  14 41.3061 9.05279   2
  -2   3  14 27.7229 8.80740   4
  -2   3  14 30.2960 10.7422   5
  -2   3  14 22.4706 7.98833   6
   1  -3 -14 126.877 14.7775   6
   1  -3 -14 103.743 12.6904   4
   1  -3 -14 147.148 19.8750   5
   1  -3 -14 140.366 14.6914   6
  -1   3  14 94.9748 12.2110   4
  -1   3  14 104.663 12.3603   2
  -1   3  14 128.181 16.9673   1
  -1   3  14 120.212 13.6841   6
  -1   3  14 118.694 14.1290   6
   0  -3 -14 11.3432 6.52121   6
   0  -3 -14 8.27896 5.34391   3
   0  -3 -14 5.30833 7.33535   5
   0  -3 -14 9.91483 6.68491   6
   0  -3 -14 8.68146 7.02946   4
   0   3  14 -0.9643 5.84058   6
   0   3  14 5.97250 6.17538   2
   0   3  14 3.66739 5.90576   6
   0   3  14 8.99222 6.71800   1
  -1  -3 -14 30.7808 8.77554   4
  -1  -3 -14 37.9167 9.40565   6
  -1  -3 -14 27.7966 7.91921   3
  -1  -3 -14 28.4783 8.61633   6
  -1  -3 -14 30.2702 9.16695   5
  -1  -3 -14 14.8796 8.21673   2
   1   3  14 22.2155 7.82164   2
   1   3  14 32.2136 9.34508   6
   1   3  14 30.0892 7.56857   6
   1   3  14 40.4397 10.1219   1
  -2  -3 -14 800.642 31.9055   5
  -2  -3 -14 806.245 31.1804   2
  -2  -3 -14 810.312 27.6434   3
  -2  -3 -14 782.433 29.9481   6
  -2  -3 -14 793.706 31.4740   4
  -2  -3 -14 797.186 29.6055   6
   2   3  14 787.030 30.5314   2
   2   3  14 834.029 31.4343   6
   2   3  14 740.962 28.8465   6
   2   3  14 720.039 29.2561   4
  -3  -3 -14 206.392 16.9039   6
  -3  -3 -14 234.595 15.0069   3
  -3  -3 -14 226.334 17.2446   6
   3   3  14 226.119 17.7432   2
   3   3  14 240.091 17.2526   4
   3   3  14 255.854 17.5119   6
   3   3  14 221.842 16.8718   6
  -4  -3 -14 2.15279 8.02035   2
  -4  -3 -14 -3.4894 6.57544   6
  -4  -3 -14 -2.7862 6.36509   3
  -4  -3 -14 4.68717 7.11138   6
   4   3  14 0.80788 7.99360   2
   4   3  14 3.04646 5.58771   4
   4   3  14 14.1298 7.62946   6
  -5  -3 -14 140.872 14.9297   6
  -5  -3 -14 195.066 16.9276   6
  -5  -3 -14 172.063 14.4365   3
   5   3  14 195.072 18.0285   6
   5   3  14 182.120 18.2421   2
   5   3  14 162.189 17.3387   1
  -6  -3 -14 6.41086 8.26968   6
  -6  -3 -14 8.98404 9.19739   5
  -6  -3 -14 4.70709 8.22840   3
   6   3  14 5.50397 7.59614   1
   6   3  14 -12.676 8.27882   6
   3  -4 -14 109.328 14.1223   6
   3  -4 -14 108.609 15.1737   3
   3  -4 -14 135.823 14.9420   4
  -3   4  14 124.665 16.2109   6
  -3   4  14 107.788 12.8301   2
  -3   4  14 143.275 17.9232   5
  -3   4  14 110.044 15.3652   4
   2  -4 -14 121.789 14.4626   6
   2  -4 -14 111.964 13.3473   4
   2  -4 -14 151.612 17.4904   3
  -2   4  14 86.2731 13.9527   5
  -2   4  14 103.179 13.9870   4
  -2   4  14 115.021 14.2788   6
  -2   4  14 111.832 15.4370   2
   1  -4 -14 119.606 14.0090   6
   1  -4 -14 140.606 14.5511   6
   1  -4 -14 125.475 14.0395   4
  -1   4  14 134.846 15.1949   6
  -1   4  14 118.251 14.8063   1
  -1   4  14 88.7273 12.0508   4
  -1   4  14 122.875 16.1113   5
   0  -4 -14 52.6382 10.0525   6
   0  -4 -14 64.4690 10.0793   3
   0  -4 -14 55.4713 10.8898   5
   0  -4 -14 52.4768 10.0613   6
   0  -4 -14 41.6205 8.36855   4
   0   4  14 50.7046 10.4608   2
   0   4  14 39.8196 8.83572   6
   0   4  14 48.9952 10.7524   5
   0   4  14 68.0903 10.2503   4
   0   4  14 43.1384 9.71582   6
   0   4  14 33.5725 9.36651   1
  -1  -4 -14 108.851 13.7257   5
  -1  -4 -14 99.5301 12.1909   6
  -1  -4 -14 85.9844 18.2440   6
  -1  -4 -14 105.354 11.4519   3
  -1  -4 -14 83.7931 11.9762   4
   1   4  14 73.7888 10.2298   4
   1   4  14 89.5974 12.7269   6
   1   4  14 87.1029 11.6221   6
   1   4  14 82.4508 12.1439   2
  -2  -4 -14 48.6782 9.99908   4
  -2  -4 -14 57.3383 8.64246   3
  -2  -4 -14 48.9404 10.6098   5
  -2  -4 -14 47.5942 11.2803   2
  -2  -4 -14 63.3331 11.9760   6
  -2  -4 -14 70.5973 11.2569   6
   2   4  14 68.9324 10.6963   6
   2   4  14 43.4754 10.8518   2
   2   4  14 35.4625 8.54645   6
  -3  -4 -14 320.579 33.3535   5
  -3  -4 -14 311.402 20.4215   2
  -3  -4 -14 289.237 18.1778   6
  -3  -4 -14 277.523 14.1005   3
  -3  -4 -14 301.445 33.4107   6
   3   4  14 259.280 18.8617   6
   3   4  14 251.567 19.8562   2
   3   4  14 263.454 18.1233   4
   3   4  14 304.435 18.8263   6
  -4  -4 -14 95.1148 15.1314   2
  -4  -4 -14 118.070 13.2877   6
  -4  -4 -14 122.794 14.3872   5
  -4  -4 -14 120.475 14.0119   6
   4   4  14 117.215 16.3887   2
   4   4  14 88.2699 13.0956   6
   4   4  14 72.8889 11.0194   4
  -5  -4 -14 223.178 16.9117   6
  -5  -4 -14 201.840 17.5004   5
  -5  -4 -14 164.161 15.3460   6
   5   4  14 199.769 18.7616   2
   5   4  14 201.053 18.9616   1
   5   4  14 182.055 17.5408   6
  -6  -4 -14 93.8081 12.2358   6
  -6  -4 -14 93.1348 11.1330   3
  -6  -4 -14 96.7423 16.6965   6
  -6  -4 -14 82.3521 12.4282   5
   6   4  14 105.481 16.3661   2
   6   4  14 123.902 16.2528   1
   6   4  14 105.939 18.6118   6
   3  -5 -14 12.4059 7.29490   6
   3  -5 -14 -10.071 6.27525   4
   3  -5 -14 4.80480 9.71847   3
  -3   5  14 9.70488 7.87197   4
  -3   5  14 8.97643 9.36854   5
  -3   5  14 0.87087 7.39697   6
  -3   5  14 -5.8805 6.45785   2
   2  -5 -14 16.1745 8.39499   4
   2  -5 -14 25.6687 8.81511   6
  -2   5  14 26.0465 8.12646   2
  -2   5  14 16.1592 7.84036   4
  -2   5  14 22.0745 8.89789   6
  -2   5  14 19.7949 9.75187   5
   1  -5 -14 557.392 23.5308   3
   1  -5 -14 537.893 23.6552   4
   1  -5 -14 565.255 24.7746   6
   1  -5 -14 560.737 24.7199   6
  -1   5  14 576.078 28.3632   5
  -1   5  14 578.148 24.4489   4
  -1   5  14 587.904 26.5415   2
  -1   5  14 567.742 26.4193   6
   0  -5 -14 29.3443 9.27386   5
   0  -5 -14 21.9096 6.97654   6
   0  -5 -14 21.4587 6.55160   3
   0  -5 -14 27.8814 7.16589   3
   0  -5 -14 38.7667 8.67381   6
   0  -5 -14 24.6682 7.07384   4
   0   5  14 56.0230 12.1413   2
   0   5  14 26.3137 10.0164   1
   0   5  14 28.8786 8.05560   4
   0   5  14 33.9546 9.00018   6
   0   5  14 46.0686 10.4157   5
   0   5  14 41.8106 8.84070   6
  -1  -5 -14 -8.7581 4.84175   6
  -1  -5 -14 4.52530 5.74056   6
  -1  -5 -14 -8.4262 5.89286   4
  -1  -5 -14 9.67106 7.51018   5
  -1  -5 -14 1.96862 4.80101   3
   1   5  14 -0.2950 5.70001   6
   1   5  14 4.13318 7.26529   1
   1   5  14 -3.8302 5.59848   2
   1   5  14 7.72144 6.37083   4
   1   5  14 3.64697 7.00513   5
   1   5  14 4.53395 6.50956   6
  -2  -5 -14 158.073 14.6272   6
  -2  -5 -14 146.936 15.3677   5
  -2  -5 -14 151.419 14.8464   6
  -2  -5 -14 156.655 16.8766   2
   2   5  14 146.762 13.9644   6
   2   5  14 129.281 15.2353   6
   2   5  14 140.763 14.7647   4
   2   5  14 135.886 16.2357   2
  -3  -5 -14 287.289 17.5954   6
  -3  -5 -14 295.853 21.3562   2
  -3  -5 -14 314.611 18.2189   6
   3   5  14 327.193 22.1598   2
   3   5  14 288.645 19.5180   6
   3   5  14 289.318 18.4348   4
   3   5  14 292.147 18.4814   6
  -4  -5 -14 395.142 21.6599   5
  -4  -5 -14 370.828 19.9209   6
  -4  -5 -14 367.105 19.5706   6
   4   5  14 402.488 24.7295   2
   4   5  14 353.743 21.5804   6
   4   5  14 329.624 21.2639   4
  -5  -5 -14 18.8679 7.86008   6
  -5  -5 -14 3.20506 8.65858   5
   5   5  14 11.1577 7.79365   6
   5   5  14 11.4904 9.14412   2
   5   5  14 26.1203 11.1814   1
  -6  -5 -14 109.557 13.5747   5
  -6  -5 -14 109.411 13.2928   6
  -6  -5 -14 109.618 13.6829   6
   6   5  14 105.231 16.0022   2
   6   5  14 85.2309 15.4064   1
   6   5  14 94.3369 14.7678   6
   3  -6 -14 22.5237 8.27075   4
   3  -6 -14 3.68510 17.5213   3
   3  -6 -14 19.8395 8.23704   6
  -3   6  14 38.9276 10.1837   2
  -3   6  14 19.8849 9.72247   5
  -3   6  14 27.5424 9.82599   6
  -3   6  14 18.6699 7.41187   4
   2  -6 -14 3.75384 7.05155   6
   2  -6 -14 -5.5981 6.58285   4
  -2   6  14 7.57692 6.48149   4
  -2   6  14 3.61198 8.31175   6
  -2   6  14 9.17668 8.44607   5
  -2   6  14 -6.4601 7.83769   2
   1  -6 -14 988.799 32.8294   6
   1  -6 -14 973.746 30.4442   3
   1  -6 -14 962.062 32.5955   6
  -1   6  14 972.005 38.2423   5
  -1   6  14 946.409 36.4334   2
  -1   6  14 925.603 34.9160   6
  -1   6  14 956.615 32.0932   4
   0  -6 -14 4.13785 5.11517   3
   0  -6 -14 0.70862 5.44995   6
   0  -6 -14 3.63235 7.06011   6
   0   6  14 -6.4712 6.69371   2
   0   6  14 -4.7867 7.04817   5
   0   6  14 -1.3721 5.71168   6
   0   6  14 -1.1511 5.75005   4
  -1  -6 -14 8.23355 6.60918   6
  -1  -6 -14 3.16802 6.57113   6
  -1  -6 -14 -1.0251 7.96355   5
   1   6  14 11.8752 7.13216   2
   1   6  14 -4.3513 6.68190   5
   1   6  14 7.51839 8.10120   6
   1   6  14 10.4737 6.24540   4
   1   6  14 7.25323 7.31629   6
  -2  -6 -14 592.543 24.0686   6
  -2  -6 -14 517.331 21.9396   6
  -2  -6 -14 545.355 26.2252   5
   2   6  14 554.552 26.7119   5
   2   6  14 519.536 24.6341   6
   2   6  14 561.261 26.1398   6
   2   6  14 538.257 23.7763   4
   2   6  14 519.379 27.1562   2
  -3  -6 -14 116.050 17.2902   5
  -3  -6 -14 145.921 13.5805   6
   3   6  14 132.088 21.0041   6
   3   6  14 116.032 13.4189   4
   3   6  14 110.345 16.0553   2
   3   6  14 123.311 15.1958   6
  -4  -6 -14 307.410 20.0632   5
  -4  -6 -14 354.683 19.1858   6
   4   6  14 402.850 26.6290   4
   4   6  14 358.675 22.0194   6
   4   6  14 367.656 24.5215   2
  -5  -6 -14 127.758 14.2858   5
  -5  -6 -14 121.395 12.6841   6
  -5  -6 -14 92.2783 13.0326   6
   5   6  14 118.273 15.2102   6
   5   6  14 84.8913 15.0142   1
   2  -7 -14 -0.2730 7.07733   3
   2  -7 -14 0.11887 7.78140   6
   2  -7 -14 1.35030 6.29567   4
  -2   7  14 7.59240 7.89983   5
  -2   7  14 -4.7686 5.85451   4
  -2   7  14 -1.4832 6.79755   2
  -2   7  14 -1.2726 7.47663   6
   1  -7 -14 1001.00 29.2713   3
   1  -7 -14 1006.58 32.7837   6
   1  -7 -14 1056.71 33.9207   6
  -1   7  14 1032.22 40.4176   5
  -1   7  14 1008.68 32.1411   4
  -1   7  14 1045.88 39.7549   2
  -1   7  14 1031.43 37.2729   6
   0  -7 -14 -1.0914 6.33240   6
   0  -7 -14 6.34747 6.40533   6
   0   7  14 10.7963 7.68706   6
   0   7  14 6.80954 5.81803   4
   0   7  14 -5.0842 6.45062   2
   0   7  14 4.37984 6.50250   5
  -1  -7 -14 8.52111 6.47434   6
  -1  -7 -14 -2.1540 6.31553   6
   1   7  14 23.5918 8.28039   5
   1   7  14 17.7507 8.56263   6
   1   7  14 9.31164 6.65102   4
   1   7  14 0.99121 8.25981   2
  -2  -7 -14 850.933 33.7258   5
  -2  -7 -14 863.846 28.1342   6
   2   7  14 830.704 29.9078   4
   2   7  14 879.570 33.7594   6
   2   7  14 814.203 35.6507   2
   2   7  14 873.789 34.7379   5
  -3  -7 -14 -8.6333 7.53880   5
  -3  -7 -14 -0.6949 6.16137   6
  -3  -7 -14 -2.7581 6.16906   6
   3   7  14 -1.4220 8.18437   2
   3   7  14 5.21447 8.10315   5
   3   7  14 7.00059 6.89827   4
   3   7  14 1.92033 6.76488   6
  -4  -7 -14 173.464 13.2268   6
  -4  -7 -14 195.857 13.7921   6
   4   7  14 193.419 16.9754   6
   4   7  14 185.106 23.0650   2
  -5  -7 -14 212.496 13.5100   6
  -5  -7 -14 138.743 12.1175   6
  -5  -7 -14 157.259 14.7172   5
   5   7  14 195.484 18.3629   6
   5   7  14 188.345 22.1931   2
   5   7  14 145.442 18.8477   1
   1  -8 -14 504.960 22.0260   6
   1  -8 -14 539.800 22.7632   6
  -1   8  14 590.056 37.6017   2
  -1   8  14 496.973 20.2778   4
  -1   8  14 482.881 33.4111   6
  -1   8  14 577.723 30.1236   5
   0  -8 -14 11.3372 6.67540   6
   0   8  14 13.7095 8.26414   5
   0   8  14 15.3439 5.83677   4
   0   8  14 -6.9270 8.86135   2
   0   8  14 9.57393 8.03348   6
  -1  -8 -14 37.9833 8.03237   6
  -1  -8 -14 28.8579 7.45281   6
   1   8  14 38.3529 10.9536   2
   1   8  14 19.4609 7.98543   5
   1   8  14 29.0853 8.00440   4
   1   8  14 41.3452 8.86601   6
  -2  -8 -14 773.304 23.5297   6
  -2  -8 -14 817.298 24.4814   6
   2   8  14 772.624 31.5290   6
   2   8  14 766.156 28.4013   4
   2   8  14 804.383 33.3398   5
   2   8  14 817.895 37.7693   2
  -3  -8 -14 101.506 9.72497   6
  -3  -8 -14 107.500 14.4431   5
  -3  -8 -14 104.158 9.33560   6
   3   8  14 102.509 14.5727   6
   3   8  14 105.604 12.4402   4
   3   8  14 107.780 21.6550   2
   3   8  14 77.7776 13.6994   5
  -4  -8 -14 215.019 18.6898   5
   4   8  14 202.700 23.2738   2
   4   8  14 200.721 18.0281   6
   1   9  14 -0.5968 8.65617   2
   1   9  14 -5.3637 8.90211   5
   1   9  14 3.34878 5.59736   4
   1   9  14 -6.2853 6.92943   6
   2   9  14 669.518 26.0211   4
   2   9  14 632.677 33.3082   2
   2   9  14 696.764 30.3562   6
   2   9  14 697.589 31.4392   5
   0   2 -15 255.294 21.8382   3
   0   2 -15 257.186 20.1081   4
   0  -2  15 275.073 16.6281   1
   0  -2  15 269.883 17.2919   6
  -1   2 -15 302.570 27.5509   3
  -1   2 -15 269.589 15.1777   2
  -1   2 -15 278.198 20.1797   6
  -1   2 -15 276.373 21.9559   4
   1  -2  15 287.331 17.5771   6
   1  -2  15 311.677 18.9214   6
   1  -2  15 255.069 14.9218   1
  -2   2 -15 4.35171 7.13055   2
  -2   2 -15 24.3793 10.6285   4
  -2   2 -15 15.0347 8.18349   6
  -2   2 -15 14.5150 10.0334   3
   2  -2  15 27.4652 6.72602   1
   2  -2  15 20.7956 9.09304   6
   2  -2  15 31.5293 9.08087   6
  -3   2 -15 67.2047 15.2201   3
  -3   2 -15 104.894 14.6460   6
  -3   2 -15 108.253 16.7024   4
  -3   2 -15 96.3151 13.3494   2
   3  -2  15 102.669 9.30181   1
   3  -2  15 81.4818 12.6531   6
   3  -2  15 90.3190 9.72021   1
   1   1 -15 100.139 16.9423   3
   1   1 -15 100.884 13.5936   6
   1   1 -15 107.757 14.0481   4
  -1  -1  15 126.429 15.5112   1
  -1  -1  15 121.746 14.1300   6
  -1  -1  15 149.660 14.1029   6
   0   1 -15 513.091 33.1133   4
   0   1 -15 684.563 35.2909   6
   0   1 -15 565.552 29.0679   3
   0  -1  15 554.596 24.6780   6
   0  -1  15 539.676 23.7793   6
  -1   1 -15 307.715 20.2843   6
  -1   1 -15 268.549 21.5986   3
  -1   1 -15 294.649 22.4774   4
  -1   1 -15 310.685 16.4401   2
   1  -1  15 278.066 16.8307   2
   1  -1  15 270.078 17.8109   6
   1  -1  15 270.280 16.8463   1
   1  -1  15 308.751 19.0157   6
  -2   1 -15 87.4300 16.1029   4
  -2   1 -15 80.1848 11.8623   6
  -2   1 -15 93.8954 12.3069   2
  -2   1 -15 70.4818 12.8362   3
   2  -1  15 100.305 10.4055   1
   2  -1  15 73.5910 11.6235   2
   2  -1  15 65.6510 10.2946   6
   2  -1  15 69.2878 11.3091   6
  -3   1 -15 412.687 36.5271   6
  -3   1 -15 442.117 27.2511   3
  -3   1 -15 456.262 26.8044   2
  -3   1 -15 450.286 40.5742   4
   3  -1  15 486.567 24.4759   6
   3  -1  15 470.769 20.4100   1
   3  -1  15 451.335 24.0804   2
   3  -1  15 473.177 19.4649   1
  -4   1 -15 180.549 18.6417   6
  -4   1 -15 154.314 18.2930   3
  -4   1 -15 229.395 21.3032   4
   4  -1  15 211.142 14.0556   1
   4  -1  15 233.294 18.4575   6
   4  -1  15 210.870 13.8398   1
   4  -1  15 220.913 18.7815   2
   2   0 -15 3.43044 7.46280   3
   2   0 -15 9.21407 7.71204   6
   2   0 -15 -1.4849 7.94388   4
  -2   0  15 -2.0147 6.83229   6
  -2   0  15 -8.9824 11.2365   1
   1   0 -15 135.878 17.2576   4
   1   0 -15 232.964 29.0642   6
   1   0 -15 185.057 17.7332   3
  -1   0  15 185.184 16.2785   6
  -1   0  15 168.478 17.1726   1
  -1   0  15 182.455 15.0357   6
   0   0 -15 127.108 14.9678   4
   0   0 -15 151.000 15.9501   6
   0   0 -15 132.537 16.1354   3
   0   0  15 135.517 15.2198   1
   0   0  15 155.752 12.5356   2
   0   0  15 145.315 14.1176   6
   0   0  15 148.142 15.4908   6
  -1   0 -15 207.909 18.3946   3
  -1   0 -15 237.604 15.2115   2
  -1   0 -15 254.514 17.7581   6
  -1   0 -15 194.878 17.9679   4
   1   0  15 278.588 18.2666   6
   1   0  15 204.266 15.4260   2
   1   0  15 212.798 15.2457   6
  -2   0 -15 49.9997 11.4962   3
  -2   0 -15 63.9758 11.1827   6
  -2   0 -15 32.4406 10.6929   4
  -2   0 -15 62.6339 10.0213   2
   2   0  15 66.1087 11.0350   6
   2   0  15 44.1379 9.09583   1
   2   0  15 49.7522 10.4813   6
  -3   0 -15 535.533 29.3108   4
  -3   0 -15 505.186 29.8314   2
  -3   0 -15 562.370 27.7895   6
  -3   0 -15 526.684 28.5556   3
   3   0  15 535.183 26.2716   6
   3   0  15 564.351 23.7491   1
   3   0  15 559.354 25.8953   2
  -4   0 -15 365.461 24.2404   3
  -4   0 -15 345.522 27.1139   2
   4   0  15 371.061 20.1231   1
   4   0  15 395.032 20.8392   1
   4   0  15 373.707 22.7831   6
   4   0  15 386.380 23.7750   2
  -5   0 -15 162.599 18.0796   6
  -5   0 -15 207.310 21.2754   3
   5   0  15 169.708 15.5721   1
   5   0  15 122.896 19.4262   6
   5   0  15 151.296 17.2461   2
   2  -1 -15 15.4662 8.97285   4
   2  -1 -15 13.2980 7.34972   6
  -2   1  15 13.8015 7.55698   6
   1  -1 -15 330.014 20.0287   6
   1  -1 -15 392.430 22.7325   4
   1  -1 -15 366.930 22.3249   3
  -1   1  15 313.728 21.2384   1
  -1   1  15 338.273 20.3679   6
  -1   1  15 342.733 16.8652   2
   0  -1 -15 119.102 14.1372   6
   0  -1 -15 136.245 16.7174   4
   0  -1 -15 117.418 14.4598   3
   0   1  15 123.308 14.4067   6
   0   1  15 119.628 14.9674   1
   0   1  15 155.373 15.5430   6
   0   1  15 123.900 13.1822   2
  -1  -1 -15 266.707 19.9976   4
  -1  -1 -15 240.050 17.3323   6
  -1  -1 -15 280.543 17.6580   2
  -1  -1 -15 269.428 19.3453   3
   1   1  15 257.447 17.1746   6
   1   1  15 262.202 18.1988   1
   1   1  15 277.876 16.8441   2
   1   1  15 261.702 18.1722   6
  -2  -1 -15 214.027 16.7546   2
  -2  -1 -15 216.009 17.0982   6
  -2  -1 -15 192.558 17.0165   3
  -2  -1 -15 247.368 20.0872   4
   2   1  15 225.985 20.4827   1
   2   1  15 225.651 17.0670   6
   2   1  15 197.706 16.3695   2
  -3  -1 -15 255.448 18.7072   2
  -3  -1 -15 226.239 18.5714   6
  -3  -1 -15 252.500 19.3528   3
  -3  -1 -15 257.598 20.4156   4
   3   1  15 238.132 18.2702   2
   3   1  15 309.589 20.5972   6
  -4  -1 -15 427.694 24.8644   3
  -4  -1 -15 428.805 28.5896   2
  -4  -1 -15 415.902 24.6390   6
   4   1  15 441.874 24.5824   2
   4   1  15 446.057 24.1688   1
   4   1  15 405.044 24.3587   6
  -5  -1 -15 6.23930 9.39867   3
  -5  -1 -15 2.36593 10.5923   6
   5   1  15 2.83895 8.11379   1
   5   1  15 16.2349 8.22280   2
   2  -2 -15 65.6078 16.2462   6
   2  -2 -15 43.5122 11.0676   4
  -2   2  15 47.1789 10.6978   6
  -2   2  15 53.2022 9.05239   2
   1  -2 -15 369.760 20.9782   6
   1  -2 -15 406.197 22.6210   4
   1  -2 -15 348.332 21.6479   3
  -1   2  15 349.983 18.3889   2
  -1   2  15 338.272 21.8366   1
  -1   2  15 328.468 20.5759   6
   0  -2 -15 15.4149 7.84990   3
   0  -2 -15 24.1070 8.44941   6
   0  -2 -15 26.6586 9.68439   4
   0   2  15 20.6212 8.69385   6
   0   2  15 19.6251 7.81681   1
   0   2  15 18.3797 7.31830   2
  -1  -2 -15 -1.7436 12.4663   3
  -1  -2 -15 13.0866 7.46866   6
  -1  -2 -15 18.8739 8.00371   2
  -1  -2 -15 11.9680 9.07026   4
   1   2  15 10.6423 8.26538   2
   1   2  15 6.76266 7.27443   6
   1   2  15 10.9258 6.59073   1
  -2  -2 -15 40.6961 9.19803   3
  -2  -2 -15 14.7341 7.93080   2
  -2  -2 -15 31.8451 9.79580   4
  -2  -2 -15 28.6396 8.93190   6
   2   2  15 39.1518 9.91034   2
   2   2  15 37.7598 9.61275   6
   2   2  15 39.8697 8.60606   1
  -3  -2 -15 206.817 17.9419   6
  -3  -2 -15 194.379 15.8227   3
  -3  -2 -15 186.990 18.1293   4
  -3  -2 -15 194.544 17.8776   2
   3   2  15 189.617 16.9580   6
   3   2  15 207.808 17.4450   2
  -4  -2 -15 266.264 20.1663   6
  -4  -2 -15 238.608 18.4069   3
   4   2  15 231.172 19.3209   2
   4   2  15 264.783 19.5131   6
  -5  -2 -15 10.5860 9.22834   3
  -5  -2 -15 -0.7237 8.70003   6
   5   2  15 -1.9574 9.43036   2
   5   2  15 0.39065 7.21353   1
   2  -3 -15 98.0421 14.7724   4
   2  -3 -15 152.494 23.5143   6
  -2   3  15 96.7896 14.0364   6
  -2   3  15 99.3381 11.7855   2
   1  -3 -15 87.4157 12.6197   4
   1  -3 -15 96.1640 12.9427   6
  -1   3  15 84.6615 15.6226   4
  -1   3  15 99.0016 12.9575   2
  -1   3  15 98.6901 13.9435   6
   0  -3 -15 207.159 17.0026   4
   0  -3 -15 211.474 15.8493   3
   0  -3 -15 235.480 17.1394   6
   0   3  15 206.212 16.6740   4
   0   3  15 188.263 17.5483   1
   0   3  15 218.491 17.1112   6
  -1  -3 -15 41.1893 9.05214   4
  -1  -3 -15 37.8385 9.13317   3
  -1  -3 -15 23.3575 8.69322   6
  -1  -3 -15 63.5955 16.0957   6
   1   3  15 30.6746 9.17609   6
   1   3  15 43.5966 9.11110   4
   1   3  15 25.0616 7.85779   2
   1   3  15 22.4095 8.29964   1
  -2  -3 -15 24.8087 11.0089   5
  -2  -3 -15 22.2582 8.26352   6
  -2  -3 -15 31.5039 8.68900   3
  -2  -3 -15 22.6737 9.89431   6
  -2  -3 -15 11.5786 8.62610   4
   2   3  15 25.2081 8.45167   2
   2   3  15 25.2961 9.17108   4
   2   3  15 28.3484 17.9113   1
   2   3  15 26.9520 7.68245   6
  -3  -3 -15 9.55967 6.94281   3
  -3  -3 -15 17.0103 8.49739   2
  -3  -3 -15 7.19005 7.46820   6
  -3  -3 -15 16.8321 12.5039   6
  -3  -3 -15 -0.1254 8.02789   5
   3   3  15 7.63021 7.39345   2
   3   3  15 10.0929 7.85513   6
  -4  -3 -15 92.9137 12.8581   5
  -4  -3 -15 102.570 13.9989   6
  -4  -3 -15 102.562 12.2721   3
   4   3  15 93.6261 13.9625   2
   4   3  15 79.7429 13.1597   6
  -5  -3 -15 103.125 12.5973   3
  -5  -3 -15 101.807 14.5071   5
  -5  -3 -15 86.3408 13.2978   6
   5   3  15 78.4764 14.5886   2
   5   3  15 102.310 15.3950   1
   2  -4 -15 56.9529 11.1806   6
   2  -4 -15 77.7129 12.6194   4
  -2   4  15 83.7087 12.2677   2
  -2   4  15 92.2264 20.9346   6
  -2   4  15 48.1326 12.2640   4
   1  -4 -15 34.0935 9.01388   6
   1  -4 -15 49.3135 9.77534   4
  -1   4  15 34.5444 9.71371   6
  -1   4  15 33.2780 9.19548   2
  -1   4  15 32.4747 8.06036   4
  -1   4  15 36.3256 11.1106   5
   0  -4 -15 393.284 19.7040   3
   0  -4 -15 402.832 21.6424   6
   0  -4 -15 383.949 21.1660   4
   0   4  15 420.963 24.8377   1
   0   4  15 404.911 22.9300   6
   0   4  15 378.784 20.9387   4
   0   4  15 397.001 22.2111   2
  -1  -4 -15 190.587 16.3204   6
  -1  -4 -15 185.110 15.5502   6
  -1  -4 -15 183.731 16.7814   4
  -1  -4 -15 190.591 14.4022   3
   1   4  15 186.434 17.5227   1
   1   4  15 167.136 16.0083   2
   1   4  15 190.367 15.7151   4
   1   4  15 204.064 16.7637   6
  -2  -4 -15 -2.4308 7.00243   6
  -2  -4 -15 18.1001 8.63795   2
  -2  -4 -15 -0.6184 7.03711   4
  -2  -4 -15 3.42631 6.16845   3
  -2  -4 -15 8.82089 7.25241   6
  -2  -4 -15 2.15947 7.40441   5
   2   4  15 16.5351 8.55087   4
   2   4  15 11.2469 8.02480   6
   2   4  15 6.84373 7.43049   2
  -3  -4 -15 144.966 15.2321   6
  -3  -4 -15 122.517 14.4197   6
  -3  -4 -15 133.306 12.1079   3
  -3  -4 -15 118.081 15.2423   5
  -3  -4 -15 133.454 17.2564   2
   3   4  15 122.112 15.2813   2
   3   4  15 120.036 15.2103   6
  -4  -4 -15 15.8555 9.69510   5
  -4  -4 -15 31.1298 9.28282   6
  -4  -4 -15 30.7740 9.48026   6
   4   4  15 4.73298 7.07856   6
   4   4  15 26.2087 8.74951   2
  -5  -4 -15 122.800 11.8371   3
  -5  -4 -15 128.452 15.5267   5
  -5  -4 -15 104.375 13.6592   6
   5   4  15 103.085 17.8467   6
   5   4  15 94.5890 16.3226   2
   5   4  15 110.953 17.7930   1
   2  -5 -15 7.77120 9.08142   3
   2  -5 -15 -0.5747 7.42843   6
   2  -5 -15 1.47208 7.64049   4
  -2   5  15 5.91996 6.98056   4
  -2   5  15 2.45494 6.55649   6
  -2   5  15 11.6999 8.64335   5
  -2   5  15 0.15175 8.19846   2
   1  -5 -15 71.4243 11.2109   6
   1  -5 -15 51.5189 10.0641   4
   1  -5 -15 62.0133 10.6315   3
  -1   5  15 59.7562 10.2440   4
  -1   5  15 49.9341 11.3855   5
  -1   5  15 72.1028 11.9392   6
  -1   5  15 59.5741 11.7409   2
   0  -5 -15 664.438 27.8833   4
   0  -5 -15 653.976 27.5599   6
   0  -5 -15 681.934 24.8160   3
   0  -5 -15 693.788 25.1554   3
   0  -5 -15 717.585 28.3481   6
   0   5  15 673.221 27.1961   4
   0   5  15 739.301 30.9471   6
   0   5  15 691.974 30.0682   2
   0   5  15 709.474 32.6220   5
  -1  -5 -15 362.827 20.1671   6
  -1  -5 -15 372.140 21.0041   4
  -1  -5 -15 333.885 19.8054   6
  -1  -5 -15 371.478 17.0463   3
   1   5  15 367.466 21.3094   6
   1   5  15 320.498 19.2399   4
   1   5  15 382.389 22.8309   2
  -2  -5 -15 159.680 15.0719   6
  -2  -5 -15 134.933 16.1003   5
  -2  -5 -15 100.363 12.5177   6
  -2  -5 -15 113.687 15.3833   2
   2   5  15 128.723 16.3818   2
   2   5  15 107.719 14.2923   6
   2   5  15 128.843 14.8098   4
  -3  -5 -15 282.930 18.5655   6
  -3  -5 -15 274.733 18.2958   6
  -3  -5 -15 248.867 19.0623   5
   3   5  15 267.448 21.0273   2
   3   5  15 269.939 19.3953   6
  -4  -5 -15 397.913 21.6384   6
  -4  -5 -15 407.016 21.8095   6
  -4  -5 -15 403.725 23.4385   5
   4   5  15 425.583 26.1745   2
   4   5  15 427.487 24.6205   6
  -5  -5 -15 293.416 18.6440   6
  -5  -5 -15 253.205 20.1866   5
   5   5  15 290.670 22.2863   6
   5   5  15 253.853 22.9457   1
   5   5  15 259.904 23.2686   2
   2  -6 -15 10.4055 7.48915   6
   2  -6 -15 5.45823 7.23422   4
   2  -6 -15 8.32905 9.86763   3
  -2   6  15 -0.4063 7.58598   5
  -2   6  15 4.97358 7.13577   2
  -2   6  15 -7.8024 7.44111   6
  -2   6  15 3.81176 6.93498   4
   1  -6 -15 449.934 22.5804   6
   1  -6 -15 427.759 22.0630   4
   1  -6 -15 434.878 20.2262   3
  -1   6  15 425.644 24.9907   2
   0  -6 -15 240.009 13.8629   3
   0  -6 -15 184.934 16.3426   6
   0  -6 -15 228.120 16.8183   6
   0  -6 -15 245.261 16.8350   4
   0   6  15 250.723 20.7269   5
   0   6  15 195.658 18.7534   2
   0   6  15 219.766 18.1748   6
  -1  -6 -15 264.753 17.4277   6
  -1  -6 -15 228.042 16.6904   6
   1   6  15 313.588 18.0817   4
   1   6  15 275.108 21.0461   2
   1   6  15 301.578 20.0748   6
   1   6  15 251.245 20.2873   5
  -2  -6 -15 65.8479 11.0399   6
  -2  -6 -15 65.0240 12.5400   6
   2   6  15 75.3746 10.9784   4
   2   6  15 77.3783 12.0881   6
   2   6  15 54.6848 12.4350   2
  -3  -6 -15 755.826 27.6784   6
  -3  -6 -15 766.797 31.9522   5
  -3  -6 -15 650.334 37.1435   6
   3   6  15 690.846 41.6932   4
   3   6  15 703.390 33.3719   2
   3   6  15 772.898 31.9419   6
  -4  -6 -15 401.902 24.1652   5
  -4  -6 -15 471.844 22.2985   6
   4   6  15 500.663 42.5360   2
   4   6  15 500.759 27.2409   6
  -5  -6 -15 307.936 22.2474   6
  -5  -6 -15 297.269 21.2522   5
  -5  -6 -15 320.202 18.9457   6
   5   6  15 332.892 23.3475   6
   5   6  15 305.735 25.0319   1
   5   6  15 316.731 24.6105   2
   1  -7 -15 429.729 21.7219   6
  -1   7  15 405.172 20.0815   4
  -1   7  15 425.610 24.3604   6
  -1   7  15 467.005 27.7832   5
  -1   7  15 499.411 28.0190   2
   0  -7 -15 41.6858 9.06403   6
   0  -7 -15 38.3125 8.43790   6
   0   7  15 50.2092 15.8225   5
   0   7  15 26.5015 8.09326   4
   0   7  15 34.7031 11.3868   2
  -1  -7 -15 231.638 16.3016   6
  -1  -7 -15 229.033 20.1103   6
   1   7  15 248.861 19.6050   6
   1   7  15 252.249 27.2863   4
   1   7  15 227.494 20.5385   2
   1   7  15 209.526 19.5174   5
  -2  -7 -15 153.922 13.9826   6
  -2  -7 -15 111.414 12.0378   6
   2   7  15 146.709 17.3796   5
   2   7  15 114.516 13.0288   4
   2   7  15 113.951 13.8488   6
   2   7  15 101.595 14.7284   2
  -3  -7 -15 152.627 13.6782   6
  -3  -7 -15 167.323 14.9564   6
   3   7  15 184.812 17.3385   6
  -4  -7 -15 672.668 30.0962   5
  -4  -7 -15 674.567 26.6227   6
   4   7  15 538.791 42.3101   6
   4   7  15 686.906 34.3773   2
  -1  -8 -15 56.8680 9.22866   6
  -1  -8 -15 54.0156 15.0002   6
   1   8  15 56.7664 13.0329   2
   1   8  15 61.5233 14.6742   6
   1   8  15 45.4377 9.49124   4
   1   8  15 89.1460 19.2776   5
  -2  -8 -15 233.642 15.0599   6
   2   8  15 227.829 16.9109   4
   2   8  15 265.324 20.2053   5
   2   8  15 226.971 21.8832   2
   0   0 -16 447.382 26.3448   3
   0   0 -16 372.560 24.1139   4
   0   0 -16 440.645 24.3299   6
   0   0  16 496.988 24.4688   6
   0   0  16 426.571 27.9152   1
  -1   0 -16 145.366 17.9098   4
  -1   0 -16 168.827 17.9975   3
  -1   0 -16 158.901 17.3524   6
  -1   0 -16 134.178 13.7774   2
   1   0  16 139.822 15.9562   6
   1   0  16 126.315 14.4219   1
   1   0  16 135.433 13.6047   2
  -2   0 -16 125.013 15.9071   4
  -2   0 -16 108.729 14.8329   6
  -2   0 -16 125.592 16.5272   3
  -2   0 -16 144.772 15.2587   2
   2   0  16 125.732 16.4155   1
   2   0  16 125.610 14.4546   6
   2   0  16 153.301 15.3254   2
  -3   0 -16 131.236 18.0972   4
  -3   0 -16 123.307 15.4997   2
  -3   0 -16 151.071 18.8024   3
  -3   0 -16 103.487 14.5490   6
   3   0  16 118.074 15.3575   2
   3   0  16 147.074 16.5584   6
   1  -1 -16 38.9720 10.9959   3
   1  -1 -16 23.2113 10.2567   4
   1  -1 -16 25.4178 8.97380   6
  -1   1  16 23.5794 9.22603   6
   0  -1 -16 317.316 20.8755   6
   0  -1 -16 317.236 21.5166   3
   0  -1 -16 296.274 35.4671   4
   0   1  16 316.796 19.6713   6
   0   1  16 257.225 18.7496   1
   0   1  16 298.858 17.3841   2
  -1  -1 -16 274.788 20.0109   3
  -1  -1 -16 307.692 25.3074   4
  -1  -1 -16 279.491 18.5090   2
   1   1  16 309.678 20.6461   6
  -2  -1 -16 12.0940 8.53347   3
  -2  -1 -16 10.5379 14.5943   4
   2   1  16 5.59060 7.69735   6
   2   1  16 10.4720 7.64546   1
   2   1  16 6.78483 7.56494   2
  -3  -1 -16 80.7853 14.1992   4
  -3  -1 -16 105.270 16.4989   6
  -3  -1 -16 74.2991 13.0140   2
  -3  -1 -16 65.4677 13.0166   3
   3   1  16 88.9262 13.3988   6
   3   1  16 75.5677 11.6362   1
   3   1  16 88.1379 13.4483   2
  -4  -1 -16 31.3669 10.8095   6
  -4  -1 -16 20.5448 10.7616   3
   4   1  16 31.0729 10.5148   1
   4   1  16 38.5748 11.0230   6
   4   1  16 28.9666 9.73568   1
   4   1  16 44.0989 10.4373   2
   1  -2 -16 36.9731 11.2434   4
   1  -2 -16 51.3576 10.4408   6
   1  -2 -16 59.4319 13.1996   3
  -1   2  16 41.9008 9.40714   2
  -1   2  16 54.2895 11.1599   6
   0  -2 -16 17.4811 8.68658   3
   0  -2 -16 36.9912 11.4345   4
   0   2  16 34.1733 10.3020   1
   0   2  16 32.2443 9.98093   6
  -1  -2 -16 50.7517 10.7685   6
  -1  -2 -16 46.3654 12.2855   4
  -1  -2 -16 68.8438 11.9121   3
   1   2  16 50.8366 10.8321   6
   1   2  16 45.8313 10.1080   2
   1   2  16 53.4523 12.2400   1
  -2  -2 -16 97.7875 13.2664   6
  -2  -2 -16 105.968 14.3158   3
  -2  -2 -16 58.8780 11.8379   2
  -2  -2 -16 98.8481 14.4921   4
   2   2  16 71.2153 11.8788   2
   2   2  16 61.7248 12.2488   1
   2   2  16 70.8879 12.4780   6
  -3  -2 -16 88.6162 14.5792   6
  -3  -2 -16 103.498 15.9729   4
  -3  -2 -16 70.9865 12.7934   2
  -3  -2 -16 103.079 14.2639   3
   3   2  16 116.395 15.5097   1
   3   2  16 107.746 14.7722   6
   3   2  16 105.425 14.7240   2
  -4  -2 -16 203.786 17.8668   3
  -4  -2 -16 163.673 28.3863   6
   4   2  16 226.489 19.5080   6
   4   2  16 184.597 17.3049   2
   1  -3 -16 29.4640 9.21810   3
   1  -3 -16 35.9325 10.1043   4
   1  -3 -16 55.4173 10.8972   6
  -1   3  16 40.4132 8.72135   2
   0  -3 -16 3.76195 7.61532   6
   0  -3 -16 2.06572 8.22605   4
   0  -3 -16 1.39668 6.46123   3
   0   3  16 9.95058 7.67008   2
   0   3  16 12.2645 7.14897   6
  -1  -3 -16 110.040 15.4979   4
  -1  -3 -16 107.803 16.3760   3
  -1  -3 -16 103.112 14.0882   6
   1   3  16 92.5180 13.0770   6
   1   3  16 111.021 14.3980   2
   1   3  16 93.2120 13.7237   1
  -2  -3 -16 324.782 21.0713   6
  -2  -3 -16 333.516 19.9277   3
  -2  -3 -16 298.863 21.2326   2
  -2  -3 -16 326.309 22.7824   4
   2   3  16 346.148 21.6155   2
   2   3  16 337.870 21.7806   6
   2   3  16 322.593 21.2357   1
  -3  -3 -16 0.97048 7.90115   6
  -3  -3 -16 -2.0450 6.93359   3
   3   3  16 12.6757 8.47030   6
   3   3  16 8.61895 8.23858   2
  -4  -3 -16 81.6922 12.1174   3
  -4  -3 -16 55.7538 11.8275   6
   4   3  16 61.3631 13.1648   2
   4   3  16 59.7798 12.2749   6
   1  -4 -16 28.6423 8.93526   4
   1  -4 -16 48.6399 17.5313   6
   1  -4 -16 27.9464 8.92745   3
  -1   4  16 26.3272 9.61769   6
  -1   4  16 42.3535 10.8527   2
   0  -4 -16 293.873 19.3463   6
   0  -4 -16 232.220 16.6896   3
   0  -4 -16 217.292 17.9927   4
   0   4  16 231.750 22.3847   6
   0   4  16 255.557 19.0638   2
  -1  -4 -16 26.9984 8.91625   3
  -1  -4 -16 35.9516 10.2382   6
  -1  -4 -16 24.6361 8.79946   4
   1   4  16 12.8396 8.68631   6
   1   4  16 45.3462 10.3687   2
  -2  -4 -16 660.636 28.7018   6
  -2  -4 -16 691.468 30.5311   4
  -2  -4 -16 608.948 24.2235   3
   2   4  16 658.287 29.8483   2
   2   4  16 646.358 29.6428   6
  -3  -4 -16 20.2953 7.69863   3
  -3  -4 -16 24.8823 8.91613   6
   3   4  16 0.72944 7.97403   6
   3   4  16 13.4089 9.68452   2
  -4  -4 -16 7.82548 7.40083   6
  -4  -4 -16 6.26045 6.95524   3
   4   4  16 11.9521 7.99307   6
   4   4  16 25.2153 11.0174   2
   1  -5 -16 154.365 23.9166   6
   1  -5 -16 113.605 14.0398   3
   1  -5 -16 108.399 13.4851   4
   1  -5 -16 128.978 15.6353   3
  -1   5  16 117.587 15.1730   2
  -1   5  16 115.813 15.5719   6
  -1   5  16 123.217 16.5337   5
   0  -5 -16 483.632 21.7131   3
   0  -5 -16 519.640 24.7164   6
   0  -5 -16 557.793 26.0301   4
   0  -5 -16 531.248 22.6528   3
   0   5  16 534.842 26.7985   2
   0   5  16 535.198 27.5415   6
  -1  -5 -16 190.056 13.7897   3
  -1  -5 -16 196.961 16.5917   6
  -1  -5 -16 210.911 17.4191   4
   1   5  16 195.677 20.1981   2
  -2  -5 -16 411.814 22.6290   6
   2   5  16 501.009 38.0182   6
   2   5  16 446.794 26.0073   2
  -3  -5 -16 178.426 16.9832   6
   3   5  16 194.646 18.9731   2
   3   5  16 155.648 27.9027   6
  -4  -5 -16 -1.5972 8.39253   6
   4   5  16 -3.0504 7.41367   6
   4   5  16 -13.164 9.23768   2
   0  -6 -16 389.512 21.4382   6
   0  -6 -16 381.081 21.7228   4
   0  -6 -16 387.440 18.1024   3
   0   6  16 373.015 20.7401   4
   0   6  16 390.029 23.7650   6
   0   6  16 396.137 24.9548   2
   0   6  16 411.945 26.5499   5
  -1  -6 -16 106.170 12.7326   6
   1   6  16 110.269 15.7374   4
   1   6  16 121.198 15.1426   6
   1   6  16 126.082 16.4626   2
   1   6  16 110.600 21.3585   5
  -2  -6 -16 229.384 17.3461   6
  -2  -6 -16 196.250 17.0947   6
   2   6  16 216.722 18.8673   6
   2   6  16 200.717 20.2315   2
  -3  -6 -16 198.150 16.7637   6
  -3  -6 -16 208.621 17.4641   6
   3   6  16 207.618 18.9841   6
  -1  -7 -16 437.628 22.0499   6
  -2  -7 -16 29.9403 9.47710   6
  -2  -7 -16 23.0538 9.37862   6
   2   7  16 44.0532 13.0514   2
  -1  -3 -17 63.1175 11.8642   6
  -1  -3 -17 68.4709 13.7045   4
  -1  -3 -17 73.0632 13.0239   3
   1   3  17 62.6772 11.9561   2
   1   3  17 64.3874 12.4500   6
  -2  -3 -17 405.248 22.4714   3
  -2  -3 -17 371.165 25.0547   4
  -2  -3 -17 361.321 22.6280   6
   2   3  17 362.396 22.9559   2
   2   3  17 387.471 24.0335   6
  -1  -4 -17 22.3758 8.50274   3
  -1  -4 -17 13.6087 9.80297   4
  -1  -4 -17 11.3823 8.43628   6
   1   4  17 2.38396 8.59874   6
   1   4  17 19.4986 8.70303   2
  -2  -4 -17 901.451 31.1583   3
   2   4  17 968.697 37.8071   6
   2   4  17 924.985 36.8451   2
   0   0   0    0.00    0.00   0

 _exptl_absorpt_process_details
)
 SADABS 2016/2: Krause, L., Herbst-Irmer, R., Sheldrick G.M. & Stalke D.,
 J. Appl. Cryst. 48 (2015) 3-10
)
 _exptl_absorpt_correction_type   multi-scan
 _exptl_absorpt_correction_T_max  0.7456
 _exptl_absorpt_correction_T_min  0.6033
 _exptl_special_details
)
 The following wavelength and cell were deduced by SADABS from the
 direction cosines etc. They are given here for emergency use only:
 CELL 0.71048    7.132    8.830   13.187   72.929   79.397   87.170
)
;
_shelx_hkl_checksum              49873
_olex2_submission_special_instructions 'No special instructions were received'
loop_
_space_group_symop_operation_xyz
'x, y, z'
'-x, -y, -z'
loop_
_atom_site_label
_atom_site_type_symbol
_atom_site_fract_x
_atom_site_fract_y
_atom_site_fract_z
_atom_site_U_iso_or_equiv
_atom_site_adp_type
_atom_site_occupancy
_atom_site_site_symmetry_order
_atom_site_calc_flag
_atom_site_refinement_flags_posn
_atom_site_refinement_flags_adp
_atom_site_refinement_flags_occupancy
_atom_site_disorder_assembly
_atom_site_disorder_group
Br2 Br 0.32759(3) 0.92080(2) 0.45559(2) 0.01770(5) Uani 1 1 d . . . . .
Br1 Br 0.93522(3) 1.08664(2) 0.27810(2) 0.02040(5) Uani 1 1 d . . . . .
Ni1 Ni 0.68100(3) 0.92686(3) 0.40659(2) 0.01488(5) Uani 1 1 d . . . . .
N1 N 0.6641(2) 0.76119(17) 0.32234(11) 0.0148(3) Uani 1 1 d . . . . .
N2 N 0.7680(2) 0.73317(17) 0.50714(12) 0.0160(3) Uani 1 1 d . . . . .
N3 N 0.8000(2) 0.69237(17) 0.60917(12) 0.0161(3) Uani 1 1 d . . . . .
H3 H 0.815485 0.760402 0.644157 0.019 Uiso 1 1 calc R U . . .
C6 C 0.7079(2) 0.6121(2) 0.37746(14) 0.0142(3) Uani 1 1 d . . . . .
C7 C 0.7516(2) 0.5980(2) 0.48387(14) 0.0138(3) Uani 1 1 d . . . . .
C10 C 0.8275(2) 0.4542(2) 0.76294(14) 0.0160(3) Uani 1 1 d . . . . .
C11 C 0.8739(3) 0.2935(2) 0.79252(15) 0.0189(4) Uani 1 1 d . . . . .
H11 H 0.894621 0.237604 0.739967 0.023 Uiso 1 1 calc R U . . .
C2 C 0.6167(3) 0.7858(2) 0.22445(14) 0.0178(4) Uani 1 1 d . . . . .
C9 C 0.8053(2) 0.5322(2) 0.65110(14) 0.0144(3) Uani 1 1 d . . . . .
C8 C 0.7753(2) 0.4684(2) 0.57144(14) 0.0145(3) Uani 1 1 d . . . . .
H8 H 0.771659 0.359347 0.575433 0.017 Uiso 1 1 calc R U . . .
C5 C 0.7115(2) 0.4845(2) 0.33635(14) 0.0175(4) Uani 1 1 d . . . . .
H5 H 0.742568 0.381361 0.376970 0.021 Uiso 1 1 calc R U . . .
C15 C 0.7969(3) 0.5347(2) 0.84066(15) 0.0214(4) Uani 1 1 d . . . . .
H15 H 0.764420 0.643873 0.821491 0.026 Uiso 1 1 calc R U . . .
C3 C 0.6193(3) 0.6621(2) 0.17860(14) 0.0204(4) Uani 1 1 d . . . . .
H3A H 0.587333 0.681470 0.109100 0.024 Uiso 1 1 calc R U . . .
C4 C 0.6684(3) 0.5115(2) 0.23411(15) 0.0203(4) Uani 1 1 d . . . . .
H4 H 0.672697 0.427100 0.202679 0.024 Uiso 1 1 calc R U . . .
C1 C 0.5571(3) 0.9495(2) 0.16802(16) 0.0255(4) Uani 1 1 d . . . . .
H1A H 0.432764 0.973327 0.205836 0.038 Uiso 1 1 calc R U . . .
H1B H 0.547802 0.955874 0.093667 0.038 Uiso 1 1 calc R U . . .
H1C H 0.651773 1.026450 0.167658 0.038 Uiso 1 1 calc R U . . .
C13 C 0.8601(3) 0.2965(3) 0.97538(16) 0.0303(5) Uani 1 1 d . . . . .
H13 H 0.871558 0.242975 1.047834 0.036 Uiso 1 1 calc R U . . .
C12 C 0.8897(3) 0.2155(2) 0.89828(16) 0.0260(4) Uani 1 1 d . . . . .
H12 H 0.921032 0.106141 0.918066 0.031 Uiso 1 1 calc R U . . .
C14 C 0.8139(3) 0.4553(3) 0.94633(16) 0.0284(4) Uani 1 1 d . . . . .
H14 H 0.793528 0.510700 0.999162 0.034 Uiso 1 1 calc R U . . .
loop_
_atom_site_aniso_label
_atom_site_aniso_U_11
_atom_site_aniso_U_22
_atom_site_aniso_U_33
_atom_site_aniso_U_23
_atom_site_aniso_U_13
_atom_site_aniso_U_12
Br2 0.02062(9) 0.01427(9) 0.02198(9) -0.00919(7) -0.00679(7) -0.00003(6)
Br1 0.02471(10) 0.01824(9) 0.01813(9) -0.00382(7) -0.00418(7) -0.00633(7)
Ni1 0.01991(12) 0.01044(10) 0.01523(11) -0.00340(8) -0.00584(9) -0.00047(8)
N1 0.0165(7) 0.0147(7) 0.0134(7) -0.0040(6) -0.0031(6) -0.0016(6)
N2 0.0228(8) 0.0128(7) 0.0145(7) -0.0052(6) -0.0070(6) 0.0012(6)
N3 0.0233(8) 0.0137(7) 0.0140(7) -0.0064(6) -0.0064(6) 0.0005(6)
C6 0.0128(8) 0.0153(8) 0.0147(8) -0.0051(7) -0.0013(6) -0.0020(6)
C7 0.0132(8) 0.0132(8) 0.0154(8) -0.0055(6) -0.0014(6) -0.0002(6)
C10 0.0145(8) 0.0175(9) 0.0153(8) -0.0032(7) -0.0025(6) -0.0032(7)
C11 0.0180(9) 0.0189(9) 0.0189(9) -0.0037(7) -0.0037(7) -0.0023(7)
C2 0.0170(9) 0.0212(9) 0.0141(8) -0.0034(7) -0.0015(7) -0.0045(7)
C9 0.0138(8) 0.0129(8) 0.0163(8) -0.0040(7) -0.0022(6) -0.0006(6)
C8 0.0157(8) 0.0117(8) 0.0164(8) -0.0050(6) -0.0019(6) -0.0005(6)
C5 0.0172(8) 0.0172(9) 0.0191(9) -0.0078(7) -0.0010(7) -0.0010(7)
C15 0.0253(10) 0.0197(9) 0.0192(9) -0.0054(7) -0.0027(7) -0.0050(7)
C3 0.0199(9) 0.0282(10) 0.0142(8) -0.0070(7) -0.0033(7) -0.0047(7)
C4 0.0204(9) 0.0242(10) 0.0197(9) -0.0125(8) -0.0011(7) -0.0034(7)
C1 0.0350(11) 0.0217(10) 0.0198(9) -0.0008(8) -0.0130(8) -0.0036(8)
C13 0.0343(11) 0.0359(12) 0.0162(9) 0.0028(8) -0.0075(8) -0.0096(9)
C12 0.0265(10) 0.0220(10) 0.0249(10) 0.0035(8) -0.0088(8) -0.0038(8)
C14 0.0337(11) 0.0353(12) 0.0176(9) -0.0088(8) -0.0035(8) -0.0094(9)
loop_
_atom_type_symbol
_atom_type_description
_atom_type_scat_dispersion_real
_atom_type_scat_dispersion_imag
_atom_type_scat_source
C C 0.0033 0.0016 'International Tables Vol C Tables 4.2.6.8 and 6.1.1.4'
H H 0.0000 0.0000 'International Tables Vol C Tables 4.2.6.8 and 6.1.1.4'
Br Br -0.2901 2.4595 'International Tables Vol C Tables 4.2.6.8 and 6.1.1.4'
N N 0.0061 0.0033 'International Tables Vol C Tables 4.2.6.8 and 6.1.1.4'
Ni Ni 0.3393 1.1124 'International Tables Vol C Tables 4.2.6.8 and 6.1.1.4'
loop_
_geom_angle_atom_site_label_1
_geom_angle_atom_site_label_2
_geom_angle_atom_site_label_3
_geom_angle
_geom_angle_site_symmetry_1
_geom_angle_site_symmetry_3
_geom_angle_publ_flag
Ni1 Br2 Ni1 94.207(9) . 2_676 ?
Br2 Ni1 Br2 85.793(9) . 2_676 ?
Br1 Ni1 Br2 94.333(10) . 2_676 ?
Br1 Ni1 Br2 140.284(11) . . ?
N1 Ni1 Br2 89.03(4) . . ?
N1 Ni1 Br2 167.61(4) . 2_676 ?
N1 Ni1 Br1 96.83(4) . . ?
N2 Ni1 Br2 90.89(4) . 2_676 ?
N2 Ni1 Br2 105.18(5) . . ?
N2 Ni1 Br1 114.52(5) . . ?
N2 Ni1 N1 79.61(6) . . ?
C6 N1 Ni1 112.80(11) . . ?
C2 N1 Ni1 128.49(12) . . ?
C2 N1 C6 118.71(15) . . ?
N3 N2 Ni1 135.50(11) . . ?
C7 N2 Ni1 116.04(12) . . ?
C7 N2 N3 106.27(14) . . ?
N2 N3 H3 124.4 . . ?
N2 N3 C9 111.13(14) . . ?
C9 N3 H3 124.4 . . ?
N1 C6 C7 114.15(15) . . ?
N1 C6 C5 122.89(16) . . ?
C5 C6 C7 122.95(16) . . ?
N2 C7 C6 116.40(15) . . ?
N2 C7 C8 110.54(15) . . ?
C8 C7 C6 133.03(16) . . ?
C11 C10 C9 118.87(16) . . ?
C15 C10 C11 119.39(17) . . ?
C15 C10 C9 121.69(16) . . ?
C10 C11 H11 119.9 . . ?
C12 C11 C10 120.18(18) . . ?
C12 C11 H11 119.9 . . ?
N1 C2 C3 120.89(17) . . ?
N1 C2 C1 117.76(16) . . ?
C3 C2 C1 121.33(16) . . ?
N3 C9 C10 122.91(15) . . ?
N3 C9 C8 106.65(15) . . ?
C8 C9 C10 130.34(16) . . ?
C7 C8 H8 127.3 . . ?
C9 C8 C7 105.41(15) . . ?
C9 C8 H8 127.3 . . ?
C6 C5 H5 120.9 . . ?
C6 C5 C4 118.13(17) . . ?
C4 C5 H5 120.9 . . ?
C10 C15 H15 120.1 . . ?
C14 C15 C10 119.86(18) . . ?
C14 C15 H15 120.1 . . ?
C2 C3 H3A 120.0 . . ?
C4 C3 C2 120.01(17) . . ?
C4 C3 H3A 120.0 . . ?
C5 C4 H4 120.4 . . ?
C3 C4 C5 119.30(17) . . ?
C3 C4 H4 120.4 . . ?
C2 C1 H1A 109.5 . . ?
C2 C1 H1B 109.5 . . ?
C2 C1 H1C 109.5 . . ?
H1A C1 H1B 109.5 . . ?
H1A C1 H1C 109.5 . . ?
H1B C1 H1C 109.5 . . ?
C12 C13 H13 120.2 . . ?
C14 C13 H13 120.2 . . ?
C14 C13 C12 119.68(18) . . ?
C11 C12 C13 120.23(19) . . ?
C11 C12 H12 119.9 . . ?
C13 C12 H12 119.9 . . ?
C15 C14 H14 119.7 . . ?
C13 C14 C15 120.67(19) . . ?
C13 C14 H14 119.7 . . ?
loop_
_geom_bond_atom_site_label_1
_geom_bond_atom_site_label_2
_geom_bond_distance
_geom_bond_site_symmetry_2
_geom_bond_publ_flag
Br2 Ni1 2.4849(3) . ?
Br2 Ni1 2.5506(3) 2_676 ?
Br1 Ni1 2.4235(3) . ?
Ni1 N1 2.1005(15) . ?
Ni1 N2 1.9834(15) . ?
N1 C6 1.357(2) . ?
N1 C2 1.348(2) . ?
N2 N3 1.346(2) . ?
N2 C7 1.332(2) . ?
N3 H3 0.8800 . ?
N3 C9 1.360(2) . ?
C6 C7 1.462(2) . ?
C6 C5 1.384(2) . ?
C7 C8 1.396(2) . ?
C10 C11 1.397(3) . ?
C10 C9 1.467(2) . ?
C10 C15 1.391(3) . ?
C11 H11 0.9500 . ?
C11 C12 1.385(3) . ?
C2 C3 1.394(3) . ?
C2 C1 1.499(3) . ?
C9 C8 1.382(2) . ?
C8 H8 0.9500 . ?
C5 H5 0.9500 . ?
C5 C4 1.388(3) . ?
C15 H15 0.9500 . ?
C15 C14 1.389(3) . ?
C3 H3A 0.9500 . ?
C3 C4 1.380(3) . ?
C4 H4 0.9500 . ?
C1 H1A 0.9800 . ?
C1 H1B 0.9800 . ?
C1 H1C 0.9800 . ?
C13 H13 0.9500 . ?
C13 C12 1.387(3) . ?
C13 C14 1.381(3) . ?
C12 H12 0.9500 . ?
C14 H14 0.9500 . ?
loop_
_geom_hbond_atom_site_label_D
_geom_hbond_atom_site_label_H
_geom_hbond_atom_site_label_A
_geom_hbond_distance_DH
_geom_hbond_distance_HA
_geom_hbond_distance_DA
_geom_hbond_angle_DHA
_geom_hbond_site_symmetry_A
_geom_hbond_publ_flag
N3 H3 Br2 0.88 2.95 3.3897(15) 112.5 2_676 yes
N3 H3 Br1 0.88 2.79 3.5631(15) 147.9 2_776 yes
C8 H8 Br2 0.95 2.77 3.6804(17) 161.1 2_666 yes
C5 H5 Br2 0.95 2.92 3.8032(19) 155.7 2_666 yes
C1 H1A Br2 0.98 3.14 3.785(2) 124.7 . yes
C1 H1C Br1 0.98 2.85 3.695(2) 144.5 . yes
loop_
_geom_torsion_atom_site_label_1
_geom_torsion_atom_site_label_2
_geom_torsion_atom_site_label_3
_geom_torsion_atom_site_label_4
_geom_torsion
_geom_torsion_site_symmetry_1
_geom_torsion_site_symmetry_2
_geom_torsion_site_symmetry_3
_geom_torsion_site_symmetry_4
_geom_torsion_publ_flag
Ni1 N1 C6 C7 1.68(18) . . . . ?
Ni1 N1 C6 C5 -178.14(13) . . . . ?
Ni1 N1 C2 C3 177.68(13) . . . . ?
Ni1 N1 C2 C1 -3.6(2) . . . . ?
Ni1 N2 N3 C9 162.10(14) . . . . ?
Ni1 N2 C7 C6 11.7(2) . . . . ?
Ni1 N2 C7 C8 -166.51(11) . . . . ?
N1 C6 C7 N2 -8.6(2) . . . . ?
N1 C6 C7 C8 169.02(18) . . . . ?
N1 C6 C5 C4 0.1(3) . . . . ?
N1 C2 C3 C4 0.9(3) . . . . ?
N2 N3 C9 C10 -176.55(15) . . . . ?
N2 N3 C9 C8 0.1(2) . . . . ?
N2 C7 C8 C9 0.7(2) . . . . ?
N3 N2 C7 C6 177.52(14) . . . . ?
N3 N2 C7 C8 -0.67(19) . . . . ?
N3 C9 C8 C7 -0.45(19) . . . . ?
C6 N1 C2 C3 -2.4(3) . . . . ?
C6 N1 C2 C1 176.28(16) . . . . ?
C6 C7 C8 C9 -177.07(18) . . . . ?
C6 C5 C4 C3 -1.6(3) . . . . ?
C7 N2 N3 C9 0.37(19) . . . . ?
C7 C6 C5 C4 -179.71(16) . . . . ?
C10 C11 C12 C13 -0.2(3) . . . . ?
C10 C9 C8 C7 175.82(17) . . . . ?
C10 C15 C14 C13 -0.3(3) . . . . ?
C11 C10 C9 N3 -165.87(17) . . . . ?
C11 C10 C9 C8 18.4(3) . . . . ?
C11 C10 C15 C14 0.4(3) . . . . ?
C2 N1 C6 C7 -178.26(15) . . . . ?
C2 N1 C6 C5 1.9(3) . . . . ?
C2 C3 C4 C5 1.1(3) . . . . ?
C9 C10 C11 C12 -177.93(17) . . . . ?
C9 C10 C15 C14 178.09(17) . . . . ?
C5 C6 C7 N2 171.17(16) . . . . ?
C5 C6 C7 C8 -11.2(3) . . . . ?
C15 C10 C11 C12 -0.2(3) . . . . ?
C15 C10 C9 N3 16.5(3) . . . . ?
C15 C10 C9 C8 -159.30(18) . . . . ?
C1 C2 C3 C4 -177.73(18) . . . . ?
C12 C13 C14 C15 0.0(3) . . . . ?
C14 C13 C12 C11 0.3(3) . . . . ?
