#------------------------------------------------------------------------------
#$Date: 2021-01-07 06:30:26 +0200 (Thu, 07 Jan 2021) $
#$Revision: 260599 $
#$URL: file:///home/coder/svn-repositories/cod/cif/7/12/73/7127335.cif $
#------------------------------------------------------------------------------
#
# This file is available in the Crystallography Open Database (COD),
# http://www.crystallography.net/
#
# All data on this site have been placed in the public domain by the
# contributors.
#
data_7127335
loop_
_publ_author_name
'Mato, Raquel'
'Reyes, Efraim'
'Carrillo, Luisa'
'Uria, Uxue'
'Prieto, Liher'
'Manzano, Ruben'
'Vicario, Jose L.'
_publ_section_title
;
 Catalytic enantioselective domino Michael/transannular aldol reaction
 under bifunctional catalysis.
;
_journal_issue                   86
_journal_name_full
'Chemical communications (Cambridge, England)'
_journal_page_first              13149
_journal_page_last               13152
_journal_paper_doi               10.1039/d0cc05981a
_journal_volume                  56
_journal_year                    2020
_chemical_absolute_configuration ad
_chemical_compound_source        'synthesis as described'
_chemical_formula_moiety         'C16 H18 Br N O4'
_chemical_formula_sum            'C16 H18 Br N O4'
_chemical_formula_weight         368.22
_chemical_name_systematic
(4S,4aR,11aR)-7-bromo-11a-hydroxy-4-(nitromethyl)-1,2,3,4,4a,10,11,11a-octahydro-5H-dibenzo[a,d][7]annulen-5-one
_space_group_crystal_system      monoclinic
_space_group_IT_number           4
_space_group_name_Hall           'P 2yb'
_space_group_name_H-M_alt        'P 1 21 1'
_atom_sites_solution_hydrogens   geom
_atom_sites_solution_primary     direct
_atom_sites_solution_secondary   difmap
_audit_creation_date             2020-06-19T16:02:32-00:00
_audit_creation_method           'WinGX routine CIF_UPDATE'
_audit_update_record
;
2020-06-19 deposited with the CCDC.	2020-09-28 downloaded from the CCDC.
;
_cell_angle_alpha                90
_cell_angle_beta                 106.5299(17)
_cell_angle_gamma                90
_cell_formula_units_Z            2
_cell_length_a                   10.42782(17)
_cell_length_b                   7.69850(11)
_cell_length_c                   11.51764(17)
_cell_measurement_reflns_used    11475
_cell_measurement_temperature    150.00(10)
_cell_measurement_theta_max      74.678
_cell_measurement_theta_min      3.991
_cell_volume                     886.41(2)
_computing_cell_refinement       'CrysAlisPro 1.171.39.46 (Rigaku OD, 2018)'
_computing_data_collection       'CrysAlisPro 1.171.39.46 (Rigaku OD, 2018)'
_computing_data_reduction        'CrysAlisPro 1.171.39.46 (Rigaku OD, 2018)'
_computing_molecular_graphics    'Olex2 (Dolomanov et al., 2009)'
_computing_publication_material  'Olex2 (Dolomanov et al., 2009)'
_computing_structure_refinement  'ShelXH-1997 (Sheldrick, 2008)'
_computing_structure_solution    'ShelXS (Sheldrick, 2008)'
_diffrn_ambient_temperature      150.00(10)
_diffrn_detector                 'CCD plate'
_diffrn_detector_area_resol_mean 5.2012
_diffrn_measured_fraction_theta_full 0.99
_diffrn_measured_fraction_theta_max 0.99
_diffrn_measurement_details
;
List of Runs (angles in degrees, time in seconds):

  # Type    Start    End  Width  t~exp~   \w     \q     \k     \f   Frames
#--------------------------------------------------------------------------
  1  \w   -113.00 -15.00   1.00    1.00    --  -41.88 -57.00  30.00   98
  2  \w   -116.00 -17.00   1.00    1.00    --  -41.88 -38.00 -90.00   99
  3  \w    -83.00 -18.00   1.00    1.00    --  -41.88 -38.00  90.00   65
  4  \w      6.00  66.00   1.00    1.00    --   41.88-125.00  90.00   60
  5  \w      4.00  51.00   1.00    1.00    --   41.88-125.00 -90.00   47
  6  \w     43.00  70.00   1.00    1.00    --  109.18-125.00   0.00   27
  7  \w     34.00  69.00   1.00    1.00    --  109.18 -30.00  30.00   35
  8  \w     38.00 143.00   1.00    1.00    --  109.18 -83.00  17.00  105
  9  \w     87.00 158.00   1.00    1.00    --  109.18  61.00 -90.00   71
 10  \w    128.00 155.00   1.00    1.00    --  109.18  45.00  60.00   27
 11  \w     36.00  61.00   1.00    1.00    --  109.18 -45.00   0.00   25
 12  \w     45.00 117.00   1.00    1.00    --  109.18-125.00-150.00   72
 13  \w     33.00  62.00   1.00    1.00    --  109.18 -30.00 -30.00   29
 14  \w     36.00  64.00   1.00    1.00    --  109.18 -45.00 -60.00   28
 15  \w     84.00 111.00   1.00    1.00    --  109.18  45.00  60.00   27
 16  \w     61.00 145.00   1.00    1.00    --  109.18  15.00 -90.00   84
 17  \w     33.00  61.00   1.00    1.00    --  109.18 -30.00-150.00   28
 18  \w     78.00 155.00   1.00    1.00    --  109.18  77.00 150.00   77
 19  \w     84.00 114.00   1.00    1.00    --  109.18-125.00   0.00   30
 20  \w     76.00 135.00   1.00    1.00    --  109.18 -15.00-180.00   59
 21  \w     39.00  66.00   1.00    1.00    --  109.18 -30.00   0.00   27
 22  \w     30.00  57.00   1.00    1.00    --  109.18 -15.00-180.00   27
 23  \w    -50.00 -18.00   1.00    1.00    --  -41.88 -57.00 120.00   32
 24  \w     41.00  93.00   1.00    1.00    --   41.88-125.00 -60.00   52
 25  \w     39.00  69.00   1.00    1.00    --  109.18 -45.00 150.00   30
 26  \w     41.00  82.00   1.00    1.00    --  109.18 -94.00 -60.00   41
 27  \w     33.00  62.00   1.00    1.00    --  109.18 -30.00  90.00   29
 28  \w     68.00 116.00   1.00    1.00    --  109.18-125.00  30.00   48
 29  \w     49.00  76.00   1.00    1.00    --  109.18 -45.00  30.00   27
 30  \w     36.00  61.00   1.00    1.00    --  109.18 -45.00-150.00   25
 31  \w     36.00  86.00   1.00    1.00    --  109.18 -94.00-120.00   50
 32  \w   -114.00 -14.00   1.00    1.00    --  -41.88 -57.00-150.00  100
 33  \w   -118.00  -9.00   1.00    1.00    --  -41.88 -77.00 150.00  109
 34  \w    -98.00  -2.00   1.00    1.00    --  -41.88 125.00 120.00   96
 35  \w    -30.00  70.00   1.00    1.00    --   41.88 -57.00 -90.00  100
 36  \w      9.00 118.00   1.00    1.00    --   41.88  77.00   0.00  109
 37  \w   -118.00  -9.00   1.00    1.00    --  -41.88 -77.00-120.00  109
 38  \w   -118.00  -9.00   1.00    1.00    --  -41.88 -77.00  30.00  109
 39  \w   -118.00  -9.00   1.00    1.00    --  -41.88 -77.00-180.00  109
 40  \w   -118.00  -9.00   1.00    1.00    --  -41.88 -77.00 -60.00  109
 41  \w    -66.00  32.00   1.00    1.00    --  -41.88  38.00-180.00   98
 42  \w   -114.00 -14.00   1.00    1.00    --  -41.88 -57.00  60.00  100
 43  \w   -118.00  -9.00   1.00    1.00    --  -41.88 -77.00  60.00  109
 44  \w   -116.00 -17.00   1.00    1.00    --  -41.88 -38.00  60.00   99
 45  \w   -114.00 -14.00   1.00    1.00    --  -41.88 -57.00 -30.00  100
 46  \w   -114.00 -14.00   1.00    1.00    --  -41.88 -57.00  30.00  100
 47  \w   -122.00  -1.00   1.00    1.00    --  -41.88 -19.00 -30.00  121
 48  \w   -114.00 -14.00   1.00    1.00    --  -41.88 -57.00   0.00  100
 49  \w    -46.00 130.00   1.00    1.00    --   41.88   0.00-180.00  176
;
_diffrn_measurement_device       'four-circle diffractometer'
_diffrn_measurement_device_type
'SuperNova, Single source at offset/far, Atlas'
_diffrn_measurement_method       '\w scans'
_diffrn_orient_matrix_type
'CrysAlisPro convention (1999,Acta A55,543-557)'
_diffrn_orient_matrix_UB_11      -0.1483667
_diffrn_orient_matrix_UB_12      0.038815
_diffrn_orient_matrix_UB_13      -0.0632953
_diffrn_orient_matrix_UB_21      0.0400323
_diffrn_orient_matrix_UB_22      0.1707609
_diffrn_orient_matrix_UB_23      -0.0501965
_diffrn_orient_matrix_UB_31      0.0111281
_diffrn_orient_matrix_UB_32      -0.0968558
_diffrn_orient_matrix_UB_33      -0.113781
_diffrn_radiation_monochromator  mirror
_diffrn_radiation_probe          x-ray
_diffrn_radiation_type           CuK\a
_diffrn_radiation_wavelength     1.54184
_diffrn_reflns_av_R_equivalents  0.038
_diffrn_reflns_limit_h_max       13
_diffrn_reflns_limit_h_min       -12
_diffrn_reflns_limit_k_max       9
_diffrn_reflns_limit_k_min       -9
_diffrn_reflns_limit_l_max       12
_diffrn_reflns_limit_l_min       -14
_diffrn_reflns_number            16349
_diffrn_reflns_theta_full        74.77
_diffrn_reflns_theta_max         74.77
_diffrn_reflns_theta_min         4
_diffrn_source                   'micro-focus sealed X-ray tube'
_exptl_absorpt_coefficient_mu    3.303
_exptl_absorpt_correction_T_max  0.781
_exptl_absorpt_correction_T_min  0.308
_exptl_absorpt_correction_type   analytical
_exptl_absorpt_process_details
;
        CrysAlisPro 1.171.39.46 (Rigaku Oxford Diffraction, 2018)
Analytical numeric absorption correction using a multifaceted crystal
                        model based on expressions derived by R.C. Clark & J.S.
        (Clark, R. C. & Reid, J. S. (1995). Acta Cryst. A51, 887-897)
        Empirical absorption correction using spherical harmonics,
 implemented in SCALE3 ABSPACK scaling algorithm.
;
_exptl_crystal_colour            colourless
_exptl_crystal_density_diffrn    1.38
_exptl_crystal_density_method    'not measured'
_exptl_crystal_description       needle
_exptl_crystal_F_000             376
_exptl_crystal_size_max          0.651
_exptl_crystal_size_mid          0.132
_exptl_crystal_size_min          0.11
_refine_diff_density_max         1.847
_refine_diff_density_min         -0.436
_refine_diff_density_rms         0.193
_refine_ls_abs_structure_details 'Flack H D (1983), Acta Cryst. A39, 876-881'
_refine_ls_abs_structure_Flack   0.00(4)
_refine_ls_extinction_coef       0.0109(17)
_refine_ls_extinction_expression Fc^*^=kFc[1+0.001xFc^2^\l^3^/sin(2\q)]^-1/4^
_refine_ls_extinction_method     SHELXL
_refine_ls_goodness_of_fit_ref   1.195
_refine_ls_hydrogen_treatment    constr
_refine_ls_matrix_type           full
_refine_ls_number_parameters     201
_refine_ls_number_reflns         3542
_refine_ls_number_restraints     1
_refine_ls_restrained_S_all      1.195
_refine_ls_R_factor_all          0.0596
_refine_ls_R_factor_gt           0.0573
_refine_ls_shift/su_max          0
_refine_ls_shift/su_mean         0
_refine_ls_structure_factor_coef Fsqd
_refine_ls_weighting_details
'calc w=1/[\s^2^(Fo^2^)+(0.1314P)^2^+0.3789P] where P=(Fo^2^+2Fc^2^)/3'
_refine_ls_weighting_scheme      calc
_refine_ls_wR_factor_gt          0.185
_refine_ls_wR_factor_ref         0.1885
_reflns_number_gt                3346
_reflns_number_total             3542
_reflns_threshold_expression     >2sigma(I)
_iucr_refine_instructions_details
;
TITL a20190047_RM1098rem in P21 #4
REM reset to P21 #4
CELL 1.54184 10.427824 7.698503 11.517642 90 106.5299 90
ZERR 2 0.000171 0.000105 0.000173 0 0.0017 0
LATT -1
SYMM -X,0.5+Y,-Z
SFAC C H N O Br
UNIT 32 36 2 8 2

L.S. 8
PLAN  40
SIZE 0.11 0.132 0.651
BOND 
fmap 2
ACTA 
EXTI 0
WGHT 0.1314 0.3789
FVAR 9.84035
REM <olex2.extras>
REM <HklSrc "%.\\a20190047_RM1098rem.hkl">
REM </olex2.extras>

Br1   5    -0.32779 -0.21104 -0.10170  11.00000  0.02626  0.03154  0.05020 =
 0.00246 -0.00069  0.00151 
C15   1    -0.66490  0.46433 -0.20977  11.00000  0.04745  0.01891  0.04554 =
 0.00475 -0.00087 -0.00035 
AFIX 23
H15a  2    -0.60074  0.55791 -0.20214  11.00000 -1.20000 
H15b  2    -0.71312  0.48403 -0.15030  11.00000 -1.20000 
AFIX 0
C10   1    -1.12381  0.29062 -0.24555  11.00000  0.03887  0.04196  0.03173 =
 -0.00924  0.00252  0.00349 
AFIX 23
H10a  2    -1.21318  0.24297 -0.26073  11.00000 -1.20000 
H10b  2    -1.09089  0.31774 -0.15995  11.00000 -1.20000 
AFIX 0
C3    1    -0.64609  0.13189 -0.22026  11.00000  0.02319  0.02474  0.02530 =
 0.00225 -0.00718 -0.00072 
C4    1    -0.58976  0.29487 -0.18091  11.00000  0.03475  0.02194  0.02657 =
 0.00148 -0.00328 -0.00800 
C5    1    -0.45359  0.30004 -0.11671  11.00000  0.03381  0.02639  0.03069 =
 0.00354 -0.00379 -0.00783 
AFIX 43
H5    2    -0.41435  0.40668 -0.08989  11.00000 -1.20000 
AFIX 0
O1    4    -0.82469 -0.01702 -0.35656  11.00000  0.03222  0.02805  0.02932 =
 -0.00590 -0.00437  0.00201 
C9    1    -1.03191  0.15421 -0.27832  11.00000  0.02751  0.02969  0.02740 =
 -0.00236 -0.00204  0.00410 
AFIX 13
H9    2    -1.06972  0.12666 -0.36437  11.00000 -1.20000 
AFIX 0
C1    1    -0.43532 -0.00623 -0.13224  11.00000  0.02662  0.02742  0.03189 =
 0.00125 -0.00054 -0.00408 
C6    1    -0.37570  0.15143 -0.09198  11.00000  0.02827  0.03426  0.03001 =
 -0.00006 -0.00315 -0.00628 
AFIX 43
H6    2    -0.28552  0.15757 -0.04934  11.00000 -1.20000 
AFIX 0
C2    1    -0.56873 -0.01749 -0.19823  11.00000  0.02747  0.02234  0.03233 =
 0.00049 -0.00070 -0.00195 
AFIX 43
H2    2    -0.60601 -0.12420 -0.22745  11.00000 -1.20000 
AFIX 0
C14   1    -0.76376  0.47179 -0.33578  11.00000  0.05191  0.02255  0.03705 =
 0.00857 -0.00100 -0.00019 
AFIX 23
H14a  2    -0.72566  0.40945 -0.39126  11.00000 -1.20000 
H14b  2    -0.77417  0.59212 -0.36177  11.00000 -1.20000 
AFIX 0
C16   1    -1.02822 -0.01483 -0.20764  11.00000  0.03030  0.03074  0.04271 =
 -0.00182  0.00225 -0.00418 
AFIX 23
H16a  2    -1.11898 -0.05234 -0.21491  11.00000 -1.20000 
H16b  2    -0.98499 -0.10451 -0.24223  11.00000 -1.20000 
AFIX 0
C13   1    -0.90464  0.39555 -0.34650  11.00000  0.04211  0.02467  0.02177 =
 0.00223 -0.00565  0.00549 
C11   1    -1.12983  0.45590 -0.31880  11.00000  0.05079  0.04817  0.03449 =
 0.00701  0.00428  0.02874 
AFIX 23
H11a  2    -1.17728  0.43216 -0.40275  11.00000 -1.20000 
H11b  2    -1.18028  0.54281 -0.28936  11.00000 -1.20000 
AFIX 0
C7    1    -0.79012  0.10636 -0.28712  11.00000  0.02817  0.02221  0.02417 =
 0.00082 -0.00366 -0.00294 
C8    1    -0.89275  0.23288 -0.26308  11.00000  0.03035  0.02410  0.02316 =
 -0.00199 -0.00019  0.00022 
AFIX 13
H8    2    -0.85865  0.27250 -0.17905  11.00000 -1.20000 
AFIX 0
C12   1    -0.99352  0.52843 -0.31239  11.00000  0.05713  0.02831  0.03025 =
 0.00431  0.00235  0.01362 
AFIX 23
H12a  2    -1.00379  0.62723 -0.36653  11.00000 -1.20000 
H12b  2    -0.95126  0.56906 -0.23072  11.00000 -1.20000 
AFIX 0
O3    4    -1.01582  0.07072 -0.00826  11.00000  0.05385  0.06230  0.03526 =
 0.00686  0.00488  0.00988 
O2    4    -0.95749  0.33712 -0.46838  11.00000  0.04338  0.04284  0.02120 =
 -0.00074 -0.00652  0.01784 
AFIX 147
H2a   2    -1.00540  0.41291 -0.50854  11.00000 -1.50000 
AFIX 0
O4    4    -0.83750 -0.03157 -0.04188  11.00000  0.02696  0.05077  0.05330 =
 0.01787 -0.00182  0.00208 
N1    3    -0.95459  0.00772 -0.07696  11.00000  0.03308  0.03133  0.04229 =
 0.01008  0.00223 -0.00240 
HKLF 4

;
_cod_data_source_file            d0cc05981a2.cif
_cod_data_source_block           a20190047_rm1098rem
_cod_depositor_comments
'Adding full bibliography for 7127335--7127336.cif.'
_cod_database_code               7127335
loop_
_symmetry_equiv_pos_as_xyz
'x, y, z'
'-x, y+1/2, -z'
loop_
_atom_site_label
_atom_site_type_symbol
_atom_site_fract_x
_atom_site_fract_y
_atom_site_fract_z
_atom_site_U_iso_or_equiv
_atom_site_adp_type
_atom_site_occupancy
_atom_site_calc_flag
_atom_site_disorder_assembly
_atom_site_disorder_group
Br1 Br -0.32779(4) -0.21104(9) -0.10170(5) 0.0384(3) Uani 1 d . .
C15 C -0.6649(8) 0.4643(9) -0.2098(7) 0.0402(16) Uani 1 d . .
H15A H -0.6007 0.5579 -0.2021 0.048 Uiso 1 calc . .
H15B H -0.7131 0.484 -0.1503 0.048 Uiso 1 calc . .
C10 C -1.1238(6) 0.2906(12) -0.2456(5) 0.0391(11) Uani 1 d . .
H10A H -1.2132 0.243 -0.2607 0.047 Uiso 1 calc . .
H10B H -1.0909 0.3177 -0.16 0.047 Uiso 1 calc . .
C3 C -0.6461(6) 0.1319(8) -0.2203(5) 0.0273(12) Uani 1 d . .
C4 C -0.5898(5) 0.2949(9) -0.1809(4) 0.0302(9) Uani 1 d . .
C5 C -0.4536(5) 0.3000(9) -0.1167(4) 0.0330(11) Uani 1 d . .
H5 H -0.4144 0.4067 -0.0899 0.04 Uiso 1 calc . .
O1 O -0.8247(4) -0.0170(5) -0.3566(3) 0.0326(8) Uani 1 d . .
C9 C -1.0319(5) 0.1542(7) -0.2783(5) 0.0302(11) Uani 1 d . .
H9 H -1.0697 0.1267 -0.3644 0.036 Uiso 1 calc . .
C1 C -0.4353(6) -0.0062(7) -0.1322(5) 0.0305(11) Uani 1 d . .
C6 C -0.3757(6) 0.1514(8) -0.0920(5) 0.0332(12) Uani 1 d . .
H6 H -0.2855 0.1576 -0.0493 0.04 Uiso 1 calc . .
C2 C -0.5687(5) -0.0175(7) -0.1982(5) 0.0293(11) Uani 1 d . .
H2 H -0.606 -0.1242 -0.2274 0.035 Uiso 1 calc . .
C14 C -0.7638(7) 0.4718(8) -0.3358(6) 0.0400(14) Uani 1 d . .
H14A H -0.7257 0.4095 -0.3913 0.048 Uiso 1 calc . .
H14B H -0.7742 0.5921 -0.3618 0.048 Uiso 1 calc . .
C16 C -1.0282(6) -0.0148(8) -0.2076(5) 0.0363(12) Uani 1 d . .
H16A H -1.119 -0.0523 -0.2149 0.044 Uiso 1 calc . .
H16B H -0.985 -0.1045 -0.2422 0.044 Uiso 1 calc . .
C13 C -0.9046(6) 0.3955(7) -0.3465(5) 0.0326(12) Uani 1 d . .
C11 C -1.1298(7) 0.4559(10) -0.3188(6) 0.0461(16) Uani 1 d . .
H11A H -1.1773 0.4322 -0.4027 0.055 Uiso 1 calc . .
H11B H -1.1803 0.5428 -0.2894 0.055 Uiso 1 calc . .
C7 C -0.7901(5) 0.1064(7) -0.2871(5) 0.0271(11) Uani 1 d . .
C8 C -0.8927(5) 0.2329(7) -0.2631(4) 0.0275(10) Uani 1 d . .
H8 H -0.8587 0.2725 -0.179 0.033 Uiso 1 calc . .
C12 C -0.9935(7) 0.5284(8) -0.3124(5) 0.0406(14) Uani 1 d . .
H12A H -1.0038 0.6272 -0.3665 0.049 Uiso 1 calc . .
H12B H -0.9513 0.5691 -0.2307 0.049 Uiso 1 calc . .
O3 O -1.0158(6) 0.0707(8) -0.0083(5) 0.0521(14) Uani 1 d . .
O2 O -0.9575(4) 0.3371(6) -0.4684(3) 0.0391(10) Uani 1 d . .
H2A H -1.0054 0.4129 -0.5085 0.059 Uiso 1 calc . .
O4 O -0.8375(4) -0.0316(7) -0.0419(4) 0.0464(11) Uani 1 d . .
N1 N -0.9546(5) 0.0077(7) -0.0770(5) 0.0373(11) Uani 1 d . .
loop_
_atom_site_aniso_label
_atom_site_aniso_U_11
_atom_site_aniso_U_22
_atom_site_aniso_U_33
_atom_site_aniso_U_23
_atom_site_aniso_U_13
_atom_site_aniso_U_12
Br1 0.0263(3) 0.0315(3) 0.0502(4) 0.0025(3) -0.0007(2) 0.0015(2)
C15 0.047(4) 0.019(3) 0.046(3) 0.005(2) -0.001(3) 0.000(3)
C10 0.039(3) 0.042(3) 0.032(2) -0.009(3) 0.0025(19) 0.003(3)
C3 0.023(3) 0.025(3) 0.025(2) 0.002(2) -0.007(2) -0.001(2)
C4 0.035(2) 0.022(2) 0.027(2) 0.001(2) -0.0033(17) -0.008(3)
C5 0.034(2) 0.026(2) 0.031(2) 0.004(2) -0.0038(18) -0.008(3)
O1 0.0322(19) 0.0281(18) 0.0293(17) -0.0059(15) -0.0044(15) 0.0020(16)
C9 0.028(3) 0.030(3) 0.027(2) -0.002(2) -0.002(2) 0.004(2)
C1 0.027(3) 0.027(3) 0.032(2) 0.001(2) -0.001(2) -0.004(2)
C6 0.028(3) 0.034(3) 0.030(2) 0.000(2) -0.003(2) -0.006(2)
C2 0.027(3) 0.022(2) 0.032(2) 0.000(2) -0.001(2) -0.002(2)
C14 0.052(4) 0.023(2) 0.037(3) 0.009(2) -0.001(3) 0.000(3)
C16 0.030(3) 0.031(3) 0.043(3) -0.002(2) 0.002(2) -0.004(2)
C13 0.042(3) 0.025(3) 0.022(2) 0.0022(19) -0.006(2) 0.005(2)
C11 0.051(4) 0.048(4) 0.034(3) 0.007(3) 0.004(3) 0.029(3)
C7 0.028(3) 0.022(2) 0.024(2) 0.0008(19) -0.0037(19) -0.003(2)
C8 0.030(3) 0.024(2) 0.023(2) -0.0020(17) -0.0002(19) 0.0002(18)
C12 0.057(4) 0.028(3) 0.030(3) 0.004(2) 0.002(3) 0.014(3)
O3 0.054(3) 0.062(4) 0.035(2) 0.007(2) 0.005(2) 0.010(3)
O2 0.043(2) 0.043(3) 0.0212(16) -0.0007(14) -0.0065(15) 0.0178(17)
O4 0.027(2) 0.051(3) 0.053(3) 0.018(2) -0.0018(18) 0.002(2)
N1 0.033(3) 0.031(2) 0.042(3) 0.010(2) 0.002(2) -0.002(2)
loop_
_atom_type_symbol
_atom_type_description
_atom_type_scat_dispersion_real
_atom_type_scat_dispersion_imag
_atom_type_scat_source
C C 0.0181 0.0091 'International Tables Vol C Tables 4.2.6.8 and 6.1.1.4'
H H 0 0 'International Tables Vol C Tables 4.2.6.8 and 6.1.1.4'
N N 0.0311 0.018 'International Tables Vol C Tables 4.2.6.8 and 6.1.1.4'
O O 0.0492 0.0322 'International Tables Vol C Tables 4.2.6.8 and 6.1.1.4'
Br Br -0.6763 1.2805 'International Tables Vol C Tables 4.2.6.8 and 6.1.1.4'
loop_
_exptl_crystal_face_index_h
_exptl_crystal_face_index_k
_exptl_crystal_face_index_l
_exptl_crystal_face_perp_dist
1 3 6 0.0513
0 -5 2 0.098
0 4 -3 0.023
0 1 -1 0.0279
0 -2 -7 0.0498
-1 2 7 0.0426
4 2 3 0.1396
-7 0 4 0.3263
-3 2 7 0.1059
loop_
_geom_angle_atom_site_label_1
_geom_angle_atom_site_label_2
_geom_angle_atom_site_label_3
_geom_angle
_geom_angle_site_symmetry_1
_geom_angle_site_symmetry_3
_geom_angle_publ_flag
C4 C15 C14 114.2(5) . . ?
C11 C10 C9 111.5(5) . . ?
C4 C3 C7 123.4(5) . . ?
C2 C3 C4 120.9(5) . . ?
C2 C3 C7 115.6(5) . . ?
C3 C4 C15 123.9(4) . . ?
C5 C4 C15 118.4(6) . . ?
C5 C4 C3 117.6(6) . . ?
C6 C5 C4 122.1(6) . . ?
C16 C9 C10 111.9(5) . . ?
C16 C9 C8 113.3(4) . . ?
C8 C9 C10 109.7(5) . . ?
C6 C1 Br1 118.6(4) . . ?
C6 C1 C2 121.6(5) . . ?
C2 C1 Br1 119.7(4) . . ?
C1 C6 C5 118.4(5) . . ?
C1 C2 C3 119.3(5) . . ?
C15 C14 C13 115.4(5) . . ?
N1 C16 C9 111.4(4) . . ?
C14 C13 C8 110.3(4) . . ?
C12 C13 C14 111.2(5) . . ?
C12 C13 C8 109.3(5) . . ?
O2 C13 C14 106.8(5) . . ?
O2 C13 C8 107.1(4) . . ?
O2 C13 C12 112.1(4) . . ?
C12 C11 C10 113.2(5) . . ?
C3 C7 C8 118.4(5) . . ?
O1 C7 C3 120.2(5) . . ?
O1 C7 C8 121.3(5) . . ?
C9 C8 C13 109.8(4) . . ?
C7 C8 C9 114.5(4) . . ?
C7 C8 C13 109.7(4) . . ?
C13 C12 C11 112.1(5) . . ?
O3 N1 C16 118.4(5) . . ?
O4 N1 C16 119.2(5) . . ?
O4 N1 O3 122.3(6) . . ?
loop_
_geom_bond_atom_site_label_1
_geom_bond_atom_site_label_2
_geom_bond_distance
_geom_bond_site_symmetry_2
_geom_bond_publ_flag
Br1 C1 1.909(6) . ?
C15 C4 1.509(10) . ?
C15 C14 1.524(9) . ?
C10 C9 1.539(9) . ?
C10 C11 1.518(11) . ?
C3 C4 1.405(9) . ?
C3 C2 1.386(8) . ?
C3 C7 1.493(8) . ?
C4 C5 1.403(7) . ?
C5 C6 1.385(9) . ?
O1 C7 1.228(7) . ?
C9 C16 1.530(8) . ?
C9 C8 1.536(7) . ?
C1 C6 1.382(8) . ?
C1 C2 1.385(7) . ?
C14 C13 1.554(9) . ?
C16 N1 1.492(8) . ?
C13 C8 1.562(7) . ?
C13 C12 1.506(8) . ?
C13 O2 1.427(6) . ?
C11 C12 1.509(10) . ?
C7 C8 1.529(8) . ?
O3 N1 1.248(8) . ?
O4 N1 1.210(6) . ?
loop_
_refln_index_h
_refln_index_k
_refln_index_l
_refln_F_squared_calc
_refln_F_squared_meas
_refln_F_squared_sigma
_refln_observed_status
1 -9 0 57.98 54.48 3.37 o
2 -9 0 131.21 130.39 5.62 o
3 -9 0 3.73 4.06 3.43 o
4 -9 0 52.70 38.90 12.32 o
0 -8 0 144.48 135.86 6.54 o
1 -8 0 115.65 114.64 5.23 o
2 -8 0 12.15 11.83 2.23 o
3 -8 0 453.00 460.74 12.88 o
4 -8 0 46.53 48.99 3.48 o
5 -8 0 100.54 92.45 8.55 o
6 -8 0 144.92 106.98 6.19 o
1 -7 0 391.66 372.11 9.37 o
2 -7 0 544.06 508.49 13.85 o
3 -7 0 62.35 47.31 6.48 o
4 -7 0 326.46 301.45 20.87 o
5 -7 0 305.98 269.75 12.00 o
6 -7 0 13.00 10.99 2.95 o
7 -7 0 232.12 196.39 8.78 o
8 -7 0 66.36 52.81 3.38 o
0 -6 0 3004.38 2791.98 33.74 o
1 -6 0 510.21 454.98 8.90 o
2 -6 0 656.77 580.49 10.15 o
3 -6 0 350.99 292.83 7.78 o
4 -6 0 298.12 241.79 10.53 o
5 -6 0 176.12 152.84 10.29 o
6 -6 0 542.22 543.96 21.97 o
7 -6 0 19.70 15.50 3.33 o
8 -6 0 172.02 175.01 8.84 o
9 -6 0 276.76 262.00 8.98 o
1 -5 0 711.46 640.72 10.77 o
2 -5 0 2409.36 2309.79 31.40 o
3 -5 0 181.86 163.50 5.01 o
4 -5 0 900.91 839.48 12.28 o
5 -5 0 270.82 237.85 7.61 o
6 -5 0 28.95 26.99 4.89 o
7 -5 0 340.37 338.68 15.41 o
8 -5 0 210.81 225.07 11.89 o
9 -5 0 18.11 18.50 3.45 o
10 -5 0 354.14 327.45 10.39 o
0 -4 0 3495.79 3562.23 47.31 o
1 -4 0 194.28 170.42 3.25 o
2 -4 0 94.85 78.49 2.46 o
3 -4 0 1539.15 1505.44 19.08 o
4 -4 0 103.38 94.73 3.34 o
5 -4 0 193.34 160.42 5.01 o
6 -4 0 660.45 589.28 15.01 o
7 -4 0 131.80 124.89 8.00 o
8 -4 0 409.69 403.19 23.85 o
9 -4 0 464.23 456.02 24.32 o
10 -4 0 19.49 26.75 3.88 o
11 -4 0 163.66 153.29 12.83 o
1 -3 0 2238.47 2245.05 17.48 o
2 -3 0 531.21 524.49 4.60 o
3 -3 0 230.00 245.81 3.56 o
4 -3 0 963.29 820.44 7.53 o
5 -3 0 1002.87 894.11 9.23 o
6 -3 0 74.07 75.54 2.82 o
7 -3 0 1060.18 1010.68 12.18 o
8 -3 0 34.22 31.07 6.90 o
9 -3 0 63.10 46.67 8.30 o
10 -3 0 221.52 212.68 16.08 o
11 -3 0 90.55 96.91 9.12 o
0 -2 0 1489.85 1455.42 13.70 o
1 -2 0 2942.97 3231.92 30.80 o
2 -2 0 823.05 738.42 4.66 o
3 -2 0 1897.03 1934.38 13.56 o
4 -2 0 1266.96 1360.38 10.55 o
5 -2 0 2649.88 2843.80 18.71 o
6 -2 0 294.66 270.24 5.30 o
7 -2 0 259.41 239.84 5.33 o
8 -2 0 309.49 276.87 6.56 o
9 -2 0 503.34 516.01 20.85 o
10 -2 0 15.53 12.22 3.02 o
11 -2 0 210.79 222.73 15.11 o
1 -1 0 3758.76 4742.29 34.74 o
2 -1 0 3960.57 5181.54 26.39 o
3 -1 0 45.78 54.84 1.15 o
4 -1 0 5246.24 5827.56 27.12 o
5 -1 0 1357.56 1478.52 12.05 o
6 -1 0 45.26 42.23 1.94 o
7 -1 0 675.32 628.75 9.17 o
8 -1 0 625.58 632.16 9.97 o
9 -1 0 197.79 185.57 9.97 o
10 -1 0 595.53 689.36 42.44 o
11 -1 0 144.18 115.36 13.23 o
1 0 0 2193.35 145.41 1.34 o
2 0 0 408.72 2143.70 10.19 o
3 0 0 4742.20 3519.00 15.02 o
4 0 0 701.15 490.66 4.78 o
5 0 0 33.71 29.77 1.43 o
6 0 0 2207.16 2510.28 25.15 o
7 0 0 2.44 2.34 0.79 o
8 0 0 517.69 501.69 8.59 o
9 0 0 868.89 947.78 35.36 o
10 0 0 92.52 116.87 9.46 o
11 0 0 186.36 166.05 16.57 o
12 0 0 115.74 96.48 10.28 o
1 1 0 3654.87 4647.81 25.46 o
2 1 0 4195.06 5707.09 29.23 o
3 1 0 42.06 54.15 1.47 o
4 1 0 5516.09 6224.46 28.37 o
5 1 0 1202.87 1319.83 9.90 o
6 1 0 35.60 32.90 1.73 o
7 1 0 647.12 605.06 8.95 o
8 1 0 623.08 626.09 12.94 o
9 1 0 187.44 158.29 11.24 o
10 1 0 627.00 720.05 23.16 o
11 1 0 130.85 130.22 14.71 o
12 1 0 21.30 25.84 5.75 o
0 2 0 1861.56 1960.85 21.12 o
1 2 0 2883.88 3464.55 29.63 o
2 2 0 810.68 771.52 7.25 o
3 2 0 1701.84 1776.10 11.99 o
4 2 0 1278.55 1395.48 10.25 o
5 2 0 2666.38 2938.13 21.33 o
6 2 0 290.66 272.72 5.24 o
7 2 0 237.04 218.48 5.65 o
8 2 0 351.28 321.60 8.66 o
9 2 0 495.56 534.35 20.05 o
10 2 0 19.50 14.76 3.65 o
11 2 0 219.16 215.51 18.17 o
12 2 0 133.86 148.55 12.16 o
1 3 0 2300.90 2508.16 22.74 o
2 3 0 449.34 466.65 5.98 o
3 3 0 226.37 248.56 5.40 o
4 3 0 983.21 873.96 12.53 o
5 3 0 995.38 925.24 12.00 o
6 3 0 62.56 68.24 3.40 o
7 3 0 1080.85 1052.65 19.87 o
8 3 0 17.77 12.01 6.24 o
9 3 0 66.79 62.15 11.57 o
10 3 0 203.74 232.70 20.19 o
11 3 0 91.67 78.22 10.41 o
0 4 0 3299.47 3775.10 36.79 o
1 4 0 200.95 201.50 4.69 o
2 4 0 60.03 51.59 2.46 o
3 4 0 1676.66 1779.70 18.40 o
4 4 0 79.18 74.78 3.36 o
5 4 0 191.39 172.50 5.91 o
6 4 0 649.04 586.51 12.03 o
7 4 0 150.89 152.88 6.23 o
8 4 0 393.61 437.80 19.19 o
9 4 0 453.62 499.85 29.54 o
10 4 0 16.84 20.53 5.55 o
11 4 0 160.72 204.82 12.69 o
1 5 0 716.99 755.27 10.95 o
2 5 0 2395.75 2618.89 24.71 o
3 5 0 182.66 189.97 6.52 o
4 5 0 860.39 918.91 18.66 o
5 5 0 283.52 274.91 8.66 o
6 5 0 26.33 33.31 8.91 o
7 5 0 366.03 455.34 56.94 o
8 5 0 196.75 239.27 32.74 o
9 5 0 17.98 28.60 6.96 o
10 5 0 353.89 438.40 19.71 o
0 6 0 3135.14 3425.88 41.88 o
1 6 0 516.87 547.73 9.15 o
2 6 0 624.67 653.04 10.73 o
3 6 0 387.84 394.64 9.71 o
4 6 0 291.59 294.77 12.24 o
5 6 0 141.87 165.29 12.36 o
6 6 0 553.64 688.68 61.45 o
7 6 0 16.34 19.58 4.15 o
8 6 0 187.84 225.31 19.64 o
9 6 0 263.22 372.39 17.30 o
1 7 0 362.44 422.75 20.39 o
2 7 0 581.44 662.99 23.12 o
3 7 0 65.32 69.23 6.18 o
4 7 0 355.87 425.96 18.48 o
5 7 0 291.85 322.13 26.95 o
6 7 0 9.90 10.39 3.13 o
7 7 0 235.61 286.61 12.14 o
8 7 0 59.59 70.46 6.42 o
1 8 0 119.82 127.16 12.65 o
2 8 0 19.80 18.37 5.66 o
3 8 0 440.48 539.74 18.59 o
4 8 0 44.35 49.62 5.42 o
5 8 0 104.50 117.00 10.77 o
6 8 0 152.10 178.43 11.15 o
1 9 0 64.50 78.63 9.14 o
2 9 0 124.47 139.88 11.49 o
3 9 0 3.04 1.56 1.98 o
4 9 0 44.35 51.90 5.58 o
-4 -9 1 100.98 82.96 13.20 o
-3 -9 1 141.94 134.21 5.15 o
-2 -9 1 7.23 7.99 3.10 o
-1 -9 1 173.41 157.28 5.48 o
0 -9 1 137.80 130.90 5.08 o
1 -9 1 36.59 33.88 3.06 o
2 -9 1 290.10 265.47 9.66 o
3 -9 1 46.57 45.03 4.83 o
4 -9 1 12.04 10.71 3.01 o
-7 -8 1 12.92 6.79 3.93 o
-6 -8 1 52.06 51.25 4.26 o
-5 -8 1 193.47 181.71 20.16 o
-4 -8 1 0.82 2.44 2.18 o
-3 -8 1 92.97 86.78 7.13 o
-2 -8 1 219.87 207.85 6.38 o
-1 -8 1 105.72 95.96 3.83 o
0 -8 1 277.60 253.88 8.03 o
1 -8 1 639.33 624.01 14.00 o
2 -8 1 27.87 21.73 2.72 o
3 -8 1 220.92 201.44 7.03 o
4 -8 1 100.19 98.62 5.29 o
5 -8 1 2.45 0.78 1.23 o
6 -8 1 88.26 67.45 14.93 o
-8 -7 1 5.89 5.38 2.37 o
-7 -7 1 331.93 292.19 12.62 o
-6 -7 1 70.86 61.17 5.69 o
-5 -7 1 42.56 31.98 4.74 o
-4 -7 1 425.73 376.39 23.74 o
-3 -7 1 147.93 152.84 7.42 o
-2 -7 1 7.29 6.08 1.56 o
-1 -7 1 341.10 317.87 9.52 o
0 -7 1 39.05 32.81 2.91 o
1 -7 1 188.27 171.64 5.89 o
2 -7 1 541.27 509.61 19.49 o
3 -7 1 126.67 129.71 9.59 o
4 -7 1 364.38 319.62 11.91 o
5 -7 1 435.03 375.71 15.25 o
6 -7 1 90.24 73.09 5.11 o
7 -7 1 42.52 35.28 3.85 o
8 -7 1 69.81 60.07 6.24 o
-10 -6 1 28.10 21.16 3.11 o
-9 -6 1 132.27 135.06 6.97 o
-8 -6 1 242.50 237.58 11.07 o
-7 -6 1 36.79 28.82 4.50 o
-6 -6 1 80.03 67.53 6.83 o
-5 -6 1 375.14 367.51 16.10 o
-4 -6 1 67.19 66.96 5.15 o
-3 -6 1 755.35 672.61 11.35 o
-2 -6 1 154.32 154.74 5.56 o
-1 -6 1 121.14 123.63 4.62 o
0 -6 1 786.80 703.71 10.34 o
1 -6 1 540.65 476.70 9.86 o
2 -6 1 70.14 53.47 3.16 o
3 -6 1 271.14 240.25 7.54 o
4 -6 1 1042.41 948.00 25.72 o
5 -6 1 68.40 59.40 6.17 o
6 -6 1 595.95 550.54 18.50 o
7 -6 1 125.59 118.54 7.69 o
8 -6 1 34.67 28.04 3.50 o
9 -6 1 94.82 83.44 5.17 o
-10 -5 1 180.48 169.04 8.15 o
-9 -5 1 175.00 176.50 9.98 o
-8 -5 1 5.10 4.00 5.48 o
-7 -5 1 180.92 193.30 12.02 o
-6 -5 1 425.36 411.38 23.73 o
-5 -5 1 249.85 233.69 7.61 o
-4 -5 1 722.42 684.32 11.88 o
-3 -5 1 371.69 312.45 9.77 o
-2 -5 1 633.27 561.77 11.27 o
-1 -5 1 780.15 713.26 10.50 o
0 -5 1 541.00 499.78 7.70 o
1 -5 1 508.68 453.76 7.61 o
2 -5 1 701.63 602.59 12.40 o
3 -5 1 493.97 466.47 8.23 o
4 -5 1 330.44 312.63 7.92 o
5 -5 1 929.56 851.98 18.07 o
6 -5 1 182.54 174.76 10.89 o
7 -5 1 129.67 115.23 8.67 o
8 -5 1 656.22 598.15 18.65 o
9 -5 1 12.91 7.35 2.22 o
10 -5 1 45.93 36.81 3.48 o
-11 -4 1 272.11 295.97 10.45 o
-10 -4 1 29.46 30.36 6.12 o
-9 -4 1 182.40 203.68 16.73 o
-8 -4 1 1312.57 1303.44 46.55 o
-7 -4 1 115.37 99.43 5.53 o
-6 -4 1 57.11 61.33 3.29 o
-5 -4 1 1311.04 1263.19 19.23 o
-4 -4 1 189.60 205.32 5.56 o
-3 -4 1 581.26 521.53 7.94 o
-2 -4 1 609.63 522.45 6.92 o
-1 -4 1 202.78 179.16 3.80 o
0 -4 1 2045.86 1992.26 20.27 o
1 -4 1 1283.40 1271.87 10.69 o
2 -4 1 210.07 203.35 4.52 o
3 -4 1 1037.70 923.06 11.16 o
4 -4 1 641.23 585.44 9.31 o
5 -4 1 9.25 8.22 1.14 o
6 -4 1 883.83 844.13 18.59 o
7 -4 1 245.03 224.48 17.58 o
8 -4 1 47.30 41.44 7.53 o
9 -4 1 421.72 400.37 21.50 o
10 -4 1 179.55 174.03 8.20 o
-12 -3 1 136.90 110.21 7.26 o
-11 -3 1 0.78 -0.49 1.96 o
-10 -3 1 248.97 284.12 19.40 o
-9 -3 1 419.94 440.12 25.95 o
-8 -3 1 121.05 118.40 7.08 o
-7 -3 1 1383.52 1289.09 15.09 o
-6 -3 1 689.37 627.26 7.78 o
-5 -3 1 95.07 99.24 2.88 o
-4 -3 1 1119.15 1051.28 9.18 o
-3 -3 1 2942.63 3201.15 31.91 o
-2 -3 1 75.62 87.00 1.80 o
-1 -3 1 3050.16 3024.30 31.32 o
0 -3 1 434.98 412.32 4.49 o
1 -3 1 659.74 575.38 5.74 o
2 -3 1 4683.76 4928.70 33.33 o
3 -3 1 1374.01 1383.45 10.79 o
4 -3 1 474.15 431.74 5.99 o
5 -3 1 1880.62 1780.41 16.86 o
6 -3 1 529.48 517.69 7.75 o
7 -3 1 42.15 34.97 2.33 o
8 -3 1 291.09 275.57 19.60 o
9 -3 1 73.03 82.07 10.44 o
10 -3 1 93.54 84.61 9.49 o
11 -3 1 220.98 176.40 10.05 o
-12 -2 1 50.41 47.60 5.00 o
-11 -2 1 294.93 323.34 19.67 o
-10 -2 1 130.87 121.88 9.93 o
-9 -2 1 329.25 303.58 16.71 o
-8 -2 1 965.42 1008.98 15.62 o
-7 -2 1 266.93 249.80 5.10 o
-6 -2 1 497.83 485.02 6.45 o
-5 -2 1 2192.84 2293.06 18.91 o
-4 -2 1 32.14 44.39 1.68 o
-3 -2 1 176.54 171.36 2.19 o
-2 -2 1 5431.53 6421.63 42.33 o
-1 -2 1 378.22 379.62 5.74 o
0 -2 1 686.04 561.73 9.45 o
1 -2 1 9541.48 12537.81 112.42 o
2 -2 1 524.19 557.42 4.50 o
3 -2 1 1201.61 1205.50 9.23 o
4 -2 1 1217.90 1249.55 9.91 o
5 -2 1 32.53 30.48 1.63 o
6 -2 1 664.56 632.60 9.38 o
7 -2 1 1179.74 1205.23 13.95 o
8 -2 1 5.53 7.06 2.31 o
9 -2 1 523.57 536.72 20.89 o
10 -2 1 86.40 89.42 7.76 o
11 -2 1 14.45 9.73 2.92 o
-12 -1 1 275.68 241.61 15.92 o
-11 -1 1 9.20 -3.56 3.60 o
-10 -1 1 474.76 539.40 19.59 o
-9 -1 1 303.45 293.66 17.62 o
-8 -1 1 70.98 66.03 3.23 o
-7 -1 1 593.82 632.06 10.16 o
-6 -1 1 1529.93 1503.37 12.53 o
-5 -1 1 1418.69 1570.50 11.66 o
-4 -1 1 505.18 460.29 4.56 o
-3 -1 1 2835.27 3066.16 15.44 o
-2 -1 1 1576.26 1425.09 8.28 o
-1 -1 1 3560.50 4302.59 30.81 o
0 -1 1 1943.60 2203.82 37.14 o
1 -1 1 32.65 46.92 1.04 o
2 -1 1 4643.56 5253.77 29.61 o
3 -1 1 296.61 306.48 3.22 o
4 -1 1 1306.25 1270.18 8.47 o
5 -1 1 2089.00 2074.65 15.34 o
6 -1 1 311.73 334.97 6.01 o
7 -1 1 323.45 297.65 6.12 o
8 -1 1 1232.06 1263.80 17.30 o
9 -1 1 25.68 27.88 5.09 o
10 -1 1 202.25 191.73 10.89 o
11 -1 1 299.11 258.66 19.10 o
-12 0 1 40.14 34.47 6.52 o
-11 0 1 118.21 153.74 10.07 o
-10 0 1 53.52 63.40 5.85 o
-9 0 1 550.18 525.47 17.22 o
-8 0 1 524.66 533.49 13.71 o
-7 0 1 544.24 594.95 9.74 o
-6 0 1 342.22 271.20 4.81 o
-5 0 1 694.00 351.38 4.53 o
-4 0 1 98.44 6.03 0.57 o
-3 0 1 3628.80 7158.21 26.38 o
-2 0 1 562.02 2799.97 10.18 o
-1 0 1 5467.97 2151.04 18.43 o
0 0 1 7331.66 4476.72 67.07 o
1 0 1 2082.24 320.50 2.53 o
2 0 1 253.53 2.52 0.41 o
3 0 1 2373.18 3621.85 18.58 o
4 0 1 2844.28 3621.36 17.47 o
5 0 1 2.96 10.32 0.94 o
6 0 1 2313.53 2271.21 17.21 o
7 0 1 342.76 332.44 6.47 o
8 0 1 168.92 125.85 4.71 o
9 0 1 167.37 179.81 13.30 o
10 0 1 446.46 411.82 28.34 o
11 0 1 66.85 47.01 8.92 o
12 0 1 220.98 227.55 14.34 o
-12 1 1 254.89 251.57 17.55 o
-11 1 1 9.05 13.86 6.40 o
-10 1 1 495.95 517.30 20.06 o
-9 1 1 292.81 268.72 12.08 o
-8 1 1 63.45 62.29 2.90 o
-7 1 1 588.50 608.67 9.15 o
-6 1 1 1546.13 1522.88 13.47 o
-5 1 1 1466.76 1634.77 10.98 o
-4 1 1 471.37 460.93 4.85 o
-3 1 1 2815.71 3111.17 15.67 o
-2 1 1 1678.89 1578.63 11.14 o
-1 1 1 3603.10 4404.95 26.80 o
0 1 1 2142.64 2702.23 25.77 o
1 1 1 17.33 24.88 0.66 o
2 1 1 4645.50 5308.90 32.20 o
3 1 1 268.38 273.63 3.26 o
4 1 1 1267.37 1257.24 9.42 o
5 1 1 1994.22 1988.25 18.09 o
6 1 1 315.67 337.85 5.87 o
7 1 1 317.64 303.09 6.56 o
8 1 1 1295.49 1314.22 21.92 o
9 1 1 17.64 21.07 4.45 o
10 1 1 192.05 158.06 17.74 o
11 1 1 278.82 287.74 21.01 o
12 1 1 34.98 28.02 5.59 o
-12 2 1 55.35 55.31 8.17 o
-11 2 1 293.62 298.31 12.72 o
-10 2 1 131.06 111.48 8.94 o
-9 2 1 335.91 361.16 18.44 o
-8 2 1 1033.81 1060.76 21.54 o
-7 2 1 267.93 250.97 5.75 o
-6 2 1 475.81 465.50 7.04 o
-5 2 1 2240.43 2355.52 18.94 o
-4 2 1 25.87 42.38 2.20 o
-3 2 1 103.00 97.76 2.97 o
-2 2 1 5380.54 6563.89 51.26 o
-1 2 1 356.97 394.83 4.38 o
0 2 1 601.17 534.82 5.52 o
1 2 1 9547.73 12878.20 98.81 o
2 2 1 522.50 596.60 5.82 o
3 2 1 1140.73 1173.23 8.96 o
4 2 1 1186.78 1263.40 10.35 o
5 2 1 29.78 30.12 1.70 o
6 2 1 703.15 678.22 8.84 o
7 2 1 1135.92 1192.33 15.49 o
8 2 1 6.23 7.51 3.01 o
9 2 1 519.96 582.39 35.20 o
10 2 1 100.55 123.30 15.22 o
11 2 1 19.30 16.79 5.43 o
-12 3 1 142.83 159.98 10.58 o
-11 3 1 0.91 0.89 2.72 o
-10 3 1 231.85 262.93 12.59 o
-9 3 1 427.01 424.95 19.77 o
-8 3 1 127.58 122.94 6.74 o
-7 3 1 1365.93 1247.98 32.19 o
-6 3 1 708.37 672.48 13.22 o
-5 3 1 104.67 103.05 3.83 o
-4 3 1 1094.23 1061.48 12.50 o
-3 3 1 3036.67 3453.50 25.78 o
-2 3 1 87.60 107.09 2.75 o
-1 3 1 2976.54 3190.13 29.80 o
0 3 1 431.16 443.55 5.84 o
1 3 1 667.52 647.04 8.09 o
2 3 1 4737.90 5479.06 45.95 o
3 3 1 1390.34 1500.79 13.91 o
4 3 1 465.70 443.03 6.68 o
5 3 1 1927.46 1905.58 21.35 o
6 3 1 541.75 552.14 10.53 o
7 3 1 26.34 27.74 2.93 o
8 3 1 242.34 239.33 22.77 o
9 3 1 78.08 76.38 13.05 o
10 3 1 96.51 91.59 12.60 o
11 3 1 219.32 227.59 16.09 o
-11 4 1 274.92 382.81 18.74 o
-10 4 1 33.51 40.32 7.83 o
-9 4 1 184.46 209.09 12.96 o
-8 4 1 1274.88 1383.70 37.28 o
-7 4 1 116.20 106.61 5.42 o
-6 4 1 46.24 58.17 3.51 o
-5 4 1 1320.75 1352.63 17.79 o
-4 4 1 187.20 216.75 6.17 o
-3 4 1 568.58 560.97 8.79 o
-2 4 1 654.84 636.67 8.10 o
-1 4 1 203.87 217.91 4.85 o
0 4 1 1984.35 2177.98 17.99 o
1 4 1 1368.04 1467.49 15.17 o
2 4 1 208.18 222.54 5.15 o
3 4 1 1037.07 987.24 13.20 o
4 4 1 623.62 602.18 9.95 o
5 4 1 8.16 6.76 1.33 o
6 4 1 928.41 945.47 19.07 o
7 4 1 251.98 269.11 22.57 o
8 4 1 42.17 53.05 10.28 o
9 4 1 440.94 455.66 27.65 o
10 4 1 161.53 193.61 13.66 o
11 4 1 38.32 42.98 5.22 o
-10 5 1 178.99 239.60 14.92 o
-9 5 1 191.24 251.54 19.49 o
-8 5 1 5.35 5.71 3.26 o
-7 5 1 161.27 173.62 19.38 o
-6 5 1 420.72 436.11 13.03 o
-5 5 1 237.24 245.12 6.91 o
-4 5 1 721.48 776.12 20.88 o
-3 5 1 358.00 363.96 8.28 o
-2 5 1 617.04 627.70 10.79 o
-1 5 1 767.30 813.43 11.36 o
0 5 1 510.64 549.97 9.20 o
1 5 1 503.80 525.09 8.45 o
2 5 1 743.80 731.43 12.79 o
3 5 1 453.08 452.59 10.25 o
4 5 1 301.06 315.38 7.92 o
5 5 1 1008.87 1043.75 18.45 o
6 5 1 160.32 188.24 20.56 o
7 5 1 128.77 185.30 18.84 o
8 5 1 659.14 874.75 38.44 o
9 5 1 12.29 13.04 4.55 o
10 5 1 50.43 63.09 7.00 o
-9 6 1 136.37 179.76 17.36 o
-8 6 1 257.13 315.89 27.01 o
-7 6 1 33.00 32.14 5.38 o
-6 6 1 64.09 70.91 8.15 o
-5 6 1 360.51 447.08 19.62 o
-4 6 1 66.35 76.82 4.15 o
-3 6 1 775.45 838.24 13.97 o
-2 6 1 128.05 150.02 5.41 o
-1 6 1 111.93 131.39 5.38 o
0 6 1 808.64 871.81 12.50 o
1 6 1 579.93 590.97 11.60 o
2 6 1 67.95 67.08 3.95 o
3 6 1 226.82 225.71 7.33 o
4 6 1 1093.31 1295.53 34.95 o
5 6 1 69.95 81.96 8.46 o
6 6 1 581.38 681.87 46.96 o
7 6 1 119.16 143.25 14.34 o
8 6 1 33.77 44.53 7.16 o
9 6 1 90.00 114.15 8.96 o
-8 7 1 5.37 3.56 2.50 o
-7 7 1 322.81 395.38 17.96 o
-6 7 1 74.12 92.06 7.70 o
-5 7 1 47.98 57.74 6.67 o
-4 7 1 436.22 500.04 19.22 o
-3 7 1 132.65 151.75 9.03 o
-2 7 1 10.94 10.20 5.21 o
-1 7 1 314.65 342.10 23.82 o
0 7 1 61.67 63.12 10.65 o
1 7 1 198.87 203.12 18.41 o
2 7 1 520.78 645.63 32.49 o
3 7 1 119.05 156.83 11.47 o
4 7 1 364.78 393.57 17.53 o
5 7 1 425.87 479.41 18.07 o
6 7 1 89.06 90.31 7.05 o
7 7 1 41.22 50.70 6.84 o
8 7 1 84.40 86.37 6.96 o
-6 8 1 49.99 55.00 6.99 o
-5 8 1 206.29 244.98 16.70 o
-4 8 1 0.71 -3.17 3.61 o
-3 8 1 91.83 107.22 8.54 o
-2 8 1 209.52 261.80 13.69 o
-1 8 1 107.90 122.83 12.93 o
0 8 1 273.62 297.15 20.01 o
1 8 1 645.08 763.59 32.80 o
2 8 1 26.66 31.14 6.19 o
3 8 1 207.35 252.46 12.60 o
4 8 1 98.04 122.47 8.05 o
5 8 1 2.50 5.86 2.12 o
6 8 1 98.65 102.04 7.65 o
-4 9 1 108.23 129.00 9.39 o
-3 9 1 151.76 170.63 12.03 o
-2 9 1 4.19 7.38 3.23 o
-1 9 1 174.63 208.26 14.42 o
0 9 1 128.45 154.60 11.70 o
1 9 1 37.17 40.23 4.54 o
2 9 1 304.70 362.15 17.85 o
3 9 1 53.43 73.40 7.23 o
-4 -9 2 70.69 63.74 9.10 o
-3 -9 2 302.12 274.41 7.36 o
-2 -9 2 11.07 7.88 1.68 o
-1 -9 2 110.09 97.94 4.95 o
0 -9 2 142.67 130.27 6.97 o
1 -9 2 22.44 26.29 5.02 o
2 -9 2 77.14 78.39 5.78 o
3 -9 2 163.71 148.25 4.96 o
-7 -8 2 40.62 34.26 4.22 o
-6 -8 2 27.32 24.03 4.42 o
-5 -8 2 268.91 244.60 23.38 o
-4 -8 2 212.57 206.49 10.40 o
-3 -8 2 29.74 21.94 2.46 o
-2 -8 2 516.27 502.35 10.00 o
-1 -8 2 38.11 40.14 2.77 o
0 -8 2 86.15 75.78 3.92 o
1 -8 2 355.39 345.30 10.12 o
2 -8 2 90.98 81.34 6.80 o
3 -8 2 15.78 15.33 4.12 o
4 -8 2 304.32 300.74 9.32 o
5 -8 2 82.33 73.34 4.48 o
6 -8 2 67.90 62.14 5.25 o
-8 -7 2 49.95 46.86 5.19 o
-7 -7 2 114.49 95.33 5.34 o
-6 -7 2 495.58 440.70 18.13 o
-5 -7 2 151.68 133.75 7.33 o
-4 -7 2 235.74 205.35 8.70 o
-3 -7 2 251.23 225.01 11.99 o
-2 -7 2 601.20 574.14 14.76 o
-1 -7 2 92.07 92.66 5.92 o
0 -7 2 111.88 101.23 5.43 o
1 -7 2 3.48 4.05 1.75 o
2 -7 2 210.85 211.39 12.05 o
3 -7 2 207.22 200.20 11.32 o
4 -7 2 12.01 6.67 3.40 o
5 -7 2 241.29 209.26 10.65 o
6 -7 2 328.48 300.13 12.56 o
7 -7 2 5.60 5.24 2.61 o
-10 -6 2 134.96 113.47 5.13 o
-9 -6 2 3.96 5.13 2.00 o
-8 -6 2 205.64 187.98 14.57 o
-7 -6 2 384.34 351.56 26.49 o
-6 -6 2 28.07 26.26 3.79 o
-5 -6 2 324.39 296.69 13.48 o
-4 -6 2 435.37 393.08 14.17 o
-3 -6 2 96.19 73.03 3.75 o
-2 -6 2 606.29 517.70 13.81 o
-1 -6 2 419.79 398.71 10.64 o
0 -6 2 29.74 31.25 3.09 o
1 -6 2 582.63 526.66 9.20 o
2 -6 2 317.11 310.31 7.67 o
3 -6 2 165.94 143.92 7.86 o
4 -6 2 280.72 265.21 10.47 o
5 -6 2 60.27 58.44 6.39 o
6 -6 2 68.73 49.73 4.31 o
7 -6 2 307.20 288.86 10.92 o
8 -6 2 98.56 86.59 5.95 o
9 -6 2 28.62 20.07 3.76 o
-11 -5 2 103.42 83.16 4.39 o
-10 -5 2 54.41 50.35 4.93 o
-9 -5 2 406.70 405.86 15.96 o
-8 -5 2 70.40 65.33 7.10 o
-7 -5 2 11.11 6.92 3.23 o
-6 -5 2 950.48 947.78 22.71 o
-5 -5 2 9.71 10.15 2.04 o
-4 -5 2 101.49 84.61 4.19 o
-3 -5 2 1002.53 926.54 18.84 o
-2 -5 2 67.25 63.58 3.97 o
-1 -5 2 285.64 250.60 6.27 o
0 -5 2 1059.14 967.60 19.11 o
1 -5 2 224.76 196.06 5.89 o
2 -5 2 665.79 580.32 9.93 o
3 -5 2 1274.12 1218.82 14.90 o
4 -5 2 237.96 203.55 7.65 o
5 -5 2 470.72 416.27 19.56 o
6 -5 2 49.00 49.82 5.91 o
7 -5 2 45.96 44.81 5.29 o
8 -5 2 293.52 276.28 11.23 o
9 -5 2 145.21 129.55 5.94 o
10 -5 2 14.68 13.60 2.86 o
-11 -4 2 155.31 158.84 8.33 o
-10 -4 2 153.08 135.39 13.36 o
-9 -4 2 45.66 31.30 6.34 o
-8 -4 2 459.18 490.89 17.78 o
-7 -4 2 667.78 651.85 16.61 o
-6 -4 2 19.65 17.50 2.05 o
-5 -4 2 692.93 643.58 13.35 o
-4 -4 2 980.84 951.45 20.15 o
-3 -4 2 502.26 472.98 8.31 o
-2 -4 2 1099.29 1067.15 15.32 o
-1 -4 2 1209.04 1213.78 16.35 o
0 -4 2 496.99 475.40 6.47 o
1 -4 2 886.07 757.16 10.55 o
2 -4 2 801.15 693.78 9.04 o
3 -4 2 696.36 679.73 8.92 o
4 -4 2 439.60 404.69 8.14 o
5 -4 2 271.73 270.00 6.72 o
6 -4 2 487.16 412.77 8.43 o
7 -4 2 1353.60 1242.54 42.53 o
8 -4 2 67.63 79.24 7.02 o
9 -4 2 56.78 54.15 5.11 o
10 -4 2 411.09 353.42 34.60 o
-12 -3 2 162.17 156.50 9.94 o
-11 -3 2 34.82 33.97 4.70 o
-10 -3 2 49.96 53.03 9.72 o
-9 -3 2 134.29 141.37 15.19 o
-8 -3 2 37.91 28.41 2.69 o
-7 -3 2 949.23 923.10 11.85 o
-6 -3 2 1122.79 1093.82 11.86 o
-5 -3 2 96.17 97.79 2.78 o
-4 -3 2 1842.62 1967.48 16.44 o
-3 -3 2 3617.74 3849.52 30.00 o
-2 -3 2 1642.15 1683.88 24.83 o
-1 -3 2 3271.67 3234.27 37.14 o
0 -3 2 379.68 256.76 4.16 o
1 -3 2 169.18 193.15 3.49 o
2 -3 2 1766.52 1826.63 17.34 o
3 -3 2 1982.86 2046.83 14.33 o
4 -3 2 1.55 7.52 1.06 o
5 -3 2 1303.00 1177.68 12.52 o
6 -3 2 2240.14 2006.89 17.41 o
7 -3 2 20.26 16.98 2.17 o
8 -3 2 419.58 412.50 23.53 o
9 -3 2 293.29 270.56 17.70 o
10 -3 2 18.86 13.48 2.09 o
-12 -2 2 11.16 17.10 3.78 o
-11 -2 2 185.14 174.61 29.93 o
-10 -2 2 195.35 187.40 17.00 o
-9 -2 2 52.65 61.28 5.93 o
-8 -2 2 967.01 1026.24 18.03 o
-7 -2 2 569.74 580.83 9.36 o
-6 -2 2 8.33 11.43 1.15 o
-5 -2 2 875.25 816.77 8.62 o
-4 -2 2 4049.63 4571.76 28.10 o
-3 -2 2 1272.86 1351.11 14.86 o
-2 -2 2 2267.37 2355.35 24.62 o
-1 -2 2 723.48 715.80 5.33 o
0 -2 2 436.64 450.68 9.09 o
1 -2 2 3339.46 3710.21 58.40 o
2 -2 2 783.43 873.89 7.76 o
3 -2 2 281.96 245.52 3.49 o
4 -2 2 1837.68 1796.00 13.88 o
5 -2 2 639.10 642.58 8.36 o
6 -2 2 494.60 486.26 7.76 o
7 -2 2 1450.01 1407.48 19.20 o
8 -2 2 95.85 91.29 8.74 o
9 -2 2 125.46 114.81 9.29 o
10 -2 2 422.38 456.96 26.01 o
11 -2 2 31.30 27.91 4.06 o
-12 -1 2 249.73 191.51 14.67 o
-11 -1 2 172.71 167.71 25.46 o
-10 -1 2 152.41 148.85 9.58 o
-9 -1 2 483.23 513.67 19.63 o
-8 -1 2 523.59 498.74 8.82 o
-7 -1 2 747.34 751.36 12.20 o
-6 -1 2 1153.37 1173.94 12.18 o
-5 -1 2 1107.86 1184.07 9.61 o
-4 -1 2 1064.09 1114.06 8.92 o
-3 -1 2 2394.88 2320.01 24.00 o
-2 -1 2 2318.80 2697.01 19.65 o
-1 -1 2 190.14 235.50 2.19 o
0 -1 2 5953.10 6925.48 90.33 o
1 -1 2 296.21 435.11 3.92 o
2 -1 2 990.48 941.62 6.63 o
3 -1 2 2329.01 2362.16 13.68 o
4 -1 2 100.27 98.75 2.37 o
5 -1 2 860.90 796.90 8.41 o
6 -1 2 950.64 1008.10 12.14 o
7 -1 2 22.66 16.14 1.56 o
8 -1 2 306.10 315.77 16.26 o
9 -1 2 529.87 557.75 21.62 o
10 -1 2 41.19 36.17 5.07 o
11 -1 2 272.99 285.33 18.34 o
-12 0 2 7.51 6.19 3.60 o
-11 0 2 103.08 109.07 9.41 o
-10 0 2 130.12 131.16 8.59 o
-9 0 2 257.60 251.62 7.84 o
-8 0 2 1386.08 1371.46 26.84 o
-7 0 2 835.61 683.14 10.91 o
-6 0 2 169.43 291.46 5.45 o
-5 0 2 510.75 870.26 7.65 o
-4 0 2 2100.69 3448.40 34.67 o
-3 0 2 223.66 9.25 0.54 o
-2 0 2 1700.13 216.85 2.11 o
-1 0 2 4638.48 1911.49 18.12 o
0 0 2 2253.18 522.85 9.64 o
1 0 2 5181.34 10777.47 125.72 o
2 0 2 1600.92 2671.12 13.70 o
3 0 2 810.56 544.77 4.96 o
4 0 2 233.11 144.47 2.96 o
5 0 2 211.90 194.24 3.97 o
6 0 2 502.15 444.46 7.92 o
7 0 2 902.19 853.03 11.72 o
8 0 2 207.38 194.35 6.60 o
9 0 2 0.77 1.14 2.41 o
10 0 2 403.46 419.49 28.26 o
11 0 2 16.01 16.86 5.39 o
-12 1 2 237.60 230.75 17.25 o
-11 1 2 177.06 177.71 13.21 o
-10 1 2 161.73 150.81 11.17 o
-9 1 2 521.17 547.38 20.34 o
-8 1 2 488.57 457.65 9.81 o
-7 1 2 697.08 689.54 9.81 o
-6 1 2 1111.38 1127.75 13.51 o
-5 1 2 1075.10 1160.33 10.70 o
-4 1 2 992.01 1037.65 7.82 o
-3 1 2 2483.97 2461.64 13.89 o
-2 1 2 2226.81 2598.55 24.39 o
-1 1 2 131.29 188.23 2.33 o
0 1 2 6414.21 9341.69 178.82 o
1 1 2 271.91 407.34 4.64 o
2 1 2 894.06 874.06 7.23 o
3 1 2 2427.14 2529.32 21.34 o
4 1 2 103.29 102.47 2.28 o
5 1 2 852.64 820.43 9.09 o
6 1 2 893.54 946.11 11.97 o
7 1 2 22.17 18.35 1.85 o
8 1 2 321.26 295.72 11.88 o
9 1 2 530.08 550.82 35.18 o
10 1 2 38.26 40.80 8.71 o
11 1 2 270.80 301.87 20.53 o
-12 2 2 10.82 9.34 2.56 o
-11 2 2 190.97 205.59 11.25 o
-10 2 2 187.22 190.08 10.94 o
-9 2 2 53.93 63.92 8.35 o
-8 2 2 991.63 1036.04 26.70 o
-7 2 2 544.85 552.98 13.93 o
-6 2 2 9.83 12.85 1.28 o
-5 2 2 782.42 723.33 11.60 o
-4 2 2 4074.60 4651.21 26.11 o
-3 2 2 1270.42 1391.87 10.68 o
-2 2 2 2194.04 2350.58 16.12 o
-1 2 2 815.60 877.14 13.70 o
0 2 2 448.08 522.42 11.33 o
1 2 2 3223.17 3763.87 28.88 o
2 2 2 729.88 851.38 7.51 o
3 2 2 265.83 237.10 3.74 o
4 2 2 1854.01 1869.29 14.57 o
5 2 2 607.13 641.56 8.60 o
6 2 2 502.72 510.77 8.05 o
7 2 2 1502.51 1520.53 27.86 o
8 2 2 93.79 92.40 14.58 o
9 2 2 120.15 110.85 16.01 o
10 2 2 436.73 492.76 30.19 o
11 2 2 32.63 35.40 6.95 o
-12 3 2 165.45 151.64 11.36 o
-11 3 2 30.63 30.01 4.01 o
-10 3 2 43.53 32.72 5.31 o
-9 3 2 103.23 100.01 10.13 o
-8 3 2 38.36 40.10 3.05 o
-7 3 2 969.65 902.21 14.11 o
-6 3 2 1116.81 1058.30 28.32 o
-5 3 2 112.60 116.08 4.25 o
-4 3 2 1943.37 2200.67 33.85 o
-3 3 2 3508.82 4015.03 53.11 o
-2 3 2 1692.50 1924.56 14.62 o
-1 3 2 3314.85 3670.54 35.66 o
0 3 2 335.80 256.05 4.53 o
1 3 2 157.98 191.50 3.78 o
2 3 2 1824.55 2055.97 17.78 o
3 3 2 1998.90 2273.15 18.03 o
4 3 2 2.39 8.40 1.18 o
5 3 2 1329.66 1278.58 14.93 o
6 3 2 2258.87 2249.03 26.63 o
7 3 2 19.76 22.33 3.30 o
8 3 2 409.63 406.89 31.05 o
9 3 2 290.29 285.53 24.21 o
10 3 2 19.62 21.39 6.30 o
11 3 2 90.87 90.20 5.85 o
-11 4 2 153.94 217.47 14.27 o
-10 4 2 156.84 148.39 10.45 o
-9 4 2 45.08 38.68 7.31 o
-8 4 2 456.71 536.61 34.92 o
-7 4 2 700.81 678.17 14.33 o
-6 4 2 17.95 13.42 1.83 o
-5 4 2 707.61 703.65 12.99 o
-4 4 2 1043.57 1107.92 15.98 o
-3 4 2 523.93 533.91 8.42 o
-2 4 2 984.52 1054.31 10.92 o
-1 4 2 1262.40 1436.20 17.20 o
0 4 2 535.90 581.38 9.56 o
1 4 2 827.17 760.52 9.83 o
2 4 2 853.87 821.94 11.45 o
3 4 2 700.56 755.83 14.42 o
4 4 2 464.04 478.30 10.91 o
5 4 2 263.14 284.58 8.92 o
6 4 2 482.77 445.45 13.08 o
7 4 2 1323.61 1384.63 54.93 o
8 4 2 74.83 80.02 12.96 o
9 4 2 69.45 77.28 11.20 o
10 4 2 410.83 485.61 41.51 o
-10 5 2 58.60 70.10 6.52 o
-9 5 2 404.97 497.71 47.32 o
-8 5 2 87.22 109.56 21.91 o
-7 5 2 17.43 20.39 8.68 o
-6 5 2 967.38 990.62 17.07 o
-5 5 2 16.44 18.58 2.08 o
-4 5 2 96.24 96.40 4.77 o
-3 5 2 1009.48 1098.34 16.69 o
-2 5 2 74.18 84.90 4.20 o
-1 5 2 254.98 248.21 6.10 o
0 5 2 1039.65 1108.59 14.09 o
1 5 2 213.21 209.32 6.13 o
2 5 2 583.07 580.52 11.83 o
3 5 2 1334.81 1366.68 47.18 o
4 5 2 228.72 219.11 6.60 o
5 5 2 439.07 437.60 14.31 o
6 5 2 53.83 73.61 12.52 o
7 5 2 47.68 61.37 10.92 o
8 5 2 300.55 384.49 23.50 o
9 5 2 146.97 170.59 13.06 o
10 5 2 16.78 19.29 3.37 o
-9 6 2 3.80 5.76 2.49 o
-8 6 2 202.75 247.89 12.45 o
-7 6 2 377.46 462.83 34.75 o
-6 6 2 27.03 35.40 5.96 o
-5 6 2 352.69 365.36 27.32 o
-4 6 2 382.41 426.21 10.75 o
-3 6 2 87.35 79.21 4.91 o
-2 6 2 646.56 695.74 13.05 o
-1 6 2 440.68 508.59 10.81 o
0 6 2 28.57 36.57 2.75 o
1 6 2 581.03 600.90 11.82 o
2 6 2 311.70 346.48 9.03 o
3 6 2 155.07 161.42 7.25 o
4 6 2 267.46 339.02 16.86 o
5 6 2 47.16 49.69 10.47 o
6 6 2 61.57 67.78 10.38 o
7 6 2 337.08 418.31 23.33 o
8 6 2 95.26 106.17 10.21 o
9 6 2 20.43 22.18 3.76 o
-8 7 2 44.91 67.83 7.85 o
-7 7 2 106.44 109.36 11.90 o
-6 7 2 483.66 542.85 29.55 o
-5 7 2 153.65 173.66 17.65 o
-4 7 2 230.19 244.83 22.90 o
-3 7 2 229.43 254.66 14.98 o
-2 7 2 609.28 614.46 33.04 o
-1 7 2 104.49 107.06 13.97 o
0 7 2 99.93 110.88 13.81 o
1 7 2 2.83 -0.71 3.94 o
2 7 2 195.80 250.58 20.20 o
3 7 2 227.85 287.63 15.11 o
4 7 2 10.18 12.51 5.20 o
5 7 2 227.08 244.60 14.43 o
6 7 2 322.39 358.51 19.79 o
7 7 2 5.61 6.53 3.23 o
-7 8 2 47.87 56.09 5.97 o
-6 8 2 28.21 30.74 5.66 o
-5 8 2 247.84 315.49 19.48 o
-4 8 2 225.60 244.92 18.37 o
-3 8 2 30.00 35.07 5.24 o
-2 8 2 505.15 577.78 35.85 o
-1 8 2 39.58 41.26 8.07 o
0 8 2 91.82 88.81 11.48 o
1 8 2 330.17 381.16 22.92 o
2 8 2 102.40 111.04 16.94 o
3 8 2 22.81 22.36 4.34 o
4 8 2 305.39 361.87 13.10 o
5 8 2 80.33 96.70 8.76 o
-4 9 2 80.67 97.76 8.22 o
-3 9 2 308.42 347.75 17.13 o
-2 9 2 14.35 20.90 5.01 o
-1 9 2 106.19 110.24 6.68 o
0 9 2 137.18 155.47 7.00 o
1 9 2 19.64 24.84 2.70 o
2 9 2 90.11 102.15 4.69 o
-4 -9 3 0.44 -1.15 1.15 o
-3 -9 3 87.65 81.93 4.78 o
-2 -9 3 74.51 70.38 4.64 o
-1 -9 3 4.93 2.90 3.56 o
0 -9 3 81.64 74.88 5.55 o
1 -9 3 42.91 47.10 3.83 o
2 -9 3 3.81 7.04 1.16 o
-7 -8 3 209.75 201.48 7.11 o
-6 -8 3 13.29 15.85 2.77 o
-5 -8 3 91.59 88.81 8.64 o
-4 -8 3 217.00 220.73 8.37 o
-3 -8 3 1.89 1.34 1.47 o
-2 -8 3 12.96 15.12 2.15 o
-1 -8 3 281.53 246.90 7.16 o
0 -8 3 41.22 40.19 3.04 o
1 -8 3 45.65 46.02 3.18 o
2 -8 3 600.08 586.59 14.91 o
3 -8 3 22.59 23.55 2.80 o
4 -8 3 61.48 54.28 3.70 o
5 -8 3 108.96 94.97 5.55 o
-8 -7 3 107.57 110.89 6.28 o
-7 -7 3 29.46 25.06 2.96 o
-6 -7 3 233.47 200.16 8.35 o
-5 -7 3 307.51 297.42 32.16 o
-4 -7 3 2.85 2.44 1.82 o
-3 -7 3 405.64 369.55 11.62 o
-2 -7 3 399.34 388.05 10.64 o
-1 -7 3 24.38 27.82 2.94 o
0 -7 3 334.69 298.32 10.03 o
1 -7 3 212.42 210.30 8.28 o
2 -7 3 134.95 124.09 7.67 o
3 -7 3 502.39 459.18 26.13 o
4 -7 3 149.57 133.76 9.76 o
5 -7 3 10.88 11.69 3.07 o
6 -7 3 283.99 238.37 10.25 o
7 -7 3 7.97 11.90 3.29 o
-10 -6 3 90.56 74.44 4.29 o
-9 -6 3 187.30 172.81 6.65 o
-8 -6 3 115.61 102.55 6.10 o
-7 -6 3 322.79 296.91 32.54 o
-6 -6 3 24.27 26.10 4.62 o
-5 -6 3 88.19 66.12 5.93 o
-4 -6 3 604.50 494.68 21.30 o
-3 -6 3 445.40 391.64 8.12 o
-2 -6 3 1916.07 1697.20 38.28 o
-1 -6 3 1073.47 1000.90 20.22 o
0 -6 3 242.18 216.94 5.95 o
1 -6 3 203.16 171.23 4.66 o
2 -6 3 593.88 515.24 11.10 o
3 -6 3 274.09 231.68 10.81 o
4 -6 3 268.22 246.13 11.07 o
5 -6 3 250.72 259.65 8.80 o
6 -6 3 128.08 114.82 5.40 o
7 -6 3 312.00 296.39 19.47 o
8 -6 3 323.04 281.28 15.59 o
-11 -5 3 134.78 102.37 6.10 o
-10 -5 3 5.64 8.23 2.69 o
-9 -5 3 98.44 108.76 8.54 o
-8 -5 3 125.71 112.07 9.54 o
-7 -5 3 8.22 5.53 3.56 o
-6 -5 3 467.49 442.84 15.81 o
-5 -5 3 887.22 832.87 16.95 o
-4 -5 3 219.81 185.46 5.51 o
-3 -5 3 1053.19 948.87 26.38 o
-2 -5 3 646.73 591.64 12.60 o
-1 -5 3 64.66 67.60 3.42 o
0 -5 3 1770.43 1690.00 29.33 o
1 -5 3 746.68 716.16 10.73 o
2 -5 3 423.17 377.22 6.27 o
3 -5 3 179.85 161.94 4.81 o
4 -5 3 707.50 696.09 13.47 o
5 -5 3 4.39 3.63 2.21 o
6 -5 3 482.03 445.96 13.18 o
7 -5 3 271.15 266.45 18.51 o
8 -5 3 164.05 153.38 8.58 o
9 -5 3 190.56 163.13 11.28 o
-11 -4 3 10.82 10.53 2.72 o
-10 -4 3 300.92 330.91 13.55 o
-9 -4 3 297.50 345.93 15.15 o
-8 -4 3 19.02 17.43 4.54 o
-7 -4 3 571.06 529.20 11.21 o
-6 -4 3 152.74 150.50 4.62 o
-5 -4 3 20.82 18.47 1.96 o
-4 -4 3 1037.58 969.24 19.00 o
-3 -4 3 93.68 74.87 2.89 o
-2 -4 3 843.63 783.81 13.32 o
-1 -4 3 1265.91 1174.46 12.20 o
0 -4 3 481.50 477.08 7.22 o
1 -4 3 422.89 415.44 6.95 o
2 -4 3 926.27 885.78 16.86 o
3 -4 3 288.18 270.81 6.21 o
4 -4 3 256.66 217.70 6.86 o
5 -4 3 456.29 415.56 9.84 o
6 -4 3 236.00 231.78 11.95 o
7 -4 3 542.15 519.23 17.53 o
8 -4 3 421.80 416.82 20.97 o
9 -4 3 17.47 13.05 2.76 o
10 -4 3 217.43 195.52 10.99 o
-12 -3 3 31.37 29.14 4.26 o
-11 -3 3 169.13 189.32 14.21 o
-10 -3 3 136.54 132.60 19.74 o
-9 -3 3 123.98 130.08 14.72 o
-8 -3 3 290.78 287.81 7.64 o
-7 -3 3 46.31 43.28 2.53 o
-6 -3 3 389.63 342.66 6.76 o
-5 -3 3 540.31 533.68 7.09 o
-4 -3 3 110.41 120.08 3.32 o
-3 -3 3 921.14 835.27 10.43 o
-2 -3 3 2163.70 2188.32 24.50 o
-1 -3 3 1025.37 1102.49 13.47 o
0 -3 3 1366.69 1357.98 18.85 o
1 -3 3 661.69 673.77 13.19 o
2 -3 3 81.91 109.51 3.28 o
3 -3 3 1774.81 1502.97 33.65 o
4 -3 3 822.26 765.37 19.44 o
5 -3 3 824.59 721.71 11.11 o
6 -3 3 227.54 204.69 7.23 o
7 -3 3 1.38 3.00 2.83 o
8 -3 3 1.03 5.91 2.94 o
9 -3 3 626.67 576.95 35.34 o
10 -3 3 15.20 17.25 4.04 o
-12 -2 3 104.32 97.20 8.09 o
-11 -2 3 14.46 9.74 3.15 o
-10 -2 3 186.84 255.17 17.94 o
-9 -2 3 122.52 93.80 7.23 o
-8 -2 3 112.12 99.40 3.98 o
-7 -2 3 891.75 921.42 11.97 o
-6 -2 3 739.98 721.77 9.53 o
-5 -2 3 1077.08 1164.79 10.20 o
-4 -2 3 1372.22 1353.03 12.94 o
-3 -2 3 968.37 1011.13 8.16 o
-2 -2 3 1983.63 2144.31 23.75 o
-1 -2 3 678.60 655.43 9.80 o
0 -2 3 3320.07 3836.89 69.34 o
1 -2 3 4295.35 4644.41 101.35 o
2 -2 3 823.17 755.51 14.19 o
3 -2 3 281.76 247.75 4.09 o
4 -2 3 1444.00 1442.51 15.18 o
5 -2 3 486.72 410.59 8.94 o
6 -2 3 208.00 198.77 5.59 o
7 -2 3 842.53 776.38 16.09 o
8 -2 3 238.09 246.26 13.90 o
9 -2 3 3.03 3.84 2.19 o
10 -2 3 184.45 164.84 12.30 o
-12 -1 3 106.12 93.09 10.48 o
-11 -1 3 344.16 432.52 16.49 o
-10 -1 3 77.97 73.32 6.36 o
-9 -1 3 708.96 708.82 24.63 o
-8 -1 3 105.69 103.66 4.00 o
-7 -1 3 288.50 329.42 7.84 o
-6 -1 3 1893.85 1972.27 19.46 o
-5 -1 3 2041.33 2023.19 19.74 o
-4 -1 3 703.95 845.21 7.55 o
-3 -1 3 1778.63 1764.40 13.46 o
-2 -1 3 3193.74 3454.40 45.50 o
-1 -1 3 825.71 742.99 12.24 o
0 -1 3 4132.28 5450.04 66.07 o
1 -1 3 1186.94 1515.26 31.54 o
2 -1 3 811.81 724.06 6.42 o
3 -1 3 743.28 728.95 6.91 o
4 -1 3 1712.71 1887.02 14.58 o
5 -1 3 434.37 404.90 7.22 o
6 -1 3 788.50 735.43 9.82 o
7 -1 3 551.18 552.21 10.19 o
8 -1 3 379.04 355.45 17.32 o
9 -1 3 489.18 502.15 20.33 o
10 -1 3 88.04 82.64 7.01 o
-13 0 3 128.35 89.84 6.44 o
-12 0 3 23.86 14.75 5.46 o
-11 0 3 11.43 13.99 3.83 o
-10 0 3 598.24 617.04 23.24 o
-9 0 3 475.69 437.26 10.71 o
-8 0 3 371.75 410.17 8.02 o
-7 0 3 383.67 528.95 8.91 o
-6 0 3 75.05 152.66 4.28 o
-5 0 3 384.45 189.91 4.29 o
-4 0 3 1727.46 967.19 8.09 o
-3 0 3 1586.45 547.96 8.04 o
0 0 3 3.18 301.92 6.38 o
1 0 3 367.32 1066.84 16.72 o
2 0 3 6220.05 6679.92 46.74 o
3 0 3 1304.10 1462.01 13.93 o
4 0 3 93.35 92.35 2.79 o
5 0 3 1832.75 2032.46 16.31 o
6 0 3 186.15 187.65 5.22 o
7 0 3 178.53 162.20 5.13 o
8 0 3 2082.79 2213.54 48.32 o
9 0 3 10.78 8.93 3.24 o
10 0 3 84.65 70.13 11.45 o
11 0 3 290.63 321.73 17.75 o
-12 1 3 108.81 118.48 7.98 o
-11 1 3 344.42 367.27 16.45 o
-10 1 3 74.46 58.22 7.48 o
-9 1 3 673.51 736.38 22.92 o
-8 1 3 94.79 98.04 3.77 o
-7 1 3 294.11 325.29 6.82 o
-6 1 3 1919.69 1975.51 16.02 o
-5 1 3 2142.27 2163.24 15.52 o
-4 1 3 709.91 856.29 7.34 o
-3 1 3 1780.99 1781.87 14.43 o
-2 1 3 3087.64 3306.53 35.86 o
-1 1 3 796.24 697.52 16.70 o
0 1 3 4199.17 5799.70 121.37 o
1 1 3 1288.88 1750.55 28.10 o
2 1 3 841.79 770.35 7.07 o
3 1 3 710.90 715.48 7.07 o
4 1 3 1687.09 1882.21 14.30 o
5 1 3 396.16 376.51 6.13 o
6 1 3 836.56 803.58 11.60 o
7 1 3 568.48 588.94 11.50 o
8 1 3 393.41 377.27 18.05 o
9 1 3 468.86 545.62 34.55 o
10 1 3 88.57 86.24 12.58 o
11 1 3 75.41 69.23 8.42 o
-12 2 3 99.36 102.32 6.91 o
-11 2 3 13.22 9.66 4.55 o
-10 2 3 204.60 240.60 15.62 o
-9 2 3 142.58 109.01 10.93 o
-8 2 3 98.50 83.07 4.62 o
-7 2 3 893.84 928.98 18.76 o
-6 2 3 753.96 749.00 10.94 o
-5 2 3 1069.37 1139.43 13.44 o
-4 2 3 1208.70 1152.63 17.78 o
-3 2 3 1073.28 1116.45 17.87 o
-2 2 3 2177.63 2480.39 25.71 o
-1 2 3 526.91 526.47 7.01 o
0 2 3 3332.32 4141.29 50.29 o
1 2 3 4160.29 4681.02 56.65 o
2 2 3 761.33 711.32 9.81 o
3 2 3 309.43 286.74 4.24 o
4 2 3 1508.98 1618.92 13.89 o
5 2 3 391.37 345.63 7.53 o
6 2 3 200.51 200.96 6.28 o
7 2 3 866.97 834.45 17.74 o
8 2 3 255.67 299.71 26.71 o
9 2 3 2.92 -5.49 5.49 o
10 2 3 203.24 230.15 19.36 o
11 2 3 182.40 192.60 12.34 o
-12 3 3 28.12 28.38 3.24 o
-11 3 3 167.26 197.92 10.48 o
-10 3 3 138.17 127.87 15.05 o
-9 3 3 132.54 124.30 11.71 o
-8 3 3 265.24 248.25 8.81 o
-7 3 3 46.51 39.24 2.86 o
-6 3 3 406.44 349.47 17.50 o
-5 3 3 508.51 495.59 17.93 o
-4 3 3 111.29 120.45 4.53 o
-3 3 3 890.02 845.59 10.58 o
-2 3 3 2274.97 2537.37 29.57 o
-1 3 3 1058.95 1251.20 16.18 o
0 3 3 1177.91 1302.43 14.68 o
1 3 3 725.19 800.40 10.96 o
2 3 3 99.05 140.01 4.65 o
3 3 3 1762.92 1670.41 16.83 o
4 3 3 849.47 863.27 12.51 o
5 3 3 827.13 822.27 14.37 o
6 3 3 203.09 196.23 6.40 o
7 3 3 0.40 -0.09 4.10 o
8 3 3 4.37 2.93 4.44 o
9 3 3 609.57 690.39 36.84 o
10 3 3 15.55 19.59 2.64 o
-11 4 3 9.40 10.29 3.14 o
-10 4 3 295.66 328.07 15.83 o
-9 4 3 267.01 316.36 17.28 o
-8 4 3 19.64 13.34 6.79 o
-7 4 3 614.94 577.76 18.13 o
-6 4 3 136.62 145.89 5.00 o
-5 4 3 31.27 29.29 2.34 o
-4 4 3 1051.48 1103.62 16.57 o
-3 4 3 73.53 64.79 3.26 o
-2 4 3 772.36 793.51 10.18 o
-1 4 3 1252.69 1323.13 14.23 o
0 4 3 491.68 553.11 9.06 o
1 4 3 502.24 558.98 10.13 o
2 4 3 959.54 1014.25 16.45 o
3 4 3 260.19 266.32 7.79 o
4 4 3 209.36 183.91 6.95 o
5 4 3 485.36 471.06 11.93 o
6 4 3 243.77 268.38 23.87 o
7 4 3 552.45 620.71 36.45 o
8 4 3 394.75 484.72 15.56 o
9 4 3 16.28 19.76 3.69 o
10 4 3 196.87 228.50 12.12 o
-10 5 3 5.22 15.40 3.10 o
-9 5 3 101.16 126.82 9.84 o
-8 5 3 134.57 148.09 31.10 o
-7 5 3 7.19 8.77 6.38 o
-6 5 3 488.55 494.23 11.99 o
-5 5 3 827.66 890.46 17.12 o
-4 5 3 215.69 224.10 6.95 o
-3 5 3 1097.60 1183.88 25.10 o
-2 5 3 644.06 662.55 13.65 o
-1 5 3 65.31 83.71 3.92 o
0 5 3 1763.27 1907.68 20.49 o
1 5 3 732.47 802.91 11.99 o
2 5 3 412.43 415.55 11.10 o
3 5 3 193.67 203.19 6.74 o
4 5 3 696.89 671.20 14.00 o
5 5 3 8.12 10.05 5.02 o
6 5 3 471.69 627.87 33.09 o
7 5 3 268.27 352.03 23.29 o
8 5 3 164.91 212.78 15.79 o
9 5 3 193.84 215.11 13.01 o
-9 6 3 198.99 253.09 17.15 o
-8 6 3 119.23 130.75 14.82 o
-7 6 3 297.64 372.79 27.06 o
-6 6 3 28.22 37.04 9.38 o
-5 6 3 98.76 101.70 10.06 o
-4 6 3 571.72 612.25 24.50 o
-3 6 3 459.85 514.30 11.81 o
-2 6 3 1989.59 2178.42 38.46 o
-1 6 3 1075.71 1231.51 28.75 o
0 6 3 259.82 269.79 7.86 o
1 6 3 189.37 176.65 6.94 o
2 6 3 621.03 620.98 13.44 o
3 6 3 279.48 291.46 15.35 o
4 6 3 239.12 291.72 22.22 o
5 6 3 268.21 356.97 24.29 o
6 6 3 123.38 147.29 14.44 o
7 6 3 299.78 380.93 20.94 o
8 6 3 343.22 393.69 17.62 o
-8 7 3 102.95 117.81 10.72 o
-7 7 3 30.89 32.82 6.94 o
-6 7 3 245.73 263.03 20.42 o
-5 7 3 329.36 366.38 17.47 o
-4 7 3 2.90 4.41 2.90 o
-3 7 3 422.22 442.84 49.23 o
-2 7 3 382.89 468.23 34.84 o
-1 7 3 20.46 17.92 6.15 o
0 7 3 315.10 326.70 23.80 o
1 7 3 238.28 280.80 21.59 o
2 7 3 148.28 167.37 16.51 o
3 7 3 472.42 542.16 19.85 o
4 7 3 168.18 178.31 15.69 o
5 7 3 10.69 17.75 5.19 o
6 7 3 283.63 309.99 17.42 o
7 7 3 10.56 11.83 3.09 o
-7 8 3 226.17 263.54 13.22 o
-6 8 3 11.34 14.07 4.06 o
-5 8 3 82.73 87.96 10.09 o
-4 8 3 224.97 264.28 12.83 o
-3 8 3 2.91 2.58 2.53 o
-2 8 3 10.09 9.11 3.39 o
-1 8 3 262.74 300.26 14.53 o
0 8 3 42.66 38.73 8.07 o
1 8 3 48.85 63.05 9.58 o
2 8 3 585.99 682.75 23.60 o
3 8 3 21.83 19.88 3.36 o
4 8 3 71.60 71.44 8.08 o
5 8 3 98.78 109.17 8.67 o
-4 9 3 0.51 0.99 1.59 o
-3 9 3 87.63 99.87 8.57 o
-2 9 3 81.18 86.34 5.65 o
-1 9 3 6.08 3.63 1.74 o
0 9 3 79.95 87.59 4.66 o
1 9 3 38.30 40.46 3.75 o
2 9 3 3.09 2.71 1.95 o
-3 -9 4 35.09 32.41 2.93 o
-2 -9 4 107.03 95.59 4.93 o
-1 -9 4 75.77 67.19 6.46 o
0 -9 4 34.48 21.52 2.60 o
1 -9 4 232.79 227.13 11.08 o
-7 -8 4 89.23 74.59 5.88 o
-6 -8 4 27.30 24.98 3.04 o
-5 -8 4 19.34 23.02 5.26 o
-4 -8 4 68.68 59.77 4.55 o
-3 -8 4 258.37 251.25 7.97 o
-2 -8 4 26.42 22.54 2.35 o
-1 -8 4 340.69 317.93 7.99 o
0 -8 4 249.23 235.17 7.05 o
1 -8 4 18.17 17.49 2.41 o
2 -8 4 101.30 103.89 5.88 o
3 -8 4 84.66 82.81 6.12 o
4 -8 4 20.16 19.30 2.89 o
5 -8 4 145.41 122.07 7.57 o
-8 -7 4 72.65 70.41 4.86 o
-7 -7 4 131.65 123.92 10.39 o
-6 -7 4 39.13 30.80 4.47 o
-5 -7 4 195.26 177.22 8.85 o
-4 -7 4 189.85 182.55 7.70 o
-3 -7 4 69.44 63.55 3.90 o
-2 -7 4 65.99 61.12 4.22 o
-1 -7 4 45.88 42.84 4.00 o
0 -7 4 171.63 152.37 8.20 o
1 -7 4 561.99 541.54 12.06 o
2 -7 4 11.64 7.61 2.14 o
3 -7 4 146.36 107.08 8.74 o
4 -7 4 414.75 382.34 15.56 o
5 -7 4 42.84 45.13 4.93 o
6 -7 4 52.03 36.19 3.54 o
-10 -6 4 97.08 81.56 4.30 o
-9 -6 4 101.64 84.75 7.30 o
-8 -6 4 22.91 20.64 2.97 o
-7 -6 4 103.42 77.70 5.71 o
-6 -6 4 239.51 241.86 9.11 o
-5 -6 4 11.43 8.64 2.32 o
-4 -6 4 339.77 296.34 15.35 o
-3 -6 4 177.71 173.86 9.84 o
-2 -6 4 123.14 114.03 4.77 o
-1 -6 4 581.16 475.88 9.74 o
0 -6 4 399.96 378.65 8.25 o
1 -6 4 2.97 3.08 1.50 o
2 -6 4 704.86 619.03 15.07 o
3 -6 4 540.66 493.83 16.68 o
4 -6 4 130.37 116.87 7.73 o
5 -6 4 308.54 281.10 17.75 o
6 -6 4 53.53 53.41 5.65 o
7 -6 4 24.85 19.13 4.93 o
8 -6 4 210.66 181.87 10.37 o
-11 -5 4 137.75 109.72 7.04 o
-10 -5 4 121.99 122.53 11.28 o
-9 -5 4 12.15 12.18 2.59 o
-8 -5 4 244.75 214.43 8.40 o
-7 -5 4 42.22 48.24 5.32 o
-6 -5 4 193.17 188.24 8.82 o
-5 -5 4 673.46 588.60 12.34 o
-4 -5 4 16.96 19.18 2.07 o
-3 -5 4 240.38 193.85 7.49 o
-2 -5 4 1055.66 945.47 35.22 o
-1 -5 4 168.28 160.69 4.85 o
0 -5 4 394.56 332.38 6.50 o
1 -5 4 619.18 523.27 8.32 o
2 -5 4 169.88 153.17 4.31 o
3 -5 4 261.45 224.37 5.93 o
4 -5 4 881.28 880.91 26.81 o
5 -5 4 37.80 38.02 5.36 o
6 -5 4 454.69 443.43 17.93 o
7 -5 4 145.62 131.16 13.71 o
8 -5 4 1.21 1.19 2.60 o
9 -5 4 28.67 25.04 3.70 o
-11 -4 4 4.89 4.37 2.76 o
-10 -4 4 219.72 243.63 25.34 o
-9 -4 4 541.46 617.49 34.78 o
-8 -4 4 106.25 119.99 9.70 o
-7 -4 4 203.67 212.67 8.36 o
-6 -4 4 1013.24 1043.18 19.15 o
-5 -4 4 197.95 203.60 5.25 o
-4 -4 4 268.16 234.15 6.16 o
-3 -4 4 832.69 794.78 16.50 o
-2 -4 4 90.25 82.72 3.63 o
-1 -4 4 1640.13 1661.95 24.48 o
0 -4 4 814.39 783.94 10.96 o
1 -4 4 92.99 103.43 3.37 o
2 -4 4 848.75 725.10 15.05 o
3 -4 4 494.82 426.79 8.42 o
4 -4 4 17.86 14.45 1.85 o
5 -4 4 440.60 399.61 15.88 o
6 -4 4 175.41 175.36 13.92 o
7 -4 4 44.37 35.38 4.86 o
8 -4 4 676.15 645.96 22.83 o
9 -4 4 49.78 47.93 4.32 o
-12 -3 4 5.71 12.48 3.59 o
-11 -3 4 264.19 284.88 11.77 o
-10 -3 4 174.91 152.05 9.66 o
-9 -3 4 85.85 74.36 7.32 o
-8 -3 4 400.82 406.74 10.80 o
-7 -3 4 343.03 360.66 8.08 o
-6 -3 4 15.40 13.28 1.60 o
-5 -3 4 1617.41 1627.51 22.08 o
-4 -3 4 788.80 824.82 9.65 o
-3 -3 4 347.07 344.60 6.41 o
-2 -3 4 848.98 810.18 9.03 o
-1 -3 4 939.26 1004.50 21.51 o
0 -3 4 1581.35 1566.03 26.88 o
1 -3 4 1771.29 1670.15 33.63 o
2 -3 4 614.86 604.70 21.88 o
3 -3 4 924.70 820.95 30.71 o
4 -3 4 657.07 583.32 22.88 o
5 -3 4 1093.73 1041.20 47.43 o
6 -3 4 5.27 8.26 3.61 o
7 -3 4 322.69 323.05 19.39 o
8 -3 4 90.70 84.03 6.96 o
9 -3 4 286.99 249.63 16.24 o
10 -3 4 57.89 42.08 5.02 o
-12 -2 4 216.55 205.09 12.25 o
-11 -2 4 20.51 18.61 3.63 o
-10 -2 4 174.15 187.08 11.40 o
-9 -2 4 437.35 472.21 16.04 o
-8 -2 4 206.34 199.13 5.31 o
-7 -2 4 853.34 877.58 11.31 o
-6 -2 4 498.81 516.11 8.19 o
-5 -2 4 94.67 96.03 2.82 o
-4 -2 4 348.67 274.59 4.44 o
-3 -2 4 2179.57 2298.14 28.43 o
-2 -2 4 38.11 37.02 1.49 o
-1 -2 4 3652.80 4101.69 57.21 o
0 -2 4 1353.84 1477.24 19.92 o
1 -2 4 35.25 41.43 1.78 o
2 -2 4 438.63 434.40 11.69 o
3 -2 4 1662.54 1722.39 33.42 o
4 -2 4 117.73 106.83 4.26 o
5 -2 4 264.33 255.34 6.50 o
6 -2 4 1329.68 1375.02 33.39 o
7 -2 4 207.65 200.04 12.44 o
8 -2 4 183.28 184.04 11.51 o
9 -2 4 204.67 192.37 14.81 o
10 -2 4 69.77 50.20 5.96 o
-12 -1 4 15.33 18.44 7.62 o
-11 -1 4 299.11 319.76 13.67 o
-10 -1 4 204.59 230.09 10.01 o
-9 -1 4 198.23 205.56 10.42 o
-8 -1 4 845.72 870.51 11.79 o
-7 -1 4 654.55 710.64 11.79 o
-6 -1 4 150.89 154.76 4.91 o
-5 -1 4 1222.35 1185.86 12.14 o
-4 -1 4 626.46 601.85 6.90 o
-3 -1 4 331.86 336.80 4.73 o
-2 -1 4 2283.90 2568.19 35.81 o
-1 -1 4 485.06 644.54 6.48 o
0 -1 4 753.94 615.39 9.38 o
1 -1 4 1814.87 1786.78 38.54 o
2 -1 4 143.24 148.75 3.01 o
3 -1 4 1181.11 1172.09 16.82 o
4 -1 4 1504.36 1503.34 16.32 o
5 -1 4 205.71 213.91 6.04 o
6 -1 4 980.74 962.31 14.71 o
7 -1 4 413.54 444.82 19.33 o
8 -1 4 10.75 3.42 2.38 o
9 -1 4 189.71 170.31 13.21 o
10 -1 4 390.38 369.33 24.59 o
-13 0 4 0.56 0.71 1.77 o
-12 0 4 197.15 253.51 19.34 o
-11 0 4 0.39 -0.30 3.25 o
-10 0 4 292.80 330.66 21.44 o
-9 0 4 256.77 302.07 8.74 o
-8 0 4 242.08 290.53 7.57 o
-7 0 4 348.37 235.32 7.09 o
-6 0 4 430.13 253.24 6.25 o
-5 0 4 11.84 23.55 1.93 o
-4 0 4 1881.30 3070.63 32.69 o
-3 0 4 70.92 9.31 0.61 o
-2 0 4 898.30 347.19 5.54 o
-1 0 4 6875.91 6544.08 50.95 o
0 0 4 535.73 197.18 3.47 o
1 0 4 1067.36 950.35 15.53 o
2 0 4 8452.89 12044.45 113.87 o
3 0 4 806.64 826.98 8.27 o
4 0 4 88.40 85.36 2.93 o
5 0 4 1245.15 1181.43 14.03 o
6 0 4 88.51 98.82 4.34 o
7 0 4 26.59 15.76 2.74 o
8 0 4 783.33 790.08 27.14 o
9 0 4 125.69 112.92 9.08 o
10 0 4 73.89 67.72 9.51 o
-12 1 4 14.56 13.04 5.60 o
-11 1 4 316.07 300.53 15.41 o
-10 1 4 197.07 213.60 11.69 o
-9 1 4 179.65 195.14 14.36 o
-8 1 4 938.19 993.09 19.72 o
-7 1 4 571.18 620.84 12.97 o
-6 1 4 151.55 162.92 5.03 o
-5 1 4 1224.51 1223.63 10.67 o
-4 1 4 558.25 531.86 8.00 o
-3 1 4 325.79 333.50 3.75 o
-2 1 4 2492.09 2908.15 44.27 o
-1 1 4 549.83 737.38 7.55 o
0 1 4 776.29 629.46 10.79 o
1 1 4 1840.19 1888.52 26.78 o
2 1 4 151.52 152.10 2.88 o
3 1 4 1174.24 1177.27 10.44 o
4 1 4 1451.11 1502.70 15.22 o
5 1 4 216.18 224.43 5.70 o
6 1 4 1041.54 1061.74 16.78 o
7 1 4 387.77 434.24 21.73 o
8 1 4 12.98 9.57 4.97 o
9 1 4 168.04 142.92 9.63 o
10 1 4 389.70 439.00 24.47 o
-12 2 4 221.96 240.38 11.66 o
-11 2 4 18.12 21.41 4.51 o
-10 2 4 183.10 185.07 13.59 o
-9 2 4 483.25 555.35 68.34 o
-8 2 4 203.60 202.94 7.21 o
-7 2 4 843.79 869.63 21.13 o
-6 2 4 534.76 563.45 10.01 o
-5 2 4 96.35 99.46 3.47 o
-4 2 4 319.27 250.11 7.07 o
-3 2 4 2141.40 2259.92 50.58 o
-2 2 4 38.08 40.67 1.61 o
-1 2 4 3539.18 4031.01 38.67 o
0 2 4 1483.86 1695.99 12.86 o
1 2 4 35.45 41.99 1.55 o
2 2 4 488.91 532.99 7.57 o
3 2 4 1612.42 1776.14 16.62 o
4 2 4 114.31 115.66 4.22 o
5 2 4 251.23 254.78 6.13 o
6 2 4 1289.00 1390.99 18.74 o
7 2 4 202.60 212.36 13.60 o
8 2 4 201.33 199.55 22.73 o
9 2 4 204.68 243.22 21.90 o
10 2 4 79.06 87.31 10.15 o
-12 3 4 6.20 5.51 3.18 o
-11 3 4 252.76 286.46 11.47 o
-10 3 4 173.68 135.20 13.44 o
-9 3 4 88.40 69.34 9.18 o
-8 3 4 393.20 371.10 17.89 o
-7 3 4 341.70 360.57 13.56 o
-6 3 4 15.92 12.28 1.50 o
-5 3 4 1622.62 1605.33 51.28 o
-4 3 4 841.39 917.02 25.69 o
-3 3 4 390.75 420.93 8.73 o
-2 3 4 741.50 741.47 9.46 o
-1 3 4 960.83 1155.60 11.73 o
0 3 4 1603.72 1717.13 18.57 o
1 3 4 1787.08 1903.97 21.34 o
2 3 4 618.32 675.72 11.45 o
3 3 4 933.78 924.22 13.65 o
4 3 4 662.97 661.52 13.25 o
5 3 4 1116.13 1158.00 20.38 o
6 3 4 0.68 -0.57 4.75 o
7 3 4 281.27 349.19 29.27 o
8 3 4 96.12 95.49 14.78 o
9 3 4 293.75 323.50 14.24 o
10 3 4 48.83 40.77 3.66 o
-11 4 4 3.95 2.75 2.38 o
-10 4 4 205.81 207.74 12.98 o
-9 4 4 522.46 531.00 41.66 o
-8 4 4 109.61 103.91 16.01 o
-7 4 4 223.95 219.36 8.18 o
-6 4 4 956.01 995.53 24.08 o
-5 4 4 208.08 218.62 6.09 o
-4 4 4 335.60 344.53 9.31 o
-3 4 4 798.82 879.93 14.63 o
-2 4 4 91.60 104.10 4.38 o
-1 4 4 1691.46 1959.59 20.31 o
0 4 4 755.20 807.16 12.38 o
1 4 4 95.39 112.68 5.61 o
2 4 4 802.73 768.53 14.37 o
3 4 4 500.90 503.70 11.63 o
4 4 4 13.73 17.52 1.98 o
5 4 4 484.06 550.64 26.23 o
6 4 4 199.22 242.39 12.04 o
7 4 4 54.19 46.08 5.11 o
8 4 4 632.04 725.79 17.71 o
9 4 4 68.81 74.89 6.13 o
-10 5 4 122.23 177.02 15.48 o
-9 5 4 9.36 1.20 3.89 o
-8 5 4 240.76 249.96 22.87 o
-7 5 4 33.31 47.35 6.89 o
-6 5 4 170.55 176.72 11.11 o
-5 5 4 707.54 713.27 12.63 o
-4 5 4 9.84 13.34 1.77 o
-3 5 4 240.60 246.88 7.17 o
-2 5 4 1013.38 1108.53 23.36 o
-1 5 4 165.60 181.33 6.07 o
0 5 4 396.99 394.03 8.91 o
1 5 4 588.46 554.42 11.82 o
2 5 4 167.36 178.29 6.25 o
3 5 4 260.60 253.62 9.51 o
4 5 4 895.13 1080.51 30.18 o
5 5 4 34.08 39.11 5.60 o
6 5 4 456.42 507.73 18.91 o
7 5 4 141.95 159.79 14.28 o
8 5 4 0.50 1.26 2.48 o
-10 6 4 96.79 114.03 8.74 o
-9 6 4 112.44 114.72 11.94 o
-8 6 4 20.67 26.25 6.87 o
-7 6 4 90.35 95.60 13.32 o
-6 6 4 237.30 279.83 12.86 o
-5 6 4 9.49 5.81 2.55 o
-4 6 4 345.99 373.23 15.26 o
-3 6 4 129.90 149.93 11.86 o
-2 6 4 122.15 149.32 6.23 o
-1 6 4 608.15 601.53 14.59 o
0 6 4 427.27 493.36 15.94 o
1 6 4 2.88 2.63 2.41 o
2 6 4 729.45 782.65 36.92 o
3 6 4 545.77 613.93 32.51 o
4 6 4 128.79 122.96 14.11 o
5 6 4 297.27 325.66 21.61 o
6 6 4 49.01 54.92 8.53 o
7 6 4 22.22 30.07 5.41 o
8 6 4 222.70 236.36 11.44 o
-8 7 4 80.83 95.69 9.72 o
-7 7 4 120.01 139.19 13.31 o
-6 7 4 45.89 44.99 8.34 o
-5 7 4 189.51 184.53 12.14 o
-4 7 4 180.42 201.47 12.98 o
-3 7 4 65.05 69.12 7.85 o
-2 7 4 79.94 95.66 9.08 o
-1 7 4 57.74 70.07 7.79 o
0 7 4 178.90 187.18 18.05 o
1 7 4 548.27 597.69 31.79 o
2 7 4 8.65 6.76 4.36 o
3 7 4 151.62 137.41 14.09 o
4 7 4 409.20 472.49 24.80 o
5 7 4 43.31 45.69 7.18 o
6 7 4 61.92 63.03 7.03 o
-7 8 4 94.74 98.31 7.74 o
-6 8 4 27.93 33.06 5.42 o
-5 8 4 20.01 25.96 5.69 o
-4 8 4 74.61 73.57 6.67 o
-3 8 4 246.26 265.30 12.95 o
-2 8 4 26.53 28.45 4.60 o
-1 8 4 351.58 367.42 20.12 o
0 8 4 243.61 265.42 12.58 o
1 8 4 17.56 19.89 7.30 o
2 8 4 95.85 110.87 11.29 o
3 8 4 88.58 95.76 9.64 o
4 8 4 22.87 16.49 4.05 o
5 8 4 139.94 137.18 8.52 o
-3 9 4 36.62 33.70 4.54 o
-2 9 4 97.23 96.36 5.38 o
-1 9 4 73.60 84.58 5.27 o
0 9 4 37.80 32.89 4.86 o
1 9 4 235.67 249.03 12.24 o
-6 -8 5 248.73 240.13 8.77 o
-5 -8 5 31.58 28.09 3.43 o
-4 -8 5 31.09 31.33 3.20 o
-3 -8 5 122.45 128.36 6.41 o
-2 -8 5 35.40 36.71 3.67 o
-1 -8 5 78.37 76.78 3.94 o
0 -8 5 288.44 273.99 7.01 o
1 -8 5 26.29 21.63 2.49 o
2 -8 5 23.16 23.53 2.80 o
3 -8 5 566.55 552.53 30.62 o
4 -8 5 1.82 1.07 2.47 o
-8 -7 5 121.60 104.00 5.39 o
-7 -7 5 205.73 204.90 18.16 o
-6 -7 5 34.87 34.56 4.67 o
-5 -7 5 100.39 82.33 5.82 o
-4 -7 5 341.42 342.92 12.24 o
-3 -7 5 207.34 194.31 9.46 o
-2 -7 5 105.26 96.53 5.07 o
-1 -7 5 77.42 70.88 4.23 o
0 -7 5 1.49 1.33 1.78 o
1 -7 5 106.92 103.75 6.78 o
2 -7 5 96.99 104.85 8.44 o
3 -7 5 4.87 5.02 2.69 o
4 -7 5 381.67 354.42 18.79 o
5 -7 5 134.04 124.23 7.05 o
6 -7 5 0.59 2.89 1.65 o
-9 -6 5 111.22 99.32 5.76 o
-8 -6 5 135.20 126.05 6.14 o
-7 -6 5 8.98 11.96 2.45 o
-6 -6 5 165.03 154.55 7.83 o
-5 -6 5 281.10 278.84 10.08 o
-4 -6 5 75.08 70.11 6.16 o
-3 -6 5 254.63 256.26 13.90 o
-2 -6 5 365.01 379.54 13.72 o
-1 -6 5 91.36 83.61 4.72 o
0 -6 5 282.83 255.70 9.60 o
1 -6 5 146.46 147.39 7.57 o
2 -6 5 196.93 181.94 8.35 o
3 -6 5 145.14 143.10 8.72 o
4 -6 5 29.31 28.00 3.81 o
5 -6 5 67.64 54.34 4.77 o
6 -6 5 197.77 181.64 9.17 o
7 -6 5 59.73 49.88 8.63 o
-10 -5 5 112.60 86.47 4.48 o
-9 -5 5 89.83 91.33 5.71 o
-8 -5 5 76.82 70.90 4.73 o
-7 -5 5 248.36 227.20 10.01 o
-6 -5 5 47.44 53.12 4.51 o
-5 -5 5 199.98 182.24 6.18 o
-4 -5 5 334.14 303.23 8.10 o
-3 -5 5 44.65 44.65 2.99 o
-2 -5 5 331.73 311.59 7.06 o
-1 -5 5 600.77 562.11 10.36 o
0 -5 5 37.15 34.88 2.08 o
1 -5 5 629.58 539.78 9.29 o
2 -5 5 455.90 414.58 8.02 o
3 -5 5 125.38 109.75 8.00 o
4 -5 5 59.92 57.66 5.80 o
5 -5 5 288.43 291.89 11.99 o
6 -5 5 2.84 0.27 2.26 o
7 -5 5 191.71 175.82 14.12 o
8 -5 5 126.87 120.94 6.26 o
-11 -4 5 34.39 31.05 4.16 o
-10 -4 5 25.83 22.89 3.51 o
-9 -4 5 332.42 398.40 51.90 o
-8 -4 5 316.83 335.84 22.58 o
-7 -4 5 21.85 19.82 4.59 o
-6 -4 5 743.81 739.99 17.71 o
-5 -4 5 201.26 188.56 4.81 o
-4 -4 5 1.74 4.60 1.09 o
-3 -4 5 1180.28 1201.21 14.97 o
-2 -4 5 307.96 290.26 7.25 o
-1 -4 5 272.91 240.49 5.44 o
0 -4 5 741.05 625.48 8.93 o
1 -4 5 228.79 210.11 5.11 o
2 -4 5 226.22 208.33 5.93 o
3 -4 5 585.37 561.59 18.51 o
4 -4 5 129.61 123.38 6.18 o
5 -4 5 713.08 657.15 23.64 o
6 -4 5 491.98 450.94 18.65 o
7 -4 5 100.40 95.35 7.63 o
8 -4 5 164.87 160.49 8.69 o
9 -4 5 299.70 259.49 12.38 o
-12 -3 5 10.48 6.16 6.21 o
-11 -3 5 53.73 53.68 5.26 o
-10 -3 5 235.81 237.81 11.84 o
-9 -3 5 68.79 60.61 5.63 o
-8 -3 5 349.63 346.66 13.13 o
-7 -3 5 510.22 533.31 9.55 o
-6 -3 5 93.20 98.89 4.59 o
-5 -3 5 425.06 421.04 7.81 o
-4 -3 5 3022.30 3224.94 47.02 o
-3 -3 5 37.45 44.43 2.39 o
-2 -3 5 575.72 496.50 8.03 o
-1 -3 5 161.96 130.41 3.44 o
0 -3 5 47.85 57.54 2.35 o
1 -3 5 2399.15 2541.09 42.17 o
2 -3 5 715.77 744.83 18.95 o
3 -3 5 123.58 110.77 4.38 o
4 -3 5 2370.77 2174.41 87.06 o
5 -3 5 1486.99 1397.93 54.17 o
6 -3 5 146.30 124.58 14.92 o
7 -3 5 504.58 468.21 26.63 o
8 -3 5 49.09 75.19 29.85 o
9 -3 5 23.26 26.82 4.84 o
-12 -2 5 144.22 139.39 10.29 o
-11 -2 5 38.69 39.20 10.87 o
-10 -2 5 49.39 57.42 5.49 o
-9 -2 5 421.88 479.78 15.83 o
-8 -2 5 505.29 520.40 9.83 o
-7 -2 5 88.26 84.04 3.77 o
-6 -2 5 1447.68 1484.95 16.58 o
-5 -2 5 268.81 287.26 5.90 o
-4 -2 5 37.96 46.55 2.29 o
-3 -2 5 1203.50 1229.28 14.83 o
-2 -2 5 114.78 86.76 2.65 o
-1 -2 5 290.71 296.01 4.74 o
0 -2 5 2182.53 2387.90 33.79 o
1 -2 5 413.77 437.72 8.80 o
2 -2 5 250.25 217.20 5.08 o
3 -2 5 1898.68 1938.12 42.83 o
4 -2 5 192.37 197.18 5.86 o
5 -2 5 586.34 611.86 20.28 o
6 -2 5 698.86 710.18 25.62 o
7 -2 5 103.75 107.60 8.67 o
8 -2 5 256.14 241.67 16.06 o
9 -2 5 267.85 274.67 16.13 o
10 -2 5 35.54 26.50 3.61 o
-12 -1 5 5.84 0.78 8.94 o
-11 -1 5 95.67 90.05 16.75 o
-10 -1 5 332.41 386.76 48.77 o
-9 -1 5 154.64 146.00 11.39 o
-8 -1 5 398.50 387.04 7.79 o
-7 -1 5 748.29 795.47 12.53 o
-6 -1 5 136.80 164.63 5.11 o
-5 -1 5 434.21 399.23 6.93 o
-4 -1 5 1419.97 1486.68 19.98 o
-3 -1 5 529.72 652.82 9.33 o
-2 -1 5 538.62 459.35 5.27 o
-1 -1 5 718.55 554.25 5.44 o
0 -1 5 698.43 949.27 10.83 o
1 -1 5 2012.09 2298.22 44.09 o
2 -1 5 440.23 499.74 11.49 o
3 -1 5 22.96 18.84 1.47 o
4 -1 5 1026.96 1068.99 22.80 o
5 -1 5 447.77 465.67 9.07 o
6 -1 5 8.88 8.31 2.90 o
7 -1 5 380.57 394.92 26.86 o
8 -1 5 237.69 239.07 18.49 o
9 -1 5 52.20 59.37 5.82 o
-12 0 5 16.72 15.39 3.77 o
-11 0 5 252.65 281.17 14.55 o
-10 0 5 5.55 2.06 4.01 o
-9 0 5 431.58 420.36 31.04 o
-8 0 5 315.27 243.91 7.17 o
-7 0 5 18.19 41.77 2.78 o
-6 0 5 478.14 736.45 11.89 o
-5 0 5 501.83 802.90 12.39 o
-4 0 5 1.07 65.33 2.47 o
-3 0 5 2051.95 1330.58 14.98 o
-2 0 5 556.67 272.17 3.70 o
-1 0 5 62.47 209.59 2.98 o
0 0 5 2363.47 3406.24 38.07 o
1 0 5 57.06 98.17 2.68 o
2 0 5 170.51 129.47 3.41 o
3 0 5 317.58 232.91 5.65 o
4 0 5 128.99 136.10 5.35 o
5 0 5 443.88 435.69 9.36 o
6 0 5 462.69 461.03 10.89 o
7 0 5 358.56 363.34 18.71 o
8 0 5 135.93 143.76 16.24 o
9 0 5 214.34 234.58 17.03 o
10 0 5 17.35 16.26 3.74 o
-12 1 5 5.53 7.02 2.66 o
-11 1 5 109.68 103.47 9.31 o
-10 1 5 314.75 371.72 29.33 o
-9 1 5 154.92 180.60 13.99 o
-8 1 5 371.07 361.36 9.49 o
-7 1 5 716.71 776.06 12.43 o
-6 1 5 139.58 168.92 5.91 o
-5 1 5 446.17 422.64 8.68 o
-4 1 5 1361.16 1485.44 14.58 o
-3 1 5 516.82 650.56 7.34 o
-2 1 5 626.66 570.77 6.45 o
-1 1 5 846.22 705.08 7.76 o
0 1 5 686.07 946.82 15.00 o
1 1 5 1886.41 2195.57 27.82 o
2 1 5 534.23 606.88 12.17 o
3 1 5 23.40 18.40 1.90 o
4 1 5 956.71 969.21 13.60 o
5 1 5 456.22 473.48 9.44 o
6 1 5 11.36 8.73 1.88 o
7 1 5 377.44 371.11 18.69 o
8 1 5 262.79 282.63 50.40 o
9 1 5 53.84 63.48 10.23 o
10 1 5 207.59 226.84 13.80 o
-12 2 5 142.86 136.79 8.62 o
-11 2 5 41.91 49.43 6.44 o
-10 2 5 49.90 51.56 6.40 o
-9 2 5 441.05 521.35 30.39 o
-8 2 5 464.92 478.43 15.97 o
-7 2 5 77.87 78.17 3.90 o
-6 2 5 1453.55 1538.93 25.29 o
-5 2 5 280.04 304.52 7.00 o
-4 2 5 32.18 41.11 2.28 o
-3 2 5 1235.51 1323.48 16.13 o
-2 2 5 107.57 92.92 3.73 o
-1 2 5 288.60 309.97 4.90 o
0 2 5 2133.04 2371.40 19.38 o
1 2 5 379.12 418.21 7.17 o
2 2 5 224.21 195.03 4.64 o
3 2 5 1866.69 1978.80 17.96 o
4 2 5 190.30 203.62 5.46 o
5 2 5 613.55 657.93 12.04 o
6 2 5 689.74 724.26 26.43 o
7 2 5 114.48 149.08 19.85 o
8 2 5 279.38 331.59 26.27 o
9 2 5 254.80 301.22 20.62 o
10 2 5 39.61 34.09 3.32 o
-12 3 5 9.00 6.15 3.64 o
-11 3 5 40.00 35.80 4.35 o
-10 3 5 250.76 237.36 14.76 o
-9 3 5 57.03 46.09 7.76 o
-8 3 5 339.99 370.52 23.80 o
-7 3 5 538.13 559.66 15.42 o
-6 3 5 79.59 82.60 3.73 o
-5 3 5 428.23 469.39 12.92 o
-4 3 5 3028.86 3474.83 73.98 o
-3 3 5 42.19 55.15 2.99 o
-2 3 5 573.62 548.15 9.13 o
-1 3 5 142.74 126.24 5.45 o
0 3 5 45.80 47.51 3.10 o
1 3 5 2435.10 2814.27 26.47 o
2 3 5 683.57 777.66 13.15 o
3 3 5 120.54 114.98 5.30 o
4 3 5 2477.44 2590.88 28.08 o
5 3 5 1457.01 1486.57 21.09 o
6 3 5 136.02 156.27 19.37 o
7 3 5 517.25 619.72 23.74 o
8 3 5 40.77 40.95 5.34 o
9 3 5 23.65 35.21 4.14 o
-11 4 5 36.57 37.54 4.59 o
-10 4 5 26.90 31.78 8.24 o
-9 4 5 335.60 363.81 27.03 o
-8 4 5 337.40 409.08 42.27 o
-7 4 5 19.43 20.36 4.05 o
-6 4 5 798.70 820.19 17.93 o
-5 4 5 176.32 182.34 6.15 o
-4 4 5 3.41 5.87 1.58 o
-3 4 5 1107.74 1286.45 18.45 o
-2 4 5 322.87 355.88 8.60 o
-1 4 5 277.31 281.65 7.51 o
0 4 5 771.00 718.30 15.68 o
1 4 5 246.84 244.39 10.32 o
2 4 5 227.64 238.10 6.99 o
3 4 5 629.25 705.57 13.83 o
4 4 5 121.81 134.76 4.92 o
5 4 5 706.90 806.85 21.91 o
6 4 5 460.63 533.61 16.99 o
7 4 5 109.09 122.37 7.44 o
8 4 5 181.83 211.66 8.07 o
-10 5 5 129.51 127.31 12.89 o
-9 5 5 91.23 105.33 13.56 o
-8 5 5 77.15 92.32 13.22 o
-7 5 5 257.53 265.83 15.95 o
-6 5 5 53.22 60.49 6.75 o
-5 5 5 212.23 221.16 6.92 o
-4 5 5 325.83 361.32 9.12 o
-3 5 5 49.50 55.98 3.52 o
-2 5 5 303.37 321.95 9.33 o
-1 5 5 587.27 644.52 14.35 o
0 5 5 39.33 40.57 3.30 o
1 5 5 628.63 624.67 15.09 o
2 5 5 442.53 451.99 11.35 o
3 5 5 124.80 127.58 10.21 o
4 5 5 58.11 64.53 7.26 o
5 5 5 278.33 309.66 15.58 o
6 5 5 4.10 6.99 2.77 o
7 5 5 193.82 205.33 9.62 o
8 5 5 125.12 136.68 9.18 o
-10 6 5 6.17 7.01 2.81 o
-9 6 5 106.99 121.50 11.65 o
-8 6 5 130.47 147.05 14.43 o
-7 6 5 7.31 9.53 3.35 o
-6 6 5 161.45 177.37 10.73 o
-5 6 5 266.67 324.75 14.05 o
-4 6 5 63.93 67.80 6.67 o
-3 6 5 306.30 338.57 14.13 o
-2 6 5 351.66 413.01 15.35 o
-1 6 5 87.64 90.53 7.09 o
0 6 5 298.83 314.50 16.25 o
1 6 5 130.70 152.92 15.92 o
2 6 5 175.90 174.10 16.81 o
3 6 5 147.95 161.87 16.02 o
4 6 5 25.53 34.97 7.19 o
5 6 5 74.42 66.45 9.18 o
6 6 5 202.21 227.97 14.73 o
7 6 5 62.42 69.11 6.59 o
-8 7 5 112.72 123.16 10.37 o
-7 7 5 200.52 240.64 16.51 o
-6 7 5 36.64 45.30 8.21 o
-5 7 5 96.60 97.09 8.86 o
-4 7 5 331.89 383.98 14.57 o
-3 7 5 211.06 214.84 10.51 o
-2 7 5 131.72 123.16 9.89 o
-1 7 5 53.72 53.25 16.74 o
0 7 5 1.42 0.74 2.99 o
1 7 5 108.40 120.69 13.69 o
2 7 5 84.32 106.43 12.52 o
3 7 5 4.31 2.72 2.76 o
4 7 5 374.08 409.69 21.18 o
5 7 5 130.25 135.96 10.59 o
6 7 5 1.24 0.20 1.27 o
-6 8 5 248.03 293.97 14.63 o
-5 8 5 37.69 34.88 5.59 o
-4 8 5 31.83 31.54 4.17 o
-3 8 5 111.71 124.03 8.22 o
-2 8 5 31.46 38.36 8.35 o
-1 8 5 80.55 91.87 10.87 o
0 8 5 281.62 306.28 19.17 o
1 8 5 30.27 29.14 5.82 o
2 8 5 34.12 45.92 6.76 o
3 8 5 554.76 576.42 22.06 o
4 8 5 4.04 4.99 2.13 o
-1 9 5 114.79 127.31 8.43 o
-6 -8 6 110.20 111.81 6.99 o
-5 -8 6 20.02 16.86 2.48 o
-4 -8 6 48.88 52.74 4.65 o
-3 -8 6 96.22 100.15 7.36 o
-2 -8 6 132.45 117.34 5.66 o
-1 -8 6 8.10 6.24 2.12 o
0 -8 6 153.32 143.41 10.13 o
1 -8 6 116.54 104.60 5.14 o
2 -8 6 15.58 12.98 1.88 o
3 -8 6 41.94 36.63 4.42 o
-7 -7 6 215.80 205.31 11.41 o
-6 -7 6 68.00 67.44 5.57 o
-5 -7 6 5.52 3.73 2.77 o
-4 -7 6 330.30 319.57 11.03 o
-3 -7 6 239.37 225.60 9.66 o
-2 -7 6 47.07 48.51 4.05 o
-1 -7 6 80.61 73.66 5.56 o
0 -7 6 214.09 217.98 9.37 o
1 -7 6 33.30 29.78 7.41 o
2 -7 6 272.94 273.00 12.52 o
3 -7 6 33.46 29.16 4.03 o
4 -7 6 52.46 41.68 5.57 o
5 -7 6 88.74 81.91 6.50 o
-9 -6 6 77.63 64.08 6.05 o
-8 -6 6 93.70 83.31 5.47 o
-7 -6 6 40.05 41.66 3.18 o
-6 -6 6 105.11 86.16 6.57 o
-5 -6 6 381.74 412.00 14.89 o
-4 -6 6 68.39 67.06 5.52 o
-3 -6 6 563.03 575.22 21.07 o
-2 -6 6 385.56 401.32 10.70 o
-1 -6 6 208.73 189.42 7.92 o
0 -6 6 198.31 175.26 9.27 o
1 -6 6 467.57 452.68 13.29 o
2 -6 6 107.48 92.28 7.07 o
3 -6 6 140.65 137.31 8.16 o
4 -6 6 231.92 226.11 9.71 o
5 -6 6 0.78 -1.89 1.89 o
6 -6 6 268.70 237.37 13.97 o
-10 -5 6 46.29 45.08 5.13 o
-9 -5 6 139.05 135.70 6.22 o
-8 -5 6 35.32 19.78 3.19 o
-7 -5 6 307.30 296.13 9.38 o
-6 -5 6 97.91 107.89 5.85 o
-5 -5 6 20.84 18.63 3.53 o
-4 -5 6 519.51 480.60 10.60 o
-3 -5 6 543.75 514.01 9.89 o
-2 -5 6 29.11 27.02 2.11 o
-1 -5 6 807.27 755.82 10.24 o
0 -5 6 76.64 72.92 2.99 o
1 -5 6 84.26 70.26 3.42 o
2 -5 6 380.43 388.75 15.00 o
3 -5 6 628.11 620.56 18.88 o
4 -5 6 168.67 158.17 9.10 o
5 -5 6 587.81 589.25 16.35 o
6 -5 6 46.25 44.49 4.00 o
7 -5 6 69.47 54.84 4.51 o
-11 -4 6 207.07 198.84 7.75 o
-10 -4 6 24.24 25.52 4.17 o
-9 -4 6 34.94 29.11 3.76 o
-8 -4 6 347.29 322.83 14.59 o
-7 -4 6 63.78 65.17 5.72 o
-6 -4 6 13.74 12.24 2.94 o
-5 -4 6 894.85 845.55 18.60 o
-4 -4 6 105.53 97.38 3.55 o
-3 -4 6 125.68 110.82 3.88 o
-2 -4 6 1197.15 1098.46 14.37 o
-1 -4 6 509.03 490.35 6.91 o
0 -4 6 238.01 224.12 4.60 o
1 -4 6 297.50 277.08 5.04 o
2 -4 6 42.91 42.66 2.38 o
3 -4 6 163.35 130.11 5.43 o
4 -4 6 224.33 193.07 12.92 o
5 -4 6 214.69 190.80 12.06 o
6 -4 6 337.14 333.93 15.04 o
7 -4 6 248.06 220.54 8.51 o
8 -4 6 6.74 2.47 2.02 o
-12 -3 6 83.89 72.06 6.80 o
-11 -3 6 11.82 14.46 5.13 o
-10 -3 6 48.21 63.88 9.47 o
-9 -3 6 85.98 102.41 20.88 o
-8 -3 6 17.19 14.46 4.82 o
-7 -3 6 134.95 135.00 7.05 o
-6 -3 6 269.89 268.57 7.78 o
-5 -3 6 89.85 76.34 3.09 o
-4 -3 6 1140.06 1076.70 13.15 o
-3 -3 6 176.03 178.02 5.53 o
-2 -3 6 113.96 117.10 4.11 o
-1 -3 6 370.60 395.81 6.75 o
0 -3 6 767.01 811.85 9.81 o
1 -3 6 406.69 371.72 6.76 o
2 -3 6 1151.18 1038.63 15.83 o
3 -3 6 15.91 11.57 2.00 o
4 -3 6 327.41 299.23 7.11 o
5 -3 6 115.73 113.29 9.34 o
6 -3 6 287.59 258.61 19.84 o
7 -3 6 181.62 159.12 9.83 o
8 -3 6 400.74 393.61 19.45 o
9 -3 6 8.63 5.72 2.01 o
-12 -2 6 11.64 12.08 3.79 o
-11 -2 6 32.72 31.21 6.76 o
-10 -2 6 95.00 115.49 7.38 o
-9 -2 6 358.82 375.15 13.61 o
-8 -2 6 287.85 292.00 8.23 o
-7 -2 6 172.85 184.94 6.04 o
-6 -2 6 495.29 504.45 9.43 o
-5 -2 6 419.54 426.93 10.70 o
-4 -2 6 193.79 199.76 7.04 o
-3 -2 6 65.09 54.79 2.71 o
-2 -2 6 1541.37 1541.47 16.21 o
-1 -2 6 100.83 92.55 2.88 o
0 -2 6 1936.19 2085.53 21.31 o
1 -2 6 309.83 311.75 5.56 o
2 -2 6 58.56 64.21 2.74 o
3 -2 6 556.38 553.47 8.93 o
4 -2 6 983.39 971.87 16.89 o
5 -2 6 47.04 47.58 5.10 o
6 -2 6 595.39 594.57 26.92 o
7 -2 6 76.14 93.39 11.21 o
8 -2 6 24.89 25.29 5.64 o
9 -2 6 396.32 363.08 15.91 o
-12 -1 6 133.64 147.81 29.90 o
-11 -1 6 2.34 1.56 2.20 o
-10 -1 6 151.07 155.31 8.70 o
-9 -1 6 350.99 344.29 19.35 o
-8 -1 6 56.45 48.73 3.33 o
-7 -1 6 656.90 698.72 18.70 o
-6 -1 6 502.04 539.30 10.05 o
-5 -1 6 75.59 72.33 3.22 o
-4 -1 6 1582.10 1677.66 28.70 o
-3 -1 6 1449.05 1468.52 20.06 o
-2 -1 6 26.15 11.42 1.16 o
-1 -1 6 1783.13 2186.81 15.38 o
0 -1 6 299.15 263.34 4.72 o
1 -1 6 284.91 376.35 7.30 o
2 -1 6 1559.71 1776.02 27.94 o
3 -1 6 163.59 173.51 4.82 o
4 -1 6 102.02 110.94 4.20 o
5 -1 6 1382.64 1347.36 19.21 o
6 -1 6 193.93 191.01 13.38 o
7 -1 6 164.27 173.45 11.97 o
8 -1 6 310.50 305.42 13.89 o
9 -1 6 48.25 53.74 7.96 o
-12 0 6 1.38 2.42 1.94 o
-11 0 6 494.42 470.94 14.05 o
-10 0 6 6.59 8.60 3.73 o
-9 0 6 42.69 57.26 12.53 o
-8 0 6 339.47 437.90 9.72 o
-7 0 6 30.16 53.59 3.12 o
-6 0 6 50.63 10.84 1.67 o
-5 0 6 2459.96 2231.32 24.04 o
-4 0 6 488.43 863.14 14.02 o
-3 0 6 1665.87 2583.26 33.53 o
-2 0 6 2760.11 4056.34 31.16 o
-1 0 6 408.44 655.25 7.98 o
0 0 6 264.08 171.90 4.07 o
1 0 6 3616.90 3958.97 51.81 o
2 0 6 178.60 195.40 4.74 o
3 0 6 260.98 316.60 6.99 o
4 0 6 332.53 331.49 7.31 o
5 0 6 0.88 0.00 2.97 o
6 0 6 805.91 860.54 79.25 o
7 0 6 771.30 804.17 57.81 o
8 0 6 0.02 -0.01 4.30 o
9 0 6 180.54 178.11 13.33 o
-12 1 6 129.21 145.45 6.51 o
-11 1 6 2.45 2.27 5.40 o
-10 1 6 130.12 155.39 19.00 o
-9 1 6 375.13 442.73 21.86 o
-8 1 6 54.90 47.07 3.59 o
-7 1 6 686.72 725.29 11.50 o
-6 1 6 481.14 528.42 10.06 o
-5 1 6 83.62 88.51 3.79 o
-4 1 6 1513.92 1669.99 16.62 o
-3 1 6 1466.24 1499.67 16.52 o
-2 1 6 20.28 10.93 0.99 o
-1 1 6 1860.72 2284.50 27.31 o
0 1 6 234.03 206.63 4.80 o
1 1 6 245.42 336.42 6.61 o
2 1 6 1620.02 1833.02 18.12 o
3 1 6 163.02 162.66 5.68 o
4 1 6 83.31 86.78 4.21 o
5 1 6 1465.76 1420.05 23.29 o
6 1 6 163.75 168.44 14.26 o
7 1 6 147.86 156.84 11.41 o
8 1 6 302.78 349.26 24.19 o
9 1 6 54.38 70.26 8.69 o
-12 2 6 12.36 9.60 2.78 o
-11 2 6 47.50 38.40 5.47 o
-10 2 6 94.54 110.19 11.94 o
-9 2 6 339.59 378.07 19.96 o
-8 2 6 315.33 341.93 9.10 o
-7 2 6 175.50 200.29 6.33 o
-6 2 6 472.48 479.92 9.28 o
-5 2 6 442.94 473.41 11.01 o
-4 2 6 183.31 193.52 5.34 o
-3 2 6 77.62 76.67 3.56 o
-2 2 6 1484.10 1557.92 14.85 o
-1 2 6 112.45 114.76 3.80 o
0 2 6 1828.79 2049.00 18.54 o
1 2 6 399.02 424.29 8.75 o
2 2 6 56.68 68.40 3.87 o
3 2 6 576.43 598.36 10.70 o
4 2 6 872.14 867.84 14.54 o
5 2 6 47.27 64.73 7.12 o
6 2 6 652.16 747.17 42.48 o
7 2 6 61.10 85.39 13.28 o
8 2 6 25.85 25.96 6.92 o
9 2 6 417.76 433.89 13.61 o
-12 3 6 89.68 94.13 8.38 o
-11 3 6 11.78 7.81 3.24 o
-10 3 6 44.80 45.60 6.74 o
-9 3 6 70.91 73.62 8.84 o
-8 3 6 16.58 14.19 4.11 o
-7 3 6 140.78 145.55 5.60 o
-6 3 6 256.01 256.83 7.80 o
-5 3 6 87.87 77.87 3.69 o
-4 3 6 1145.99 1205.57 18.95 o
-3 3 6 195.49 226.91 8.37 o
-2 3 6 128.36 139.86 5.59 o
-1 3 6 296.45 343.99 20.16 o
0 3 6 798.26 917.22 23.37 o
1 3 6 424.68 424.56 9.89 o
2 3 6 1163.51 1158.28 15.71 o
3 3 6 5.69 6.87 1.41 o
4 3 6 330.06 345.65 9.75 o
5 3 6 83.51 108.35 15.31 o
6 3 6 308.55 363.89 17.06 o
7 3 6 198.90 232.89 10.14 o
8 3 6 371.24 434.99 15.20 o
-11 4 6 192.58 223.02 13.91 o
-10 4 6 18.14 20.70 6.51 o
-9 4 6 44.57 52.31 10.14 o
-8 4 6 355.08 393.73 20.26 o
-7 4 6 54.57 64.91 6.82 o
-6 4 6 16.71 15.08 2.01 o
-5 4 6 876.97 960.09 14.43 o
-4 4 6 118.80 126.31 4.86 o
-3 4 6 97.08 94.90 5.55 o
-2 4 6 1266.25 1330.30 20.59 o
-1 4 6 488.71 526.61 11.34 o
0 4 6 251.46 250.98 7.51 o
1 4 6 281.56 297.62 8.83 o
2 4 6 40.21 45.85 3.63 o
3 4 6 140.82 136.00 6.24 o
4 4 6 270.31 277.22 12.20 o
5 4 6 210.72 228.39 10.77 o
6 4 6 345.44 405.56 13.56 o
7 4 6 224.24 222.16 8.58 o
8 4 6 5.64 3.25 2.05 o
-10 5 6 44.10 48.83 7.60 o
-9 5 6 146.69 150.04 14.84 o
-8 5 6 36.45 33.60 5.63 o
-7 5 6 298.53 337.39 16.91 o
-6 5 6 98.35 116.14 7.56 o
-5 5 6 18.49 18.45 3.15 o
-4 5 6 542.90 556.90 19.10 o
-3 5 6 550.77 586.86 18.84 o
-2 5 6 25.16 21.95 3.27 o
-1 5 6 822.43 890.48 24.59 o
0 5 6 56.42 61.63 4.32 o
1 5 6 66.68 62.35 4.27 o
2 5 6 422.94 458.23 15.98 o
3 5 6 589.48 603.43 22.13 o
4 5 6 143.44 147.38 10.36 o
5 5 6 607.61 686.54 21.34 o
6 5 6 42.12 45.46 4.82 o
7 5 6 70.79 67.48 4.69 o
-9 6 6 72.11 89.57 9.30 o
-8 6 6 94.27 97.68 11.26 o
-7 6 6 39.81 55.30 6.48 o
-6 6 6 105.01 105.45 9.34 o
-5 6 6 385.37 417.68 15.65 o
-4 6 6 59.28 62.60 6.20 o
-3 6 6 590.68 629.64 21.24 o
-2 6 6 376.59 436.69 19.67 o
-1 6 6 218.14 209.25 15.05 o
0 6 6 197.09 179.88 12.20 o
1 6 6 490.17 488.59 28.25 o
2 6 6 111.55 114.00 13.11 o
3 6 6 147.41 161.52 14.81 o
4 6 6 205.33 215.54 16.01 o
5 6 6 0.92 2.59 2.69 o
6 6 6 276.64 266.68 13.37 o
-8 7 6 3.64 2.17 2.31 o
-7 7 6 227.64 257.42 15.51 o
-6 7 6 70.58 78.03 6.51 o
-5 7 6 6.74 7.77 2.32 o
-4 7 6 325.32 356.84 12.89 o
-3 7 6 239.49 263.46 11.17 o
-2 7 6 39.50 32.96 7.32 o
-1 7 6 85.12 79.97 7.51 o
0 7 6 206.03 230.24 12.39 o
1 7 6 28.68 29.12 4.55 o
2 7 6 276.27 288.13 12.63 o
3 7 6 42.46 35.58 4.26 o
4 7 6 56.96 46.60 6.21 o
5 7 6 92.89 94.95 7.24 o
-5 8 6 29.00 22.17 3.87 o
-4 8 6 48.92 56.64 7.52 o
-3 8 6 83.47 80.68 9.03 o
-2 8 6 130.30 127.18 11.63 o
-1 8 6 6.78 3.88 2.97 o
0 8 6 144.91 160.02 8.28 o
1 8 6 118.95 117.02 10.09 o
2 8 6 13.72 14.95 3.66 o
3 8 6 41.84 38.23 4.57 o
-5 -8 7 118.15 148.10 8.31 o
-4 -8 7 35.30 33.96 3.33 o
-3 -8 7 21.32 15.72 3.55 o
-2 -8 7 119.71 123.24 6.61 o
-1 -8 7 63.83 60.10 6.89 o
0 -8 7 4.76 6.46 1.73 o
1 -8 7 129.82 115.03 11.16 o
-6 -7 7 112.40 102.53 14.07 o
-5 -7 7 66.94 76.63 6.03 o
-4 -7 7 69.83 70.13 6.25 o
-3 -7 7 63.06 63.88 6.28 o
-2 -7 7 33.23 32.75 3.16 o
-1 -7 7 194.70 184.30 7.22 o
0 -7 7 81.10 80.14 5.65 o
1 -7 7 9.82 8.49 2.55 o
2 -7 7 151.62 123.81 7.37 o
3 -7 7 147.67 149.75 7.28 o
4 -7 7 40.26 35.64 4.38 o
-8 -6 7 37.63 30.66 4.26 o
-7 -6 7 107.66 111.13 5.39 o
-6 -6 7 21.43 20.58 2.55 o
-5 -6 7 156.61 153.22 10.96 o
-4 -6 7 17.93 17.14 3.12 o
-3 -6 7 109.66 102.60 5.86 o
-2 -6 7 347.75 333.69 9.47 o
-1 -6 7 290.95 288.85 9.53 o
0 -6 7 150.56 138.92 7.90 o
1 -6 7 483.01 451.51 14.59 o
2 -6 7 106.76 104.00 7.13 o
3 -6 7 35.27 34.63 4.04 o
4 -6 7 127.85 125.26 7.80 o
5 -6 7 61.23 55.68 5.91 o
-10 -5 7 9.37 6.38 2.57 o
-9 -5 7 41.94 39.54 5.87 o
-8 -5 7 20.66 25.31 5.87 o
-7 -5 7 42.08 39.64 3.90 o
-6 -5 7 165.64 146.98 9.29 o
-5 -5 7 17.98 11.93 2.90 o
-4 -5 7 186.85 169.23 8.23 o
-3 -5 7 738.40 714.93 15.45 o
-2 -5 7 9.62 8.92 3.20 o
-1 -5 7 120.15 102.04 5.14 o
0 -5 7 400.55 383.71 10.82 o
1 -5 7 133.86 134.64 6.74 o
2 -5 7 416.39 413.20 15.30 o
3 -5 7 364.70 349.31 13.59 o
4 -5 7 43.03 38.93 4.39 o
5 -5 7 105.29 96.60 4.95 o
6 -5 7 117.36 121.11 7.16 o
-11 -4 7 182.60 161.60 9.41 o
-10 -4 7 149.59 148.30 11.86 o
-9 -4 7 21.21 17.42 6.02 o
-8 -4 7 179.61 192.40 17.06 o
-7 -4 7 215.49 237.57 19.25 o
-6 -4 7 44.98 50.72 9.49 o
-5 -4 7 235.77 205.55 5.97 o
-4 -4 7 259.85 249.28 6.51 o
-3 -4 7 113.30 118.36 3.84 o
-2 -4 7 578.88 548.70 7.89 o
-1 -4 7 654.36 646.86 8.90 o
0 -4 7 122.70 121.10 3.72 o
1 -4 7 437.76 376.41 6.57 o
2 -4 7 286.23 265.12 12.41 o
3 -4 7 30.78 28.49 4.25 o
4 -4 7 288.13 286.61 12.00 o
5 -4 7 207.01 195.12 8.02 o
6 -4 7 146.24 126.27 6.76 o
7 -4 7 192.18 169.35 11.09 o
-11 -3 7 19.59 16.61 5.20 o
-10 -3 7 4.27 1.97 3.16 o
-9 -3 7 163.21 176.95 23.68 o
-8 -3 7 196.93 236.44 33.86 o
-7 -3 7 134.38 129.30 10.92 o
-6 -3 7 535.30 533.80 13.27 o
-5 -3 7 18.85 19.05 1.99 o
-4 -3 7 27.37 30.56 2.28 o
-3 -3 7 1015.65 1019.44 15.37 o
-2 -3 7 64.95 78.30 3.22 o
-1 -3 7 571.74 542.44 7.26 o
0 -3 7 664.89 688.20 8.48 o
1 -3 7 159.06 143.72 3.90 o
2 -3 7 271.41 251.75 5.45 o
3 -3 7 782.98 763.79 10.98 o
4 -3 7 380.45 412.55 14.84 o
5 -3 7 21.45 18.16 3.28 o
6 -3 7 300.49 271.64 13.01 o
7 -3 7 2.66 1.25 2.11 o
8 -3 7 146.47 133.44 9.15 o
-12 -2 7 8.66 7.13 3.69 o
-11 -2 7 49.05 45.59 16.41 o
-10 -2 7 306.64 359.43 16.45 o
-9 -2 7 22.13 18.71 3.56 o
-8 -2 7 97.53 110.31 9.87 o
-7 -2 7 470.14 492.12 18.10 o
-6 -2 7 0.47 2.53 1.48 o
-5 -2 7 288.86 261.91 7.06 o
-4 -2 7 889.21 917.17 13.82 o
-3 -2 7 224.24 244.09 6.02 o
-2 -2 7 539.81 520.82 8.69 o
-1 -2 7 1001.05 1095.81 11.64 o
0 -2 7 355.93 395.39 6.66 o
1 -2 7 814.80 862.82 10.25 o
2 -2 7 387.75 356.61 6.27 o
3 -2 7 24.31 34.72 2.09 o
4 -2 7 521.69 540.97 13.64 o
5 -2 7 105.80 111.41 7.53 o
6 -2 7 37.78 44.33 5.72 o
7 -2 7 260.21 233.57 16.61 o
8 -2 7 58.79 46.74 6.17 o
-12 -1 7 109.66 114.01 21.62 o
-11 -1 7 126.25 159.53 7.98 o
-10 -1 7 41.56 37.33 4.84 o
-9 -1 7 93.55 86.76 6.75 o
-8 -1 7 316.45 350.75 13.22 o
-7 -1 7 234.30 220.72 6.34 o
-6 -1 7 349.21 359.63 7.99 o
-5 -1 7 104.03 108.05 4.54 o
-4 -1 7 363.05 405.95 8.58 o
-3 -1 7 1437.56 1576.97 19.01 o
-2 -1 7 32.53 28.97 2.19 o
-1 -1 7 233.44 218.48 5.39 o
0 -1 7 883.76 847.34 10.83 o
1 -1 7 30.35 41.63 2.59 o
2 -1 7 395.20 419.14 7.31 o
3 -1 7 1166.79 1175.31 13.99 o
4 -1 7 88.30 76.69 4.27 o
5 -1 7 124.26 136.02 11.09 o
6 -1 7 301.01 329.39 16.40 o
7 -1 7 111.82 105.91 9.89 o
8 -1 7 277.79 245.39 12.11 o
-12 0 7 0.04 0.09 1.72 o
-11 0 7 135.23 136.06 7.46 o
-10 0 7 73.24 86.42 6.49 o
-9 0 7 50.83 68.85 6.04 o
-8 0 7 166.73 131.04 5.38 o
-7 0 7 248.52 151.33 4.97 o
-6 0 7 32.40 89.12 3.62 o
-5 0 7 304.17 472.45 10.63 o
-4 0 7 9.55 8.21 1.49 o
-3 0 7 345.85 270.60 6.06 o
-2 0 7 1542.16 1366.55 15.86 o
-1 0 7 1322.23 1215.58 14.68 o
0 0 7 521.08 699.92 10.63 o
1 0 7 1906.55 2152.82 22.64 o
2 0 7 275.48 307.15 6.75 o
3 0 7 0.97 0.86 1.15 o
4 0 7 759.38 750.70 11.92 o
5 0 7 24.97 34.06 5.99 o
6 0 7 71.32 55.73 8.53 o
7 0 7 685.07 693.79 49.23 o
8 0 7 8.12 1.77 2.63 o
9 0 7 2.75 4.67 2.11 o
-12 1 7 112.98 113.22 7.45 o
-11 1 7 135.03 138.82 10.38 o
-10 1 7 40.72 36.18 11.93 o
-9 1 7 109.82 102.63 7.48 o
-8 1 7 285.18 326.02 12.93 o
-7 1 7 220.34 198.96 6.79 o
-6 1 7 337.64 354.75 10.80 o
-5 1 7 98.09 98.53 4.31 o
-4 1 7 381.50 456.84 9.43 o
-3 1 7 1531.68 1744.67 18.05 o
-2 1 7 28.29 30.61 2.08 o
-1 1 7 217.47 192.79 5.35 o
0 1 7 945.82 961.89 13.54 o
1 1 7 24.51 33.05 2.51 o
2 1 7 376.55 399.83 9.81 o
3 1 7 1155.65 1151.08 16.94 o
4 1 7 84.58 79.95 4.24 o
5 1 7 138.81 168.70 15.65 o
6 1 7 288.01 349.67 21.59 o
7 1 7 114.83 137.56 15.03 o
8 1 7 287.21 298.01 18.41 o
9 1 7 126.90 115.27 7.90 o
-12 2 7 8.02 3.24 1.88 o
-11 2 7 60.10 58.39 11.09 o
-10 2 7 313.19 394.00 31.73 o
-9 2 7 22.40 23.17 5.66 o
-8 2 7 113.80 124.18 8.50 o
-7 2 7 478.83 511.22 14.54 o
-6 2 7 0.43 1.27 1.46 o
-5 2 7 256.54 235.97 9.23 o
-4 2 7 907.94 1021.57 19.48 o
-3 2 7 223.33 266.42 6.83 o
-2 2 7 501.23 532.21 9.45 o
-1 2 7 1101.35 1266.63 17.75 o
0 2 7 383.77 463.83 11.64 o
1 2 7 753.18 853.17 13.12 o
2 2 7 384.97 358.11 8.86 o
3 2 7 15.70 27.77 2.78 o
4 2 7 485.59 571.59 35.04 o
5 2 7 104.07 135.31 17.07 o
6 2 7 43.42 54.41 10.47 o
7 2 7 260.41 295.19 20.90 o
8 2 7 55.02 48.92 4.89 o
-12 3 7 136.42 128.78 8.39 o
-11 3 7 19.63 15.07 3.28 o
-10 3 7 3.42 4.19 2.65 o
-9 3 7 162.70 195.93 13.69 o
-8 3 7 197.53 267.68 17.61 o
-7 3 7 138.04 154.38 9.38 o
-6 3 7 536.87 592.81 13.32 o
-5 3 7 26.66 29.49 2.61 o
-4 3 7 45.31 49.74 6.75 o
-3 3 7 971.57 1063.06 25.08 o
-2 3 7 67.31 86.91 4.91 o
-1 3 7 566.32 596.43 13.69 o
0 3 7 703.44 795.20 18.05 o
1 3 7 148.20 146.67 7.81 o
2 3 7 244.26 251.41 8.71 o
3 3 7 825.50 910.28 19.70 o
4 3 7 387.97 453.15 20.62 o
5 3 7 17.68 20.76 6.71 o
6 3 7 282.61 306.73 15.16 o
7 3 7 2.51 0.51 2.59 o
8 3 7 147.40 130.95 9.39 o
-11 4 7 167.59 159.40 10.64 o
-10 4 7 152.58 175.59 15.03 o
-9 4 7 20.74 27.62 6.97 o
-8 4 7 171.01 206.96 14.60 o
-7 4 7 209.66 260.97 13.44 o
-6 4 7 44.51 49.05 5.31 o
-5 4 7 262.73 273.66 9.30 o
-4 4 7 265.26 273.44 14.11 o
-3 4 7 118.16 141.89 6.85 o
-2 4 7 539.72 559.99 16.04 o
-1 4 7 623.83 670.23 16.49 o
0 4 7 109.09 113.82 5.28 o
1 4 7 463.61 460.56 16.39 o
2 4 7 273.98 279.16 15.42 o
3 4 7 22.26 26.96 4.61 o
4 4 7 361.73 391.22 13.76 o
5 4 7 182.81 185.38 8.82 o
6 4 7 136.07 134.85 12.36 o
7 4 7 189.21 198.36 12.46 o
-10 5 7 6.76 5.97 3.02 o
-9 5 7 38.95 34.40 6.79 o
-8 5 7 25.01 31.78 5.55 o
-7 5 7 39.65 35.05 4.77 o
-6 5 7 172.79 167.69 8.77 o
-5 5 7 11.18 8.40 2.84 o
-4 5 7 181.44 176.20 10.07 o
-3 5 7 729.89 718.61 54.16 o
-2 5 7 5.67 7.45 3.17 o
-1 5 7 100.59 92.37 7.59 o
0 5 7 412.35 410.99 28.98 o
1 5 7 129.08 126.21 10.23 o
2 5 7 399.33 431.79 18.84 o
3 5 7 380.65 408.26 15.33 o
4 5 7 40.29 46.68 4.66 o
5 5 7 109.42 112.74 7.88 o
6 5 7 111.32 128.68 6.95 o
-9 6 7 0.20 0.17 1.81 o
-8 6 7 35.26 35.99 6.38 o
-7 6 7 102.34 119.31 8.77 o
-6 6 7 21.40 23.13 4.57 o
-5 6 7 135.92 138.32 8.53 o
-4 6 7 13.67 12.76 2.91 o
-3 6 7 111.32 100.89 9.37 o
-2 6 7 358.22 367.24 25.69 o
-1 6 7 314.53 313.39 34.37 o
0 6 7 156.15 153.45 15.73 o
1 6 7 493.64 478.59 35.69 o
2 6 7 106.35 95.64 11.32 o
3 6 7 32.09 25.05 5.75 o
4 6 7 117.59 114.40 10.23 o
5 6 7 66.48 55.39 5.96 o
-7 7 7 42.54 37.28 5.12 o
-6 7 7 96.78 111.58 6.99 o
-5 7 7 72.33 88.79 5.66 o
-4 7 7 77.09 74.18 13.13 o
-3 7 7 78.56 83.57 7.66 o
-2 7 7 37.80 29.06 6.67 o
-1 7 7 196.00 181.50 15.99 o
0 7 7 82.62 88.95 9.79 o
1 7 7 7.35 12.08 3.01 o
2 7 7 153.99 146.75 8.05 o
3 7 7 141.61 149.49 11.14 o
-3 8 7 20.03 16.88 3.82 o
-2 8 7 126.17 119.33 9.92 o
-1 8 7 60.14 57.15 4.55 o
0 8 7 3.45 4.48 2.43 o
1 8 7 135.41 133.52 8.84 o
-2 -8 8 72.07 64.02 5.80 o
-6 -7 8 81.10 64.94 5.88 o
-5 -7 8 161.72 164.89 7.71 o
-4 -7 8 44.40 43.99 4.61 o
-3 -7 8 3.59 2.36 1.87 o
-2 -7 8 54.77 57.70 6.89 o
-1 -7 8 3.05 5.88 2.20 o
0 -7 8 38.42 35.95 3.32 o
1 -7 8 43.08 41.62 3.34 o
2 -7 8 20.50 18.25 2.85 o
-8 -6 8 7.55 5.15 2.12 o
-7 -6 8 101.71 111.45 8.29 o
-6 -6 8 72.88 83.21 5.81 o
-5 -6 8 20.16 15.70 2.65 o
-4 -6 8 61.80 61.12 4.83 o
-3 -6 8 57.28 59.72 4.52 o
-2 -6 8 35.31 37.44 2.92 o
-1 -6 8 135.91 129.84 5.97 o
0 -6 8 37.60 43.24 4.41 o
1 -6 8 149.49 152.47 7.88 o
2 -6 8 60.25 56.30 3.99 o
3 -6 8 90.05 77.58 5.58 o
-9 -5 8 18.34 17.46 4.06 o
-8 -5 8 133.82 137.54 10.73 o
-7 -5 8 9.38 7.17 3.94 o
-6 -5 8 65.27 72.01 6.38 o
-5 -5 8 79.26 84.83 5.34 o
-4 -5 8 23.22 31.75 3.84 o
-3 -5 8 225.56 217.31 8.15 o
-2 -5 8 220.53 224.77 8.43 o
-1 -5 8 6.68 4.42 1.98 o
0 -5 8 380.67 364.02 14.81 o
1 -5 8 46.41 46.33 5.38 o
2 -5 8 1.82 5.77 2.34 o
3 -5 8 160.39 158.30 8.72 o
4 -5 8 137.40 130.23 7.11 o
5 -5 8 13.22 7.76 2.60 o
-11 -4 8 13.82 11.12 2.69 o
-10 -4 8 152.07 161.84 10.87 o
-9 -4 8 92.83 103.12 10.51 o
-8 -4 8 70.32 61.13 9.12 o
-7 -4 8 143.97 139.63 13.58 o
-6 -4 8 157.80 175.12 15.33 o
-5 -4 8 11.10 7.07 2.35 o
-4 -4 8 694.00 696.81 18.96 o
-3 -4 8 138.32 134.70 5.00 o
-2 -4 8 154.01 133.19 4.24 o
-1 -4 8 477.84 462.46 9.59 o
0 -4 8 103.69 90.68 6.15 o
1 -4 8 203.72 211.03 11.48 o
2 -4 8 356.94 355.35 17.33 o
3 -4 8 12.97 6.99 3.09 o
4 -4 8 159.99 144.89 7.68 o
5 -4 8 290.97 269.21 11.73 o
6 -4 8 8.09 8.67 2.10 o
-11 -3 8 19.77 18.38 4.44 o
-10 -3 8 3.38 6.72 4.65 o
-9 -3 8 110.25 104.73 16.28 o
-8 -3 8 110.02 103.92 13.42 o
-7 -3 8 1.65 1.98 3.28 o
-6 -3 8 416.17 415.83 31.81 o
-5 -3 8 537.88 531.55 11.04 o
-4 -3 8 25.79 18.85 1.88 o
-3 -3 8 129.59 114.00 3.80 o
-2 -3 8 541.25 514.12 7.74 o
-1 -3 8 399.48 460.53 7.51 o
0 -3 8 424.40 424.08 9.44 o
1 -3 8 556.00 547.72 9.92 o
2 -3 8 275.55 263.79 15.17 o
3 -3 8 901.12 895.33 19.51 o
4 -3 8 912.05 916.86 21.75 o
5 -3 8 104.44 100.96 8.13 o
6 -3 8 45.78 40.15 6.41 o
7 -3 8 153.03 123.39 6.41 o
-12 -2 8 3.84 -1.10 2.11 o
-11 -2 8 17.15 12.16 3.46 o
-10 -2 8 165.16 201.04 22.85 o
-9 -2 8 206.36 258.09 38.61 o
-8 -2 8 146.38 131.18 22.64 o
-7 -2 8 272.46 285.18 25.84 o
-6 -2 8 176.13 186.60 6.33 o
-5 -2 8 19.07 19.37 2.29 o
-4 -2 8 370.48 328.83 8.14 o
-3 -2 8 38.92 33.05 2.27 o
-2 -2 8 399.77 414.61 6.69 o
-1 -2 8 476.77 438.75 7.74 o
0 -2 8 376.07 371.77 7.44 o
1 -2 8 768.75 810.89 16.71 o
2 -2 8 589.34 550.46 9.85 o
3 -2 8 66.12 76.67 7.68 o
4 -2 8 106.56 110.71 12.99 o
5 -2 8 510.06 510.46 27.28 o
6 -2 8 7.99 7.84 3.64 o
7 -2 8 99.54 94.77 6.68 o
-12 -1 8 43.20 33.90 11.80 o
-11 -1 8 129.20 151.26 12.50 o
-10 -1 8 25.49 30.05 4.05 o
-9 -1 8 120.51 129.20 8.02 o
-8 -1 8 274.46 309.07 28.20 o
-7 -1 8 13.71 17.28 2.12 o
-6 -1 8 214.72 230.60 6.57 o
-5 -1 8 418.81 436.70 10.20 o
-4 -1 8 113.21 123.14 4.76 o
-3 -1 8 352.99 289.96 8.57 o
-2 -1 8 381.85 376.97 8.13 o
-1 -1 8 36.75 48.68 3.25 o
0 -1 8 315.94 316.16 7.24 o
1 -1 8 295.00 286.34 6.60 o
2 -1 8 85.65 82.56 3.75 o
3 -1 8 379.42 374.42 10.01 o
4 -1 8 200.25 202.54 13.03 o
5 -1 8 7.13 2.15 2.90 o
6 -1 8 291.03 279.30 13.55 o
7 -1 8 22.71 21.09 4.72 o
8 -1 8 29.00 43.53 5.81 o
-12 0 8 52.38 44.07 8.22 o
-11 0 8 10.79 8.28 2.48 o
-10 0 8 75.68 65.11 7.66 o
-9 0 8 202.61 190.81 11.23 o
-8 0 8 50.01 77.54 8.65 o
-7 0 8 89.19 151.13 5.23 o
-6 0 8 381.26 546.46 10.06 o
-5 0 8 183.02 83.76 4.03 o
-4 0 8 138.02 73.08 3.82 o
-3 0 8 146.93 102.14 4.59 o
-2 0 8 304.54 415.51 9.24 o
-1 0 8 334.69 409.36 9.69 o
0 0 8 90.84 97.09 4.22 o
1 0 8 139.62 116.62 4.67 o
2 0 8 496.79 481.27 10.02 o
3 0 8 11.15 14.57 2.04 o
4 0 8 15.73 16.56 4.19 o
5 0 8 864.47 846.80 27.28 o
6 0 8 3.84 9.03 3.12 o
7 0 8 29.37 38.23 6.67 o
8 0 8 161.94 144.94 7.16 o
-12 1 8 43.13 36.90 3.92 o
-11 1 8 128.32 139.79 18.78 o
-10 1 8 26.53 26.39 4.94 o
-9 1 8 108.21 112.29 17.31 o
-8 1 8 265.27 298.77 18.05 o
-7 1 8 14.35 13.80 2.24 o
-6 1 8 215.70 217.30 12.85 o
-5 1 8 386.39 398.20 13.60 o
-4 1 8 112.73 125.07 5.63 o
-3 1 8 405.64 347.34 7.89 o
-2 1 8 366.89 358.22 9.91 o
-1 1 8 39.36 53.43 3.26 o
0 1 8 288.56 313.79 7.05 o
1 1 8 331.73 340.12 9.22 o
2 1 8 83.57 84.68 4.79 o
3 1 8 365.02 388.44 11.89 o
4 1 8 206.50 210.77 20.35 o
5 1 8 11.18 15.64 6.35 o
6 1 8 311.54 317.30 22.56 o
7 1 8 25.82 21.17 5.30 o
8 1 8 30.66 42.01 3.95 o
-12 2 8 2.55 -1.09 2.08 o
-11 2 8 18.15 15.90 3.97 o
-10 2 8 166.16 203.85 19.54 o
-9 2 8 193.18 249.33 15.55 o
-8 2 8 136.42 119.81 9.58 o
-7 2 8 297.08 286.94 15.57 o
-6 2 8 177.29 185.00 7.91 o
-5 2 8 24.65 21.76 2.86 o
-4 2 8 371.70 350.27 11.77 o
-3 2 8 40.27 30.76 3.19 o
-2 2 8 397.36 438.51 12.49 o
-1 2 8 467.43 464.09 10.47 o
0 2 8 361.99 392.46 10.54 o
1 2 8 724.92 831.05 14.97 o
2 2 8 617.38 634.73 15.86 o
3 2 8 60.72 59.14 7.47 o
4 2 8 116.03 144.36 11.59 o
5 2 8 517.60 566.68 21.84 o
6 2 8 5.93 5.12 3.03 o
7 2 8 106.30 109.03 7.42 o
8 2 8 115.55 115.37 7.74 o
-11 3 8 19.38 11.88 2.70 o
-10 3 8 2.35 -0.17 2.17 o
-9 3 8 113.01 140.30 11.18 o
-8 3 8 99.83 104.98 7.63 o
-7 3 8 2.00 -1.42 3.52 o
-6 3 8 426.88 464.38 20.01 o
-5 3 8 541.59 561.50 28.38 o
-4 3 8 25.05 23.36 2.89 o
-3 3 8 99.53 79.79 9.14 o
-2 3 8 568.45 578.38 12.59 o
-1 3 8 402.75 498.28 13.19 o
0 3 8 393.92 450.04 12.63 o
1 3 8 589.05 644.04 15.62 o
2 3 8 280.88 323.98 16.92 o
3 3 8 923.69 1006.82 32.39 o
4 3 8 917.43 1035.13 25.52 o
5 3 8 95.09 117.36 7.56 o
6 3 8 46.92 48.73 5.29 o
7 3 8 156.11 150.10 10.65 o
-11 4 8 14.03 10.91 2.64 o
-10 4 8 157.84 171.85 13.21 o
-9 4 8 100.86 125.06 12.98 o
-8 4 8 75.69 79.42 7.14 o
-7 4 8 138.51 159.39 10.29 o
-6 4 8 161.03 177.30 11.74 o
-5 4 8 11.79 12.30 3.94 o
-4 4 8 643.59 644.24 57.21 o
-3 4 8 165.47 144.46 11.38 o
-2 4 8 180.39 190.41 13.84 o
-1 4 8 475.96 492.43 33.78 o
0 4 8 114.55 99.17 9.71 o
1 4 8 222.97 250.39 15.21 o
2 4 8 361.77 394.99 26.00 o
3 4 8 8.90 10.56 4.94 o
4 4 8 142.81 153.72 14.86 o
5 4 8 283.00 291.55 18.56 o
6 4 8 10.08 4.78 2.23 o
-9 5 8 19.55 17.09 4.49 o
-8 5 8 136.92 150.65 10.10 o
-7 5 8 10.41 8.45 2.82 o
-6 5 8 74.15 91.91 7.28 o
-5 5 8 72.52 85.53 7.37 o
-4 5 8 23.82 28.48 5.44 o
-3 5 8 205.91 197.15 13.10 o
-2 5 8 243.97 234.78 14.18 o
-1 5 8 6.81 6.09 2.18 o
0 5 8 373.11 332.59 16.34 o
1 5 8 31.94 35.04 5.18 o
2 5 8 2.95 0.36 2.69 o
3 5 8 156.88 158.34 8.02 o
4 5 8 133.17 136.08 11.11 o
5 5 8 15.00 19.62 4.54 o
-8 6 8 5.93 3.19 2.58 o
-7 6 8 92.82 105.22 8.94 o
-6 6 8 78.04 93.83 6.08 o
-5 6 8 24.96 29.69 4.04 o
-4 6 8 64.72 69.35 7.05 o
-3 6 8 49.06 45.32 6.16 o
-2 6 8 34.16 29.07 4.98 o
-1 6 8 138.26 150.51 10.40 o
0 6 8 31.26 33.09 8.25 o
1 6 8 130.99 139.01 7.56 o
2 6 8 80.15 76.73 5.26 o
3 6 8 86.03 86.48 9.33 o
4 6 8 98.02 115.12 9.06 o
-6 7 8 78.79 87.48 8.17 o
-5 7 8 163.83 196.96 13.64 o
-4 7 8 45.13 40.55 4.81 o
-3 7 8 7.45 10.06 3.03 o
-2 7 8 46.04 54.74 4.40 o
-1 7 8 2.86 2.93 1.93 o
0 7 8 32.83 34.07 4.05 o
1 7 8 38.69 36.16 3.85 o
2 7 8 17.70 18.13 3.53 o
-4 -7 9 107.12 106.69 8.01 o
-3 -7 9 2.83 1.45 2.23 o
-2 -7 9 143.85 153.93 10.90 o
-1 -7 9 22.97 20.69 4.28 o
0 -7 9 6.67 7.64 2.00 o
-7 -6 9 97.98 108.96 7.37 o
-6 -6 9 94.02 106.18 8.15 o
-5 -6 9 19.18 10.70 2.11 o
-4 -6 9 106.36 124.83 5.51 o
-3 -6 9 216.33 234.46 8.04 o
-2 -6 9 28.65 26.43 3.64 o
-1 -6 9 129.02 123.47 7.46 o
0 -6 9 168.53 176.12 11.23 o
1 -6 9 18.44 14.66 2.51 o
2 -6 9 82.94 82.73 6.38 o
3 -6 9 67.91 56.30 7.00 o
-9 -5 9 11.52 7.84 2.64 o
-8 -5 9 35.35 38.79 5.30 o
-7 -5 9 58.36 61.29 7.46 o
-6 -5 9 20.52 24.57 5.52 o
-5 -5 9 194.65 194.78 8.68 o
-4 -5 9 193.13 205.67 12.31 o
-3 -5 9 63.02 64.58 4.44 o
-2 -5 9 116.89 124.57 6.05 o
-1 -5 9 46.42 48.68 3.96 o
0 -5 9 17.21 21.50 3.84 o
1 -5 9 149.50 153.16 8.83 o
2 -5 9 154.84 157.18 9.66 o
3 -5 9 269.66 273.88 12.84 o
4 -5 9 113.31 109.68 7.09 o
-10 -4 9 21.56 13.36 3.31 o
-9 -4 9 113.46 127.29 10.07 o
-8 -4 9 9.94 7.41 4.46 o
-7 -4 9 52.39 61.06 8.76 o
-6 -4 9 188.47 204.21 15.35 o
-5 -4 9 90.61 92.86 12.17 o
-4 -4 9 64.92 54.39 4.84 o
-3 -4 9 477.79 475.16 12.33 o
-2 -4 9 187.43 192.41 7.17 o
-1 -4 9 51.81 47.66 4.55 o
0 -4 9 201.49 212.72 11.28 o
1 -4 9 2.16 -0.50 2.25 o
2 -4 9 84.81 78.13 6.65 o
3 -4 9 47.21 38.91 5.68 o
4 -4 9 113.28 116.53 8.77 o
5 -4 9 123.17 134.49 6.39 o
-11 -3 9 17.90 17.32 3.30 o
-10 -3 9 24.59 20.30 4.38 o
-9 -3 9 10.52 2.36 2.82 o
-8 -3 9 90.05 72.85 11.55 o
-7 -3 9 73.31 63.25 8.74 o
-6 -3 9 121.79 106.36 12.32 o
-5 -3 9 278.25 265.97 13.77 o
-4 -3 9 6.97 5.84 2.51 o
-3 -3 9 27.06 21.00 2.77 o
-2 -3 9 391.53 391.99 8.72 o
-1 -3 9 59.14 59.08 4.48 o
0 -3 9 421.76 370.43 16.86 o
1 -3 9 97.24 98.69 7.99 o
2 -3 9 0.46 3.11 2.97 o
3 -3 9 95.45 80.01 7.27 o
4 -3 9 303.40 285.44 12.90 o
5 -3 9 57.52 54.42 5.18 o
6 -3 9 190.86 206.61 21.82 o
-11 -2 9 9.91 8.76 3.33 o
-10 -2 9 114.82 94.20 24.06 o
-9 -2 9 79.95 76.45 16.67 o
-8 -2 9 43.76 51.34 7.44 o
-7 -2 9 235.50 241.44 29.49 o
-6 -2 9 146.17 131.99 14.83 o
-5 -2 9 239.41 240.98 6.96 o
-4 -2 9 433.25 395.72 8.63 o
-3 -2 9 42.55 38.57 2.59 o
-2 -2 9 88.24 89.59 3.76 o
-1 -2 9 285.86 298.16 7.12 o
0 -2 9 156.92 145.82 5.00 o
1 -2 9 105.73 124.71 18.83 o
2 -2 9 581.37 568.18 33.15 o
3 -2 9 174.25 175.11 11.75 o
4 -2 9 108.39 115.53 9.16 o
5 -2 9 59.05 62.62 6.21 o
6 -2 9 164.17 151.58 12.15 o
7 -2 9 23.46 25.04 3.70 o
-11 -1 9 94.90 83.04 8.32 o
-10 -1 9 47.38 50.35 6.57 o
-9 -1 9 48.72 44.82 7.00 o
-8 -1 9 128.83 150.56 12.35 o
-7 -1 9 189.60 198.36 26.71 o
-6 -1 9 58.80 57.79 9.67 o
-5 -1 9 595.73 620.84 12.18 o
-4 -1 9 409.75 395.92 8.45 o
-3 -1 9 67.63 82.58 3.87 o
-2 -1 9 206.73 197.65 5.99 o
-1 -1 9 412.26 411.85 8.25 o
0 -1 9 229.75 246.34 6.58 o
1 -1 9 136.01 140.92 5.34 o
2 -1 9 171.47 177.19 14.78 o
3 -1 9 223.75 199.68 17.25 o
4 -1 9 464.92 453.56 25.53 o
5 -1 9 25.44 30.45 4.29 o
6 -1 9 88.45 94.22 11.06 o
7 -1 9 224.05 194.56 12.35 o
-12 0 9 57.77 43.54 6.50 o
-11 0 9 5.92 -2.71 7.50 o
-10 0 9 14.39 18.08 9.90 o
-9 0 9 187.61 223.66 24.95 o
-8 0 9 2.11 5.97 4.38 o
-7 0 9 103.64 51.16 6.15 o
-6 0 9 217.30 128.71 6.79 o
-5 0 9 23.82 54.90 4.02 o
-4 0 9 358.66 552.65 11.43 o
-3 0 9 707.54 874.10 16.06 o
-2 0 9 82.55 103.88 4.25 o
-1 0 9 557.37 527.51 9.63 o
0 0 9 863.34 830.24 14.62 o
1 0 9 6.26 6.49 1.49 o
2 0 9 1.57 0.98 2.43 o
3 0 9 384.90 349.72 22.79 o
4 0 9 39.37 54.01 8.63 o
5 0 9 467.61 522.00 26.01 o
6 0 9 248.20 238.10 15.23 o
7 0 9 7.40 7.31 1.77 o
-11 1 9 97.77 108.98 13.94 o
-10 1 9 48.86 49.33 9.30 o
-9 1 9 47.08 54.86 13.51 o
-8 1 9 132.76 139.30 20.30 o
-7 1 9 176.81 178.42 14.25 o
-6 1 9 54.64 51.76 4.08 o
-5 1 9 583.80 576.45 17.97 o
-4 1 9 414.03 406.84 11.09 o
-3 1 9 78.28 90.16 4.81 o
-2 1 9 174.53 175.01 6.89 o
-1 1 9 421.85 437.66 10.06 o
0 1 9 222.76 257.80 9.17 o
1 1 9 172.32 190.32 7.22 o
2 1 9 167.97 177.56 17.55 o
3 1 9 238.60 235.93 19.23 o
4 1 9 455.38 487.26 27.33 o
5 1 9 18.61 21.24 5.73 o
6 1 9 66.04 74.31 9.21 o
7 1 9 241.44 234.12 12.59 o
-11 2 9 12.41 9.55 3.76 o
-10 2 9 111.45 95.70 17.33 o
-9 2 9 87.30 114.22 15.65 o
-8 2 9 46.33 48.92 5.14 o
-7 2 9 241.89 261.79 13.42 o
-6 2 9 128.12 107.30 9.05 o
-5 2 9 240.40 259.86 12.53 o
-4 2 9 423.17 393.34 21.53 o
-3 2 9 40.47 35.83 3.62 o
-2 2 9 91.12 96.68 6.20 o
-1 2 9 271.67 294.20 9.67 o
0 2 9 190.91 191.75 7.60 o
1 2 9 107.38 125.95 10.67 o
2 2 9 533.70 575.07 22.74 o
3 2 9 156.45 172.36 12.18 o
4 2 9 111.04 132.13 10.51 o
5 2 9 65.22 68.06 6.79 o
6 2 9 158.93 161.98 8.97 o
7 2 9 26.19 28.49 4.05 o
-11 3 9 14.27 14.91 2.99 o
-10 3 9 21.06 21.58 6.59 o
-9 3 9 8.83 5.67 3.67 o
-8 3 9 98.87 96.68 6.83 o
-7 3 9 63.64 66.29 5.82 o
-6 3 9 119.26 105.69 8.95 o
-5 3 9 282.98 284.87 17.17 o
-4 3 9 8.67 4.56 3.52 o
-3 3 9 33.09 22.34 4.31 o
-2 3 9 370.11 379.28 15.65 o
-1 3 9 64.70 62.81 7.87 o
0 3 9 434.75 425.05 16.16 o
1 3 9 79.76 87.25 8.76 o
2 3 9 0.13 3.39 2.49 o
3 3 9 95.55 125.49 9.89 o
4 3 9 304.92 327.07 14.98 o
5 3 9 64.86 59.88 5.67 o
6 3 9 204.84 215.70 12.92 o
-9 4 9 111.85 114.39 10.69 o
-8 4 9 9.07 10.44 2.76 o
-7 4 9 55.09 56.93 5.76 o
-6 4 9 190.43 207.51 17.32 o
-5 4 9 95.79 89.52 9.86 o
-4 4 9 85.13 88.37 13.54 o
-3 4 9 468.13 491.48 30.31 o
-2 4 9 183.63 193.04 13.79 o
-1 4 9 39.00 38.60 6.31 o
0 4 9 193.65 210.80 20.33 o
1 4 9 1.90 -2.47 2.47 o
2 4 9 100.12 103.22 9.12 o
3 4 9 67.35 66.19 6.99 o
4 4 9 108.95 118.46 8.46 o
5 4 9 113.96 132.25 7.67 o
-8 5 9 38.27 43.83 8.01 o
-7 5 9 60.09 69.44 7.46 o
-6 5 9 21.64 25.29 5.22 o
-5 5 9 200.24 208.89 13.72 o
-4 5 9 203.34 203.64 10.90 o
-3 5 9 68.37 55.45 15.95 o
-2 5 9 108.89 114.10 13.81 o
-1 5 9 49.49 47.72 6.55 o
0 5 9 14.13 22.51 5.71 o
1 5 9 144.35 145.27 15.19 o
2 5 9 151.29 154.09 14.56 o
3 5 9 256.66 309.78 18.53 o
4 5 9 125.98 130.96 10.35 o
-7 6 9 104.64 132.83 11.39 o
-6 6 9 79.91 92.70 7.18 o
-5 6 9 17.99 14.25 3.22 o
-4 6 9 107.05 129.82 9.99 o
-3 6 9 222.47 236.96 24.81 o
-2 6 9 29.82 25.90 4.14 o
-1 6 9 139.05 125.14 12.76 o
0 6 9 177.17 201.64 15.43 o
1 6 9 19.28 13.88 4.86 o
2 6 9 82.42 82.83 8.41 o
3 6 9 55.54 52.90 6.05 o
-5 7 9 115.22 139.43 9.85 o
-4 7 9 115.23 121.41 10.07 o
-3 7 9 3.60 3.19 2.95 o
-2 7 9 131.65 145.67 8.99 o
-1 7 9 27.04 22.00 3.03 o
-6 -6 10 10.56 16.32 3.35 o
-5 -6 10 38.02 43.14 5.18 o
-4 -6 10 95.51 102.81 7.88 o
-3 -6 10 161.16 157.96 8.66 o
-2 -6 10 23.63 24.29 3.98 o
-1 -6 10 53.37 50.90 5.49 o
0 -6 10 137.02 139.61 12.30 o
1 -6 10 61.24 50.39 6.86 o
-8 -5 10 11.22 8.91 2.93 o
-7 -5 10 54.81 64.77 6.69 o
-6 -5 10 0.49 -3.05 3.33 o
-5 -5 10 182.33 200.91 13.11 o
-4 -5 10 154.55 160.85 11.64 o
-3 -5 10 0.14 2.03 2.21 o
-2 -5 10 7.42 7.63 2.71 o
-1 -5 10 330.95 348.82 17.57 o
0 -5 10 7.48 8.48 2.45 o
1 -5 10 128.20 134.82 7.71 o
2 -5 10 32.66 32.76 3.67 o
3 -5 10 1.34 1.26 1.28 o
-9 -4 10 90.88 104.36 7.91 o
-8 -4 10 41.20 39.49 5.96 o
-7 -4 10 5.04 7.20 3.92 o
-6 -4 10 163.59 190.36 13.55 o
-5 -4 10 42.54 44.33 5.06 o
-4 -4 10 4.27 -1.34 3.84 o
-3 -4 10 561.96 596.42 18.25 o
-2 -4 10 88.77 98.27 6.21 o
-1 -4 10 2.86 4.10 2.29 o
0 -4 10 205.09 190.61 14.80 o
1 -4 10 93.01 91.34 7.12 o
2 -4 10 28.04 26.41 3.99 o
3 -4 10 17.37 13.81 2.75 o
4 -4 10 11.53 12.18 2.13 o
-10 -3 10 85.52 97.90 7.53 o
-9 -3 10 10.18 12.73 4.16 o
-8 -3 10 59.89 54.08 5.98 o
-7 -3 10 26.83 22.27 4.67 o
-6 -3 10 46.06 52.82 8.14 o
-5 -3 10 28.12 38.31 5.44 o
-4 -3 10 311.69 326.32 14.63 o
-3 -3 10 9.16 1.52 1.99 o
-2 -3 10 173.56 167.78 7.47 o
-1 -3 10 104.89 98.48 5.85 o
0 -3 10 38.54 33.29 4.15 o
1 -3 10 160.19 174.77 12.31 o
2 -3 10 262.81 285.95 10.69 o
3 -3 10 65.77 53.28 4.32 o
4 -3 10 54.33 59.55 6.08 o
5 -3 10 57.07 49.52 4.62 o
-11 -2 10 24.61 22.96 3.30 o
-10 -2 10 7.21 6.14 2.96 o
-9 -2 10 51.09 39.22 5.38 o
-8 -2 10 172.68 181.52 14.12 o
-7 -2 10 63.48 48.29 9.71 o
-6 -2 10 99.74 95.68 26.66 o
-5 -2 10 108.55 100.94 7.04 o
-4 -2 10 36.51 39.03 4.44 o
-3 -2 10 183.74 179.98 8.98 o
-2 -2 10 360.64 339.01 12.47 o
-1 -2 10 134.96 147.40 6.94 o
0 -2 10 119.38 120.98 9.21 o
1 -2 10 366.28 359.15 17.79 o
2 -2 10 127.60 161.92 10.00 o
3 -2 10 49.84 57.80 7.15 o
4 -2 10 53.87 50.88 10.66 o
5 -2 10 47.72 57.11 5.48 o
6 -2 10 146.40 135.85 8.52 o
-11 -1 10 5.17 1.04 3.89 o
-10 -1 10 42.65 38.20 4.87 o
-9 -1 10 16.49 14.85 3.77 o
-8 -1 10 53.36 41.15 6.20 o
-7 -1 10 171.06 163.34 23.43 o
-6 -1 10 15.95 14.98 5.50 o
-5 -1 10 352.32 379.80 18.10 o
-4 -1 10 149.18 156.52 8.47 o
-3 -1 10 121.11 118.33 7.27 o
-2 -1 10 254.73 258.29 11.38 o
-1 -1 10 173.30 161.81 8.01 o
0 -1 10 72.98 68.76 7.05 o
1 -1 10 354.25 443.95 20.59 o
2 -1 10 104.91 102.59 10.34 o
3 -1 10 3.38 10.45 3.46 o
4 -1 10 96.84 126.63 9.85 o
5 -1 10 153.03 161.27 9.60 o
6 -1 10 22.56 12.93 3.54 o
-11 0 10 26.27 23.24 6.84 o
-10 0 10 7.76 11.27 7.15 o
-9 0 10 82.69 46.70 13.48 o
-8 0 10 22.60 12.39 7.99 o
-7 0 10 0.67 0.68 2.97 o
-6 0 10 157.08 212.23 15.34 o
-5 0 10 37.83 23.90 4.74 o
-4 0 10 3.15 3.21 4.28 o
-3 0 10 1443.58 1442.17 20.91 o
-2 0 10 11.90 16.63 2.46 o
-1 0 10 94.19 110.07 7.71 o
0 0 10 348.27 345.87 15.07 o
1 0 10 378.52 394.11 15.75 o
2 0 10 48.93 86.98 9.24 o
3 0 10 315.95 367.88 14.80 o
4 0 10 11.92 15.97 3.48 o
5 0 10 45.17 47.67 8.21 o
6 0 10 260.68 252.66 14.75 o
-11 1 10 5.29 -0.73 3.82 o
-10 1 10 40.96 45.78 11.01 o
-9 1 10 12.82 25.04 9.40 o
-8 1 10 43.66 33.42 11.53 o
-7 1 10 178.43 180.03 10.99 o
-6 1 10 12.10 7.35 4.43 o
-5 1 10 364.41 387.89 20.87 o
-4 1 10 164.76 189.57 21.45 o
-3 1 10 121.68 131.96 11.87 o
-2 1 10 253.77 257.42 21.55 o
-1 1 10 199.18 199.61 14.05 o
0 1 10 70.06 72.09 6.55 o
1 1 10 333.43 369.32 17.67 o
2 1 10 93.17 84.04 8.45 o
3 1 10 3.39 5.54 4.31 o
4 1 10 97.86 121.79 8.93 o
5 1 10 170.78 187.86 11.32 o
6 1 10 21.23 17.01 2.06 o
-10 2 10 7.19 -0.45 4.69 o
-9 2 10 64.21 60.04 11.16 o
-8 2 10 165.75 190.54 19.38 o
-7 2 10 59.88 53.43 6.24 o
-6 2 10 106.57 106.62 8.74 o
-5 2 10 113.58 98.18 8.28 o
-4 2 10 32.07 32.95 4.67 o
-3 2 10 214.34 219.91 11.93 o
-2 2 10 359.00 336.37 14.59 o
-1 2 10 136.67 141.55 9.28 o
0 2 10 93.16 90.99 7.52 o
1 2 10 375.35 346.13 14.36 o
2 2 10 118.72 141.29 10.65 o
3 2 10 33.48 36.78 5.58 o
4 2 10 56.33 46.62 7.04 o
5 2 10 55.11 66.79 4.60 o
6 2 10 133.64 136.51 8.95 o
-9 3 10 9.44 14.25 4.98 o
-8 3 10 60.70 65.63 6.13 o
-7 3 10 23.60 23.46 4.29 o
-6 3 10 48.34 47.37 5.93 o
-5 3 10 33.17 41.14 5.60 o
-4 3 10 294.83 315.84 14.10 o
-3 3 10 11.40 5.56 4.23 o
-2 3 10 181.73 185.47 10.74 o
-1 3 10 96.46 80.25 7.07 o
0 3 10 39.23 30.35 5.86 o
1 3 10 165.78 175.72 9.77 o
2 3 10 275.29 288.97 12.07 o
3 3 10 67.13 51.54 4.87 o
4 3 10 52.80 50.23 4.31 o
5 3 10 54.09 50.48 4.42 o
-8 4 10 40.82 50.42 8.46 o
-7 4 10 4.95 4.82 3.04 o
-6 4 10 176.00 206.64 13.21 o
-5 4 10 32.02 35.65 6.00 o
-4 4 10 5.67 4.40 3.09 o
-3 4 10 523.45 518.17 30.00 o
-2 4 10 101.29 118.84 10.35 o
-1 4 10 3.03 3.51 2.87 o
0 4 10 214.03 222.82 13.31 o
1 4 10 91.56 83.05 12.03 o
2 4 10 37.60 39.23 7.80 o
3 4 10 18.19 17.00 4.77 o
4 4 10 9.86 10.17 3.55 o
-7 5 10 48.29 53.32 5.69 o
-6 5 10 0.91 2.55 2.73 o
-5 5 10 182.71 207.25 12.19 o
-4 5 10 152.96 163.05 10.99 o
-3 5 10 0.07 -2.19 4.41 o
-2 5 10 3.75 3.41 3.91 o
-1 5 10 328.14 324.76 21.15 o
0 5 10 8.04 11.58 3.45 o
1 5 10 134.77 144.35 9.18 o
2 5 10 25.09 24.67 3.68 o
3 5 10 1.21 3.18 1.63 o
-6 6 10 6.34 9.15 3.60 o
-5 6 10 35.48 40.45 4.46 o
-4 6 10 96.87 118.14 7.79 o
-3 6 10 174.15 190.51 10.23 o
-2 6 10 19.74 19.67 3.41 o
-1 6 10 55.32 55.34 7.48 o
0 6 10 144.86 153.88 11.56 o
1 6 10 60.08 55.62 6.34 o
-2 -6 11 47.77 44.55 5.92 o
-1 -6 11 1.22 1.83 1.76 o
-7 -5 11 1.40 3.15 1.99 o
-6 -5 11 21.53 19.85 3.91 o
-5 -5 11 21.03 31.36 4.92 o
-4 -5 11 52.19 51.72 6.20 o
-3 -5 11 45.59 48.68 5.94 o
-2 -5 11 9.58 9.24 3.32 o
-1 -5 11 78.85 83.97 7.55 o
0 -5 11 63.01 56.54 5.91 o
1 -5 11 34.28 43.49 4.62 o
-9 -4 11 6.13 2.98 1.84 o
-8 -4 11 65.96 64.71 6.05 o
-7 -4 11 43.65 45.25 5.89 o
-6 -4 11 54.94 60.47 7.05 o
-5 -4 11 52.58 50.89 6.70 o
-4 -4 11 0.38 -0.77 2.65 o
-3 -4 11 26.63 27.81 3.94 o
-2 -4 11 258.93 269.88 16.09 o
-1 -4 11 4.08 4.62 2.35 o
0 -4 11 74.00 75.10 5.93 o
1 -4 11 143.71 150.56 7.81 o
2 -4 11 49.20 49.52 4.11 o
3 -4 11 46.39 53.09 4.44 o
-9 -3 11 25.14 23.28 3.88 o
-8 -3 11 1.85 -0.15 2.97 o
-7 -3 11 142.80 151.17 23.77 o
-6 -3 11 68.38 67.85 7.19 o
-5 -3 11 19.58 14.41 3.26 o
-4 -3 11 216.33 222.86 11.94 o
-3 -3 11 8.25 2.27 2.06 o
-2 -3 11 13.70 23.50 3.29 o
-1 -3 11 186.48 195.57 8.95 o
0 -3 11 73.56 80.77 5.70 o
1 -3 11 128.63 135.17 7.51 o
2 -3 11 421.63 451.80 13.70 o
3 -3 11 180.38 174.33 9.34 o
4 -3 11 6.62 5.42 1.90 o
-10 -2 11 9.43 6.65 5.95 o
-9 -2 11 6.63 3.48 2.01 o
-8 -2 11 139.89 135.52 12.82 o
-7 -2 11 32.42 33.05 4.97 o
-6 -2 11 0.47 -2.29 2.63 o
-5 -2 11 181.89 174.83 9.63 o
-4 -2 11 15.90 16.68 2.98 o
-3 -2 11 82.92 93.82 6.30 o
-2 -2 11 224.98 227.94 9.52 o
-1 -2 11 5.02 -0.98 3.47 o
0 -2 11 213.34 252.16 10.24 o
1 -2 11 164.75 150.09 7.62 o
2 -2 11 97.47 101.66 6.84 o
3 -2 11 119.13 133.06 10.58 o
4 -2 11 58.98 50.33 3.81 o
-10 -1 11 22.18 13.92 5.96 o
-9 -1 11 103.77 105.70 14.14 o
-8 -1 11 9.53 6.56 2.79 o
-7 -1 11 25.64 20.88 4.12 o
-6 -1 11 98.03 86.29 8.42 o
-5 -1 11 57.71 50.72 5.27 o
-4 -1 11 236.03 254.79 11.37 o
-3 -1 11 23.86 28.69 5.03 o
-2 -1 11 13.26 3.54 2.77 o
-1 -1 11 150.71 159.14 10.37 o
0 -1 11 82.33 69.21 6.71 o
1 -1 11 65.53 77.07 8.41 o
2 -1 11 85.37 101.96 9.14 o
3 -1 11 47.14 40.44 8.64 o
4 -1 11 38.07 37.10 4.39 o
5 -1 11 153.92 163.18 7.00 o
-10 0 11 32.29 15.97 6.24 o
-9 0 11 5.03 16.09 6.92 o
-8 0 11 87.58 129.80 16.97 o
-7 0 11 5.53 22.01 8.56 o
-6 0 11 10.47 4.92 3.17 o
-5 0 11 5.06 1.71 4.76 o
-4 0 11 45.61 41.58 7.09 o
-3 0 11 176.85 189.61 14.39 o
-2 0 11 24.03 22.39 5.23 o
-1 0 11 68.72 54.33 5.83 o
0 0 11 260.40 288.97 13.04 o
1 0 11 50.24 65.63 7.47 o
2 0 11 5.15 1.26 12.53 o
3 0 11 84.20 83.48 11.18 o
4 0 11 90.16 83.99 9.83 o
5 0 11 0.10 3.51 2.31 o
-10 1 11 19.69 16.04 6.29 o
-9 1 11 101.39 116.53 14.51 o
-8 1 11 9.43 19.05 8.40 o
-7 1 11 20.98 24.70 5.59 o
-6 1 11 88.36 86.08 16.07 o
-5 1 11 60.11 66.74 8.57 o
-4 1 11 243.95 257.62 15.71 o
-3 1 11 15.69 14.62 7.09 o
-2 1 11 13.70 9.29 3.64 o
-1 1 11 151.08 161.97 12.44 o
0 1 11 93.77 77.50 8.50 o
1 1 11 65.00 73.52 8.88 o
2 1 11 86.39 93.37 6.48 o
3 1 11 49.75 39.05 3.96 o
4 1 11 47.29 43.20 7.50 o
5 1 11 157.87 157.12 10.31 o
-10 2 11 7.96 4.50 3.67 o
-9 2 11 5.39 -1.45 4.60 o
-8 2 11 149.96 181.33 17.26 o
-7 2 11 29.56 37.85 4.73 o
-6 2 11 1.83 3.65 2.74 o
-5 2 11 186.84 184.00 10.31 o
-4 2 11 13.51 19.79 7.46 o
-3 2 11 78.93 90.28 11.89 o
-2 2 11 221.80 221.93 11.20 o
-1 2 11 5.15 3.18 2.18 o
0 2 11 199.97 235.36 10.99 o
1 2 11 180.54 161.31 11.48 o
2 2 11 96.23 90.12 6.93 o
3 2 11 124.65 140.14 7.30 o
4 2 11 55.73 50.10 4.72 o
-8 3 11 1.83 -1.14 4.81 o
-7 3 11 150.78 159.15 8.79 o
-6 3 11 61.97 65.80 6.08 o
-5 3 11 18.49 16.89 3.55 o
-4 3 11 218.70 197.97 12.06 o
-3 3 11 4.14 1.06 2.02 o
-2 3 11 14.07 19.88 3.67 o
-1 3 11 192.95 199.01 10.17 o
0 3 11 69.83 65.75 5.86 o
1 3 11 131.80 150.64 7.98 o
2 3 11 426.51 462.35 13.12 o
3 3 11 187.10 179.23 8.89 o
4 3 11 3.92 4.73 2.38 o
-7 4 11 45.30 41.99 5.15 o
-6 4 11 49.11 58.15 6.43 o
-5 4 11 52.70 52.14 6.37 o
-4 4 11 1.22 5.85 2.87 o
-3 4 11 30.36 33.67 10.15 o
-2 4 11 268.01 280.56 19.30 o
-1 4 11 2.70 0.45 3.45 o
0 4 11 83.72 85.05 7.45 o
1 4 11 129.43 137.46 8.76 o
2 4 11 52.36 44.25 4.64 o
3 4 11 45.55 51.35 4.14 o
-7 5 11 1.16 4.14 2.56 o
-6 5 11 22.97 27.56 3.84 o
-5 5 11 20.01 22.48 5.64 o
-4 5 11 52.86 61.76 6.00 o
-3 5 11 50.99 45.13 7.47 o
-2 5 11 8.78 6.27 2.45 o
-1 5 11 78.33 86.41 9.28 o
0 5 11 52.66 44.06 6.45 o
1 5 11 29.59 32.92 5.06 o
-5 6 11 9.02 5.07 2.19 o
-4 6 11 17.93 17.08 2.57 o
-3 6 11 18.49 22.47 3.48 o
-2 6 11 47.47 49.23 4.09 o
-1 6 11 0.84 0.44 1.33 o
-2 -5 12 5.17 2.77 1.85 o
-1 -5 12 24.21 19.70 2.92 o
-7 -4 12 63.65 53.71 4.95 o
-6 -4 12 1.75 1.54 2.46 o
-5 -4 12 18.61 18.96 3.93 o
-4 -4 12 67.30 61.40 5.36 o
-3 -4 12 31.38 33.47 5.34 o
-2 -4 12 39.31 40.44 5.43 o
-1 -4 12 53.34 44.15 5.60 o
0 -4 12 3.26 3.92 2.12 o
1 -4 12 58.17 52.36 6.87 o
-8 -3 12 1.47 3.51 2.14 o
-7 -3 12 39.68 40.36 5.24 o
-6 -3 12 25.92 23.98 4.65 o
-5 -3 12 16.05 9.01 3.54 o
-4 -3 12 1.41 1.18 2.28 o
-3 -3 12 93.54 102.14 5.70 o
-2 -3 12 21.24 16.23 4.22 o
-1 -3 12 14.91 16.75 4.11 o
0 -3 12 44.45 45.57 4.19 o
1 -3 12 9.41 18.34 2.61 o
2 -3 12 99.79 95.49 5.91 o
-9 -2 12 0.25 2.86 2.98 o
-8 -2 12 36.00 35.59 7.32 o
-7 -2 12 125.31 119.33 7.31 o
-6 -2 12 7.30 3.23 2.20 o
-5 -2 12 46.56 42.09 4.90 o
-4 -2 12 6.71 2.34 2.14 o
-3 -2 12 38.54 31.28 3.50 o
-2 -2 12 127.13 123.78 8.55 o
-1 -2 12 44.43 38.01 4.76 o
0 -2 12 25.26 38.65 4.46 o
1 -2 12 168.12 170.69 7.92 o
2 -2 12 27.28 25.32 2.92 o
-9 -1 12 43.23 30.00 7.08 o
-8 -1 12 23.25 25.80 7.09 o
-7 -1 12 33.11 49.42 10.03 o
-6 -1 12 213.90 181.98 19.11 o
-5 -1 12 81.63 91.57 13.58 o
-4 -1 12 46.98 48.12 7.39 o
-3 -1 12 119.40 114.12 10.52 o
-2 -1 12 37.60 26.29 5.36 o
-1 -1 12 19.94 19.95 4.76 o
0 -1 12 81.53 85.48 8.41 o
1 -1 12 86.32 76.09 5.45 o
2 -1 12 83.91 94.45 7.52 o
3 -1 12 107.19 106.48 9.76 o
-10 0 12 51.91 52.50 6.97 o
-9 0 12 16.90 7.12 4.65 o
-8 0 12 6.20 8.91 6.04 o
-7 0 12 147.30 128.22 16.01 o
-6 0 12 13.46 27.49 8.49 o
-5 0 12 69.84 96.50 14.45 o
-4 0 12 146.65 143.66 17.09 o
-3 0 12 0.22 -2.50 4.51 o
-2 0 12 230.43 240.57 21.47 o
-1 0 12 62.64 56.29 10.59 o
0 0 12 1.16 -1.92 4.53 o
1 0 12 3.32 4.15 4.19 o
2 0 12 115.16 81.94 10.12 o
3 0 12 12.09 16.42 2.76 o
-9 1 12 44.99 48.46 8.16 o
-8 1 12 19.81 18.61 6.81 o
-7 1 12 28.34 45.95 9.85 o
-6 1 12 217.27 223.92 13.07 o
-5 1 12 75.18 67.98 7.52 o
-4 1 12 38.33 31.66 5.49 o
-3 1 12 128.89 142.41 10.39 o
-2 1 12 34.97 23.18 7.80 o
-1 1 12 16.99 23.20 4.75 o
0 1 12 99.59 109.52 11.22 o
1 1 12 79.77 72.05 6.80 o
2 1 12 81.00 85.40 6.65 o
3 1 12 98.86 100.20 9.56 o
-9 2 12 0.32 2.69 3.19 o
-8 2 12 36.02 40.78 7.69 o
-7 2 12 120.03 120.01 10.54 o
-6 2 12 7.38 8.96 3.52 o
-5 2 12 45.21 47.95 9.87 o
-4 2 12 11.27 6.39 3.09 o
-3 2 12 38.58 33.78 8.63 o
-2 2 12 132.91 139.23 15.05 o
-1 2 12 41.10 33.20 5.35 o
0 2 12 25.03 37.28 5.26 o
1 2 12 152.03 150.77 9.38 o
2 2 12 21.00 22.06 3.48 o
3 2 12 5.98 5.69 2.40 o
-7 3 12 40.53 40.92 7.08 o
-6 3 12 22.75 19.54 3.90 o
-5 3 12 17.55 10.40 3.17 o
-4 3 12 3.04 1.65 2.57 o
-3 3 12 91.71 77.37 9.98 o
-2 3 12 17.74 15.42 3.51 o
-1 3 12 14.74 15.30 3.19 o
0 3 12 40.06 37.20 3.69 o
1 3 12 10.13 15.63 4.58 o
2 3 12 103.84 95.83 8.81 o
-6 4 12 1.76 0.92 1.65 o
-5 4 12 17.36 15.68 3.03 o
-4 4 12 62.36 57.88 5.44 o
-3 4 12 32.59 39.15 5.65 o
-2 4 12 30.66 28.19 3.76 o
-1 4 12 55.70 46.36 6.36 o
0 4 12 3.01 -0.01 2.15 o
-5 5 12 13.04 11.32 3.20 o
-4 5 12 2.15 3.02 1.45 o
-3 5 12 66.95 71.83 6.01 o
-2 5 12 3.27 1.19 1.97 o
-1 5 12 17.71 18.62 3.60 o
-2 -4 13 8.54 5.69 3.04 o
-3 -3 13 26.63 34.33 6.78 o
-2 -3 13 33.59 35.02 6.77 o
-1 -3 13 1.97 -2.88 2.88 o
0 -3 13 31.59 37.42 5.58 o
-7 -2 13 17.63 11.96 4.48 o
-6 -2 13 45.36 35.45 7.11 o
-5 -2 13 8.04 2.93 3.74 o
-4 -2 13 54.29 49.77 8.56 o
-3 -2 13 54.43 32.13 9.37 o
-2 -2 13 72.68 75.35 7.01 o
-1 -2 13 18.58 20.32 4.68 o
0 -2 13 35.29 25.08 3.56 o
-8 -1 13 60.89 52.32 7.60 o
-7 -1 13 48.67 40.84 7.97 o
-6 -1 13 25.90 29.27 7.37 o
-5 -1 13 78.07 61.82 10.15 o
-4 -1 13 23.18 15.27 5.87 o
-3 -1 13 92.93 99.63 8.42 o
-2 -1 13 41.68 41.81 5.62 o
-1 -1 13 3.76 5.11 2.44 o
0 -1 13 57.06 56.62 8.06 o
1 -1 13 73.69 64.12 7.74 o
-8 0 13 2.03 11.60 4.23 o
-7 0 13 18.64 26.44 6.92 o
-6 0 13 0.10 -0.89 4.12 o
-5 0 13 82.50 90.35 11.96 o
-4 0 13 68.30 71.20 10.89 o
-3 0 13 3.35 4.95 4.29 o
-2 0 13 1.24 -0.97 4.13 o
-1 0 13 253.48 253.19 18.41 o
0 0 13 42.91 23.46 5.80 o
1 0 13 28.47 34.52 6.03 o
2 0 13 77.03 73.46 7.12 o
-8 1 13 59.96 43.05 6.97 o
-7 1 13 47.68 48.59 8.23 o
-6 1 13 27.81 31.11 7.27 o
-5 1 13 82.16 83.33 11.15 o
-4 1 13 23.15 7.12 5.11 o
-3 1 13 98.43 96.72 12.03 o
-2 1 13 41.26 45.03 10.24 o
-1 1 13 4.06 7.03 4.19 o
0 1 13 43.01 48.61 7.50 o
1 1 13 77.61 73.08 8.22 o
-7 2 13 19.28 16.19 4.76 o
-6 2 13 49.55 39.90 4.50 o
-5 2 13 10.17 10.35 3.06 o
-4 2 13 58.59 57.55 9.87 o
-3 2 13 52.51 44.47 8.01 o
-2 2 13 67.00 83.17 10.01 o
-1 2 13 21.86 25.71 5.63 o
0 2 13 37.71 33.04 5.89 o
-6 3 13 16.35 17.93 3.85 o
-5 3 13 57.17 61.10 7.24 o
-4 3 13 5.29 5.37 2.64 o
-3 3 13 22.77 21.28 4.51 o
-2 3 13 35.44 32.01 5.03 o
-4 4 13 101.55 105.55 8.06 o
-3 4 13 4.73 3.55 2.44 o
-6 -1 14 16.26 14.29 4.13 o
-5 -1 14 18.62 16.30 4.56 o
-4 -1 14 36.13 13.25 4.17 o
-3 -1 14 6.91 4.03 2.72 o
-2 -1 14 25.62 13.35 3.83 o
-6 0 14 11.69 6.47 3.84 o
-5 0 14 4.12 3.42 2.83 o
-4 0 14 52.31 51.14 7.62 o
-3 0 14 1.19 0.81 3.16 o
-2 0 14 2.94 1.57 2.39 o
-1 0 14 78.14 85.41 8.14 o
-6 1 14 17.67 18.19 4.64 o
-5 1 14 20.14 17.01 4.78 o
-4 1 14 33.26 24.11 5.48 o
-3 1 14 6.01 2.09 3.58 o
-2 1 14 31.31 20.36 4.63 o
