#------------------------------------------------------------------------------
#$Date: 2021-01-07 06:46:42 +0200 (Thu, 07 Jan 2021) $
#$Revision: 260660 $
#$URL: file:///home/coder/svn-repositories/cod/cif/7/12/71/7127148.cif $
#------------------------------------------------------------------------------
#
# This file is available in the Crystallography Open Database (COD),
# http://www.crystallography.net/
#
# All data on this site have been placed in the public domain by the
# contributors.
#
data_7127148
loop_
_publ_author_name
'Wu, Ting'
'Jiang, Shenlong'
'Samanta, Pabitra Narayan'
'Xie, Yangbin'
'Li, Jipeng'
'Wang, Xiaoling'
'Devashis, Majumdar'
'Gu, Xiangwei'
'Wang, Yusong'
'Huang, Wei'
'Zhang, Qun'
'Leszczynski, Jerzy'
'Wu, Dayu'
_publ_section_title
;
 Negative thermal quenching of photoluminescence in a copper-organic
 framework emitter.
;
_journal_issue                   80
_journal_name_full
'Chemical communications (Cambridge, England)'
_journal_page_first              12057
_journal_page_last               12060
_journal_paper_doi               10.1039/d0cc04788k
_journal_volume                  56
_journal_year                    2020
_chemical_formula_sum            'C5 H6 Cu2 I2 N2'
_chemical_formula_weight         475.00
_space_group_crystal_system      monoclinic
_space_group_IT_number           14
_space_group_name_Hall           '-P 2yn'
_space_group_name_H-M_alt        'P 1 21/n 1'
_atom_sites_solution_hydrogens   geom
_audit_creation_method           SHELXL-2014/6
_audit_update_record
;
2020-05-09 deposited with the CCDC.	2020-09-01 downloaded from the CCDC.
;
_cell_angle_alpha                90
_cell_angle_beta                 90.445(3)
_cell_angle_gamma                90
_cell_formula_units_Z            4
_cell_length_a                   11.4724(4)
_cell_length_b                   4.22380(10)
_cell_length_c                   19.5467(6)
_cell_measurement_reflns_used    4693
_cell_measurement_temperature    100(2)
_cell_measurement_theta_max      29.8840
_cell_measurement_theta_min      2.0570
_cell_volume                     947.15(5)
_computing_cell_refinement       'Bruker XSCANS'
_computing_data_collection       'Bruker XSCANS'
_computing_data_reduction        'Bruker SHELXTL'
_computing_molecular_graphics    'Bruker SHELXTL'
_computing_publication_material  'Bruker SHELXTL'
_computing_structure_refinement  'SHELXL-2014/6 (Sheldrick, 2014)'
_computing_structure_solution    'Bruker SHELXTL'
_diffrn_ambient_temperature      100(2)
_diffrn_measured_fraction_theta_full 0.974
_diffrn_measured_fraction_theta_max 1.000
_diffrn_measurement_device_type  HyPix
_diffrn_radiation_type           MoK\a
_diffrn_radiation_wavelength     0.71073
_diffrn_reflns_av_R_equivalents  0.0625
_diffrn_reflns_av_unetI/netI     0.0537
_diffrn_reflns_Laue_measured_fraction_full 0.974
_diffrn_reflns_Laue_measured_fraction_max 1.000
_diffrn_reflns_limit_h_max       13
_diffrn_reflns_limit_h_min       -13
_diffrn_reflns_limit_k_max       4
_diffrn_reflns_limit_k_min       -5
_diffrn_reflns_limit_l_max       21
_diffrn_reflns_limit_l_min       -23
_diffrn_reflns_number            6526
_diffrn_reflns_point_group_measured_fraction_full 0.974
_diffrn_reflns_point_group_measured_fraction_max 1.000
_diffrn_reflns_theta_full        25.242
_diffrn_reflns_theta_max         24.987
_diffrn_reflns_theta_min         2.051
_diffrn_source                   'Rotating-anode X-ray tube'
_exptl_absorpt_coefficient_mu    10.947
_exptl_absorpt_correction_T_max  1.00000
_exptl_absorpt_correction_T_min  0.08826
_exptl_absorpt_correction_type   multi-scan
_exptl_absorpt_process_details
;
CrysAlisPro 1.171.40.14a (Rigaku Oxford Diffraction, 2018)
Empirical absorption correction using spherical harmonics,
 implemented in SCALE3 ABSPACK scaling algorithm.
;
_exptl_crystal_colour            brown
_exptl_crystal_density_diffrn    3.331
_exptl_crystal_description       needle
_exptl_crystal_F_000             856
_exptl_crystal_size_max          0.32
_exptl_crystal_size_mid          0.15
_exptl_crystal_size_min          0.12
_refine_diff_density_max         2.423
_refine_diff_density_min         -1.799
_refine_diff_density_rms         0.315
_refine_ls_extinction_method     none
_refine_ls_goodness_of_fit_ref   1.043
_refine_ls_hydrogen_treatment    constr
_refine_ls_matrix_type           full
_refine_ls_number_parameters     100
_refine_ls_number_reflns         1657
_refine_ls_number_restraints     0
_refine_ls_restrained_S_all      1.043
_refine_ls_R_factor_all          0.0436
_refine_ls_R_factor_gt           0.0411
_refine_ls_shift/su_max          0.000
_refine_ls_shift/su_mean         0.000
_refine_ls_structure_factor_coef Fsqd
_refine_ls_weighting_details
'w=1/[\s^2^(Fo^2^)+(0.0726P)^2^+0.6918P] where P=(Fo^2^+2Fc^2^)/3'
_refine_ls_weighting_scheme      calc
_refine_ls_wR_factor_gt          0.1092
_refine_ls_wR_factor_ref         0.1115
_reflns_Friedel_coverage         0.000
_reflns_number_gt                1497
_reflns_number_total             1657
_reflns_threshold_expression     'I > 2\s(I)'
_cod_data_source_file            d0cc04788k3.cif
_cod_data_source_block           100k
_cod_depositor_comments
'Adding full bibliography for 7127147--7127150.cif.'
_cod_original_sg_symbol_H-M      'P 21/n'
_cod_database_code               7127148
_shelx_space_group_comment
;
The symmetry employed for this shelxl refinement is uniquely defined
by the following loop, which should always be used as a source of
symmetry information in preference to the above space-group names.
They are only intended as comments.
;
_shelxl_version_number           2014/6
_shelx_res_file
;
TITL 1 in P2(1)/n
CELL 0.71073  11.4724   4.2238  19.5467  90.000  90.445  90.000
ZERR   4.00   0.0004   0.0001   0.0006   0.000   0.003   0.000
LATT  1
SYMM 0.5-X, 0.5+Y, 0.5-Z
SFAC C H N CU I
UNIT 20 24 8 8 8
L.S. 84
acta
BOND $h
omit 0 50
FMAP 2
PLAN 20

WGHT    0.072600    0.691800
FVAR       0.10566
CU1   4    0.673495    0.139842    0.208321    11.00000    0.02198    0.02407 =
         0.02325   -0.00071    0.00419   -0.00137
CU2   4    0.546588   -0.349417    0.139834    11.00000    0.01208    0.01874 =
         0.02633   -0.00230   -0.00001   -0.00321
I1    5    0.637602    0.141442    0.077643    11.00000    0.01516    0.01185 =
         0.01824   -0.00145    0.00264   -0.00150
I2    5    0.591991   -0.360377    0.276423    11.00000    0.01205    0.01261 =
         0.01730   -0.00053    0.00225   -0.00055
C3    1    0.180969   -0.371787    0.147454    11.00000    0.01677    0.01288 =
         0.02218   -0.00259    0.00810    0.00232
AFIX  43
H3A   2    0.108089   -0.319461    0.164622    11.00000   -1.20000
AFIX   0
C2    1    0.285544   -0.269202    0.171250    11.00000    0.01876    0.01182 =
         0.01983   -0.00035    0.00250    0.00029
AFIX  43
H2A   2    0.296759   -0.130663    0.207691    11.00000   -1.20000
AFIX   0
C1    1    0.319329   -0.577065    0.085978    11.00000    0.01729    0.01259 =
         0.01899   -0.00121    0.00187    0.00308
AFIX  43
H1A   2    0.356883   -0.692201    0.052106    11.00000   -1.20000
AFIX   0
C4    1    0.116950   -0.738548    0.050953    11.00000    0.01054    0.01351 =
         0.02096   -0.00210   -0.00033   -0.00587
AFIX  23
H4A   2    0.058947   -0.832128    0.080603    11.00000   -1.20000
H4B   2    0.155573   -0.909006    0.026797    11.00000   -1.20000
AFIX   0
C5    1    0.056815   -0.525593   -0.000310    11.00000    0.02277    0.01411 =
         0.01850   -0.00264   -0.00313   -0.00678
AFIX  43
H5A   2    0.101416   -0.426655   -0.033594    11.00000   -1.20000
AFIX   0
N1    3    0.374153   -0.405822    0.132016    11.00000    0.01052    0.01955 =
         0.01768   -0.00177    0.00189   -0.00085
N2    3    0.203332   -0.568041    0.093065    11.00000    0.00910    0.01072 =
         0.01450   -0.00125   -0.00822    0.00171

HKLF 4

REM  1 in P2(1)/n
REM R1 =  0.0411 for    1497 Fo > 4sig(Fo)  and  0.0436 for all    1657 data
REM    100 parameters refined using      0 restraints

END

WGHT      0.0741      0.1715

REM Highest difference peak  2.423,  deepest hole -1.799,  1-sigma level  0.315
Q1    1   0.6128  0.1421  0.1221  11.00000  0.05    2.42
Q2    1   0.5595 -0.3586  0.3233  11.00000  0.05    2.28
Q3    1   0.6798  0.1457  0.0246  11.00000  0.05    1.97
Q4    1   0.6208 -0.3498  0.2288  11.00000  0.05    1.91
Q5    1   0.5739 -0.3497  0.0901  11.00000  0.05    1.26
Q6    1   0.5013 -0.3421  0.1941  11.00000  0.05    1.18
Q7    1   0.6463  0.1388  0.2609  11.00000  0.05    1.18
Q8    1   0.7021  0.4046  0.0709  11.00000  0.05    1.14
Q9    1   0.7044  0.1990  0.1593  11.00000  0.05    1.10
Q10   1   0.6622 -0.0907  0.2671  11.00000  0.05    0.93
Q11   1   0.5235 -0.4821  0.1801  11.00000  0.05    0.90
Q12   1   0.7244  0.1367  0.0817  11.00000  0.05    0.87
Q13   1   0.5228 -0.1179  0.2878  11.00000  0.05    0.83
Q14   1   0.2065 -0.9128 -0.0176  11.00000  0.05    0.80
Q15   1   0.5459  0.1515  0.0815  11.00000  0.05    0.75
Q16   1   0.4991 -0.3589  0.2772  11.00000  0.05    0.75
Q17   1   0.0599 -0.5089  0.1880  11.00000  0.05    0.74
Q18   1   0.4781 -0.5986  0.1530  11.00000  0.05    0.71
Q19   1   0.5739 -0.5759  0.0889  11.00000  0.05    0.70
Q20   1   0.7526  0.1413  0.0599  11.00000  0.05    0.70
;
_shelx_res_checksum              65956
_shelx_hkl_file
;
   0   0  -2  239.28   14.58
   0   0   2  254.77   14.60
   0   0   2  237.91   14.40
   0   0  -2  251.27   14.40
   0   0  -3    0.14    0.09
   0   0   3    0.04    0.22
   0   0   3    0.16    0.10
   0   0   4    3.04    0.55
   0   0   4    2.35    0.31
   0   0   5    0.09    0.12
   0   0  -5    0.06    0.08
   0   0   5    0.30    0.36
   0   0  -6  441.71   26.31
   0   0   6  484.52   27.19
   0   0   6  452.35   26.52
   0   0   7    0.43    0.41
   0   0  -7    0.04    0.08
   0   0   7    0.04    0.12
   0   0   8   31.51    2.81
   0   0  -8   27.70    1.87
   0   0   8   28.96    2.10
   0   0  -9    0.24    0.37
   0   0  -9    0.03    0.11
   0   0   9    0.20    0.18
   0   0   9    0.28    0.49
   0   0 -10   18.46    2.06
   0   0  10   19.33    1.62
   0   0 -10   18.40    1.37
   0   0 -11    0.14    0.41
   0   0  11    0.62    0.25
   0   0 -11    0.03    0.15
   0   0 -12    3.85    0.48
   0   0  12    2.15    0.52
   0   0 -12    2.43    0.79
   0   0 -13    0.16    0.45
   0   0 -13    0.13    0.22
   0   0  13    0.07    0.21
   0   0 -14  835.89   57.20
   0   0 -14  982.92   56.05
   0   0  14  965.75   56.37
   0   0 -15    0.29    0.28
   0   0  15    1.11    0.39
   0   0 -16  125.74   10.20
   0   0 -16  149.06    9.21
   0   0  16  154.03    9.53
   0   0 -17   -0.22    0.39
   0   0 -17   -0.20    0.55
   0   0  17   -0.10    0.37
   0   0  18    8.19    1.22
   0   0 -18    6.82    1.01
   0   0 -18    6.59    1.54
   0   0 -19   -0.44    0.55
   0   0 -19    0.35    0.37
   0   0  19    0.55    0.40
   0   0  20  173.20   10.91
   0   0 -20  144.00   11.54
   0   0 -20  166.30   10.51
   0   0 -21    1.40    0.86
   0   0 -21    0.49    0.47
   0   0 -22   31.26    3.84
   0   0 -22   39.20    3.08
   0   0 -23    0.29    0.48
   0   0 -23    0.25    0.67
   0   0 -24    2.27    1.01
   0   0 -25    0.26    0.75
   0   0 -26   10.41    2.12
   0  -1   0    0.17    0.13
   0  -1  -1    8.17    0.76
   0  -1   1    8.63    0.74
   0   1   2  126.16    7.62
   0  -1   2  126.58    7.62
   0  -1  -2  135.12    7.88
   0  -1   2  140.28    7.82
   0   1   3    5.65    0.47
   0  -1  -3    5.40    0.61
   0  -1   3    5.86    0.47
   0  -1   3    4.85    0.53
   0  -1   4   49.68    3.18
   0  -1   4   54.37    3.23
   0   1   4   49.19    3.18
   0  -1   5  100.75    6.19
   0  -1   5   98.26    6.00
   0   1   5   99.92    6.01
   0  -1   5   94.64    6.00
   0  -1   6  869.43   50.92
   0  -1   6  822.81   51.13
   0   1   6  895.63   50.92
   0  -1   7  941.88   55.27
   0  -1  -7  946.32   55.34
   0   1   7  955.16   55.27
   0  -1   7  911.49   55.60
   0   1   8 1010.37   58.68
   0   1  -8  973.58   58.96
   0  -1  -8  991.68   60.21
   0  -1   8 1069.39   59.09
   0  -1   8  970.36   58.68
   0  -1  -8  998.06   58.71
   0  -1  -9   77.38    5.29
   0  -1  -9   81.03    6.61
   0  -1   9   88.49    5.86
   0  -1   9   83.11    5.32
   0   1   9   83.08    5.32
   0   1  -9   84.11    5.63
   0   1  10    1.42    0.38
   0   1 -10    1.21    0.50
   0  -1 -10    1.93    0.40
   0  -1  10    1.23    0.36
   0  -1  10    2.03    0.66
   0   1 -11    3.20    0.72
   0  -1  11    2.83    0.55
   0  -1 -11    3.01    0.52
   0   1  11    4.23    0.63
   0  -1  11    2.80    0.74
   0  -1 -12   53.70    4.02
   0   1 -12   59.44    4.62
   0  -1  12   61.87    4.19
   0   1  12   61.88    4.17
   0  -1  12   69.74    5.08
   0   1  13   96.14    6.19
   0  -1  13   93.71    6.19
   0   1 -13   97.72    6.76
   0  -1  13   98.40    7.14
   0  -1 -13   86.68    6.03
   0  -1  14  104.87    7.57
   0  -1  14  105.98    6.59
   0  -1 -14   88.32    6.32
   0   1  14   99.30    6.52
   0   1 -14   99.47    7.09
   0  -1  15    1.40    0.52
   0  -1 -15    2.69    1.16
   0  -1  15    1.56    0.81
   0   1  15    1.88    0.54
   0  -1 -15    1.36    0.45
   0   1 -15    2.22    0.74
   0   1  16   13.63    1.48
   0  -1 -16    8.15    2.03
   0  -1 -16   10.68    1.24
   0   1 -16   10.64    1.67
   0  -1  16   10.66    2.00
   0  -1  16   13.37    1.49
   0  -1  17    0.98    0.44
   0   1  17    2.13    0.63
   0  -1 -17    0.98    0.48
   0   1 -17    0.66    0.58
   0  -1 -17    1.44    0.91
   0  -1 -18    1.75    1.04
   0  -1  18    4.81    1.01
   0   1 -18    3.25    1.00
   0  -1 -18    2.75    0.66
   0   1  18    3.04    0.84
   0  -1 -19    2.09    1.05
   0   1 -19    4.77    1.20
   0  -1  19    2.14    0.71
   0  -1 -19    2.23    0.65
   0   1  19    2.90    0.74
   0   1 -20   10.69    1.89
   0  -1 -20   14.28    2.65
   0  -1 -20   16.59    1.74
   0  -1 -21   97.08    8.20
   0  -1 -21   91.63    6.31
   0   1 -21   78.25    6.73
   0   1 -22   84.78    6.99
   0  -1 -22   99.49    8.42
   0  -1 -22   92.49    6.61
   0  -1 -23    5.80    1.86
   0  -1 -23    8.41    1.53
   0   1 -23    6.41    1.48
   0  -1 -24    2.08    1.44
   0   1 -24    1.80    0.92
   0  -1 -24    2.29    0.85
   0  -1 -25    1.81    0.78
   0   1 -25    1.02    0.85
   0   1 -26    0.63    0.61
   0  -2   0   99.39    6.46
   0  -2  -1 1457.43   84.00
   0  -2   1 1403.70   83.97
   0  -2   2   21.14    1.79
   0  -2  -2   19.94    1.80
   0  -2   3    1.12    0.16
   0  -2  -3    0.85    0.36
   0  -2   3    1.50    0.43
   0  -2   4    0.27    0.11
   0  -2  -4    0.29    0.31
   0  -2   4    0.37    0.27
   0   2   4    0.24    0.11
   0   2   5  106.51    6.58
   0  -2   5  117.87    7.03
   0  -2  -5  107.28    7.09
   0  -2   5  107.95    6.60
   0   2   6    4.89    0.55
   0  -2   6    6.12    0.79
   0  -2  -6    5.51    0.83
   0  -2   6    5.43    0.60
   0  -2   7   51.17    4.12
   0  -2   7   53.83    4.19
   0  -2   7   69.62    4.09
   0   2   7   65.47    4.00
   0  -2   8   10.39    0.97
   0  -2   8    6.77    0.97
   0   2   8    8.86    0.91
   0  -2   8    8.12    1.07
   0  -2   9   30.54    2.92
   0  -2   9   38.92    3.11
   0  -2  -9   33.48    3.02
   0   2   9   47.45    2.93
   0  -2   9   46.58    2.94
   0   2  10    9.70    1.02
   0  -2 -10    7.24    1.04
   0  -2  10    6.46    1.04
   0  -2 -10   11.56    2.32
   0  -2  10    8.45    0.96
   0   2  11    6.29    0.89
   0  -2  11    5.29    0.99
   0  -2  11    6.55    0.88
   0  -2 -11    5.51    1.66
   0  -2 -11    5.70    0.93
   0   2  12    3.65    0.72
   0  -2  12    3.05    0.83
   0  -2 -12    3.30    0.74
   0  -2  12    4.47    0.77
   0  -2 -12    2.52    1.17
   0  -2  13  327.77   17.85
   0  -2 -13  251.99   17.70
   0   2  13  328.35   17.80
   0  -2 -13  257.47   19.76
   0  -2  13  254.20   18.07
   0  -2  14   17.11    2.12
   0  -2  14   21.52    1.93
   0  -2 -14   16.04    1.82
   0  -2 -14   14.13    2.80
   0   2  14   22.00    1.89
   0  -2  15  450.69   26.79
   0   2  15  488.59   26.80
   0  -2  15  416.89   27.38
   0  -2 -15  421.19   26.90
   0  -2 -15  393.21   29.07
   0   2  16    2.27    0.58
   0  -2  16    1.48    0.78
   0  -2 -16    0.74    0.56
   0  -2  17    3.72    1.07
   0   2  17    2.75    0.69
   0  -2  17    3.89    0.77
   0  -2 -17    2.07    0.71
   0  -2  18    0.49    0.36
   0  -2 -18   -0.11    0.39
   0   2  18    0.19    0.33
   0  -2  18   -0.19    0.55
   0  -2  19   34.95    2.85
   0  -2 -19   27.92    2.77
   0   2  19   32.62    2.77
   0  -2 -20    7.65    1.26
   0  -2 -21  107.67    9.26
   0  -2 -21   85.83    6.47
   0  -2 -22    0.41    0.91
   0  -2 -22   -0.27    0.48
   0  -2 -23    1.01    0.62
   0  -2 -24   -0.16    0.62
   0  -2 -25    8.32    1.54
   0  -3   0   -0.12    0.42
   0  -3   1   95.21    6.73
   0  -3  -1   96.82    6.78
   0  -3  -2   51.06    3.97
   0  -3   2   46.23    3.84
   0  -3  -3    1.09    0.51
   0  -3   3    1.68    0.61
   0   3   4    0.21    0.07
   0  -3   4    0.11    0.33
   0  -3  -4    0.25    0.41
   0  -3   5   45.65    2.83
   0  -3   5   44.63    3.70
   0  -3  -5   46.97    3.85
   0  -3   6  103.93    7.27
   0  -3   6  101.52    6.37
   0   3   6  106.82    6.37
   0  -3  -6  115.88    7.51
   0  -3   7  899.17   51.54
   0   3   7  887.68   51.53
   0  -3  -7  840.54   52.60
   0  -3   7  812.12   52.40
   0  -3  -8  220.57   13.28
   0  -3   8  180.27   12.92
   0  -3   8  205.37   12.15
   0   3   8  200.66   12.12
   0  -3   9  104.51    7.51
   0  -3   9  116.01    7.08
   0  -3   9  104.03    7.85
   0   3   9  119.23    7.06
   0   3  10    1.51    0.37
   0  -3  10    1.16    0.69
   0  -3  10    1.55    0.59
   0  -3  10    1.13    0.34
   0  -3  11    1.99    0.43
   0  -3 -11    1.72    0.74
   0   3  11    2.03    0.41
   0  -3  11    1.62    0.57
   0  -3  11    1.44    0.74
   0  -3 -11    2.84    1.56
   0  -3 -12    9.52    2.39
   0  -3  12    8.38    0.98
   0  -3 -12    9.01    1.48
   0  -3  12    7.65    1.23
   0   3  12    9.43    0.98
   0  -3 -13  140.86   12.54
   0  -3  13  156.88    9.67
   0   3  13  160.76    9.64
   0  -3  13  139.63   10.05
   0  -3 -13  159.04   10.56
   0  -3  14   41.40    3.71
   0   3  14   47.09    3.34
   0  -3 -14   41.01    5.63
   0  -3 -14   48.18    4.10
   0  -3  14   48.64    3.40
   0  -3  15    1.16    0.57
   0  -3 -15    1.40    0.71
   0   3  15    1.40    0.47
   0  -3 -15   -0.45    0.85
   0  -3  15    0.60    0.34
   0   3  16    4.21    0.70
   0  -3  16    3.68    0.70
   0  -3 -16    3.61    1.67
   0  -3 -16    3.63    0.98
   0  -3  16    3.16    0.86
   0  -3 -17    0.46    1.13
   0  -3 -17    0.80    0.64
   0  -3  17    1.10    0.52
   0  -3  17    0.14    0.44
   0   3  17    0.40    0.49
   0  -3 -18    0.93    1.26
   0  -3  18    0.18    0.47
   0  -3 -18    0.98    0.84
   0   3  18    0.51    0.40
   0  -3 -19    1.89    1.39
   0  -3 -19    3.15    0.97
   0  -3 -20    0.49    1.22
   0  -3 -20    0.85    0.59
   0  -3 -21   67.05    5.53
   0  -3 -22   31.24    3.31
   0  -3 -23   11.38    1.91
   0  -4   0  669.57   40.92
   0  -4   1   93.64    7.18
   0  -4  -1   94.12    7.21
   0  -4  -2   67.81    5.69
   0  -4   2   70.82    5.73
   0  -4  -3    5.94    1.45
   0  -4   3    5.41    1.29
   0  -4  -4    2.08    0.91
   0  -4   4    0.18    0.57
   0  -4   5    8.36    1.61
   0  -4  -5    8.62    1.63
   0  -4  -6  145.25   10.39
   0  -4   6  144.87   10.30
   0  -4  -7    6.56    1.46
   0  -4   7    8.84    1.62
   0  -4  -8    5.87    1.43
   0  -4   8    7.01    1.54
   0   4   8    5.21    0.47
   0  -4   8    5.63    0.47
   0  -4   9    8.47    1.74
   0  -4   9    9.02    0.75
   0  -4   9    7.49    1.23
   0  -4  -9   12.03    2.00
   0  -4 -10    3.16    1.21
   0   4  10    4.20    0.53
   0  -4  10    3.92    1.32
   0  -4  10    4.31    0.53
   0  -4  10    3.38    0.87
   0   4  11    2.70    0.44
   0  -4 -11    0.50    1.24
   0  -4  11    2.71    0.46
   0  -4  11    2.85    1.32
   0  -4  11    2.03    0.65
   0   4  12    0.86    0.32
   0  -4  12    0.89    1.27
   0  -4 -12    0.51    1.12
   0  -4 -13    8.24    2.72
   0  -4 -13    9.87    1.94
   0   4  13    8.42    0.93
   0  -4 -14  213.79   18.47
   0  -4 -14  234.93   16.27
   0   4  14  244.41   14.58
   0  -4 -15   46.16    4.61
   0   4  15   44.98    3.17
   0   4  16   47.31    3.43
   0  -4 -16   51.28    4.94
   0  -4 -16   45.39    6.49
   0  -5   0   -0.27    0.90
   0  -5   1    5.40    1.65
   0  -5  -1    3.26    1.30
   0  -5   2   30.94    3.78
   0  -5  -2   26.98    3.59
   0  -5  -3    0.27    0.86
   0  -5   3    0.27    0.95
   0  -5  -4   -0.55    0.81
   0  -5   4   -0.83    0.97
   0  -5   5    3.07    1.40
   0  -5  -5    5.60    1.66
   0  -5   6  128.15   10.64
   0  -5  -6  155.61   11.13
   0  -5  -7   21.54    3.15
   0  -5   7   13.34    2.75
   0  -5  -8  199.52   14.49
   0  -5   8  197.00   14.41
   0  -5  -9    1.68    1.86
   0  -5 -10    0.57    1.65
   0  -5 -11    1.14    2.09
   1   0 -26   -0.27    0.67
   1   0 -25   11.08    2.24
   1   0 -24   -0.26    0.70
   1   0 -24   -0.09    0.48
   1   0 -23   40.49    4.43
   1   0 -23   42.68    3.33
   1   0 -22   -0.25    0.61
   1   0 -22    0.17    0.36
   1   0 -21   41.16    3.08
   1   0 -21   32.66    3.93
   1   0 -20   -0.15    0.31
   1   0 -20   -0.24    0.58
  -1   0  19    4.58    0.88
   1   0 -19    4.67    1.31
   1   0 -19    5.88    0.83
  -1   0  18    0.09    0.36
   1   0 -18   -0.21    0.53
   1   0 -18   -0.06    0.24
  -1   0  17   96.52    6.25
   1   0 -17   88.28    7.16
   1   0 -17   88.12    5.79
   1   0 -16    0.20    0.79
   1   0 -16    0.18    0.25
  -1   0  16    1.27    0.46
  -1   0  15 1025.61   54.31
   1   0 -15  891.77   55.32
   1   0 -15  876.34   53.71
  -1   0  14    0.63    0.35
   1   0 -14   -0.18    0.48
  -1   0  14    0.67    0.79
   1   0 -14   -0.07    0.19
  -1   0  13  145.01    9.29
   1   0 -13  108.25    7.21
   1   0 -13  119.40    8.56
  -1   0  13  142.76    7.86
  -1   0  12    0.18    0.50
   1   0 -12    0.15    0.38
   1   0 -12    0.03    0.10
  -1   0  12    0.07    0.23
  -1   0  11   95.40    7.01
   1   0 -11   80.58    5.82
   1   0 -11   82.73    6.60
   1   0 -10    0.16    0.21
  -1   0  10    0.33    0.26
  -1   0  10   -0.15    0.53
   1   0  -9  611.56   41.78
  -1   0   9  684.71   42.74
  -1   0   8    0.11    0.40
  -1   0   8    0.05    0.14
   1   0  -8   -0.04    0.14
  -1   0   7    1.77    0.61
  -1   0   7    2.65    0.40
   1   0  -7    2.82    0.39
   1   0  -6   -0.03    0.13
  -1   0   6    0.03    0.12
  -1   0   6    0.09    0.34
  -1   0   5   17.10    1.18
   1   0  -5   15.32    1.17
  -1   0   5   16.59    1.56
   1   0  -4    0.16    0.22
  -1   0   4    0.11    0.25
   1   0  -4   -0.02    0.10
  -1   0   4   -0.02    0.08
  -1   0   3  220.85   12.07
   1   0  -3  217.13   12.04
  -1   0   3  195.61   11.71
   1   0  -3  189.72   11.71
   1   0  -2    0.01    0.05
  -1   0   2    0.12    0.14
  -1   0   2    0.05    0.05
   1   0  -2    0.17    0.14
   1   0  -1 1125.44   63.48
  -1   0   1 1062.60   63.47
  -1   0   1 1068.48   63.60
   1   0   0   -0.02    0.06
   1   0   1  123.56    8.17
   1   0   2    0.36    0.44
   1   0   3    3.03    0.47
   1   0   4    0.13    0.18
  -1   0  -5 1593.73   92.69
   1   0   5 1578.54   92.50
  -1   0  -6    1.78    0.36
   1   0   6    0.07    0.12
  -1   0  -7  165.15   10.74
   1   0   7  163.20    9.93
  -1   0  -7  172.96   10.17
  -1   0  -8   -0.05    0.19
  -1   0  -8    0.11    0.40
  -1   0  -9    0.82    0.33
   1   0   9    1.15    0.33
  -1   0  -9    0.49    0.47
   1   0  10    0.07    0.20
  -1   0 -10   -0.13    0.36
  -1   0 -11   55.56    4.69
   1   0  11   57.28    4.09
  -1   0 -11   59.95    4.01
   1   0  12   -0.08    0.28
  -1   0 -12   -0.16    0.40
  -1   0 -12    0.20    0.25
   1   0  13  123.96    8.37
  -1   0 -13  118.51    9.10
  -1   0 -13  140.98    8.35
   1   0  14    0.34    0.27
  -1   0 -14    0.87    0.75
  -1   0 -14    0.46    0.32
  -1   0 -15   -0.08    0.35
  -1   0 -15    0.36    0.53
  -1   0 -16    0.19    0.52
  -1   0 -16    0.45    0.42
   1   0  16    0.56    0.29
  -1   0 -17  168.88   10.74
  -1   0 -17  164.58   11.72
   1   0  17  166.17   10.76
   1   0  18   -0.11    0.39
  -1   0 -18    0.20    0.40
  -1   0 -18    0.63    0.62
  -1   0 -19  139.20   10.44
  -1   0 -19  141.32    9.40
   1   0  19  147.74    9.52
  -1   0 -20    0.45    0.70
  -1   0 -20    0.44    0.51
  -1   0 -21   26.86    2.55
  -1   0 -21   23.89    3.12
  -1   0 -22   -0.24    0.64
  -1   0 -22    0.24    0.63
  -1   0 -23    3.62    1.31
  -1   0 -23    5.87    1.11
  -1   0 -24   -0.25    0.72
  -1   0 -25   64.85    6.04
  -1   0 -26   -0.26    0.69
   1  -1 -25    0.14    0.51
   1  -1 -24   26.98    3.96
   1  -1 -24   28.43    2.75
   1   1 -23  149.98   11.25
   1  -1 -23  164.20   10.40
   1  -1 -23  153.41   12.35
   1  -1 -22  126.66    8.73
   1   1 -22  143.18    9.87
   1  -1 -22  136.82   10.82
   1   1 -21  116.59    8.45
   1  -1 -21  106.28    7.34
   1  -1 -21  116.67    9.46
   1  -1 -20    4.94    1.59
   1  -1 -20    4.75    0.86
   1   1 -20    6.01    1.37
   1  -1 -19    1.10    0.42
  -1  -1  19    1.34    0.98
  -1   1  19    1.27    0.47
   1  -1 -19    0.30    0.75
  -1  -1  19    1.10    0.44
   1   1 -19    1.13    0.72
   1   1 -18   23.97    2.76
   1  -1 -18   20.54    1.93
  -1   1  18   26.08    2.21
   1  -1 -18   20.47    3.14
  -1  -1  18   23.61    2.15
  -1  -1  18   19.28    2.94
   1  -1 -17  111.49    9.09
   1   1 -17  123.17    8.39
  -1  -1  17  111.87    7.48
  -1  -1  17  121.20    8.91
  -1   1  17  114.17    7.48
   1  -1 -17  106.57    7.24
   1   1 -16  100.58    7.29
  -1  -1  16  105.16    7.80
   1  -1 -16   89.37    6.25
  -1  -1  16  100.38    6.53
  -1   1  16   98.02    6.49
  -1  -1  15   12.17    1.31
   1  -1 -15    9.79    1.09
   1   1 -15   11.93    1.72
  -1  -1  15   11.75    1.90
  -1   1  15   10.76    1.24
  -1   1  14   18.73    1.65
  -1  -1  14   15.86    2.22
   1   1 -14   19.43    2.17
  -1  -1  14   18.16    1.64
   1  -1 -14   14.09    1.42
  -1   1  13    8.21    0.95
  -1  -1  13    8.07    0.96
  -1  -1  13    7.79    1.42
   1   1 -13    6.55    1.23
   1  -1 -13    6.63    0.84
  -1  -1  12    5.62    1.21
  -1   1  12    6.69    0.82
   1   1 -12    5.52    1.06
  -1  -1  12    7.52    0.87
   1  -1 -12    5.54    0.75
   1  -1 -11   10.98    1.03
  -1  -1  11    8.19    0.99
  -1  -1  11    8.70    1.41
   1   1 -11   10.27    1.41
  -1   1  11   10.71    1.05
   1  -1 -11    8.64    1.71
  -1  -1  10   32.82    2.31
   1  -1 -10   34.59    3.44
  -1   1  10   30.00    2.25
   1  -1 -10   26.34    2.24
  -1  -1  10   28.77    2.70
   1   1 -10   32.98    2.74
   1   1  -9  445.73   28.76
   1  -1  -9  483.45   28.82
  -1  -1   9  491.96   28.78
  -1   1   9  521.36   28.80
   1  -1  -9  476.58   30.16
  -1  -1   9  495.29   29.42
   1  -1  -8  671.81   42.40
   1  -1  -8  699.12   41.14
  -1  -1   8  707.12   41.09
  -1   1   8  699.00   41.08
   1   1  -8  680.13   41.11
  -1  -1   8  726.55   41.66
   1  -1  -7  519.10   30.01
  -1  -1   7  506.66   30.43
  -1  -1   7  543.14   29.98
  -1   1   7  482.75   29.94
   1   1  -7  493.82   29.98
   1  -1  -7  502.63   31.24
   1  -1  -6   62.30    4.58
  -1  -1   6   59.63    3.85
  -1   1   6   52.07    3.40
  -1  -1   6   51.84    3.41
   1   1  -6   52.69    3.43
   1  -1  -6   53.47    3.44
  -1   1   5    1.68    0.26
  -1  -1   5    2.68    0.99
  -1  -1   5    2.39    0.30
   1  -1  -5    2.28    0.78
   1  -1  -5    2.03    0.30
  -1  -1   5    2.47    0.52
   1   1  -5    1.88    0.28
   1   1  -5    2.62    0.37
   1  -1  -4    0.10    0.11
   1  -1  -4   -0.11    0.41
  -1  -1   4    0.02    0.09
  -1  -1   4    0.48    0.45
  -1   1   4    0.07    0.08
   1   1  -4    0.12    0.10
   1   1  -4    0.21    0.18
   1   1  -3  522.20   28.20
   1  -1  -3  552.11   28.00
  -1  -1   3  520.74   28.56
   1  -1  -3  493.08   28.88
  -1   1   3  423.14   27.91
  -1  -1   3  438.71   27.92
   1   1  -3  504.69   27.97
   1   1  -2  768.14   47.79
   1  -1  -2  759.43   47.80
  -1   1   2  838.85   47.80
  -1  -1   2  964.97   48.38
  -1  -1   2  897.66   47.81
  -1  -1   1  490.83   28.51
   1  -1  -1  488.90   28.51
  -1  -1   1  524.49   29.03
   1   1  -1  478.92   28.50
  -1   1   1  488.23   28.51
   1  -1   0   21.48    1.39
  -1  -1   0   22.06    1.72
  -1  -1   0   20.01    1.48
  -1  -1  -1    0.51    0.27
   1  -1   1    0.41    0.18
   1   1   1    0.70    0.22
   1   1   1    0.98    0.31
  -1  -1  -2    8.16    0.90
   1   1   2    7.87    0.81
   1   1   3    3.90    0.51
  -1  -1  -3    2.93    0.51
   1  -1   4    6.88    0.60
   1   1   4    6.33    0.72
   1  -1   5  135.18    8.43
   1   1   5  143.42    8.57
   1  -1   6  190.20   11.38
   1   1   6  182.44   11.33
  -1   1  -7  270.65   16.35
   1  -1   7  264.85   16.50
   1   1   7  283.84   16.37
  -1  -1  -7  266.20   16.48
   1   1   8   41.14    2.85
  -1   1  -8   37.43    2.86
   1  -1   8   39.83    2.85
   1  -1   8   38.76    3.05
  -1  -1  -8   38.92    2.91
  -1   1  -9   95.45    6.41
   1   1   9   97.65    6.30
  -1  -1  -9   92.58    6.33
   1  -1   9  101.28    6.68
   1  -1   9  100.33    6.33
   1  -1  10   55.04    3.98
  -1   1 -10   59.33    4.21
   1  -1  10   56.45    4.40
  -1  -1 -10   54.92    4.01
   1   1  10   60.39    4.00
  -1  -1 -11   23.51    2.10
   1  -1  11   26.86    2.60
   1   1  11   24.99    2.10
  -1   1 -11   24.05    2.28
   1  -1  11   27.66    2.16
   1   1  12  197.78   12.05
  -1   1 -12  197.69   12.40
  -1  -1 -12  190.06   12.05
   1  -1  12  189.02   12.04
  -1  -1 -13  305.74   20.03
   1  -1  13  302.38   18.18
  -1   1 -13  295.33   18.54
  -1  -1 -13  274.11   18.12
   1   1  13  314.52   18.18
   1   1  14   48.60    3.66
   1  -1  14   49.84    3.71
  -1   1 -14   48.57    4.04
  -1  -1 -14   50.71    3.74
  -1  -1 -14   48.47    5.02
   1   1  15    1.48    0.47
  -1   1 -15    0.68    0.48
  -1  -1 -15    0.94    0.43
   1  -1  15    1.06    0.43
  -1  -1 -15    0.27    0.52
  -1   1 -16    1.44    0.70
   1  -1  16    1.88    0.54
  -1  -1 -16    1.41    0.52
   1   1  16    2.38    0.60
  -1  -1 -16    1.12    0.88
  -1  -1 -17   18.66    1.99
   1   1  17   20.30    1.98
  -1   1 -17   19.85    2.32
   1  -1  17   19.66    1.98
  -1  -1 -17   19.58    3.15
  -1  -1 -18   22.73    3.40
   1  -1  18   26.84    2.41
  -1  -1 -18   22.85    2.35
  -1   1 -18   20.64    2.53
   1   1  18   25.19    2.32
  -1  -1 -19   27.16    2.67
  -1  -1 -19   22.04    3.46
   1   1  19   29.45    2.60
  -1   1 -19   26.17    2.91
   1  -1  19   27.34    2.57
  -1   1 -20    2.57    0.90
  -1  -1 -20    2.89    1.38
  -1  -1 -20    3.10    0.95
  -1  -1 -21    9.56    1.54
  -1  -1 -21    7.42    1.96
  -1   1 -21    9.34    1.61
  -1  -1 -22   -0.33    0.74
  -1  -1 -22    0.33    0.65
  -1   1 -22    0.18    0.57
  -1   1 -23   41.72    4.17
  -1  -1 -23   45.28    5.34
  -1  -1 -23   52.81    4.47
  -1  -1 -24   32.25    3.48
  -1   1 -24   29.93    3.34
  -1  -1 -24   35.00    4.55
  -1  -1 -25   11.90    2.62
  -1  -1 -25   10.23    1.88
  -1   1 -25    9.34    1.74
  -1   1 -26    2.94    1.03
  -1   1 -27   24.27    2.99
   1  -2 -25    0.29    0.48
   1  -2 -24   48.26    4.08
   1  -2 -23    0.52    0.52
   1  -2 -22    5.66    1.91
   1  -2 -22    2.45    0.75
  -1  -2  21    1.45    0.97
   1  -2 -21    1.41    0.56
   1  -2 -20    6.77    1.16
  -1  -2  20    8.01    1.69
  -1  -2  19    1.09    0.84
  -1  -2  19    1.16    0.51
  -1   2  19    1.12    0.49
   1  -2 -19    1.43    0.61
  -1  -2  18    3.69    1.22
   1  -2 -18    2.23    0.68
  -1   2  18    4.62    0.82
  -1  -2  18    3.88    0.79
  -1   2  17    0.17    0.36
   1  -2 -17    0.21    0.41
  -1  -2  17    0.19    0.70
  -1  -2  17    0.70    0.43
   1  -2 -17    0.36    0.80
  -1   2  16  448.52   26.17
   1  -2 -16  409.54   28.72
  -1  -2  16  430.27   27.16
   1  -2 -16  406.47   26.31
  -1  -2  16  453.43   26.23
  -1  -2  15   48.48    4.41
   1  -2 -15   48.06    5.40
   1  -2 -15   48.51    3.80
  -1  -2  15   48.99    3.63
  -1   2  15   51.42    3.63
  -1  -2  14  411.95   25.53
   1  -2 -14  404.67   24.84
  -1   2  14  421.41   24.60
   1  -2 -14  375.39   26.81
  -1  -2  14  408.34   24.63
   1  -2 -13   -0.09    0.37
  -1  -2  13    0.66    0.36
  -1  -2  13    1.00    0.57
   1  -2 -13    0.60    0.95
  -1   2  13    0.19    0.28
   1  -2 -12   -0.29    0.64
   1  -2 -12    0.09    0.30
  -1   2  12    0.23    0.21
  -1  -2  12    0.12    0.24
  -1  -2  12    0.80    0.57
  -1  -2  11    5.02    1.03
  -1  -2  11    6.35    0.79
   1  -2 -11    4.79    1.51
   1  -2 -11    6.28    0.96
  -1   2  11    7.94    0.85
   1  -2 -10  369.51   25.67
  -1  -2  10  396.46   23.51
  -1  -2  10  402.26   24.21
  -1   2  10  380.68   23.46
   1  -2 -10  420.71   23.94
  -1  -2   9   10.90    1.61
  -1   2   9   16.35    1.29
   1  -2  -9   12.03    2.23
  -1  -2   9   15.65    1.29
  -1  -2   9   15.58    1.72
  -1   2   8  201.62   12.32
  -1  -2   8  186.62   13.19
   1  -2  -8  208.84   14.43
  -1  -2   8  212.53   12.36
  -1  -2   8  207.62   12.95
   1  -2  -7    0.94    0.78
  -1  -2   7    0.27    0.17
  -1  -2   7    0.55    0.50
  -1   2   7    0.26    0.15
  -1  -2   6   28.77    2.64
  -1  -2   6   30.67    2.06
   1   2  -6   29.44    2.09
   1  -2  -6   31.20    2.46
  -1   2   6   30.04    2.04
  -1  -2   5    0.22    0.13
  -1   2   5    0.05    0.10
   1   2  -5    0.38    0.20
   1  -2  -5    0.35    0.25
  -1  -2   5    0.47    0.36
   1   2  -4   40.82    2.85
   1  -2  -4   42.50    3.09
  -1  -2   4   41.61    2.63
  -1  -2   4   40.03    3.27
   1  -2  -4   42.33    2.70
  -1   2   4   41.68    2.63
   1  -2  -3    1.29    0.21
  -1  -2   3    1.32    0.48
   1   2  -3    1.39    0.33
   1  -2  -3    1.34    0.39
  -1   2   3    0.84    0.16
   1   2  -3    1.32    0.20
  -1  -2   3    1.46    0.19
   1  -2  -2  436.19   24.70
   1  -2  -2  422.12   24.15
   1   2  -2  400.38   24.13
  -1  -2   2  409.53   24.93
   1   2  -2  402.52   24.52
  -1  -2   2  415.15   24.23
  -1  -2   1   62.65    4.47
   1   2  -1   60.38    4.13
   1  -2  -1   63.79    4.22
   1   2   0  822.98   51.82
  -1  -2   0  893.51   52.21
   1  -2   0  939.13   51.91
  -1  -2  -1    1.72    0.56
   1  -2   1    1.13    0.39
   1  -2   2   52.55    3.21
   1  -2   2   53.06    3.45
   1  -2   2   54.03    3.61
   1   2   2   52.09    3.35
  -1  -2  -2   51.61    3.90
   1  -2   3    4.40    0.43
  -1  -2  -3    3.16    0.68
   1   2   3    4.39    0.42
   1  -2   3    4.78    0.63
   1  -2   4  250.51   14.50
  -1  -2  -4  238.54   14.91
   1  -2   4  239.31   14.25
   1   2   4  235.52   14.22
   1   2   5   17.06    1.35
   1  -2   5   20.63    1.55
   1  -2   5   19.85    1.41
  -1  -2  -5   16.96    1.80
   1  -2   6  708.91   43.37
   1   2   6  748.81   43.24
   1  -2   6  768.26   43.36
   1  -2   6  717.93   43.26
   1  -2   7   34.19    2.70
   1  -2   7   40.83    2.68
   1   2   7   39.19    2.64
   1  -2   7   38.03    2.65
   1  -2   8    2.45    0.44
   1   2   8    3.65    0.51
   1  -2   8    2.51    0.46
   1  -2   8    2.59    0.53
   1  -2   9    2.61    0.44
   1   2   9    2.16    0.43
   1  -2   9    2.63    0.55
   1  -2   9    2.54    0.47
  -1  -2  -9    2.16    0.61
  -1  -2 -10   21.32    2.00
   1  -2  10   21.21    1.67
   1   2  10   22.28    1.66
   1  -2  10   21.48    1.86
   1  -2  11    3.92    0.65
  -1  -2 -11    4.43    0.87
   1   2  11    4.01    0.64
   1  -2  11    3.33    0.74
   1  -2  12    3.05    0.73
  -1  -2 -12    4.32    0.89
   1   2  12    4.22    0.68
   1  -2  12    4.20    0.71
   1   2  13    7.09    0.93
  -1  -2 -13    5.74    1.04
   1  -2  13    7.04    1.14
  -1  -2 -13    7.06    2.07
   1  -2  13    7.68    0.98
   1  -2  14   74.68    5.85
   1   2  14   90.49    5.57
  -1  -2 -14   74.48    5.71
   1  -2  14   79.44    5.52
   1   2  15    0.93    0.45
   1  -2  15    0.53    0.43
  -1  -2 -15    0.57    0.48
   1  -2  15    0.28    0.51
  -1  -2 -16   54.64    4.74
   1   2  16   69.33    4.71
   1  -2  16   68.41    4.75
  -1  -2 -17    8.15    1.29
   1  -2  17    8.74    1.29
   1   2  17    9.79    1.29
   1   2  18    3.06    0.83
  -1  -2 -18    1.42    0.61
   1  -2  18    1.61    0.62
  -1  -2 -19    1.20    1.17
   1  -2  19    0.84    0.62
  -1  -2 -19    1.08    0.62
   1   2  19    1.47    0.67
  -1  -2 -20  115.88   10.18
  -1  -2 -20  110.67    7.90
  -1  -2 -21    1.51    0.75
  -1  -2 -21    0.87    1.18
  -1  -2 -22   -0.32    0.71
  -1  -2 -22   -0.44    1.19
  -1  -2 -23   -0.17    0.72
  -1  -2 -24    3.53    1.07
  -1  -2 -25    1.52    0.89
   1  -3 -22  166.18   11.43
   1  -3 -21   18.51    2.41
   1  -3 -20    5.32    1.29
   1  -3 -20    5.69    2.25
   1  -3 -19    2.80    1.64
   1  -3 -19    2.78    0.97
  -1   3  18   25.20    2.19
  -1  -3  18   21.23    2.65
   1  -3 -18   25.57    2.72
  -1  -3  18   22.57    2.20
   1  -3 -18   22.35    4.02
  -1   3  17   24.42    2.22
  -1  -3  17   26.60    2.29
   1  -3 -17   25.61    2.78
  -1  -3  17   25.29    2.82
   1  -3 -17   22.78    3.99
  -1   3  16   82.37    5.40
  -1  -3  16   65.57    5.86
  -1  -3  16   85.66    5.50
   1  -3 -16   77.76    6.05
   1  -3 -16   72.04    7.76
  -1  -3  15    9.41    1.10
   1  -3 -15    9.43    2.53
  -1   3  15    8.41    1.05
   1  -3 -15    5.96    1.26
  -1  -3  15    7.33    1.37
  -1  -3  14    7.73    0.94
  -1   3  14    6.25    0.85
  -1  -3  14    4.46    1.07
   1  -3 -14    8.82    2.33
   1  -3 -14    6.16    1.27
  -1  -3  13    2.12    0.49
   1  -3 -13    1.76    0.77
  -1  -3  13    1.66    0.76
   1  -3 -13    1.17    1.15
  -1   3  13    1.99    0.47
  -1  -3  12    1.29    0.63
   1  -3 -12    1.14    1.03
  -1   3  12    1.10    0.38
   1  -3 -12    1.42    0.67
  -1  -3  12    1.11    0.38
  -1   3  11    0.37    0.26
  -1  -3  11   -0.38    0.75
  -1  -3  11    0.37    0.39
   1  -3 -11    0.74    0.91
  -1  -3  11    0.28    0.24
  -1  -3  10   13.20    1.69
  -1  -3  10   14.43    1.24
  -1   3  10   14.11    1.22
   1  -3 -10   12.43    2.64
  -1  -3  10   10.29    1.98
  -1  -3   9   84.10    5.13
  -1  -3   9   66.13    6.15
   1  -3  -9   63.32    7.14
  -1   3   9   83.19    5.11
  -1  -3   9   78.26    5.81
   1  -3  -8  707.20   40.50
  -1  -3   8  680.48   39.49
  -1   3   8  687.15   39.48
   1  -3  -8  542.92   42.04
  -1  -3   8  593.96   40.72
  -1  -3   7   95.29    7.64
  -1  -3   7  106.28    6.56
   1  -3  -7  115.73    7.57
  -1   3   7  108.04    6.56
  -1   3   6   43.79    2.88
  -1  -3   6   46.89    2.90
  -1  -3   6   41.27    3.89
   1  -3  -6   48.15    3.80
  -1  -3   5    0.44    0.64
  -1  -3   5    0.35    0.14
   1  -3  -5    0.80    0.52
  -1  -3   4   13.75    1.03
  -1   3   4   13.96    0.99
   1  -3  -4   16.15    1.74
   1  -3  -3   81.80    5.86
  -1  -3   3   82.70    6.16
   1  -3  -2  465.72   28.25
  -1  -3   2  465.19   28.61
   1  -3  -1   62.32    4.64
  -1  -3   1   62.88    4.96
   1  -3   0   33.81    2.91
  -1  -3   0   36.30    3.26
  -1  -3  -1    0.54    0.54
   1  -3   1    0.59    0.34
  -1  -3  -2   -0.14    0.55
   1  -3   2    1.26    0.50
   1  -3   3   18.01    1.81
  -1  -3  -3   17.01    2.04
   1   3   4   16.02    1.19
   1  -3   4   20.66    1.86
  -1  -3  -4   16.21    2.01
   1  -3   4   16.97    1.09
   1   3   4   16.74    1.09
   1  -3   4   15.51    1.34
   1  -3   5   14.06    1.03
   1  -3   5   16.60    1.68
  -1  -3  -5   15.51    1.94
  -1  -3  -6  281.07   17.55
   1  -3   6  274.07   16.29
   1   3   6  269.60   16.27
   1  -3   6  295.31   17.06
  -1  -3  -7   38.53    3.53
   1  -3   7   37.53    3.08
   1   3   7   38.28    2.56
   1  -3   7   38.98    2.59
   1  -3   8    4.66    0.56
  -1  -3  -8    2.35    0.93
   1  -3   8    2.35    0.70
   1  -3   8    2.69    0.61
   1   3   8    2.50    0.44
   1  -3   9    7.81    1.02
   1  -3   9    8.60    0.92
   1   3   9    8.86    0.90
   1  -3   9   10.56    1.31
   1   3  10   33.52    2.32
   1  -3  10   33.55    2.37
   1  -3  10   29.10    2.47
   1  -3  10   25.29    2.58
   1  -3  11   30.62    2.85
   1  -3  11   26.52    2.53
   1   3  11   36.27    2.49
   1  -3  11   36.71    2.55
  -1  -3 -11   32.15    3.18
   1  -3  12  143.17   11.06
  -1  -3 -12  177.47   11.76
   1   3  12  195.72   10.85
   1  -3  12  200.19   10.94
   1  -3  12  150.01   10.90
   1  -3  13   34.33    3.14
  -1  -3 -13   43.30    3.84
   1  -3  13   46.91    3.17
   1   3  13   42.09    3.05
  -1  -3 -14   49.62    6.24
  -1  -3 -14   47.67    4.23
   1  -3  14   38.56    3.56
   1   3  14   54.29    3.58
   1  -3  14   52.19    3.60
   1  -3  15    1.25    0.61
  -1  -3 -15    1.43    1.30
  -1  -3 -15    2.29    0.83
   1  -3  15    1.44    0.50
   1   3  15    1.44    0.52
   1  -3  16    0.51    0.40
   1   3  16    0.81    0.42
  -1  -3 -16    0.49    1.33
   1  -3  16    0.79    0.47
  -1  -3 -16    0.50    0.58
  -1  -3 -17    3.48    1.93
   1   3  17    4.71    0.84
  -1  -3 -17    3.88    1.12
   1  -3  17    5.56    0.91
   1  -3  18   54.40    4.15
   1   3  18   59.16    4.17
  -1  -3 -18   51.65    4.69
  -1  -3 -18   50.46    6.65
  -1  -3 -19    7.15    1.48
  -1  -3 -19    7.61    2.67
  -1  -3 -20    0.18    0.56
  -1  -3 -20    1.53    1.69
  -1  -3 -21    0.37    0.78
  -1  -3 -22    1.32    0.94
  -1  -3 -23    5.82    1.49
  -1   4  16   23.60    2.01
   1  -4 -16   25.07    3.20
   1  -4 -16   22.53    4.44
  -1   4  15  262.63   16.01
   1  -4 -15  295.49   17.96
  -1   4  14   35.73    2.58
   1  -4 -14   36.21    3.89
   1  -4 -13   15.27    2.40
  -1   4  13   17.11    1.43
   1  -4 -12    0.47    1.15
  -1  -4  12    1.36    1.25
  -1  -4  12   -0.13    0.45
  -1   4  12    0.59    0.30
  -1   4  11   24.04    1.68
   1  -4 -11   25.49    4.25
  -1  -4  11   20.40    1.62
  -1  -4  11   16.36    2.18
  -1  -4  11   24.79    3.84
  -1  -4  10   10.22    0.92
  -1  -4  10   11.46    2.48
   1  -4 -10   13.66    2.08
  -1  -4  10    8.82    1.44
  -1   4  10   11.42    0.96
   1  -4 -10    9.26    2.56
   1  -4  -9  204.30   12.62
  -1   4   9  174.83   10.66
  -1  -4   9  178.22   10.67
   1  -4  -9  197.29   14.75
  -1  -4   9  183.79   13.10
   1  -4  -8   12.60    2.79
   1  -4  -8    9.55    1.73
  -1  -4   8    9.28    1.92
  -1   4   8    7.57    0.73
   1  -4  -7    1.12    0.77
  -1  -4   7   -0.23    0.77
  -1  -4   7    0.74    0.23
  -1  -4   6    0.45    0.74
   1  -4  -6   -0.18    0.64
  -1  -4   5    0.22    0.76
   1  -4  -5    0.89    0.71
   1  -4  -4    2.96    0.99
  -1  -4   4    1.52    0.94
  -1  -4   3   -0.21    0.70
   1  -4  -3    1.03    0.73
   1  -4  -2   36.18    3.47
  -1  -4   2   33.78    3.69
   1  -4  -1  393.54   24.40
  -1  -4   1  383.47   24.80
   1  -4   0   40.88    3.81
  -1  -4   0   42.17    4.16
   1  -4   1   19.47    2.42
  -1  -4  -1   22.93    2.81
  -1  -4  -2    7.03    1.54
   1  -4   2    5.91    1.29
  -1  -4  -3    0.62    0.83
   1  -4   3    0.32    0.63
  -1  -4  -4   12.15    2.08
   1  -4   4   15.64    2.00
   1  -4   5  294.42   19.10
  -1  -4  -5  309.30   19.75
  -1  -4  -6   31.20    3.44
   1  -4   6   27.15    2.90
   1  -4   7   21.89    1.41
   1   4   7   17.96    1.17
  -1  -4  -7   25.35    2.92
   1  -4   7   22.68    2.48
   1  -4   8    0.51    0.15
   1  -4   8   -0.16    0.62
  -1  -4  -8    0.66    0.73
   1   4   8    0.39    0.24
   1  -4   8    0.45    0.52
   1  -4   9    0.08    0.15
   1  -4   9   -0.17    0.70
   1   4   9    0.03    0.15
  -1  -4  -9    0.22    0.82
   1  -4   9    0.17    0.33
   1  -4  10    9.57    1.23
  -1  -4 -10   13.35    2.24
   1  -4  10   12.61    1.02
   1   4  10   11.32    0.99
   1  -4  10   11.72    1.94
   1  -4  11   54.08    3.31
   1  -4  11   44.17    4.42
   1   4  11   52.01    3.27
   1   4  12    1.74    0.40
   1  -4  12    2.12    1.08
  -1  -4 -13   19.82    4.31
  -1  -4 -13   18.37    2.72
   1   4  13   19.99    1.65
   1   4  14    7.08    0.86
  -1  -4 -14    3.43    2.04
  -1  -4 -14    6.92    1.71
  -1  -4 -15   -0.58    1.28
  -1  -4 -15   -0.24    1.10
   1   4  15    1.24    0.43
  -1  -4 -16   11.24    3.22
   1   4  16   17.16    1.60
  -1  -4 -16   18.33    2.75
   1  -5 -11    9.49    2.85
   1  -5 -10    0.52    1.40
   1  -5  -9  116.64   11.15
   1  -5  -8   30.18    3.71
   1  -5  -8   23.50    4.38
  -1  -5   8   21.78    3.82
   1  -5  -7  184.38   14.98
  -1  -5   7  174.83   13.60
   1  -5  -7  177.95   13.00
   1  -5  -6    1.40    1.64
   1  -5  -6    1.58    1.33
  -1  -5   6    0.32    1.17
   1  -5  -5    5.17    1.67
   1  -5  -5    5.01    2.27
  -1  -5   5    5.33    1.89
   1  -5  -4    3.07    1.40
  -1  -5   4    3.38    1.45
   1  -5  -3  104.29    8.11
  -1  -5   3   86.59    8.17
  -1  -5   2   23.45    3.53
   1  -5  -2   23.37    3.17
   1  -5  -1  129.30    9.66
  -1  -5   1  116.43    9.92
   1  -5   0    0.49    0.72
  -1  -5   0    2.15    1.18
  -1  -5  -1    5.17    1.63
   1  -5   1    4.17    1.41
   1  -5   2    1.95    1.09
  -1  -5  -2    2.41    1.30
  -1  -5  -3   35.35    4.37
   1  -5   3   36.37    4.10
   1  -5   4    5.61    1.65
  -1  -5  -4    4.55    1.67
  -1  -5  -5    4.57    1.65
   1  -5   5    7.32    1.80
   1  -5   6    2.97    1.41
  -1  -5  -6    2.77    1.53
   1  -5   7   90.31    7.55
  -1  -5  -7   88.01    7.95
   1  -5   8    3.75    1.50
   2   0 -25   -0.27    0.86
   2   0 -24  173.44   14.11
   2   0 -24  212.90   12.70
   2   0 -23   -0.26    0.76
   2   0 -23    0.08    0.37
   2   0 -22   14.45    1.46
   2   0 -22   12.90    2.33
   2   0 -21    0.49    0.66
   2   0 -21    0.19    0.31
   2   0 -20   23.63    3.07
   2   0 -20   23.75    1.91
   2   0 -19    0.46    0.56
   2   0 -19    0.15    0.20
   2   0 -18    1.98    0.85
  -2   0  18    2.16    0.57
   2   0 -18    1.25    0.32
  -2   0  17    0.82    1.01
   2   0 -17    0.04    0.16
  -2   0  17    0.34    0.25
   2   0 -17   -0.21    0.58
   2   0 -16  376.04   23.20
  -2   0  16  440.39   25.84
  -2   0  16  415.92   23.75
   2   0 -16  399.24   25.04
   2   0 -15    0.39    0.53
  -2   0  15    1.25    0.43
  -2   0  15    0.23    0.63
   2   0 -14    0.79    0.35
   2   0 -14    1.44    0.66
  -2   0  14    0.82    0.37
  -2   0  14    0.65    0.72
   2   0 -13    0.27    0.24
   2   0 -13    0.34    0.49
  -2   0  13   -0.06    0.22
  -2   0  13   -0.20    0.57
  -2   0  12    1.95    0.80
   2   0 -12    2.30    0.48
  -2   0  12    3.32    0.55
   2   0 -11    0.43    0.22
  -2   0  11    0.31    0.22
  -2   0  11   -0.16    0.49
   2   0 -10  811.45   48.48
  -2   0  10  805.92   48.49
  -2   0  10  927.83   49.70
   2   0  -9    0.55    0.22
  -2   0   9    0.52    0.46
  -2   0   9    0.12    0.14
  -2   0   8  191.15   11.59
   2   0  -8  166.54   10.67
  -2   0   8  182.14   10.67
   2   0  -7   -0.04    0.13
  -2   0   7   -0.03    0.13
  -2   0   7    0.10    0.35
  -2   0   6   -0.08    0.27
  -2   0   6    0.17    0.13
   2   0  -6    0.41    0.30
   2   0  -6    0.30    0.14
   2   0  -5   -0.10    0.12
   2   0  -5    0.35    0.29
  -2   0   5    0.05    0.08
  -2   0   5    0.07    0.26
   2   0  -4  389.02   22.69
  -2   0   4  375.93   22.27
  -2   0   4  394.94   22.74
   2   0  -4  371.67   22.30
   2   0  -3    0.05    0.20
   2   0  -3    0.10    0.10
  -2   0   3    0.05    0.23
  -2   0   3    0.02    0.09
  -2   0   2  261.95   15.84
  -2   0   2  245.98   16.08
   2   0  -2  289.49   15.88
  -2   0   1    0.40    0.19
   2   0  -1    0.23    0.10
   2   0   0    8.51    0.80
  -2   0   0    8.43    0.82
   2   0   1    0.12    0.20
   2   0   2  873.29   52.89
   2   0   3    0.22    1.16
   2   0   4  556.32   33.78
   2   0   5    0.08    0.34
  -2   0  -5    5.44    1.16
  -2   0  -6  121.48    7.24
   2   0   6   91.20    6.36
  -2   0  -7    0.98    0.55
   2   0   7   -0.05    0.18
   2   0   8  133.48    8.44
  -2   0  -8  147.92    9.10
  -2   0  -9   -0.09    0.33
  -2   0  -9    0.42    0.48
   2   0   9    0.08    0.16
   2   0  10  174.15   10.50
  -2   0 -10  173.36   11.60
  -2   0 -10  171.30   11.06
   2   0  11    0.07    0.14
  -2   0 -11    0.31    0.48
  -2   0 -11   -0.09    0.28
  -2   0 -12   36.60    3.35
  -2   0 -12   30.04    2.72
   2   0  12   32.22    2.67
  -2   0 -13    0.10    0.29
   2   0  13    0.09    0.31
  -2   0 -13    0.51    0.49
   2   0  14   87.33    5.68
  -2   0 -14   79.69    6.32
  -2   0 -14   71.68    5.57
   2   0  15    0.10    0.31
  -2   0 -15    0.38    0.56
  -2   0 -15    0.33    0.46
   2   0  16  413.07   23.98
  -2   0 -16  384.32   24.84
  -2   0 -16  373.97   24.04
  -2   0 -17    0.20    0.59
  -2   0 -17    0.62    0.53
   2   0  17    0.21    0.39
   2   0  18    9.76    1.36
  -2   0 -18    9.50    1.46
  -2   0 -18   11.23    1.94
  -2   0 -19    0.22    0.59
   2   0  19    0.46    0.46
  -2   0 -19    0.27    0.52
  -2   0 -20   -0.23    0.56
  -2   0 -20    0.85    0.61
  -2   0 -21   -0.23    0.72
  -2   0 -21   -0.14    0.63
  -2   0 -22   70.21    6.14
  -2   0 -23    1.21    0.97
  -2   0 -24    7.37    1.73
  -2   0 -25    0.25    0.72
  -2   0 -26   18.99    2.86
   2  -1 -25    0.68    0.50
   2  -1 -24   61.29    4.59
   2  -1 -24   62.24    6.42
   2  -1 -23   78.93    7.33
   2  -1 -23   73.57    5.27
   2  -1 -22   52.25    3.89
   2  -1 -22   52.13    5.68
  -2  -1  21    1.85    1.23
   2  -1 -21    0.40    0.39
   2  -1 -21    1.91    1.22
  -2  -1  20    1.75    1.16
   2  -1 -20    1.58    0.47
   2  -1 -20    2.46    1.27
   2  -1 -19   10.35    1.19
  -2  -1  19   12.74    1.48
  -2   1  19   12.21    1.45
   2  -1 -19   11.50    2.33
  -2  -1  19   12.02    2.30
   2   1 -19   11.55    1.97
  -2  -1  18  130.39   10.04
   2  -1 -18  130.52   10.24
   2  -1 -18  116.62    8.18
   2   1 -18  129.34    9.51
  -2  -1  18  138.16    8.56
  -2   1  18  141.15    8.55
  -2  -1  17  165.10   11.75
  -2  -1  17  163.49   10.29
   2  -1 -17  156.90   10.04
   2   1 -17  169.00   11.38
  -2   1  17  158.74   10.24
  -2  -1  16  195.56   12.08
   2   1 -16  189.41   11.38
   2  -1 -16  183.99   11.87
   2   1 -16  199.58   13.12
  -2  -1  16  212.80   13.62
   2   1 -16  197.70   11.76
  -2   1  16  201.44   12.09
   2   1 -15   24.56    2.05
  -2   1  15   24.56    2.08
   2   1 -15   23.43    1.56
  -2  -1  15   28.87    3.13
   2   1 -15   28.20    2.89
   2  -1 -15   26.08    2.02
  -2  -1  15   24.88    2.10
  -2  -1  14    4.54    1.24
  -2  -1  14    3.15    0.60
   2  -1 -14    2.65    0.62
  -2   1  14    3.89    0.65
  -2  -1  13   13.53    1.94
   2  -1 -13   11.11    1.25
   2  -1 -13   11.83    2.06
  -2  -1  13   12.43    1.25
   2   1 -13   11.68    1.25
  -2   1  13   12.18    1.22
   2   1 -12   65.20    4.48
   2  -1 -12   62.06    4.47
  -2  -1  12   67.47    4.43
   2  -1 -12   65.34    5.65
  -2  -1  12   63.77    5.19
  -2   1  12   67.60    4.41
  -2  -1  11   14.01    1.24
   2  -1 -11   12.75    1.25
   2  -1 -11   13.73    2.08
   2   1 -11   13.87    1.52
  -2  -1  11   12.20    1.69
  -2   1  11   13.28    1.22
   2   1 -11   11.99    1.22
   2  -1 -10   33.69    3.51
   2  -1 -10   36.07    2.54
  -2   1  10   34.42    2.46
  -2  -1  10   32.73    2.46
  -2  -1  10   37.03    3.17
   2   1 -10   33.25    2.49
   2   1 -10   35.82    2.88
  -2  -1   9  138.32    9.01
   2   1  -9  137.79    8.31
   2  -1  -9  125.96    8.29
  -2   1   9  135.75    8.27
   2  -1  -9  140.15    9.58
   2   1  -9  136.34    8.80
  -2  -1   9  133.56    8.27
   2  -1  -8  192.94   11.99
  -2  -1   8  193.27   11.96
   2   1  -8  211.33   12.59
  -2   1   8  194.91   11.95
  -2  -1   8  210.52   12.68
   2  -1  -8  217.72   13.35
   2   1  -8  198.82   11.99
   2  -1  -7    8.25    0.82
  -2  -1   7    8.40    0.81
   2   1  -7   11.33    1.31
   2  -1  -7    7.96    1.37
   2   1  -7    8.75    0.82
  -2   1   7    8.55    0.80
  -2  -1   7    9.11    1.19
  -2   1   6  170.90   10.84
   2  -1  -6  189.09   10.96
  -2  -1   6  173.69   10.85
   2   1  -6  194.98   10.95
   2  -1  -6  188.28   11.94
  -2  -1   6  172.99   11.37
   2   1  -6  190.56   11.59
  -2  -1   5    9.90    0.84
  -2   1   5    9.76    0.83
   2  -1  -5   11.86    1.50
   2  -1  -5   10.88    0.87
   2   1  -5   10.40    0.85
   2   1  -5   12.52    1.42
  -2   1   4   33.16    2.17
  -2  -1   4   32.56    2.18
   2  -1  -4   31.82    2.17
   2   1  -4   33.15    2.18
   2  -1  -4   35.19    2.91
   2  -1  -3  323.24   19.33
   2  -1  -3  351.58   20.09
  -2   1   3  305.90   19.29
  -2  -1   3  330.34   19.31
   2   1  -3  324.52   19.32
  -2   1   2  595.53   34.96
   2  -1  -2  574.15   34.29
   2   1  -2  610.01   34.29
  -2  -1   2  568.86   34.27
  -2   1   2  570.42   34.27
   2  -1  -2  587.58   34.87
   2  -1  -1   36.77    2.29
   2   1  -1   37.11    2.29
  -2  -1   1   33.48    2.43
   2  -1  -1   37.73    2.69
  -2  -1   1   36.13    3.19
  -2   1   1   36.15    2.44
   2  -1   0   34.93    2.33
   2   1   0   32.78    2.30
   2  -1   0   32.98    2.38
  -2   1   0   34.38    2.43
  -2  -1   0   35.12    2.46
  -2  -1   0   35.43    2.96
   2  -1   1    2.50    0.47
  -2  -1  -1    1.77    0.58
   2   1   1    2.50    0.44
   2  -1   1    2.05    0.31
   2   1   1    2.98    0.63
  -2  -1  -2   83.27    5.70
   2   1   2   81.30    5.54
   2   1   3  214.29   13.33
  -2  -1  -3  218.81   13.55
   2   1   4  104.53    6.77
   2   1   5   29.05    2.30
   2   1   6    6.89    0.87
  -2   1  -7   52.21    3.43
  -2  -1  -7   55.55    3.93
   2   1   7   47.36    3.56
   2   1   8  329.45   20.28
  -2   1  -8  352.63   20.25
   2  -1   8  322.81   20.31
  -2  -1  -8  345.83   20.70
  -2   1  -9  249.32   13.99
   2   1   9  227.98   13.87
   2  -1   9  215.91   13.45
  -2  -1  -9  241.25   14.31
  -2  -1 -10   66.61    4.74
   2   1  10   59.33    4.29
  -2   1 -10   67.09    4.53
  -2  -1 -11   16.61    1.78
   2   1  11   17.45    1.63
  -2   1 -11   13.84    1.59
  -2  -1 -12   80.83    5.84
   2  -1  12   80.82    5.60
   2   1  12   80.10    5.56
  -2   1 -12   81.75    5.71
   2   1  13    3.04    0.69
  -2  -1 -13    3.67    0.85
  -2   1 -13    2.07    0.65
   2  -1  13    1.20    0.55
  -2  -1 -13    1.93    0.97
  -2   1 -14   40.57    3.33
  -2  -1 -14   38.92    3.37
   2  -1  14   32.95    3.01
   2   1  14   40.07    3.11
  -2  -1 -14   40.39    4.48
  -2  -1 -15   56.59    5.91
  -2  -1 -15   66.62    4.93
   2   1  15   58.66    4.49
   2  -1  15   62.63    4.58
  -2   1 -15   63.01    4.82
  -2  -1 -16    6.01    1.76
  -2  -1 -16    5.66    1.17
   2  -1  16    7.06    1.11
  -2   1 -16    6.37    1.20
   2   1  16    5.75    0.99
  -2  -1 -17   53.07    5.42
   2  -1  17   49.16    3.85
   2   1  17   44.82    3.75
  -2   1 -17   46.87    4.07
  -2  -1 -17   53.14    4.24
   2  -1  18   44.71    3.81
  -2  -1 -18   50.83    5.35
   2   1  18   46.58    3.81
  -2   1 -18   48.49    4.14
  -2  -1 -18   55.54    4.38
  -2  -1 -19   11.77    2.49
   2   1  19   13.09    1.57
  -2   1 -19   10.84    1.67
   2  -1  19   10.62    1.50
  -2  -1 -19   12.24    1.84
  -2  -1 -20    6.14    1.76
  -2   1 -20    5.40    1.19
  -2  -1 -20    7.30    1.51
  -2  -1 -21    2.75    1.33
  -2  -1 -21    1.77    0.93
  -2   1 -21    2.64    0.92
  -2  -1 -22   81.29    6.40
  -2  -1 -22   73.61    7.28
  -2   1 -22   71.42    5.92
  -2  -1 -23  103.31    7.82
  -2  -1 -23   93.25    8.60
  -2   1 -23   93.67    7.31
  -2  -1 -24   94.45    7.20
  -2  -1 -24   90.36    8.16
  -2   1 -24   73.80    6.41
  -2   1 -25   11.61    1.88
  -2  -1 -25   11.82    2.64
  -2   1 -26    0.19    0.58
  -2   1 -27    0.38    0.67
   2  -2 -25   94.90    6.86
   2  -2 -24    5.20    1.07
   2  -2 -23   56.25    4.45
   2  -2 -22    0.47    0.45
  -2  -2  21    2.87    1.20
   2  -2 -21    2.50    0.69
   2  -2 -20    0.78    0.48
  -2  -2  20    0.99    0.87
  -2  -2  19   42.74    3.38
   2  -2 -19   39.25    3.35
  -2  -2  19   38.36    4.23
  -2   2  19   43.21    3.35
   2  -2 -19   41.54    5.07
  -2  -2  18    0.84    0.46
   2  -2 -18    0.94    0.49
  -2  -2  18    0.87    0.68
  -2   2  18    0.27    0.36
   2  -2 -18    1.37    1.07
  -2   2  17   96.99    6.28
  -2  -2  17   95.22    6.30
   2  -2 -17   80.14    8.00
   2  -2 -17   87.52    6.37
  -2  -2  17   93.13    7.39
  -2   2  16   12.04    1.22
   2  -2 -16    5.99    1.08
  -2  -2  16    7.67    1.05
  -2  -2  16   11.33    1.85
   2  -2 -16    4.25    1.64
   2  -2 -15  136.31   11.18
  -2  -2  15  146.74    9.14
  -2   2  15  147.44    9.10
  -2  -2  15  135.34   10.02
   2  -2 -15  137.19    9.30
   2  -2 -14    1.37    0.58
  -2  -2  14    1.51    0.49
  -2   2  14    1.45    0.46
   2  -2 -14    0.31    0.84
  -2  -2  14    0.69    0.61
  -2  -2  13   31.17    2.50
  -2   2  13   33.00    2.49
   2  -2 -13   27.99    3.84
   2  -2 -13   33.69    2.76
  -2  -2  13   30.71    3.19
   2  -2 -12    4.86    0.86
  -2  -2  12    4.37    0.67
  -2  -2  12    2.67    0.88
  -2   2  12    4.54    0.67
   2  -2 -12    2.19    1.16
  -2  -2  11  219.77   13.82
  -2  -2  11  215.45   12.95
   2  -2 -11  214.72   14.92
  -2   2  11  204.04   12.88
   2  -2 -11  211.14   13.08
  -2  -2  10   17.31    2.10
  -2  -2  10   21.00    1.68
   2  -2 -10   20.46    2.83
   2  -2 -10   17.63    1.72
   2   2 -10   20.71    1.75
   2   2 -10   21.05    1.53
  -2   2  10   21.38    1.68
  -2   2   9  423.07   26.24
  -2  -2   9  417.15   26.99
   2   2  -9  444.09   26.38
   2   2  -9  450.21   26.21
  -2  -2   9  458.91   26.30
   2  -2  -9  462.72   26.45
   2  -2  -9  401.25   28.02
   2   2  -8    8.25    0.83
   2  -2  -8    8.48    0.87
   2   2  -8    6.63    0.78
  -2  -2   8    6.98    1.16
  -2  -2   8    8.38    0.80
  -2   2   8    6.91    0.74
   2  -2  -8    7.02    1.61
  -2  -2   8    3.91    1.22
   2   2  -7    0.88    0.31
  -2   2   7    0.95    0.26
  -2  -2   7    0.88    0.25
   2   2  -7    1.23    0.31
   2  -2  -7    0.21    0.61
  -2  -2   7    0.56    0.65
   2  -2  -7    0.88    0.28
  -2  -2   6    7.12    0.70
   2   2  -6    7.68    0.74
  -2   2   6    8.10    0.72
   2  -2  -6    9.31    1.65
  -2  -2   6    7.40    1.43
   2  -2  -6    7.57    0.75
   2   2  -6    6.29    0.80
  -2  -2   5  143.63   10.15
  -2  -2   5  156.82    9.03
   2  -2  -5  145.76   10.48
   2   2  -5  153.08    9.34
   2   2  -5  143.80    9.03
   2  -2  -5  147.01    9.06
  -2   2   5  151.23    9.01
   2   2  -4    2.53    0.53
  -2  -2   4    1.37    0.66
  -2   2   4    2.46    0.32
  -2  -2   4    2.91    0.35
   2  -2  -4    2.80    0.85
   2  -2  -4    2.58    0.36
   2   2  -4    3.60    0.38
  -2  -2   3    0.25    0.47
   2   2  -3    0.10    0.10
  -2  -2   3    0.17    0.10
   2  -2  -3    0.09    0.11
   2   2  -3    0.06    0.21
   2  -2  -3   -0.15    0.44
   2  -2  -2   15.43    1.91
   2  -2  -2   15.01    1.05
   2   2  -2   15.75    1.05
  -2  -2   2   16.15    1.84
  -2  -2   2   13.20    1.19
   2   2  -2   16.80    1.50
  -2   2   2   14.03    1.19
   2   2  -1   87.09    5.12
  -2  -2   1   94.23    6.27
   2  -2  -1   83.98    5.13
   2   2  -1   85.47    5.68
  -2   2   1   80.41    5.41
  -2  -2   1   84.16    5.48
   2  -2   0    3.50    0.34
   2   2   0    2.83    0.63
   2   2   0    2.94    0.31
  -2  -2   0    2.54    0.76
   2  -2   1  448.76   26.45
  -2  -2  -1  440.83   27.34
   2   2   1  449.43   26.42
  -2  -2  -2   24.94    2.54
   2  -2   2   26.27    2.10
   2   2   2   31.01    2.11
   2   2   3    0.12    0.26
  -2  -2  -3    0.58    0.50
  -2  -2  -4   43.31    3.62
   2   2   4   44.51    3.30
   2   2   5  328.08   20.11
  -2  -2  -5  335.50   20.53
   2  -2   6    1.47    0.27
   2   2   6    1.81    0.53
   2  -2   7   65.48    4.24
   2   2   7   70.48    4.73
   2   2   8    1.80    0.50
   2  -2   8    1.37    0.29
   2   2   8    1.29    0.37
   2  -2   8    1.23    0.31
   2  -2   9   21.36    1.47
   2  -2   9   19.11    1.73
   2  -2   9   17.38    1.60
   2   2   9   22.18    1.78
  -2  -2  -9   18.30    2.08
   2   2  10    2.74    0.55
   2  -2  10    1.74    0.46
  -2  -2 -10    1.11    0.56
   2  -2  10    2.59    0.35
   2  -2  10    1.78    0.47
   2  -2  11  142.67    9.11
  -2  -2 -11  136.49    9.54
   2   2  11  146.00    9.08
  -2  -2 -12    0.13    0.35
   2  -2  12    0.08    0.29
   2   2  12   -0.08    0.30
   2  -2  13    0.84    0.43
   2   2  13    0.16    0.34
  -2  -2 -13   -0.13    0.43
  -2  -2 -14    6.32    1.22
   2  -2  14    8.11    1.13
   2   2  14    8.05    1.10
   2   2  15  258.73   15.48
   2  -2  15  256.24   15.54
  -2  -2 -15  226.12   15.84
   2   2  16   26.07    2.29
   2  -2  16   22.76    2.26
  -2  -2 -16   24.94    2.62
  -2  -2 -17  142.68   10.76
   2   2  17  179.45   10.51
  -2  -2 -17  151.46   13.05
   2  -2  17  160.17   10.46
   2  -2  18    1.09    0.51
   2   2  18    1.87    0.59
  -2  -2 -18    0.16    0.47
  -2  -2 -19   22.96    3.92
  -2  -2 -19   18.17    2.40
   2   2  19   25.62    2.34
   2  -2  19   22.44    2.28
  -2  -2 -20    0.43    1.34
  -2  -2 -20    0.84    0.65
  -2  -2 -21   44.47    5.64
  -2  -2 -21   36.93    3.74
  -2  -2 -22    7.36    2.34
  -2  -2 -22    2.44    1.04
  -2  -2 -23   13.43    2.15
  -2  -2 -24   -0.21    0.79
  -2  -2 -25   40.78    4.34
   2  -3 -22   11.71    1.86
   2  -3 -21    0.68    0.68
   2  -3 -20    0.17    0.55
   2  -3 -19    5.60    2.00
   2  -3 -19    6.42    1.36
  -2  -3  18   50.26    3.69
  -2   3  18   48.14    3.59
   2  -3 -18   36.67    5.37
   2  -3 -18   50.99    4.29
  -2  -3  18   39.97    4.31
   2  -3 -17  241.16   15.25
  -2  -3  17  211.91   15.30
  -2  -3  17  239.31   14.49
   2  -3 -17  201.01   17.12
  -2   3  17  238.70   14.42
   2  -3 -16   22.62    4.05
   2  -3 -16   33.35    3.14
  -2  -3  16   22.85    2.94
  -2   3  16   31.19    2.46
  -2  -3  16   30.99    2.52
   2  -3 -15   18.80    2.23
  -2  -3  15   15.50    2.23
   2  -3 -15   16.05    3.21
  -2   3  15   18.87    1.69
  -2  -3  15   18.47    1.73
  -2   3  14    0.54    0.33
   2  -3 -14    1.76    0.67
  -2  -3  14    1.00    0.64
   2  -3 -14   -0.37    1.01
  -2  -3  14    1.36    0.41
  -2  -3  13   26.19    2.10
  -2   3  13   25.27    2.05
   2  -3 -13   30.03    2.78
  -2  -3  13   22.61    2.63
   2  -3 -12   22.81    3.76
  -2   3  12   30.18    2.24
  -2  -3  12   29.68    2.28
  -2  -3  12   21.95    2.69
   2  -3 -12   33.72    2.99
   2  -3 -11   18.81    3.37
  -2   3  11   23.75    1.94
  -2  -3  11   26.73    2.02
  -2  -3  11   26.84    2.69
  -2  -3  10    0.74    0.87
  -2  -3  10    1.52    0.67
  -2   3  10    1.26    0.35
   2  -3 -10    0.65    0.95
  -2  -3  10    1.01    0.30
  -2  -3   9  163.71    9.69
  -2   3   9  160.58    9.67
  -2  -3   9  137.50   11.42
   2  -3  -9  132.04   11.80
   2  -3  -8   24.20    2.31
   2  -3  -8   12.02    2.57
  -2  -3   8   15.10    2.62
  -2   3   8   20.37    1.52
  -2  -3   8   20.03    1.53
   2  -3  -7    0.95    0.58
   2  -3  -7    0.85    0.89
  -2  -3   7    0.85    0.66
  -2   3   7    0.91    0.31
  -2  -3   7    0.72    0.29
   2  -3  -6   13.56    2.51
  -2  -3   6   16.93    2.37
   2  -3  -6   17.94    1.91
  -2  -3   6   16.89    1.22
  -2   3   6   15.37    1.19
   2  -3  -5   81.83    5.31
  -2  -3   5   69.07    4.53
  -2  -3   5   67.01    5.75
   2  -3  -5   62.11    6.13
  -2   3   5   68.17    4.45
  -2  -3   4   12.73    1.12
  -2  -3   4    9.64    1.77
   2  -3  -4   12.48    2.20
   2  -3  -4   13.84    1.58
   2   3  -3  302.38   20.09
  -2  -3   3  351.18   21.34
  -2  -3   3  325.91   19.88
   2  -3  -2  112.51    7.10
  -2  -3   2  100.89    7.69
   2   3  -2   97.32    6.71
  -2  -3   1   53.34    4.68
   2   3  -1   51.43    3.85
   2  -3  -1   57.38    4.13
   2  -3   0    1.61    0.56
  -2  -3   0    2.23    0.87
   2  -3   1    0.46    0.35
  -2  -3  -1    1.18    0.67
  -2  -3  -2    7.00    1.36
   2  -3   2    7.81    1.08
   2  -3   3  118.62    6.75
  -2  -3  -3  102.44    8.09
   2   3   3  109.38    6.71
   2  -3   3  110.64    6.72
   2  -3   3  126.58    7.56
   2  -3   4   34.73    2.49
  -2  -3  -4   38.53    3.48
   2  -3   4   30.99    2.17
   2   3   4   35.19    2.34
   2  -3   4   36.58    2.79
   2  -3   5    0.18    0.32
   2   3   5    0.49    0.34
   2   3   5    0.34    0.16
   2  -3   5    0.08    0.30
   2  -3   5    0.35    0.19
   2  -3   6    1.82    0.55
  -2  -3  -6    2.33    0.87
   2   3   6    1.99    0.35
   2  -3   6    1.91    0.37
  -2  -3  -7   24.07    2.75
   2  -3   7   21.66    1.86
   2  -3   7   28.49    1.92
   2   3   7   25.15    1.85
   2  -3   7   28.85    2.26
  -2  -3  -8   21.00    2.55
   2   3   8   22.70    1.70
   2  -3   8   23.75    1.75
   2  -3   8   19.49    1.63
   2  -3   8   21.89    1.96
   2  -3   9  248.56   16.61
   2  -3   9  302.05   17.08
   2  -3   9  284.99   16.79
   2   3   9  297.82   16.77
   2  -3  10   39.87    2.90
   2  -3  10   40.02    2.74
   2   3  10   39.78    2.70
   2  -3  11   25.87    2.14
  -2  -3 -11   20.56    2.59
   2  -3  11   27.85    2.09
   2   3  11   27.63    2.04
   2  -3  11   20.28    1.82
  -2  -3 -12    5.02    1.23
   2  -3  12    8.03    0.98
   2  -3  12    6.20    0.82
   2   3  12    9.54    1.03
   2  -3  12    4.98    0.89
  -2  -3 -13    6.45    1.37
   2  -3  13    6.10    0.94
   2   3  13    8.75    1.05
  -2  -3 -14    3.17    1.05
   2  -3  14    3.56    0.80
   2   3  14    3.43    0.73
  -2  -3 -15   46.21    4.35
   2   3  15   55.50    3.79
   2  -3  15   47.32    3.70
   2   3  16    0.10    0.39
  -2  -3 -16    0.18    0.53
  -2  -3 -16    0.53    1.17
   2  -3  16   -0.10    0.43
  -2  -3 -17   21.69    2.96
   2   3  17   37.20    2.94
   2  -3  17   34.79    2.94
  -2  -3 -17   22.39    4.49
  -2  -3 -18   15.62    2.42
   2  -3  18   25.95    2.46
  -2  -3 -18   21.77    4.49
   2   3  18   24.95    2.39
  -2  -3 -19   14.66    2.21
  -2  -3 -20    1.17    0.75
  -2  -3 -21    6.90    1.56
  -2  -3 -22    5.56    1.48
  -2   4  16   95.36    6.42
   2  -4 -16  114.57    8.21
   2  -4 -16   94.63    9.75
  -2   4  15   17.78    1.62
   2  -4 -15   21.18    2.81
   2  -4 -14    0.45    1.10
   2  -4 -14    0.86    0.79
  -2   4  14    0.17    0.32
  -2   4  13   10.51    1.04
   2  -4 -13    8.24    2.60
  -2  -4  13    8.18    1.53
  -2  -4  12   -0.16    0.57
   2  -4 -12   -0.85    1.41
  -2   4  12    0.55    0.29
  -2   4  11    8.41    0.85
  -2  -4  11    8.18    0.83
  -2  -4  11    8.64    2.50
   2  -4 -11    8.70    2.43
  -2  -4  11    9.14    1.56
   2  -4 -10  226.76   17.65
  -2  -4  10  229.88   15.52
  -2   4  10  235.59   14.27
  -2  -4  10  236.85   14.28
   2  -4 -10  292.15   16.26
  -2  -4  10  249.04   18.02
   2  -4  -9   43.67    3.92
   2  -4  -9   37.86    4.98
  -2   4   9   35.68    2.63
  -2  -4   9   35.28    4.84
   2  -4  -8   22.58    2.60
  -2  -4   8   18.77    3.16
   2  -4  -8   14.73    3.09
  -2  -4   8   18.32    1.55
  -2  -4   7    0.59    0.86
   2  -4  -7    0.17    0.61
  -2   4   7    0.59    0.21
   2  -4  -7   -0.36    0.98
  -2  -4   7    0.19    0.23
  -2  -4   6    6.42    1.83
   2  -4  -6    9.80    1.62
   2  -4  -6    5.86    2.00
   2  -4  -5    7.92    1.46
   2  -4  -5    6.29    1.91
  -2  -4   5    6.33    1.70
   2  -4  -4   61.52    6.50
  -2  -4   4   64.10    6.14
   2  -4  -4   76.42    5.65
  -2  -4   3    0.25    0.73
   2  -4  -3    0.91    0.95
   2  -4  -3    0.79    0.63
  -2  -4   2   15.99    2.58
   2  -4  -2   19.21    2.26
  -2  -4   1    9.38    1.93
   2  -4  -1    7.34    1.42
   2  -4   0    6.44    1.33
  -2  -4   0    6.15    1.72
   2  -4   1   36.77    3.42
  -2  -4  -1   36.83    4.08
  -2  -4  -2  120.67    9.70
   2  -4   2  135.85    9.10
  -2  -4  -3    1.67    1.02
   2  -4   3    1.30    0.70
   2  -4   4   88.89    6.57
  -2  -4  -4   89.21    7.37
   2  -4   5   35.47    3.34
  -2  -4  -5   39.01    4.14
   2  -4   6   23.23    2.48
  -2  -4  -6   22.84    3.05
   2   4   7    0.25    0.17
   2  -4   7    0.42    0.67
   2   4   7    0.68    0.16
   2  -4   7    0.22    0.16
   2  -4   7    0.54    0.30
  -2  -4  -7    0.24    0.84
   2   4   8    8.37    0.89
   2  -4   8    9.87    1.50
  -2  -4  -8    9.88    1.95
   2  -4   8    7.44    0.91
   2  -4   8   11.29    1.45
   2  -4   8    8.34    0.73
   2   4   9    0.72    0.36
   2  -4   9    2.34    1.06
  -2  -4  -9    0.48    0.81
   2  -4   9    1.11    0.65
   2   4   9    1.18    0.27
   2  -4   9    0.81    0.25
   2  -4   9    0.55    0.29
   2  -4  10   74.38    5.35
   2   4  10   74.06    4.30
  -2  -4 -10   77.83    6.33
   2   4  10   63.56    4.68
   2  -4  10   76.50    4.35
   2  -4  11    6.88    1.38
   2  -4  11    7.32    0.82
   2   4  11    6.76    0.76
   2   4  12   11.29    1.08
   2  -4  12   12.16    1.84
   2   4  13    1.15    0.38
  -2  -4 -13    0.25    1.00
  -2  -4 -14    3.53    1.24
   2   4  14    3.81    0.68
   2   4  15   26.82    2.17
  -2  -4 -15   29.53    3.58
  -2  -4 -16  155.01   11.49
   2   4  16  152.52    9.64
   2  -5 -11    2.36    1.48
   2  -5 -10    3.69    2.12
   2  -5  -9    0.90    1.49
   2  -5  -8   30.99    4.77
  -2  -5   8   30.62    4.70
  -2  -5   7    0.39    1.45
   2  -5  -7   -0.76    1.18
   2  -5  -7   -0.43    1.33
   2  -5  -6   44.30    5.84
  -2  -5   6   44.79    5.71
   2  -5  -6   61.36    5.39
  -2  -5   5   -2.59    1.16
   2  -5  -5   -0.24    1.01
   2  -5  -5    0.79    1.07
  -2  -5   4   23.72    3.87
   2  -5  -4   21.68    3.76
   2  -5  -4   27.15    3.35
  -2  -5   3   11.11    2.65
   2  -5  -3   17.23    2.61
   2  -5  -3   13.49    2.78
   2  -5  -2  137.23    9.79
  -2  -5   2  131.58   10.72
   2  -5  -2  110.32   10.22
  -2  -5   1   -0.68    1.31
   2  -5  -1    0.96    1.28
   2  -5  -1   -0.23    0.98
  -2  -5   0   -0.34    1.05
   2  -5   0    0.45    0.87
   2  -5   0   -0.30    0.88
   2  -5   1    0.90    0.79
  -2  -5  -1    2.36    1.35
   2  -5   1    0.28    0.82
   2  -5   2   24.67    3.42
   2  -5   2   30.77    3.42
  -2  -5  -2   25.49    3.84
  -2  -5  -3   14.99    2.95
   2  -5   3   14.78    2.43
   2  -5   4   26.81    3.15
  -2  -5  -4   20.15    3.49
  -2  -5  -5    0.34    1.26
   2  -5   5   -0.22    0.88
  -2  -5  -6    3.09    1.54
   2  -5   6    5.06    1.46
  -2  -5  -7   -0.69    1.38
   2  -5   7    0.22    1.00
   3   0 -25  132.69   10.42
   3   0 -24    0.27    0.80
   3   0 -24    0.36    0.37
   3   0 -23    1.90    1.14
   3   0 -23    3.29    0.62
   3   0 -22    0.18    0.29
   3   0 -22   -0.26    0.65
   3   0 -21    5.20    0.69
   3   0 -21    7.40    1.79
   3   0 -20    0.05    0.20
   3   0 -20   -0.25    0.61
  -3   0  19  107.27    6.69
  -3   0  19  109.26    8.70
   3   0 -19   89.53    6.05
   3   0 -19  100.25    7.92
  -3   0  18   -0.09    0.35
   3   0 -18    0.68    0.80
   3   0 -17    8.60    1.14
  -3   0  17    6.67    1.71
   3   0 -17    7.60    1.65
  -3   0  17    8.85    1.14
  -3   0  16   -0.24    0.33
   3   0 -16   -0.09    0.30
   3   0 -16   -0.21    0.65
  -3   0  16   -0.25    0.67
   3   0 -15   68.27    5.76
  -3   0  15   69.81    4.73
  -3   0  15   75.50    6.20
   3   0 -15   64.01    4.72
  -3   0  14    0.34    0.29
   3   0 -14    0.07    0.19
  -3   0  14   -0.21    0.46
  -3   0  13  174.91    9.93
  -3   0  13  158.21   11.13
   3   0 -13  143.17    9.83
  -3   0  12    0.17    0.38
   3   0 -12    0.06    0.19
  -3   0  12    0.06    0.20
  -3   0  11  289.46   16.80
  -3   0  11  293.94   18.03
   3   0 -11  263.20   16.77
   3   0 -10   -0.05    0.19
  -3   0  10   -0.05    0.18
  -3   0  10    0.15    0.48
   3   0  -9    4.29    0.61
  -3   0   9    4.83    0.60
  -3   0   9    3.55    0.88
   3   0  -8    0.04    0.10
  -3   0   8    0.04    0.14
  -3   0   8   -0.12    0.36
   3   0  -8   -0.11    0.33
  -3   0   7  178.58   11.09
  -3   0   7  189.57   11.84
   3   0  -7  194.81   11.85
   3   0  -7  184.63   11.12
   3   0  -6    0.07    0.12
  -3   0   6   -0.03    0.12
   3   0  -6    0.09    0.30
  -3   0   6    0.09    0.31
  -3   0   5  102.69    6.48
  -3   0   5  106.11    7.02
   3   0  -5  104.53    6.97
   3   0  -5  111.64    6.56
   3   0  -4    0.12    0.15
  -3   0   4    0.05    0.10
  -3   0   4    0.36    0.34
   3   0  -3   13.50    1.06
  -3   0   3   13.14    1.00
  -3   0   2    0.09    0.20
   3   0  -2    0.03    0.10
  -3   0   2    0.19    0.11
  -3   0   1  244.95   15.41
   3   0  -1  263.57   15.24
  -3   0   0    0.41    0.31
   3   0   0    0.11    0.19
   3   0   1 1789.59   92.61
  -3   0  -1 1393.15   92.48
   3   0   2    0.58    0.93
   3   0   2    0.58    0.43
   3   0   3    2.17    1.21
   3   0   4    0.29    1.06
   3   0   5   83.05    6.80
  -3   0  -6    1.18    0.93
   3   0   6    1.72    0.81
   3   0   7 1042.21   65.42
  -3   0  -7 1232.54   66.53
   3   0   8   -0.08    0.32
  -3   0  -8    1.55    0.79
   3   0   9    0.55    0.31
  -3   0  -9    0.65    0.70
   3   0  10    0.43    0.28
  -3   0 -10   -0.16    0.55
  -3   0 -11   64.10    5.12
  -3   0 -11   58.11    4.86
   3   0  11   58.54    4.03
   3   0  12   -0.16    0.20
  -3   0 -12   -0.18    0.52
  -3   0 -12   -0.15    0.49
  -3   0 -13    1.92    0.82
  -3   0 -13    2.76    0.93
   3   0  13    3.30    0.52
  -3   0 -14    0.19    0.51
  -3   0 -14   -0.15    0.44
  -3   0 -15  451.88   29.73
   3   0  15  489.44   29.38
  -3   0 -15  519.47   30.37
   3   0  16    0.23    0.34
  -3   0 -16    0.31    0.48
  -3   0 -16   -0.20    0.55
  -3   0 -17   52.47    4.81
   3   0  17   62.73    4.71
  -3   0 -17   67.80    5.55
  -3   0 -18   -0.16    0.53
  -3   0 -18   -0.43    0.53
  -3   0 -19   12.92    2.11
  -3   0 -19   11.25    1.82
   3   0  19   10.14    1.51
  -3   0 -20    0.44    0.77
  -3   0 -21  346.49   22.59
  -3   0 -22    0.47    0.87
  -3   0 -23   32.67    3.76
  -3   0 -24    0.24    0.71
  -3   0 -25   10.47    2.06
  -3   0 -26   -0.25    0.68
  -3   0 -27    2.28    1.05
   3  -1 -25    0.40    0.43
   3  -1 -24    4.05    0.80
   3  -1 -23    6.42    0.97
   3  -1 -23    5.69    1.81
   3  -1 -22    5.37    0.87
   3  -1 -22    6.58    1.92
   3  -1 -21   37.40    4.56
   3  -1 -21   38.06    2.93
   3  -1 -20    4.32    0.74
  -3  -1  20    5.67    1.70
   3   1 -20    5.02    0.46
   3  -1 -20    3.01    1.28
   3   1 -20    4.31    0.57
  -3  -1  19   40.88    3.20
   3   1 -19   37.20    2.45
  -3  -1  19   42.50    4.59
  -3   1  19   40.74    3.20
   3   1 -19   42.28    3.08
   3  -1 -19   33.93    2.85
  -3   1  18   97.98    6.28
   3   1 -18   87.81    5.50
  -3  -1  18   97.08    6.31
  -3  -1  18  100.48    7.86
   3  -1 -18   88.71    6.00
  -3  -1  17   95.00    6.53
  -3   1  17   96.89    6.53
  -3  -1  17  102.81    8.00
  -3   1  16    1.20    0.48
  -3  -1  16    1.06    0.50
   3  -1 -16    0.37    0.35
  -3  -1  16    1.13    0.97
   3   1 -16    0.18    0.39
   3   1 -16    0.68    0.77
  -3   1  15   26.70    2.14
  -3  -1  15   22.64    2.07
   3   1 -15   21.77    2.10
  -3  -1  15   26.06    3.06
   3  -1 -15   18.56    2.89
   3  -1 -15   25.77    2.22
   3   1 -15   31.30    3.08
   3   1 -14    3.67    0.68
  -3  -1  14    4.75    0.74
   3   1 -14    5.72    1.39
  -3  -1  14    3.21    1.07
   3  -1 -14    3.46    1.14
  -3   1  14    3.80    0.66
   3  -1 -14    4.20    0.71
  -3   1  13   22.65    1.92
   3  -1 -13   21.71    1.96
  -3   1  13   25.70    3.23
   3  -1 -13   23.91    2.95
  -3  -1  13   23.82    1.96
  -3  -1  13   21.44    2.65
   3   1 -13   22.13    1.95
   3   1 -13   28.65    2.91
   3   1 -12   65.17    4.76
  -3  -1  12   80.23    5.87
   3   1 -12   64.78    5.63
  -3   1  12   73.77    6.28
   3  -1 -12   71.25    6.04
  -3   1  12   72.92    4.78
   3  -1 -12   71.69    4.83
  -3  -1  12   75.90    4.83
  -3   1  11   26.99    3.22
  -3  -1  11   28.89    2.20
   3   1 -11   29.64    3.05
  -3   1  11   31.44    2.22
   3  -1 -11   26.44    3.07
   3   1 -11   27.24    2.18
   3  -1 -11   27.26    2.20
  -3  -1  11   28.61    2.91
   3   1 -10    0.48    0.51
   3   1 -10    0.53    0.25
   3  -1 -10    0.49    0.24
  -3   1  10    0.48    0.25
  -3  -1  10    0.55    0.23
   3  -1 -10    0.18    0.44
  -3  -1  10    0.27    0.37
  -3  -1   9    0.97    0.29
   3  -1  -9    2.20    0.41
   3   1  -9    2.02    0.39
  -3   1   9    1.24    0.30
   3   1  -9    1.93    0.91
   3  -1  -9    1.32    0.64
  -3  -1   9    0.99    0.57
  -3   1   8   32.84    2.43
  -3  -1   8   33.16    3.03
   3  -1  -8   36.90    3.40
   3   1  -8   38.60    2.65
   3  -1  -8   44.97    2.76
   3   1  -8   34.30    3.38
  -3  -1   8   31.57    2.43
   3  -1  -7  454.52   27.66
  -3   1   7  441.61   26.56
  -3  -1   7  443.37   26.57
  -3  -1   7  475.67   27.38
   3   1  -7  432.77   26.58
   3  -1  -7  466.36   26.62
   3   1  -7  475.18   28.00
   3  -1  -6  275.99   16.90
  -3  -1   6  267.84   16.86
   3   1  -6  321.44   18.49
   3  -1  -6  303.75   17.93
  -3  -1   6  317.24   17.74
   3   1  -6  284.02   16.90
  -3   1   6  286.17   16.87
   3  -1  -5   37.73    3.07
   3  -1  -5   36.97    2.37
  -3   1   5   30.09    2.28
  -3  -1   5   34.42    2.32
   3   1  -5   35.82    2.35
   3  -1  -4   26.75    1.90
   3   1  -4   27.95    1.90
  -3   1   4   31.44    2.62
   3  -1  -4   26.52    2.43
  -3   1   4   25.93    1.86
  -3  -1   4   27.40    1.88
   3   1  -3  127.32    8.16
   3  -1  -3  105.26    6.33
   3   1  -3  103.67    6.31
  -3   1   3  107.53    6.97
  -3  -1   3  105.67    6.29
  -3   1   3   95.18    6.26
   3  -1  -3   97.22    6.81
   3  -1  -2   10.12    0.82
   3  -1  -2    8.65    1.06
   3   1  -2    9.41    0.81
  -3   1   2   12.11    1.26
  -3  -1   2    9.75    0.97
  -3   1   2    9.48    0.96
  -3   1   1  274.69   16.72
  -3  -1   1  277.49   16.74
   3  -1  -1  265.58   16.73
  -3   1   1  275.01   16.84
   3  -1  -1  289.23   16.47
   3   1  -1  267.45   16.43
   3   1   0  290.46   16.98
  -3  -1   0  258.18   17.12
   3  -1   0  257.82   16.82
  -3   1   0  274.51   17.12
  -3   1   0  294.79   16.99
   3  -1   0  309.13   17.04
   3  -1   1  126.39    7.68
  -3   1  -1  109.68    7.28
   3   1   1  112.86    7.54
  -3  -1  -1  143.91    9.16
   3   1   1  145.99    8.83
  -3  -1  -2    7.79    1.44
  -3   1  -2    7.02    0.67
   3   1   2    9.14    1.11
   3   1   2   11.38    1.57
   3  -1   2    9.11    1.18
  -3  -1  -3  113.43    8.40
   3   1   3  124.51    8.29
   3   1   4   47.62    3.82
   3   1   5    1.35    0.54
   3   1   6   31.89    2.71
   3   1   7  332.94   21.22
  -3  -1  -7  376.78   21.89
  -3   1  -8  377.78   22.29
   3   1   8  376.39   22.64
   3  -1   8  343.87   23.05
  -3  -1  -8  389.74   23.28
   3  -1   9  305.10   20.83
  -3   1  -9  357.00   20.53
  -3  -1  -9  368.85   21.44
   3   1   9  335.84   20.69
   3  -1  10   24.47    2.08
  -3   1 -10   26.62    2.22
   3   1  10   27.06    2.25
  -3  -1 -10   30.03    2.84
   3  -1  11    1.32    0.33
  -3   1 -11    1.16    0.44
   3   1  11    2.13    0.50
   3  -1  12   23.97    1.66
  -3   1 -12   23.07    2.18
  -3  -1 -12   26.19    2.70
   3   1  12   24.26    2.07
   3   1  13  255.33   15.81
  -3   1 -13  257.47   16.10
   3  -1  13  258.66   15.21
  -3  -1 -13  261.32   16.74
  -3  -1 -14  221.52   13.87
  -3   1 -14  207.83   13.20
  -3  -1 -14  217.48   15.23
   3  -1  14  197.71   13.12
   3   1  14  203.68   13.10
  -3  -1 -15  239.66   14.75
  -3  -1 -15  221.57   15.93
   3  -1  15  203.81   13.89
   3   1  15  222.36   13.97
  -3   1 -15  221.19   14.03
   3   1  16   13.66    1.62
  -3   1 -16   11.06    1.54
   3  -1  16   11.27    1.51
  -3  -1 -16    9.02    2.22
  -3  -1 -16   13.35    2.00
  -3   1 -17   27.39    2.71
   3   1  17   26.95    2.62
  -3  -1 -17   34.91    3.45
  -3  -1 -17   30.37    4.02
   3  -1  17   26.11    2.61
   3  -1  18    4.10    0.93
  -3  -1 -18    5.33    1.43
  -3  -1 -18    7.67    1.97
   3   1  18    5.72    1.06
  -3   1 -18    4.82    1.06
   3   1  19    0.12    0.42
  -3  -1 -19   -0.21    0.58
  -3  -1 -19    0.34    0.91
  -3   1 -19    0.29    0.40
   3  -1  19    0.12    0.44
  -3  -1 -20   -0.45    0.79
  -3  -1 -20   -0.34    0.85
  -3   1 -20    0.45    0.50
  -3  -1 -21   16.31    2.60
  -3   1 -21   18.13    2.18
  -3  -1 -21   13.71    2.93
  -3  -1 -22   61.67    6.30
  -3   1 -22   47.46    4.40
  -3  -1 -22   56.21    5.36
  -3   1 -23   66.01    5.48
  -3  -1 -23   68.87    7.02
  -3  -1 -23   69.10    6.31
  -3  -1 -24   12.97    2.40
  -3  -1 -24    8.33    2.30
  -3   1 -24    8.94    1.63
  -3  -1 -25   -0.37    0.81
  -3   1 -25    0.35    0.55
  -3   1 -26    1.25    0.72
   3  -2 -25    4.12    0.98
   3  -2 -24   58.40    4.60
   3  -2 -23    0.12    0.46
   3  -2 -22    0.95    0.56
   3  -2 -21   -0.11    0.34
   3  -2 -21    0.75    0.93
   3  -2 -20   61.79    4.56
  -3  -2  20   58.60    5.68
   3  -2 -20   52.78    6.11
   3  -2 -19    4.50    0.88
  -3  -2  19    3.49    1.22
   3  -2 -19    2.12    1.19
  -3   2  18   14.10    1.57
   3  -2 -18   15.18    1.71
   3  -2 -18   13.72    2.76
  -3  -2  18   14.64    2.44
  -3  -2  18   14.04    1.61
  -3  -2  17    2.25    1.09
   3  -2 -17    1.63    0.61
  -3   2  17    1.37    0.46
   3  -2 -17    0.99    1.10
  -3  -2  17    1.52    0.52
  -3   2  16    3.04    0.67
  -3  -2  16    2.76    0.66
   3  -2 -16    5.10    0.92
   3  -2 -16    4.72    1.57
  -3  -2  16    3.30    1.09
   3   2 -15    6.83    0.58
  -3  -2  15    7.70    1.03
   3  -2 -15    8.96    1.23
  -3   2  15    7.06    0.96
   3  -2 -15    5.62    1.75
  -3  -2  15    5.64    1.38
   3  -2 -14  240.49   14.11
   3   2 -14  212.04   13.94
   3  -2 -14  195.21   15.53
  -3  -2  14  227.46   13.85
  -3  -2  14  224.40   14.95
  -3   2  14  227.72   13.80
   3   2 -13    6.47    0.96
  -3   2  13    6.61    0.85
   3   2 -13    6.61    0.72
  -3  -2  13    5.26    1.25
   3  -2 -13    7.54    1.04
  -3  -2  13    6.66    0.88
   3  -2 -13    4.86    1.48
  -3   2  12    1.50    0.42
   3   2 -12    2.42    0.52
   3  -2 -12    1.92    0.51
  -3  -2  12    1.51    0.43
   3  -2 -12    1.30    1.00
  -3  -2  12    1.49    0.74
   3   2 -12    1.31    0.35
   3   2 -11   15.69    1.40
  -3   2  11   16.80    1.45
  -3  -2  11   16.23    1.46
   3  -2 -11   14.85    2.43
   3   2 -11   15.56    1.51
   3  -2 -11   16.52    1.56
  -3  -2  11   15.32    2.04
  -3   2  10  161.73   10.22
   3  -2 -10  161.37   11.98
   3   2 -10  159.81   10.28
  -3  -2  10  175.22   10.29
  -3  -2  10  161.83   11.16
   3   2 -10  171.68   10.35
   3  -2 -10  166.28   10.36
  -3   2   9    2.70    0.47
  -3  -2   9    3.66    0.94
   3   2  -9    2.13    0.51
   3  -2  -9    2.22    0.49
  -3  -2   9    3.26    0.52
   3   2  -9    3.65    0.56
   3  -2  -9    2.22    1.03
   3   2  -8  140.70    9.38
  -3   2   8  155.45    9.16
  -3  -2   8  155.83    9.19
   3  -2  -8  136.40   10.61
   3   2  -8  144.54    9.19
   3  -2  -8  149.51    9.24
  -3   2   7   11.95    1.05
   3   2  -7   13.42    1.35
   3   2  -7   11.76    1.09
   3  -2  -7   12.85    1.14
   3  -2  -7   10.14    1.80
  -3  -2   7   12.27    1.07
  -3  -2   7    9.67    2.06
   3   2  -6    0.08    0.23
  -3  -2   6    0.44    0.20
  -3  -2   6    0.25    0.78
  -3   2   6    0.25    0.17
   3  -2  -6    0.35    0.20
   3  -2  -6    0.69    0.64
   3   2  -6    0.65    0.26
  -3  -2   5    0.29    0.16
  -3  -2   5   -0.23    0.77
   3   2  -5    0.53    0.21
  -3   2   5    0.27    0.14
   3   2  -5    0.59    0.35
   3  -2  -5    0.75    0.23
   3  -2  -5    0.47    0.49
   3   2  -4  156.59    9.63
   3  -2  -4  142.44   10.04
  -3  -2   4  153.65    9.00
   3   2  -4  142.44    8.96
  -3  -2   4  151.41   10.79
  -3   2   4  149.37    8.98
   3  -2  -4  148.66    9.00
  -3   2   3    1.01    0.31
   3  -2  -3    0.72    0.21
  -3  -2   3    0.95    0.79
   3   2  -3    0.86    0.21
   3  -2  -3    1.12    0.53
  -3  -2   3    1.47    0.38
   3   2  -3    0.82    0.42
   3   2  -2    2.72    0.33
   3  -2  -2    1.90    0.30
  -3  -2   2    1.18    0.37
  -3   2   2    1.52    0.41
   3   2  -2    1.61    0.54
  -3  -2   2    2.13    0.93
   3  -2  -2    0.98    0.51
   3   2  -1   17.93    1.86
  -3  -2   1   19.21    2.34
   3  -2  -1   17.77    1.29
   3   2  -1   17.13    1.26
  -3  -2   1   17.59    1.69
   3  -2  -1   18.40    1.81
  -3   2   1   17.42    1.63
  -3  -2   0  639.42   38.28
   3  -2   0  634.48   36.76
   3   2   0  637.08   36.73
   3   2   0  628.56   37.57
   3  -2   0  564.53   37.24
   3   2   1   32.96    2.34
  -3  -2  -1   31.05    3.13
   3  -2   1   28.83    2.39
   3  -2   1   33.52    2.38
   3  -2   2  356.66   20.07
  -3  -2  -2  322.35   20.93
   3  -2   2  306.15   19.74
   3   2   2  349.17   19.94
   3   2   3    2.83    0.62
  -3  -2  -3    1.24    0.58
   3  -2   3    1.62    0.53
   3  -2   3    2.05    0.31
   3   2   4   17.08    1.83
   3   2   4   17.92    1.83
   3  -2   4   17.60    1.95
  -3  -2  -4   19.20    2.24
   3   2   5    1.49    0.57
  -3  -2  -5    0.62    0.52
   3   2   6  386.24   23.54
   3   2   7   36.14    2.99
   3   2   8  224.93   14.10
  -3  -2  -9    0.16    0.43
   3   2   9    0.19    0.28
  -3  -2 -10   62.17    5.12
   3   2  10   62.56    4.57
  -3  -2 -11    2.43    0.93
   3  -2  11    4.74    0.45
   3   2  11    3.56    0.75
  -3  -2 -12    1.31    0.69
   3  -2  12    1.54    0.51
   3   2  12    2.99    0.63
   3  -2  13    1.47    0.54
  -3  -2 -13    0.67    0.61
   3   2  13    0.83    0.41
  -3  -2 -14  140.74   10.22
   3  -2  14  146.38    9.66
   3   2  14  152.17    9.61
   3   2  15    6.00    1.06
   3  -2  15    6.80    1.08
  -3  -2 -15    6.68    1.39
  -3  -2 -16  219.32   16.74
   3   2  16  226.54   13.54
  -3  -2 -16  192.49   14.07
   3  -2  16  211.66   13.56
   3   2  17    0.32    0.45
  -3  -2 -17    0.45    0.99
  -3  -2 -17   -0.18    0.68
   3  -2  17   -0.11    0.48
   3   2  18    3.73    0.80
  -3  -2 -18    1.33    0.85
  -3  -2 -18    0.90    1.22
   3  -2  18    1.86    0.69
  -3  -2 -19    1.38    0.88
  -3  -2 -19    3.66    1.90
  -3  -2 -20  113.22   10.53
  -3  -2 -20  112.96    8.57
  -3  -2 -21   15.19    2.46
  -3  -2 -21   24.85    4.16
  -3  -2 -22  140.56   12.21
  -3  -2 -22  134.95   10.19
  -3  -2 -23   -0.49    1.11
  -3  -2 -24    2.05    1.03
  -3  -2 -25    0.27    0.73
   3  -3 -21    9.17    1.64
   3  -3 -20    8.89    1.62
   3  -3 -19    7.82    1.55
  -3  -3  19    7.08    1.72
   3  -3 -19    5.39    1.93
  -3  -3  18  118.40    7.60
  -3  -3  18   98.02    8.43
  -3   3  18  113.68    7.47
   3  -3 -18   93.39    9.61
   3  -3 -18  123.26    8.28
   3  -3 -17   15.35    2.07
  -3  -3  17   13.92    1.54
   3  -3 -17   11.60    2.75
  -3  -3  17   12.75    2.13
  -3   3  17   13.27    1.50
   3  -3 -16    5.38    1.20
  -3   3  16    4.86    0.84
  -3  -3  16    4.53    0.83
   3  -3 -16    3.77    1.74
  -3  -3  16    4.09    1.21
   3  -3 -15    2.26    0.82
  -3   3  15    2.66    0.60
   3  -3 -15    2.21    1.29
  -3  -3  15    1.66    0.53
  -3  -3  15    1.58    0.91
  -3  -3  14    3.63    0.71
   3  -3 -14    5.90    1.16
   3  -3 -14    5.41    1.80
  -3  -3  14    4.43    1.16
  -3   3  14    4.32    0.72
  -3  -3  13   14.28    1.42
   3  -3 -13   14.64    1.89
  -3   3  13   15.55    1.41
   3  -3 -13    9.42    2.33
  -3  -3  13   11.72    1.91
   3  -3 -12   96.81    6.51
  -3  -3  12   90.74    5.70
   3  -3 -12   75.87    7.66
  -3  -3  12   69.89    6.36
  -3   3  12   86.42    5.64
  -3   3  11   24.01    1.84
   3  -3 -11   20.71    3.29
  -3  -3  11   24.61    2.62
  -3  -3  11   19.93    1.78
  -3  -3  10   -0.05    0.18
   3   3 -10    0.22    0.25
  -3   3  10    0.35    0.23
   3  -3 -10   -0.29    0.73
  -3  -3  10    0.16    0.51
  -3  -3   9    3.15    0.51
   3   3  -9    2.27    0.50
  -3   3   9    2.46    0.47
  -3  -3   9    1.78    1.36
   3  -3  -9    1.39    0.93
   3  -3  -9    2.46    0.55
   3   3  -9    2.03    0.49
   3  -3  -8   71.95    6.88
  -3  -3   8   66.98    7.03
   3   3  -8   84.70    5.30
   3  -3  -8   86.18    5.37
  -3   3   8   82.01    5.13
  -3  -3   8   79.18    5.13
   3   3  -8   77.66    5.35
   3   3  -7   64.19    4.62
   3  -3  -7   66.27    6.09
   3   3  -7   69.64    4.46
   3  -3  -7   76.84    4.56
  -3   3   7   67.55    4.32
  -3  -3   7   65.46    4.33
  -3  -3   7   55.91    6.08
   3   3  -6  282.75   18.16
   3  -3  -6  311.21   17.89
  -3  -3   6  305.35   18.11
   3  -3  -6  261.21   19.54
   3   3  -6  308.93   17.84
  -3  -3   6  273.12   19.93
  -3   3   6  292.80   17.99
  -3  -3   5   10.05    1.11
  -3   3   5   11.14    1.09
  -3  -3   5    7.58    1.83
   3   3  -5   11.34    0.97
   3  -3  -5   11.10    0.99
   3  -3  -5   12.23    2.05
   3   3  -5   12.30    1.30
  -3  -3   4   43.39    3.16
   3   3  -4   46.96    3.34
  -3   3   4   42.95    3.07
   3  -3  -4   40.42    4.16
  -3  -3   4   35.78    4.19
   3   3  -4   43.44    2.81
   3  -3  -4   43.15    2.84
  -3  -3   3    4.87    0.82
  -3  -3   3    5.95    1.49
  -3   3   3    4.77    0.76
   3  -3  -3    4.86    1.29
   3   3  -3    6.21    0.57
   3  -3  -3    6.39    0.60
   3   3  -3    5.87    0.94
  -3  -3   2    3.08    1.21
   3   3  -2    2.72    0.69
   3  -3  -2    1.88    0.88
   3   3  -2    3.27    0.42
   3   3  -1   76.01    5.45
   3  -3  -1   73.31    5.93
   3   3  -1   79.30    4.74
   3  -3  -1   78.04    4.76
  -3  -3   1   76.38    6.50
   3  -3   0  276.30   16.09
  -3  -3   0  270.60   18.08
   3  -3   0  249.25   17.20
   3   3   0  251.67   16.82
   3   3   0  276.85   16.06
   3   3   1    1.58    0.54
  -3  -3  -1    2.06    0.94
   3   3   1    1.86    0.24
   3  -3   1    1.21    0.22
   3  -3   1    1.54    0.59
  -3  -3  -2   30.02    3.35
   3   3   2   29.26    2.64
   3  -3   2   29.51    2.64
   3  -3   2   30.74    1.97
   3   3   2   29.57    1.94
  -3  -3  -3   38.34    3.98
   3  -3   3   42.39    2.84
   3  -3   3   35.89    3.01
   3   3   4   16.48    1.36
   3  -3   4   16.42    1.49
   3  -3   4   11.84    1.32
  -3  -3  -4   14.99    2.25
   3   3   5    1.01    0.39
  -3  -3  -5    1.23    0.72
   3  -3   5    1.24    0.56
   3  -3   5    0.66    0.27
   3  -3   6   54.52    3.82
   3   3   6   43.56    3.95
   3  -3   6   62.34    4.52
  -3  -3  -6   52.26    4.82
   3   3   6   53.30    3.93
   3   3   7   79.07    5.94
  -3  -3  -7   81.44    6.80
   3  -3   7   95.11    5.80
   3   3   7   85.72    5.51
   3  -3   7   82.74    5.53
   3  -3   8  417.02   25.00
   3  -3   8  397.41   24.90
   3   3   8  436.06   24.92
   3  -3   9   70.49    5.05
   3   3   9   78.07    5.07
   3  -3   9   78.84    5.11
   3  -3  10   15.13    1.43
   3   3  10   14.24    1.41
   3  -3  10   14.95    1.48
   3  -3  11   -0.07    0.27
   3   3  11    0.64    0.32
  -3  -3 -11    0.20    0.59
   3  -3  11    0.49    0.33
  -3  -3 -12   13.92    2.15
   3  -3  12   16.35    1.58
   3   3  12   14.11    1.47
   3  -3  12   14.69    1.38
   3  -3  13   35.79    2.66
   3   3  13   38.02    2.65
  -3  -3 -13   32.19    3.43
   3  -3  14  311.10   19.16
   3   3  14  341.33   19.20
   3  -3  15   40.19    3.28
   3   3  15   48.29    3.38
   3   3  16    3.73    0.80
  -3  -3 -16    1.22    0.82
   3  -3  16    2.06    0.63
   3  -3  17    3.01    0.72
  -3  -3 -17    2.03    0.96
   3   3  17    2.02    0.63
   3  -3  18   10.98    1.47
   3   3  18   14.24    1.61
  -3  -3 -19    0.21    0.73
  -3  -3 -20    0.21    0.81
  -3  -3 -21    0.65    0.79
  -3  -3 -22   42.44    4.36
  -3   4  16   -0.13    0.37
   3  -4 -16   -0.45    1.22
   3  -4 -15   20.96    2.81
  -3   4  15   19.61    1.75
   3  -4 -15   14.70    3.38
  -3   4  14   21.11    1.79
   3  -4 -14   13.90    3.25
  -3  -4  13   63.10    5.36
  -3   4  13   64.33    4.17
  -3   4  12   -0.05    0.29
  -3  -4  12    0.19    0.61
   3  -4 -12   -0.40    1.00
   3  -4 -11   46.88    5.61
  -3  -4  11   51.09    4.49
  -3  -4  11   48.49    6.04
  -3   4  11   47.57    3.24
  -3  -4  10   21.63    4.05
  -3   4  10   22.80    1.98
   3  -4 -10   22.30    3.66
   3  -4 -10   27.30    2.95
  -3  -4  10   23.48    2.09
  -3   4   9   -0.17    0.38
  -3  -4   9    0.90    1.65
  -3  -4   9    0.56    0.45
   3  -4  -9    0.87    0.77
   3  -4  -9   -0.34    0.85
  -3  -4   8    7.81    1.01
  -3  -4   8    9.88    2.62
  -3   4   8    8.17    0.93
   3  -4  -8   11.05    1.71
   3  -4  -8    7.23    2.05
  -3  -4   7   42.39    3.25
   3  -4  -7   38.13    4.79
  -3  -4   7   47.72    5.62
   3  -4  -7   53.76    4.30
  -3  -4   6    0.08    0.42
   3  -4  -6    0.65    0.59
  -3  -4   6    0.34    0.84
   3  -4  -6   -0.30    0.99
   3  -4  -5   86.26    8.14
   3  -4  -5  111.92    7.57
  -3  -4   5   99.55    8.77
   3  -4  -4    3.71    1.05
   3  -4  -4    1.86    1.03
  -3  -4   4    3.15    1.49
  -3  -4   3    5.19    1.61
   3  -4  -3    3.97    1.29
   3  -4  -3    5.73    1.19
  -3  -4   2    0.88    1.08
   3  -4  -2    1.47    0.75
   3  -4  -2    0.92    0.95
   3  -4  -1   41.56    3.48
   3  -4  -1   30.23    3.57
  -3  -4   1   34.40    4.19
   3  -4   0   75.04    5.36
  -3  -4   0   60.06    6.14
   3  -4   0   62.05    5.53
  -3  -4  -1  317.77   21.41
   3  -4   1  293.61   20.19
   3  -4   1  342.43   20.10
  -3  -4  -2   11.00    2.26
   3  -4   2   11.01    1.73
  -3  -4  -3    0.28    0.81
   3  -4   3    0.13    0.55
   3  -4   3    1.40    0.68
  -3  -4  -4    9.09    2.09
   3  -4   4   12.58    1.62
   3  -4   4    9.54    1.37
   3  -4   5   13.94    1.74
   3  -4   5    9.69    1.27
  -3  -4  -5   10.76    2.25
   3  -4   6   48.84    3.80
   3  -4   6   37.02    2.99
   3  -4   6   46.85    2.74
   3   4   6   41.61    2.68
   3  -4   6   44.61    2.71
  -3  -4  -6   47.93    4.92
   3   4   6   42.62    2.69
  -3  -4  -7  224.95   13.01
   3  -4   7  267.75   11.53
   3  -4   7  134.26    9.64
   3  -4   7  279.40   10.74
   3  -4   7  231.49    9.88
   3   4   7  216.64   10.02
   3  -4   8   14.95    1.77
  -3  -4  -8   16.74    2.62
   3  -4   8   13.99    1.75
   3   4   8   10.39    1.14
   3  -4   8   12.84    1.06
   3   4   8   12.01    1.01
   3  -4   9    3.06    1.15
   3   4   9    2.29    0.58
   3  -4   9    2.45    0.48
   3   4   9    3.45    0.48
   3  -4   9    2.80    0.83
   3   4  10    6.64    0.80
   3  -4  10    8.63    1.32
   3   4  10    6.85    1.05
  -3  -4 -10    9.05    1.99
   3  -4  10    8.78    0.92
   3  -4  11    9.26    1.40
   3   4  11    7.74    1.25
   3   4  11   10.61    1.06
   3   4  12   -0.11    0.33
  -3  -4 -13    4.10    1.51
   3   4  13    5.88    0.80
  -3  -4 -14    6.54    1.79
   3   4  14    8.66    1.04
  -3  -4 -15  140.98   11.11
   3   4  15  148.54    9.33
   3  -5 -11   23.66    4.21
   3  -5 -10    0.42    1.40
   3  -5  -9   -0.40    1.17
   3  -5  -8    0.38    1.20
  -3  -5   8    3.19    2.35
   3  -5  -7  113.72    9.86
  -3  -5   7  107.46   10.65
  -3  -5   6    5.90    2.17
   3  -5  -6    9.88    1.99
   3  -5  -6    5.20    1.88
  -3  -5   5   21.74    3.90
   3  -5  -5   24.74    3.15
   3  -5  -5   23.24    3.55
   3  -5  -4    0.45    0.97
   3  -5  -4    0.31    0.84
  -3  -5   4    0.83    1.30
   3  -5  -3   37.41    3.94
   3  -5  -3   29.78    4.08
  -3  -5   3   40.09    5.32
  -3  -5   2    1.21    1.73
   3  -5  -2    0.88    1.19
   3  -5  -2    1.07    1.23
   3  -5  -1   98.45    7.31
   3  -5  -1   75.67    7.13
  -3  -5   1   89.61    8.54
  -3  -5   0    3.06    1.70
   3  -5   0    2.75    1.11
  -3  -5  -1    6.83    2.18
   3  -5   1    7.92    1.67
  -3  -5  -2    3.40    1.68
   3  -5   2    3.50    1.26
   3  -5   3   41.05    4.11
  -3  -5  -3   39.51    5.06
  -3  -5  -4    0.75    1.44
   3  -5   4    2.02    1.10
   3  -5   5    1.79    0.89
  -3  -5  -5    2.61    1.65
  -3  -5  -6    0.37    1.16
   3  -5   6    0.60    0.73
   3  -5   7  105.66    8.07
   4   0 -24    6.26    1.73
   4   0 -23    0.28    0.75
   4   0 -23    0.12    0.26
   4   0 -22   23.87    1.91
   4   0 -22   24.73    3.33
   4   0 -21   -0.26    0.76
   4   0 -21   -0.05    0.20
   4   0 -20   29.17    3.57
  -4   0  19    0.91    1.21
   4   0 -19    0.24    0.54
   4   0 -19    0.10    0.43
  -4   0  18    1.71    0.54
   4   0 -18    0.94    0.78
  -4   0  18    0.86    0.90
   4   0 -18    1.72    0.57
  -4   0  17    0.08    0.25
   4   0 -17   -0.23    0.56
  -4   0  17   -0.27    0.83
   4   0 -17   -0.09    0.27
  -4   0  16   31.72    2.56
  -4   0  16   33.74    3.81
   4   0 -16   28.82    2.57
   4   0 -16   36.54    3.68
  -4   0  15    0.44    0.28
  -4   0  15   -0.22    0.70
   4   0 -15    0.08    0.25
  -4   0  14  417.05   26.41
  -4   0  14  439.37   24.98
   4   0 -14  392.15   24.98
   4   0 -13   -0.07    0.21
  -4   0  13   -0.25    0.25
  -4   0  13    0.20    0.54
  -4   0  12    2.56    0.93
  -4   0  12    1.71    0.40
   4   0 -12    1.82    0.43
  -4   0  11    0.05    0.17
   4   0 -11   -0.07    0.16
  -4   0  11    0.16    0.44
  -4   0  10  109.32    8.58
   4   0 -10  108.04    8.53
  -4   0  10  124.22    7.75
   4   0  -9    0.13    0.38
  -4   0   9    0.04    0.16
   4   0  -9    0.30    0.20
  -4   0   9   -0.14    0.41
   4   0  -8 1064.97   64.44
  -4   0   8 1072.28   63.60
  -4   0   8 1132.84   64.59
   4   0  -8 1089.23   63.66
   4   0  -7    0.11    0.34
   4   0  -7   -0.04    0.12
  -4   0   7   -0.12    0.36
  -4   0   7    0.18    0.14
   4   0  -6    2.81    0.45
  -4   0   6    2.72    0.40
  -4   0   6    3.04    0.72
   4   0  -5    0.08    0.13
  -4   0   5   -0.03    0.10
  -4   0   4    0.34    0.15
   4   0  -4    0.16    0.14
   4   0  -3    0.07    0.13
  -4   0   3    0.35    0.16
  -4   0   2    4.37    0.67
   4   0  -2    6.11    0.60
  -4   0   1    0.73    0.34
   4   0  -1    0.40    0.26
   4   0  -1    0.22    0.16
   4   0   0  983.81   53.75
  -4   0   0  836.53   53.71
  -4   0  -1   -0.10    0.30
   4   0   1   -0.18    0.33
   4   0   2   55.05    4.28
   4   0   3   -0.13    0.48
   4   0   3   -0.53    1.01
   4   0   4  267.73   18.79
   4   0   5    1.59    1.36
   4   0   6 2392.15  142.05
   4   0   7    0.38    0.55
   4   0   8  189.82   12.52
   4   0   9   -0.12    0.36
   4   0  10    2.33    0.62
   4   0  11   -0.34    0.32
  -4   0 -11    0.18    0.61
   4   0  12   56.32    3.97
  -4   0 -12   51.97    4.78
  -4   0 -13   -0.18    0.59
   4   0  13   -0.07    0.25
  -4   0 -13    0.20    0.45
   4   0  14   51.07    3.64
  -4   0 -14   53.81    4.83
   4   0  15    0.06    0.24
  -4   0 -15    0.63    0.73
  -4   0 -16   30.35    3.23
   4   0  16   23.69    1.95
  -4   0 -17    0.21    0.47
   4   0  17    0.13    0.48
  -4   0 -18    3.84    1.21
   4   0  18    2.89    0.85
  -4   0 -19    0.46    0.68
  -4   0 -20  275.50   18.39
  -4   0 -21    0.23    0.71
  -4   0 -22   37.55    4.07
  -4   0 -23   -0.24    0.71
  -4   0 -24    4.66    1.38
  -4   0 -25   -0.25    0.77
  -4   0 -26   46.18    4.86
  -4   0 -27    0.25    0.68
   4  -1 -25   -0.09    0.34
   4  -1 -24    0.18    0.35
   4  -1 -23    8.08    1.10
   4  -1 -23    8.95    2.28
   4   1 -22   83.44    4.89
   4  -1 -22   85.07    5.48
   4  -1 -22   86.36    7.59
   4   1 -22   67.79    5.08
   4   1 -21   61.60    3.90
   4   1 -21   70.23    4.81
   4  -1 -21   58.41    4.38
   4   1 -20   14.00    1.08
   4  -1 -20   14.36    1.48
   4   1 -19    2.06    1.08
  -4  -1  19    2.25    1.17
   4   1 -19    2.30    0.62
   4  -1 -19    2.94    0.71
  -4  -1  18    5.48    0.90
  -4   1  18    4.28    0.84
   4   1 -18    6.01    1.62
  -4  -1  18    3.94    1.42
   4   1 -18    3.38    0.80
   4  -1 -18    5.23    0.98
  -4  -1  17   16.97    1.70
   4   1 -17   18.07    2.77
   4  -1 -17   18.74    1.88
   4   1 -17   16.44    1.79
  -4  -1  17   14.27    2.51
  -4   1  17   17.48    1.70
  -4   1  16  146.22    9.32
  -4  -1  16  155.80   10.96
   4  -1 -16  142.86   10.89
   4   1 -16  135.54    9.37
   4  -1 -16  139.97    9.44
   4   1 -16  167.74   11.12
  -4  -1  16  151.70    9.37
  -4  -1  15   99.20    6.63
  -4   1  15  103.76    6.65
  -4   1  15  110.70    8.53
  -4  -1  15  106.55    7.98
   4  -1 -15  100.88    8.08
   4   1 -15   91.20    6.65
   4  -1 -15   97.08    6.72
   4   1 -15  125.33    8.56
  -4   1  14   27.67    2.31
  -4  -1  14   29.80    2.37
  -4   1  14   27.87    3.49
  -4  -1  14   30.64    3.32
   4  -1 -14   30.40    3.47
   4   1 -14   29.13    2.42
   4  -1 -14   28.80    2.42
   4   1 -14   31.08    3.63
   4   1 -13    7.73    1.74
  -4  -1  13    6.64    0.86
   4   1 -13    6.18    0.87
  -4   1  13    7.48    1.68
   4  -1 -13    6.01    0.86
  -4  -1  13    8.23    1.56
   4  -1 -13    4.30    1.25
  -4   1  13    6.77    0.85
  -4  -1  12   23.93    1.88
   4   1 -12   19.74    2.83
  -4  -1  12   19.41    2.46
   4  -1 -12   21.77    2.73
   4   1 -12   19.55    1.83
   4  -1 -12   23.77    1.95
  -4   1  12   22.67    1.83
   4   1 -11    2.25    1.03
  -4   1  11    1.73    0.38
   4   1 -11    2.30    0.48
   4  -1 -11    2.11    0.47
  -4  -1  11    1.84    0.42
  -4  -1  11    1.94    0.74
   4  -1 -11    1.51    0.73
  -4   1  10   11.24    1.10
   4  -1 -10    9.83    1.72
   4   1 -10   10.36    2.01
  -4  -1  10   10.95    1.11
  -4  -1  10   12.19    1.72
   4   1 -10   14.68    1.35
   4  -1 -10   13.14    1.31
   4   1  -9    7.59    1.66
  -4  -1   9    9.18    0.86
  -4   1   9    6.68    0.77
   4   1  -9    6.20    0.79
   4  -1  -9    7.18    0.84
   4  -1  -9    8.42    1.43
  -4  -1   9    7.50    1.30
  -4  -1   8  172.75   10.69
   4   1  -8  165.77   12.30
   4  -1  -8  173.90   11.75
  -4   1   8  177.54   10.68
   4   1  -8  177.04   10.74
   4  -1  -8  175.09   10.76
  -4  -1   8  183.07   11.66
  -4   1   7  265.67   16.51
  -4   1   7  263.91   17.61
   4  -1  -7  300.86   17.65
  -4  -1   7  319.56   17.63
   4  -1  -7  274.95   16.60
   4   1  -7  277.64   16.58
   4   1  -7  261.58   18.28
  -4  -1   7  276.00   16.54
   4   1  -6  252.42   16.10
  -4   1   6  237.35   15.04
   4   1  -6  240.03   14.10
   4  -1  -6  239.23   14.11
  -4   1   6  221.87   14.00
  -4  -1   6  230.56   14.03
   4  -1  -6  242.54   14.96
   4  -1  -5   19.84    1.48
  -4   1   5   21.52    2.17
   4  -1  -5   18.35    1.94
  -4   1   5   17.21    1.37
  -4  -1   5   16.00    1.35
   4   1  -5   19.56    1.45
   4   1  -5   18.82    2.65
   4   1  -4    1.45    1.00
   4  -1  -4    0.79    0.24
  -4  -1   4    0.90    0.21
   4   1  -4    0.38    0.19
  -4   1   4    0.65    0.20
  -4   1   4    1.22    0.58
   4  -1  -4    0.77    0.45
   4  -1  -3  100.84    5.86
   4   1  -3   94.85    5.83
  -4   1   3   82.16    6.03
  -4   1   3   95.60    6.44
   4  -1  -3   87.46    6.24
  -4  -1   3   91.83    6.09
   4   1  -3  110.06    8.07
  -4  -1   2  890.04   54.86
  -4   1   2  938.38   55.10
   4  -1  -2  965.39   54.59
   4   1  -2  959.05   54.56
   4  -1  -2  865.61   54.91
  -4   1   2  916.39   54.86
  -4   1   1  729.48   44.63
  -4   1   1  766.94   44.64
   4  -1  -1  714.87   44.46
   4  -1  -1  763.50   44.25
   4   1  -1  763.27   44.22
  -4  -1   1  718.42   44.63
   4  -1   0  737.60   42.29
  -4  -1   0  659.85   42.38
   4   1   0  736.81   42.21
  -4   1   0  699.05   42.11
  -4   1   0  672.09   42.36
   4   1   1   51.10    3.49
   4  -1   1   53.71    3.61
  -4  -1  -1   33.34    3.46
  -4   1  -1   42.66    3.59
   4   1   1   63.06    5.41
  -4  -1  -1   62.79    6.31
  -4   1  -1   44.57    3.15
   4  -1   2    7.51    1.17
  -4  -1  -2    8.37    2.09
   4   1   2    8.29    1.90
   4   1   2    8.95    1.17
  -4   1  -2    7.46    0.77
   4   1   3    1.72    0.59
   4  -1   3    1.35    0.57
   4   1   3    0.66    0.81
  -4  -1  -3    1.97    1.32
  -4   1  -3    1.91    0.31
   4  -1   4   49.75    4.22
   4   1   4   49.25    4.53
   4   1   4   48.94    4.05
   4   1   5   31.17    3.21
   4   1   6   49.14    4.20
   4   1   7  160.02   10.48
  -4  -1  -7  151.27   11.13
  -4   1  -8  146.30    8.98
   4   1   8  150.09    9.67
  -4  -1  -8  173.97   10.79
   4   1   9   34.80    2.85
  -4   1  -9   29.03    2.34
   4  -1   9   28.33    3.12
  -4  -1  -9   34.03    3.48
  -4  -1 -10    0.39    0.49
   4   1  10    0.20    0.32
  -4   1 -10    0.42    0.30
   4  -1  10    0.26    0.40
   4   1  11    7.73    1.11
   4  -1  11    5.97    0.99
  -4   1 -11    7.47    0.98
  -4  -1 -11    8.95    1.68
   4   1  12  245.37   14.55
  -4   1 -12  239.16   14.46
  -4  -1 -12  273.05   15.96
   4  -1  13  304.58   18.86
  -4  -1 -13  355.46   20.77
  -4   1 -13  321.85   19.30
   4   1  13  308.58   19.21
   4   1  14  284.75   18.28
  -4   1 -14  312.20   18.55
   4  -1  14  296.26   17.82
  -4  -1 -14  327.49   19.86
  -4   1 -15   50.13    4.03
  -4  -1 -15   60.02    5.14
   4   1  15   46.88    3.77
   4  -1  15   52.85    3.30
  -4  -1 -16   -0.35    0.76
  -4   1 -16   -0.12    0.37
   4   1  16    0.36    0.38
  -4  -1 -16   -0.47    0.85
   4   1  17    2.41    0.78
   4  -1  17    2.21    0.72
  -4  -1 -17    1.96    1.05
  -4  -1 -17    2.79    1.29
  -4   1 -17    1.62    0.64
  -4  -1 -18   16.98    2.66
   4  -1  18   13.71    1.83
   4   1  18   13.94    1.80
  -4   1 -18   12.14    1.72
  -4  -1 -18   19.66    3.24
  -4  -1 -19   36.02    4.65
  -4   1 -19   31.65    3.09
  -4  -1 -19   37.05    4.11
  -4  -1 -20   29.95    4.15
  -4   1 -20   23.02    2.60
  -4  -1 -20   30.88    3.77
  -4  -1 -21   -0.58    0.96
  -4  -1 -21    0.36    1.06
  -4   1 -21    0.15    0.50
  -4  -1 -22   14.46    2.69
  -4  -1 -22   13.15    2.77
  -4   1 -22    9.38    1.59
  -4  -1 -23    4.18    1.54
  -4  -1 -23    6.95    2.11
  -4   1 -23    4.59    1.14
  -4  -1 -24    0.59    1.13
  -4  -1 -24    0.38    1.12
  -4   1 -24    0.49    0.66
  -4   1 -25    0.68    0.60
   4  -2 -25   14.04    1.83
   4  -2 -24   -0.77    0.62
   4  -2 -23   50.67    4.13
   4  -2 -22    0.48    0.46
   4  -2 -21    1.19    0.59
   4  -2 -21    1.84    1.29
   4  -2 -20   -0.24    0.46
   4  -2 -20   -0.36    0.89
  -4  -2  19   22.81    3.14
   4  -2 -19   18.18    2.06
   4  -2 -19   16.98    3.14
  -4   2  18    0.82    0.45
  -4  -2  18    0.19    0.40
   4  -2 -18    0.11    0.35
  -4  -2  18    0.26    0.75
   4  -2 -18    0.67    0.97
  -4   2  17    2.94    0.67
  -4  -2  17    2.09    0.63
   4   2 -17    2.40    0.39
  -4  -2  17    2.59    1.11
   4  -2 -17    1.28    1.12
   4   2 -17    2.86    0.71
   4  -2 -17    3.04    0.78
  -4   2  16    1.31    0.46
   4  -2 -16    0.45    0.45
  -4  -2  16    0.46    0.76
  -4  -2  16    1.11    0.45
   4  -2 -16    1.22    1.01
   4   2 -16    0.74    0.45
   4   2 -15  216.22   13.78
   4  -2 -15  250.89   14.42
  -4  -2  15  237.62   14.13
   4  -2 -15  205.30   15.88
  -4  -2  15  234.43   15.47
   4   2 -15  223.03   14.26
  -4   2  15  223.71   14.02
  -4  -2  14    9.54    1.17
   4   2 -14    9.97    1.11
   4   2 -14   10.70    1.30
   4  -2 -14   12.28    1.39
   4  -2 -14    7.49    1.86
  -4  -2  14   11.44    1.91
  -4   2  14   11.08    1.21
   4   2 -13  119.26    7.94
   4  -2 -13  114.61    9.59
  -4   2  13  125.13    7.91
  -4  -2  13  126.26    7.97
  -4  -2  13  126.09    9.08
   4   2 -13  123.48    8.06
   4  -2 -13  127.33    8.13
   4   2 -12    0.75    0.41
   4   2 -12    0.08    0.36
   4  -2 -12    0.08    0.29
  -4   2  12    0.38    0.23
   4  -2 -12    0.25    0.68
  -4  -2  12    0.18    0.48
   4   2 -11    0.81    0.36
   4   2 -11    0.44    0.43
  -4   2  11    0.59    0.31
  -4  -2  11    0.50    0.31
   4  -2 -11    0.71    0.64
  -4  -2  11    0.68    0.60
   4  -2 -11    1.01    0.42
   4   2 -10    3.40    0.63
   4   2 -10    3.22    0.75
   4  -2 -10    3.96    0.67
   4  -2 -10    3.31    1.19
  -4   2  10    3.00    0.58
  -4  -2  10    3.67    0.62
  -4  -2  10    4.52    1.13
   4   2  -9  553.12   35.22
  -4   2   9  589.03   34.74
  -4  -2   9  591.77   34.78
   4  -2  -9  522.57   36.16
  -4  -2   9  587.97   35.90
   4   2  -9  600.70   34.87
   4  -2  -9  612.12   34.92
   4   2  -8   53.60    4.44
  -4   2   8   58.32    3.97
  -4  -2   8   61.66    4.02
   4   2  -8   65.52    4.21
   4  -2  -8   64.96    4.24
   4  -2  -8   50.43    4.96
   4   2  -7  257.97   16.10
  -4   2   7  259.83   15.38
   4  -2  -7  231.92   16.59
  -4  -2   7  259.96   15.41
   4   2  -7  254.10   15.43
   4  -2  -7  256.97   15.48
   4   2  -6    0.23    0.39
  -4   2   6    0.31    0.18
  -4  -2   6    0.16    0.19
   4   2  -6    0.60    0.25
   4  -2  -6    0.68    0.27
   4  -2  -6    0.47    0.49
   4  -2  -5   11.43    1.02
   4   2  -5    9.31    1.40
  -4  -2   5   11.39    2.44
   4  -2  -5    9.73    1.55
   4   2  -5   11.44    0.99
  -4   2   5   10.10    0.94
  -4  -2   5   10.96    0.98
  -4  -2   4    2.45    1.24
  -4  -2   4    3.87    0.65
   4  -2  -4    3.71    0.50
   4   2  -4    3.34    0.47
   4   2  -4    1.77    0.67
  -4   2   4    3.56    0.62
   4  -2  -4    2.05    0.68
   4   2  -3   41.59    3.40
  -4  -2   3   34.44    2.74
  -4   2   3   31.95    2.67
   4   2  -3   36.23    2.44
   4  -2  -3   37.73    2.49
   4  -2  -3   31.02    2.98
  -4  -2   3   36.28    4.36
   4   2  -2    0.41    0.48
  -4  -2   2    0.27    0.88
  -4  -2   2    0.08    0.27
  -4   2   2    0.23    0.28
   4  -2  -2   -0.04    0.16
   4   2  -2    0.20    0.13
   4  -2  -2    0.20    0.31
  -4  -2   1  161.30   10.79
   4  -2  -1  151.16   10.60
   4   2  -1  168.46   10.16
   4   2  -1  180.43   11.37
   4  -2  -1  180.42   10.23
  -4   2   1  162.32   10.73
  -4  -2   1  163.51   12.21
   4   2   0   17.75    2.13
   4  -2   0   16.25    1.61
   4  -2   0   17.88    1.40
   4   2   0   20.25    1.41
  -4  -2   0   15.33    2.50
   4  -2   1  371.43   24.33
   4  -2   1  437.44   24.66
  -4  -2  -1  399.96   26.11
   4   2   1  443.51   24.61
   4   2   2    6.58    0.90
   4  -2   2    6.12    0.91
  -4  -2  -2    6.87    1.55
   4  -2   2    6.33    0.65
  -4  -2  -3    1.06    0.74
   4   2   3    0.81    0.44
   4   2   3    1.42    0.69
   4  -2   3    1.64    0.58
   4   2   4   10.37    1.52
   4   2   4    8.02    1.22
   4  -2   4    8.28    1.37
   4  -2   5  906.43   48.60
   4   2   5  820.25   48.03
   4   2   5  789.66   48.12
   4   2   6   90.47    6.55
   4   2   7  830.10   49.70
   4   2   8    1.44    0.63
  -4  -2  -9    1.60    0.77
   4   2   9    0.92    0.51
  -4  -2 -10    0.40    0.67
   4   2  10    0.22    0.35
   4   2  11   38.17    3.14
  -4  -2 -11   33.74    3.68
  -4  -2 -12    3.06    1.02
   4   2  12    2.37    0.67
   4  -2  12    2.44    0.70
   4  -2  13    7.26    0.93
  -4  -2 -13   10.36    1.83
   4   2  13   10.49    1.33
  -4  -2 -14    0.21    0.62
  -4  -2 -15   93.30    7.33
   4   2  15   91.05    6.30
   4  -2  15   84.39    6.30
   4  -2  16    0.99    0.58
  -4  -2 -16    0.68    0.79
   4   2  16    0.70    0.48
   4  -2  17    0.13    0.46
   4   2  17    0.58    0.41
  -4  -2 -17    0.70    0.77
   4  -2  18    0.25    0.54
   4   2  18   -0.24    0.60
  -4  -2 -18    0.72    0.84
  -4  -2 -18    0.48    1.06
  -4  -2 -19   57.99    7.13
  -4  -2 -19   60.37    5.66
  -4  -2 -20    5.90    1.66
  -4  -2 -20    4.41    1.98
  -4  -2 -21  170.55   12.53
  -4  -2 -21  168.57   14.33
  -4  -2 -22    0.49    1.62
  -4  -2 -22    2.24    1.32
  -4  -2 -23    0.30    0.88
  -4  -2 -24    0.32    0.87
   4  -3 -21   96.30    7.33
   4  -3 -20    3.56    1.05
   4  -3 -19    9.80    1.65
   4  -3 -19    8.08    2.34
   4  -3 -18    0.33    0.60
   4  -3 -18    0.78    1.15
   4  -3 -17   25.72    2.62
  -4   3  17   19.58    1.91
  -4  -3  17   19.60    1.97
  -4  -3  17   16.18    2.61
   4  -3 -17   16.78    3.25
  -4  -3  16   49.01    3.65
   4  -3 -16   54.16    4.33
  -4   3  16   48.13    3.56
  -4  -3  16   46.52    4.69
  -4  -3  15  125.10    9.88
   4  -3 -15  150.44    9.59
   4  -3 -15  110.67   10.62
  -4  -3  15  135.38    8.79
  -4   3  15  141.79    8.75
  -4  -3  14    0.23    0.35
   4   3 -14    1.00    0.31
   4  -3 -14    1.14    0.65
   4  -3 -14    1.64    1.26
  -4  -3  14    0.21    0.69
  -4   3  14    0.57    0.35
   4   3 -13   10.55    1.12
  -4   3  13   13.38    1.30
  -4  -3  13   13.25    1.32
   4   3 -13   11.95    1.40
   4  -3 -13   12.07    1.44
   4  -3 -13    8.41    2.04
  -4  -3  13   10.22    1.84
   4   3 -12    1.10    0.45
  -4  -3  12    1.46    0.41
   4   3 -12    0.77    0.35
   4  -3 -12    1.02    0.48
  -4   3  12    0.94    0.35
   4  -3 -12    2.09    1.10
  -4  -3  12    0.38    0.71
  -4  -3  11    0.37    0.58
  -4   3  11    0.24    0.23
  -4  -3  11    0.49    0.30
   4   3 -11    0.16    0.33
   4  -3 -11   -0.29    0.78
   4   3 -11    0.13    0.28
   4  -3 -11    0.08    0.31
   4   3 -10    4.35    0.71
   4  -3 -10    4.40    0.72
   4   3 -10    3.39    0.69
  -4   3  10    4.93    0.64
   4  -3 -10    2.45    1.07
  -4  -3  10    3.43    0.57
  -4  -3  10    4.08    1.17
   4   3  -9    8.40    1.09
   4   3  -9    9.66    1.06
   4  -3  -9   10.34    1.10
  -4   3   9   10.09    0.96
  -4  -3   9    9.09    0.95
   4   3  -8   49.28    3.80
   4  -3  -8   47.13    4.91
   4   3  -8   55.04    3.64
   4  -3  -8   52.81    3.66
  -4   3   8   53.15    3.51
  -4  -3   8   46.58    5.59
  -4  -3   8   53.12    3.54
   4   3  -7  270.43   17.67
  -4   3   7  288.47   17.61
   4  -3  -7  251.95   18.87
  -4  -3   7  242.71   19.82
  -4  -3   7  298.82   17.74
   4   3  -7  299.50   17.36
   4  -3  -7  301.53   17.41
  -4   3   6   75.92    5.20
   4   3  -6   76.15    5.41
   4  -3  -6   72.90    6.35
  -4  -3   6   71.43    7.21
   4   3  -6   81.23    5.01
   4  -3  -6   79.71    5.04
  -4  -3   6   74.00    5.28
  -4   3   5    6.16    0.88
  -4  -3   5    5.77    0.93
   4   3  -5    6.06    1.03
  -4  -3   5    5.49    1.76
   4   3  -5    7.01    0.77
   4  -3  -5    7.35    1.52
   4  -3  -5    8.38    0.87
   4   3  -4    2.08    0.36
  -4  -3   4    1.24    0.51
  -4   3   4    1.22    0.49
   4   3  -4    1.99    0.61
   4  -3  -4    1.75    0.89
   4  -3  -4    2.06    0.37
  -4  -3   4    1.24    1.09
   4   3  -3   80.95    5.73
  -4   3   3   85.15    5.57
   4  -3  -3   78.04    6.16
  -4  -3   3   80.67    7.28
   4   3  -3   81.29    5.02
   4  -3  -3   79.14    5.04
  -4  -3   3   78.30    5.68
   4  -3  -2   86.65    5.35
   4   3  -2   83.75    6.07
  -4  -3   2   88.74    7.55
   4  -3  -2   78.14    6.24
   4   3  -2   87.31    5.32
   4   3  -1  715.16   43.49
   4  -3  -1  739.29   42.63
   4   3  -1  739.99   42.60
  -4  -3   1  727.56   45.22
   4  -3  -1  640.71   43.43
   4   3   0   83.77    4.90
   4  -3   0   81.95    4.93
   4  -3   0   61.12    5.38
   4   3   0   77.74    5.73
  -4  -3   0   71.07    6.80
   4   3   1   31.85    2.88
   4  -3   1   33.57    2.14
   4  -3   1   25.86    2.43
  -4  -3  -1   32.24    3.82
   4   3   1   30.39    2.08
   4  -3   2    0.50    0.22
   4   3   2    0.49    0.43
   4   3   2    0.51    0.20
  -4  -3  -2    1.03    0.75
   4  -3   2    0.48    0.29
   4   3   3    1.33    0.39
   4  -3   3    2.28    0.53
  -4  -3  -3    1.74    1.03
   4  -3   3    1.42    0.35
   4   3   4   11.92    1.15
   4  -3   4   10.77    1.21
   4  -3   4    7.50    0.65
  -4  -3  -4   11.53    2.07
   4  -3   5   29.13    2.57
  -4  -3  -5   24.26    3.19
   4   3   5   23.82    2.20
  -4  -3  -6    0.24    0.65
   4   3   6    0.60    0.46
   4  -3   6    0.45    0.57
   4   3   6    0.26    0.41
   4   3   7  123.58    8.25
  -4  -3  -7   99.15    8.99
   4   3   7  114.96    8.32
   4   3   8   64.76    4.91
   4  -3   8   70.42    5.74
   4   3   8   56.25    4.76
   4   3   9   24.02    2.48
   4  -3  10    0.87    0.39
   4   3  10    1.37    0.62
   4  -3  11   15.86    1.71
   4   3  11   20.30    1.83
   4  -3  11   18.09    1.54
   4   3  12   50.82    3.66
   4  -3  12   44.63    3.22
   4  -3  12   45.92    3.61
  -4  -3 -12   44.04    4.55
   4  -3  13  360.49   21.89
   4  -3  13  365.72   22.47
   4   3  13  407.30   22.51
  -4  -3 -13  324.76   23.57
   4  -3  14   71.99    5.38
   4   3  14   81.53    5.43
  -4  -3 -14   70.93    6.39
   4  -3  15   39.24    3.36
   4   3  15   46.87    3.48
  -4  -3 -15   36.20    4.10
   4  -3  16   -0.11    0.41
  -4  -3 -16    0.46    0.76
   4   3  16    0.11    0.49
   4   3  17    0.76    0.61
   4  -3  17    1.11    0.55
  -4  -3 -17    1.38    0.96
  -4  -3 -18    1.41    0.97
  -4  -3 -19   35.32    3.95
  -4  -3 -19   33.28    5.83
  -4  -3 -20    1.71    1.01
  -4  -3 -21   -0.49    0.95
   4  -4 -16   11.73    2.82
  -4   4  15   23.18    1.92
   4  -4 -15   18.81    3.62
   4  -4 -14  133.25   12.09
  -4  -4  14  143.70   10.86
  -4   4  14  149.92    9.47
  -4   4  13    1.64    0.49
   4  -4 -13    0.75    1.25
  -4  -4  13    2.12    0.97
  -4   4  12   -0.28    0.72
  -4   4  12   -0.05    0.34
  -4  -4  12   -0.21    0.79
   4  -4 -12    0.36    0.80
  -4   4  11   -0.08    0.48
   4  -4 -11    0.89    0.86
  -4  -4  11    0.21    0.65
   4  -4 -11    1.05    1.03
  -4  -4  10   33.76    2.92
   4  -4 -10   46.57    3.92
   4  -4 -10   37.80    4.65
  -4   4  10   34.02    2.81
  -4  -4  10   38.73    5.51
  -4  -4   9   43.40    3.36
  -4   4   9   41.96    3.23
   4  -4  -9   50.60    4.22
   4  -4  -9   49.06    5.25
  -4  -4   9   38.06    5.78
  -4  -4   8  211.92   13.55
  -4   4   8  207.43   13.34
   4  -4  -8  215.67   15.63
  -4  -4   8  202.57   17.05
   4  -4  -7   26.29    2.73
   4  -4  -7   20.91    3.20
  -4  -4   7   26.48    4.41
  -4  -4   7   23.15    2.19
  -4   4   7   21.30    1.94
  -4  -4   6    0.87    1.18
   4  -4  -6    0.63    0.61
  -4  -4   6    2.14    0.71
   4  -4  -6    1.05    0.83
   4  -4  -5    8.67    1.50
   4  -4  -5    9.96    1.95
  -4  -4   5    6.54    2.22
  -4  -4   4    0.38    1.04
   4  -4  -4    1.51    0.71
   4   4  -4    0.67    0.49
   4  -4  -4    1.78    0.89
   4   4  -3    0.10    0.31
  -4  -4   3    0.36    1.20
   4  -4  -3    0.15    0.43
   4  -4  -3    0.40    0.74
  -4  -4   2    1.77    1.24
   4  -4  -2    1.74    0.66
   4   4  -2    1.24    0.52
   4  -4  -2    1.08    0.67
   4   4  -1    8.27    1.23
   4  -4  -1    9.45    1.45
   4  -4  -1    6.85    1.41
  -4  -4   1    7.33    2.13
   4  -4   0  226.09   12.41
   4   4   0  175.38   11.84
  -4  -4   0  201.33   14.27
   4  -4   0  157.67   11.92
  -4  -4  -1    8.08    2.21
   4  -4   1    8.46    1.33
   4  -4   1    5.96    1.11
   4  -4   2   39.30    3.14
  -4  -4  -2   33.03    4.23
   4  -4   3    0.09    0.13
  -4  -4  -3    0.32    0.94
   4   4   3    0.04    0.09
   4  -4   3    0.51    0.58
   4  -4   3   -0.07    0.28
   4   4   3   -0.01    0.09
   4  -4   3    0.02    0.12
   4  -4   4   32.12    2.04
   4   4   4   31.17    2.01
   4  -4   4   37.79    3.08
   4  -4   4   26.08    2.20
   4  -4   4   34.36    2.09
   4   4   4   32.16    2.03
  -4  -4  -4   29.41    4.05
   4  -4   5   53.24    3.21
   4  -4   5   54.51    4.15
  -4  -4  -5   44.48    5.26
   4   4   5   48.14    3.13
   4  -4   5   50.59    3.24
   4  -4   6  449.39   25.67
  -4  -4  -6  405.25   27.46
   4  -4   6  393.22   24.68
   4  -4   6  437.15   24.72
   4  -4   7   63.16    4.19
   4  -4   7   60.40    4.32
  -4  -4  -7   47.17    5.41
   4   4   7   53.10    3.66
   4  -4   7   51.44    3.53
   4   4   7   51.29    3.47
   4  -4   8   45.22    3.55
   4  -4   8   40.35    3.22
  -4  -4  -8   31.16    4.23
   4   4   8   31.74    2.65
   4  -4   8   36.02    2.57
   4   4   8   36.48    2.53
   4   4   9    1.47    0.42
  -4  -4  -9    3.33    1.30
   4  -4   9    2.71    0.77
   4   4   9    1.65    0.56
   4  -4   9    2.56    0.51
   4  -4  10    0.88    0.59
   4   4  10    0.48    0.33
   4   4  10   -0.28    0.49
   4  -4  10    0.26    1.23
   4   4  11    3.59    0.63
   4  -4  11    3.75    0.89
   4   4  11    2.94    0.78
   4   4  12   41.16    3.94
   4   4  12   52.54    3.63
   4   4  13    0.36    0.43
   4   4  13   -0.28    0.67
   4  -4  13    0.45    2.28
  -4  -4 -13   -0.29    0.97
  -4  -4 -14   13.38    2.59
   4   4  14   17.13    1.70
   4   4  15    2.88    0.70
   4  -5 -11    1.57    1.63
   4  -5 -10    2.65    1.58
   4  -5  -9    0.72    0.98
   4  -5  -8   85.05    7.96
  -4  -5   8   77.96    9.54
  -4  -5   7   18.21    4.38
   4  -5  -7   22.47    3.48
   4  -5  -6   47.19    5.38
  -4  -5   6   62.68    7.65
  -4  -5   5    5.26    2.19
   4  -5  -5    3.29    1.33
   4  -5  -5    5.67    1.71
  -4  -5   4   -0.99    1.64
   4  -5  -4    1.29    0.92
   4  -5  -4    0.78    0.82
  -4  -5   3    3.29    1.95
   4  -5  -3    2.11    1.12
   4  -5  -3    1.90    1.21
   4  -5  -2  197.00   12.91
  -4  -5   2  158.84   14.47
  -4  -5   1   11.27    2.91
   4  -5  -1   13.23    2.18
   4  -5   0  137.23    9.73
  -4  -5   0  122.14   11.49
   4  -5   1    1.36    0.86
  -4  -5  -1    1.32    1.47
   4  -5   2    8.70    1.71
  -4  -5  -2    7.42    2.41
  -4  -5  -3    1.29    1.43
   4  -5   3    1.33    0.94
   4  -5   4   19.38    2.53
  -4  -5  -4   19.66    3.68
  -4  -5  -5    3.34    1.75
   4  -5   5    4.40    1.19
   4  -5   6    1.28    0.79
   4  -5   7    8.10    1.58
   5   0 -23  252.96   15.34
   5   0 -23  249.64   17.64
   5   0 -22    0.29    0.95
   5   0 -21    5.37    1.02
   5   0 -21    5.79    1.67
   5   0 -20   -0.27    0.72
   5   0 -20    0.12    0.44
   5   0 -19   13.33    1.59
   5   0 -19   11.93    2.25
   5   0 -18   -0.21    0.43
   5   0 -18   -0.24    0.66
  -5   0  18   -0.09    0.33
  -5   0  18    0.29    0.95
   5   0 -17    8.79    1.78
  -5   0  17   11.52    1.29
   5   0 -17    9.41    1.28
  -5   0  17    9.28    2.07
   5   0 -16   -0.09    0.25
  -5   0  16    0.08    0.25
  -5   0  16    0.74    0.77
  -5   0  15  122.06    7.73
  -5   0  15  124.82    9.25
   5   0 -15  113.93    7.78
   5   0 -14   -0.08    0.24
  -5   0  14    0.07    0.20
  -5   0  14    0.22    0.49
   5   0 -13    0.86    0.33
  -5   0  13    0.88    0.31
   5   0 -12   -0.09    0.31
  -5   0  12    0.41    0.23
  -5   0  12   -0.19    0.46
   5   0 -12    0.18    0.43
  -5   0  11  115.89    7.67
  -5   0  11  130.18    8.94
   5   0 -11  122.66    8.77
   5   0 -11  127.61    7.86
   5   0 -10    0.18    0.20
  -5   0  10    0.17    0.45
  -5   0  10    0.05    0.18
  -5   0   9 1354.62   81.20
  -5   0   9 1459.30   82.46
   5   0  -9 1399.60   81.34
  -5   0   8    0.26    0.18
   5   0  -8    0.11    0.17
   5   0  -7  216.94   11.46
  -5   0   7  166.08   11.19
  -5   0   6    0.11    0.10
   5   0  -6    0.05    0.13
   5   0  -5   53.10    3.17
  -5   0   5   39.64    2.96
  -5   0   4    0.07    0.23
  -5   0   4   -0.04    0.15
   5   0  -4    0.09    0.15
  -5   0   3  315.31   20.33
   5   0  -3  349.88   20.08
  -5   0   2   -0.15    0.26
   5   0  -2    0.09    0.13
   5   0  -1    0.83    0.26
  -5   0   1    1.15    0.47
   5   0  -1    1.80    0.54
   5   0   0   -0.09    0.34
  -5   0   0    0.31    0.37
   5   0   1    0.63    0.40
  -5   0  -1    0.23    0.45
   5   0   2   -0.13    0.42
   5   0   3   20.61    3.02
   5   0   3   20.36    2.36
   5   0   4    0.32    1.07
   5   0   4    0.16    0.51
   5   0   5 1662.78  100.56
   5   0   6    3.26    1.54
   5   0   7  188.08   13.59
   5   0   8    0.22    0.63
   5   0   9   52.38    4.56
   5   0  10    0.28    0.39
   5   0  11  264.59   16.70
   5   0  12   -0.11    0.36
   5   0  13   53.16    4.03
   5   0  14    0.09    0.30
   5   0  15    0.50    0.37
  -5   0 -15    0.23    0.71
   5   0  16   -0.08    0.24
  -5   0 -16    0.23    0.63
   5   0  17   47.95    3.56
  -5   0 -17   54.91    4.97
  -5   0 -18    0.46    0.62
  -5   0 -19   51.43    4.97
  -5   0 -20   -0.24    0.76
  -5   0 -21    3.85    1.30
  -5   0 -22    0.95    0.91
  -5   0 -23   42.41    4.49
  -5   0 -24   -0.25    0.78
  -5   0 -25   25.98    3.39
  -5   0 -26   -0.25    1.21
   5  -1 -24    0.09    0.33
   5  -1 -23   24.78    2.26
   5  -1 -22   41.59    3.23
   5   1 -22   40.38    2.71
   5   1 -21   17.10    2.54
   5  -1 -20    0.88    0.52
   5   1 -20    0.25    0.94
   5   1 -20    0.12    0.41
   5   1 -19    1.35    1.08
   5  -1 -19    0.61    0.38
   5   1 -19    0.59    0.39
  -5  -1  18   35.37    2.89
  -5  -1  18   39.60    4.38
   5   1 -18   32.17    2.93
   5  -1 -18   32.37    2.96
   5  -1 -18   31.57    4.00
   5   1 -18   41.74    4.46
  -5   1  17  295.18   17.97
  -5  -1  17  309.36   18.04
   5   1 -17  313.73   20.14
  -5   1  17  294.62   20.16
  -5  -1  17  324.51   20.01
   5   1 -17  272.15   18.05
   5  -1 -17  282.05   19.70
   5  -1 -17  280.43   18.11
  -5   1  16  300.80   18.14
  -5   1  16  290.26   20.13
  -5  -1  16  297.02   19.74
   5  -1 -16  285.21   19.77
   5   1 -16  280.40   18.23
   5  -1 -16  293.62   18.30
   5   1 -16  311.44   20.31
  -5  -1  16  312.26   18.20
  -5   1  15  239.45   14.16
  -5  -1  15  242.16   14.20
  -5   1  15  231.84   16.06
  -5  -1  15  248.46   15.82
   5  -1 -15  219.85   15.67
   5   1 -15  205.33   14.17
   5  -1 -15  221.87   14.25
   5   1 -15  238.10   16.32
  -5   1  14   17.19    1.63
  -5  -1  14   17.83    1.67
   5   1 -14   14.71    2.68
  -5  -1  14   16.85    2.47
   5  -1 -14   18.81    2.59
   5   1 -14   20.11    1.80
   5  -1 -14   17.83    1.75
   5   1 -13    1.72    1.23
   5   1 -13    1.95    0.48
   5  -1 -13    2.51    0.56
  -5   1  13    1.69    0.42
  -5  -1  13    2.48    0.51
  -5  -1  13    2.21    0.95
   5  -1 -13    1.07    0.64
   5   1 -12   12.20    2.42
  -5  -1  12   14.49    2.07
  -5   1  12   12.60    1.24
  -5  -1  12   11.58    1.22
   5  -1 -12   11.25    1.92
   5   1 -12   14.49    1.45
   5  -1 -12   12.38    1.38
  -5   1  11   80.09    5.59
  -5  -1  11   82.92    5.63
   5   1 -11   81.83    7.47
  -5  -1  11   88.40    6.76
   5  -1 -11   85.30    6.83
   5   1 -11   95.59    5.88
   5  -1 -11   95.96    5.91
  -5   1  10   56.47    3.86
  -5  -1  10   56.83    3.88
  -5  -1  10   65.25    5.06
   5  -1 -10   55.95    4.91
   5   1 -10   56.60    3.97
   5  -1 -10   58.41    4.00
   5   1 -10   56.19    5.65
  -5   1   9    0.43    0.21
  -5  -1   9    0.60    0.24
   5   1  -9    0.52    0.26
   5  -1  -9    0.42    0.21
  -5   1   9    0.18    0.48
   5   1  -9   -0.55    0.95
   5  -1  -9    0.49    0.44
  -5  -1   9    0.48    0.53
   5   1  -8   39.07    4.48
   5  -1  -8   41.79    3.02
  -5   1   8   40.70    3.88
  -5   1   8   42.63    2.92
  -5  -1   8   41.39    2.93
   5  -1  -8   40.86    3.74
  -5  -1   8   44.06    3.86
   5   1  -8   43.27    3.01
   5  -1  -7   37.61    2.55
   5   1  -7   32.43    3.96
   5   1  -7   32.20    2.46
  -5   1   7   36.63    3.40
  -5   1   7   33.21    2.37
   5  -1  -7   32.10    3.11
  -5  -1   7   31.56    2.36
  -5  -1   7   34.21    3.21
   5  -1  -6    0.62    0.22
   5   1  -6   -0.27    0.86
  -5   1   6    0.32    0.16
  -5  -1   6    0.54    0.20
  -5   1   6    0.29    0.42
   5   1  -6    0.45    0.22
   5  -1  -6   -0.13    0.34
   5  -1  -5    1.02    0.30
   5   1  -5    1.23    0.32
  -5   1   5    1.09    0.27
  -5  -1   5    1.75    0.33
  -5   1   5    1.41    0.62
   5  -1  -5    0.69    0.43
  -5   1   4   17.02    1.64
   5  -1  -4   17.10    1.44
   5   1  -4   16.41    1.41
   5   1  -4   17.20    2.85
  -5   1   4   15.95    1.85
   5  -1  -4   16.18    1.76
  -5  -1   4   18.36    1.69
  -5   1   3  480.02   31.33
   5  -1  -3  557.34   31.10
   5   1  -3  565.79   31.07
  -5   1   3  539.37   31.75
  -5  -1   3  476.12   31.36
   5   1  -3  547.38   33.89
   5  -1  -3  487.02   31.49
  -5  -1   2  807.34   50.55
  -5   1   2  797.18   50.52
  -5   1   2  923.68   50.72
   5  -1  -2  850.13   50.15
   5   1  -2  878.87   50.13
  -5  -1   1  674.14   43.56
  -5   1   1  701.04   43.56
  -5   1   1  761.28   43.52
   5  -1  -1  746.45   43.09
   5   1  -1  743.40   43.05
   5  -1   0  132.41    8.04
  -5  -1   0  106.42    8.05
  -5   1   0  109.14    8.03
  -5   1   0  124.03    7.80
   5   1   0  126.91    7.94
   5   1   1    4.06    1.60
   5  -1   1    4.14    0.81
   5   1   1    4.46    0.81
  -5  -1  -1    3.09    0.81
  -5   1  -1    3.49    0.84
  -5  -1  -1    3.05    2.04
  -5   1  -1    3.67    0.62
   5   1   2    0.34    1.06
   5   1   2    0.22    0.33
   5  -1   2    0.89    0.53
  -5  -1  -2    1.88    1.47
  -5   1  -2    0.50    0.29
   5   1   3   89.87    6.50
   5  -1   3   97.49    6.78
  -5   1  -3   84.25    5.72
   5  -1   4  224.96   14.21
   5   1   4  205.08   13.84
   5   1   4  209.13   15.12
   5   1   5  302.12   18.80
   5   1   5  259.87   17.61
   5  -1   5  277.16   17.98
   5   1   6   18.79    2.64
  -5  -1  -6   20.68    3.22
  -5  -1  -7    2.12    1.17
   5   1   7    1.53    0.80
  -5  -1  -8   -0.29    0.72
   5  -1   8    0.19    0.60
   5   1   8    0.33    0.45
   5   1   9   18.24    2.19
  -5   1  -9   20.02    1.78
   5  -1   9   15.72    2.44
  -5  -1  -9   22.91    3.16
   5  -1  10    4.08    1.14
  -5  -1 -10    6.26    1.70
   5   1  10    4.25    0.97
  -5   1 -10    4.66    0.78
   5   1  11   36.60    3.19
  -5   1 -11   36.84    2.86
   5  -1  11   30.94    3.22
   5   1  12  116.91    8.20
   5  -1  12  104.28    8.09
  -5   1 -12  132.23    8.01
   5  -1  13  165.74   11.88
   5   1  13  189.31   12.12
  -5   1 -13  207.84   12.06
  -5  -1 -13  212.89   14.02
   5  -1  14   11.40    1.34
   5   1  14   15.05    1.64
  -5   1 -14   13.67    1.55
  -5  -1 -14   15.52    2.62
   5  -1  15   21.80    1.92
   5   1  15   24.83    2.25
  -5   1 -15   24.43    2.28
   5   1  16   12.72    1.56
  -5  -1 -16   17.32    2.90
   5  -1  16   16.35    1.32
  -5   1 -16   13.92    1.71
  -5  -1 -17    1.18    0.98
   5  -1  17    0.87    0.25
   5   1  17    2.17    0.58
  -5  -1 -17    0.38    0.94
  -5   1 -17    0.83    0.50
  -5  -1 -18   40.35    5.09
  -5   1 -18   38.98    3.44
  -5  -1 -18   44.20    4.88
  -5  -1 -19   88.94    7.82
  -5  -1 -19  103.45    8.73
  -5   1 -19   78.94    6.17
  -5  -1 -20   14.28    2.80
  -5   1 -20   15.18    1.94
  -5  -1 -20   17.34    3.20
  -5  -1 -21   -0.32    1.11
  -5  -1 -21    0.38    0.95
  -5   1 -21    0.14    0.44
  -5  -1 -22   -0.31    1.15
  -5  -1 -22   -0.38    1.12
  -5   1 -22    0.15    0.44
  -5  -1 -23    7.38    2.03
  -5   1 -23    9.63    1.59
  -5   1 -24   18.26    2.32
  -5  -1 -24   19.38    3.54
   5  -2 -25    1.85    0.77
   5  -2 -24  162.55   10.82
   5  -2 -23   14.61    1.86
   5  -2 -22   66.28    5.10
   5  -2 -21    0.51    0.55
   5  -2 -21    0.36    0.70
   5   2 -20    0.16    0.10
   5  -2 -20    0.86    0.54
   5  -2 -20   -0.35    0.88
   5   2 -19   -0.04    0.23
   5  -2 -19    0.67    0.83
   5   2 -19    0.13    0.58
   5  -2 -19   -0.13    0.65
   5   2 -18   56.16    4.48
   5  -2 -18   57.31    4.55
   5  -2 -18   58.68    6.01
   5   2 -17    0.07    0.27
  -5   2  17    0.62    0.41
  -5  -2  17    1.79    0.56
  -5  -2  17    0.26    0.81
   5  -2 -17   -0.31    0.84
   5   2 -17    0.12    0.43
   5  -2 -17   -0.12    0.47
   5   2 -16   28.50    2.42
  -5   2  16   24.82    2.30
  -5  -2  16   28.79    2.43
  -5  -2  16   28.49    3.52
   5  -2 -16   22.24    3.39
   5   2 -16   28.61    2.56
   5  -2 -16   28.67    2.60
   5   2 -15    6.52    1.09
  -5   2  15    6.85    0.98
  -5  -2  15    6.33    0.97
   5   2 -15    7.95    1.11
   5  -2 -15    8.03    1.15
  -5  -2  15    8.40    1.74
   5  -2 -15    5.42    1.66
   5   2 -14   57.90    4.46
  -5  -2  14   61.14    5.39
  -5   2  14   57.01    4.15
  -5  -2  14   58.50    4.20
   5  -2 -14   53.54    5.55
   5   2 -14   61.22    4.36
   5  -2 -14   61.22    4.39
   5  -2 -13    2.66    0.62
   5   2 -13    1.54    0.65
   5   2 -13    1.58    0.52
   5  -2 -13    0.77    0.86
  -5  -2  13    1.90    0.94
  -5   2  13    1.64    0.46
  -5  -2  13    1.45    0.45
  -5   2  12    3.11    0.61
   5  -2 -12    3.24    0.64
   5   2 -12    3.15    0.90
  -5  -2  12    3.09    0.62
   5   2 -12    3.53    0.67
   5  -2 -12    1.21    0.87
  -5  -2  12    4.14    1.17
  -5  -2  11    3.94    0.71
   5   2 -11    5.56    1.14
   5   2 -11    5.13    0.81
   5  -2 -11    4.85    0.82
  -5   2  11    5.05    0.73
   5  -2 -11    3.88    1.27
  -5  -2  11    4.19    1.17
  -5   2  10  641.01   38.95
  -5  -2  10  627.52   38.97
   5  -2 -10  553.40   40.27
  -5  -2  10  608.89   40.16
   5   2 -10  758.56   39.36
   5  -2 -10  775.53   39.45
   5   2 -10  596.78   39.68
   5   2  -9   38.23    3.57
   5  -2  -9   32.17    3.75
  -5   2   9   41.01    2.90
  -5  -2   9   43.29    2.96
  -5  -2   9   39.87    3.89
   5   2  -9   41.04    3.01
   5  -2  -9   41.99    3.05
   5  -2  -8  707.93   44.68
  -5   2   8  702.34   43.26
  -5  -2   8  757.51   43.34
   5   2  -8  756.70   43.41
   5  -2  -8  745.85   43.45
   5   2  -8  712.47   44.29
  -5   2   7    1.98    0.46
   5   2  -7    2.27    0.89
  -5  -2   7    2.44    0.47
   5   2  -7    1.68    0.42
   5  -2  -7    2.51    0.47
   5  -2  -7    2.53    0.84
  -5   2   6    0.17    0.30
   5   2  -6    0.93    0.62
  -5   2   6    0.51    0.23
   5  -2  -6    0.93    0.57
   5   2  -6    0.05    0.21
   5  -2  -6   -0.05    0.23
   5  -2  -5    0.26    0.25
   5   2  -5    0.35    0.26
  -5  -2   5    0.27    0.34
  -5   2   5    0.17    0.29
   5   2  -5    0.16    0.51
   5  -2  -5   -0.14    0.38
  -5  -2   4  181.62   11.51
  -5   2   4  171.05   11.40
   5  -2  -4  189.23   11.14
  -5  -2   4  190.42   14.23
   5  -2  -4  164.65   11.78
   5   2  -4  189.63   12.38
   5   2  -4  184.69   11.08
  -5  -2   3   17.84    1.87
  -5   2   3   14.91    1.75
  -5  -2   3   19.05    3.40
   5  -2  -3   20.58    1.58
   5   2  -3   20.07    1.54
   5  -2  -3   17.23    1.91
   5   2  -3   18.98    2.40
   5   2  -2   87.17    6.47
  -5  -2   2   78.03    5.60
  -5   2   2   72.25    5.49
   5  -2  -2   77.60    5.04
   5   2  -2   84.49    5.03
  -5  -2   2   71.50    7.44
   5  -2  -2   70.23    5.41
   5   2  -1    0.19    0.52
  -5  -2   1    0.24    0.40
  -5   2   1    1.11    0.49
  -5  -2   1    0.35    0.87
   5  -2  -1    1.13    0.28
   5   2  -1    1.45    0.31
   5  -2  -1    0.95    0.41
  -5  -2   0   28.65    2.97
   5  -2   0   30.70    2.50
   5  -2   0   34.07    2.39
   5   2   0   34.40    2.35
  -5  -2   0   34.97    4.37
  -5  -2  -1    2.51    1.21
   5   2   1    2.12    0.60
   5  -2   1    2.73    0.65
   5   2   2   24.87    2.27
   5  -2   2   26.93    2.42
  -5  -2  -2   25.65    3.60
   5   2   3    4.86    1.24
   5   2   3    3.27    0.76
   5  -2   3    4.06    0.89
  -5  -2  -3    2.86    1.24
   5   2   4  363.08   21.65
   5   2   4  332.12   20.82
   5  -2   4  344.23   21.10
  -5  -2  -4  295.12   22.09
   5   2   5   28.35    3.13
   5  -2   5   35.98    3.34
   5   2   5   27.40    2.82
  -5  -2  -5   27.46    3.59
   5   2   6  728.18   46.51
   5   2   6  753.39   46.26
   5  -2   6  837.97   46.94
   5   2   7    2.63    0.88
   5   2   7    2.54    0.86
   5   2   8   18.21    2.24
  -5  -2  -9    5.91    1.63
   5   2   9    7.76    1.35
   5   2  10   37.15    3.40
  -5  -2 -10   38.98    4.31
   5   2  11   14.47    1.80
  -5  -2 -11   12.17    2.29
   5   2  12  181.13   11.25
  -5  -2 -12  203.73   12.89
   5  -2  13    2.54    0.78
   5   2  13    3.59    0.84
  -5  -2 -13    2.10    1.06
   5   2  14    0.12    0.43
   5  -2  14    0.23    0.34
  -5  -2 -14    0.27    0.66
  -5  -2 -15    0.27    0.79
   5  -2  15    0.49    0.22
   5   2  15    0.46    0.38
  -5  -2 -16   26.25    3.51
  -5  -2 -17    1.71    1.23
   5  -2  17    3.15    0.87
   5   2  17    2.15    0.71
  -5  -2 -18    0.30    1.03
  -5  -2 -19    2.47    1.42
  -5  -2 -19    3.61    1.98
  -5  -2 -20   52.32    6.60
  -5  -2 -20   47.05    5.40
  -5  -2 -21    0.52    1.63
  -5  -2 -21    1.03    1.36
  -5  -2 -22   23.42    3.77
  -5  -2 -23    0.74    1.09
  -5  -2 -24    0.78    1.61
   5  -3 -20    0.34    0.63
   5  -3 -19    2.70    0.94
   5  -3 -18   50.14    4.34
   5  -3 -18   44.25    5.49
   5  -3 -17   55.65    4.51
  -5  -3  17   50.28    3.88
   5  -3 -17   46.04    5.60
   5   3 -16  341.63   20.76
   5  -3 -16  367.83   21.93
  -5   3  16  353.08   21.15
  -5  -3  16  366.11   21.27
   5  -3 -16  281.36   23.18
   5   3 -15   53.33    3.68
  -5   3  15   53.81    3.91
   5   3 -15   57.38    4.20
  -5  -3  15   52.22    3.94
   5  -3 -15   55.12    4.24
   5  -3 -15   42.86    5.39
  -5  -3  15   54.33    5.17
   5   3 -14   19.17    1.74
  -5  -3  14   19.91    1.87
   5   3 -14   22.52    2.12
   5  -3 -14   22.10    2.15
  -5   3  14   19.66    1.84
  -5  -3  14   19.14    2.76
   5  -3 -14   16.27    2.93
   5  -3 -13   -0.10    0.56
   5   3 -13    0.19    0.42
   5   3 -13    0.43    0.35
  -5   3  13   -0.07    0.36
  -5  -3  13    0.43    0.38
   5  -3 -13    0.30    0.67
  -5  -3  13    0.66    0.77
   5   3 -12    7.71    1.08
   5   3 -12    8.41    1.13
   5  -3 -12    8.54    1.17
  -5   3  12    8.93    1.02
  -5  -3  12    9.52    1.08
   5  -3 -12    8.61    1.92
  -5  -3  12    6.84    1.57
   5   3 -11   16.14    1.75
   5  -3 -11   17.38    2.79
   5   3 -11   18.89    1.77
   5  -3 -11   20.40    1.85
  -5  -3  11   20.61    2.65
  -5   3  11   20.32    1.67
  -5  -3  11   18.69    1.67
   5   3 -10   65.69    4.57
   5  -3 -10   49.14    5.43
   5   3 -10   64.27    4.36
   5  -3 -10   60.60    4.36
  -5   3  10   61.96    4.20
  -5  -3  10   64.79    4.27
  -5  -3   9    0.11    0.24
   5   3  -9    0.06    0.25
   5  -3  -9   -0.14    0.30
   5   3  -9    0.10    0.35
  -5   3   9    0.86    0.31
   5  -3  -9    0.24    0.59
   5   3  -8   34.84    3.03
  -5   3   8   37.01    3.01
   5  -3  -8   28.24    3.64
   5   3  -8   40.62    2.80
   5  -3  -8   38.17    2.81
  -5  -3   8   37.59    3.11
  -5  -3   7    8.34    1.20
  -5   3   7    8.56    1.16
  -5  -3   7    8.71    2.39
   5   3  -7    7.30    1.20
   5   3  -7   10.53    1.10
   5  -3  -7   12.74    1.24
   5  -3  -7    8.93    1.74
  -5  -3   6    0.78    1.29
  -5   3   6   -0.09    0.38
   5   3  -6    0.44    0.52
  -5  -3   6    0.10    0.38
   5   3  -6    0.15    0.18
   5  -3  -6    0.21    0.21
   5  -3  -6    0.93    0.71
  -5  -3   5    2.37    1.52
  -5  -3   5    3.30    0.78
  -5   3   5    2.65    0.66
   5   3  -5    2.56    0.75
   5   3  -5    2.63    0.48
   5  -3  -5    3.15    0.51
   5  -3  -5    1.68    0.83
   5   3  -4   23.53    2.46
  -5  -3   4   23.79    2.41
  -5   3   4   30.41    2.47
  -5  -3   4   21.09    3.73
   5  -3  -4   23.84    2.64
   5   3  -4   27.02    1.92
   5  -3  -4   25.55    1.94
   5   3  -3   93.32    5.70
   5  -3  -3   92.15    5.74
   5   3  -3   87.67    6.49
  -5  -3   3   92.32    6.53
  -5   3   3   90.09    6.31
   5  -3  -3   77.73    6.39
  -5  -3   3   91.25    8.46
   5   3  -2  673.58   40.72
   5   3  -2  700.02   39.71
   5  -3  -2  700.76   39.77
   5  -3  -2  556.17   40.31
  -5  -3   2  682.20   43.06
   5   3  -1  183.98   11.53
  -5  -3   1  177.83   13.42
   5  -3  -1  182.14   10.48
   5   3  -1  173.80   10.41
   5  -3  -1  140.95   10.84
   5  -3   0   62.78    3.92
   5   3   0   66.08    4.93
   5   3   0   59.75    3.84
   5  -3   0   49.31    4.12
  -5  -3   0   64.91    6.35
  -5  -3  -1   -0.32    0.86
   5   3   1    0.45    0.66
   5  -3   1    0.26    0.21
   5   3   1    0.26    0.17
   5  -3   1    0.44    0.33
  -5  -3  -2    0.31    0.91
   5   3   2    0.15    0.51
   5  -3   2    0.14    0.25
   5   3   2    0.04    0.25
   5  -3   2    0.18    0.21
  -5  -3  -3   32.30    4.10
   5   3   3   30.54    2.54
   5  -3   3   31.42    2.68
   5   3   4  243.63   14.89
   5  -3   4  239.29   15.09
  -5  -3  -4  229.16   16.94
   5   3   5   15.42    1.70
   5  -3   5   18.63    2.06
  -5  -3  -5   16.84    2.91
   5   3   6    7.46    1.16
  -5  -3  -6    6.23    1.81
   5  -3   6    7.29    1.34
   5   3   6    5.86    1.26
   5  -3   7    1.91    0.85
  -5  -3  -7    1.76    1.08
   5   3   7    1.12    0.62
   5   3   7    1.57    0.70
   5   3   8    1.69    0.70
   5   3   8    0.42    0.44
   5  -3   8    0.45    0.75
   5   3   9    8.49    1.49
   5   3   9    8.37    1.45
   5  -3   9   11.66    2.26
   5   3  10    7.65    1.43
   5   3  10    8.65    1.56
  -5  -3 -11    2.51    1.17
   5   3  11    3.05    0.87
   5  -3  12  147.41    8.91
   5   3  12  134.81    9.68
  -5  -3 -12  135.64   10.89
   5  -3  13   39.30    2.76
   5  -3  13   32.77    3.15
   5   3  13   43.84    3.34
  -5  -3 -13   43.34    4.61
   5  -3  14   13.88    1.19
  -5  -3 -14   12.29    2.46
   5  -3  14   11.51    1.62
   5   3  14   17.67    1.85
  -5  -3 -15    1.36    0.95
   5  -3  15    0.96    0.63
   5   3  15    0.93    0.64
  -5  -3 -16   16.56    2.82
   5  -3  16   19.93    2.23
  -5  -3 -17    0.27    0.79
  -5  -3 -18   45.35    4.87
  -5  -3 -19   17.12    2.74
  -5  -3 -20   18.62    2.90
   5  -4 -15   35.74    4.88
  -5   4  14    3.38    0.66
   5  -4 -14    1.49    1.25
  -5   4  13    0.87    0.55
   5  -4 -13    0.36    1.04
  -5   4  12   -0.10    0.51
   5  -4 -12    0.34    1.06
  -5   4  11   27.71    2.48
   5  -4 -11   28.61    3.05
   5  -4 -11   25.50    3.78
  -5   4  10   36.43    3.12
   5   4 -10   40.94    3.14
   5  -4 -10   46.15    3.94
   5  -4 -10   38.75    4.63
  -5   4   9  368.25   23.88
   5   4  -9  375.09   23.90
   5  -4  -9  464.41   25.00
   5  -4  -9  411.77   23.76
   5  -4  -9  381.95   25.79
  -5  -4   8   26.04    2.66
  -5   4   8   24.76    2.43
  -5  -4   8   29.81    5.17
   5  -4  -8   37.71    3.31
   5   4  -8   28.98    2.57
   5   4  -8   29.38    2.24
   5  -4  -8   31.03    3.72
   5  -4  -8   34.34    2.42
  -5  -4   7   36.95    3.29
   5   4  -7   38.17    3.09
  -5   4   7   33.78    2.96
  -5  -4   7   29.46    5.20
   5  -4  -7   30.04    3.77
   5   4  -7   38.17    2.66
   5  -4  -7   41.38    2.78
   5   4  -6    0.30    0.27
   5  -4  -6    0.29    0.27
   5   4  -6    0.10    0.34
  -5  -4   6    0.13    0.72
  -5   4   6    0.95    0.44
   5  -4  -6    0.22    0.72
  -5  -4   6   -0.51    1.50
   5   4  -5    2.95    0.46
   5  -4  -5    3.47    0.51
  -5  -4   5    2.46    1.81
   5   4  -5    3.25    0.78
   5  -4  -5    2.36    0.94
   5   4  -4   10.71    1.44
  -5  -4   4    8.42    2.50
   5   4  -4   10.41    0.90
   5  -4  -4   10.92    0.96
   5  -4  -4    9.54    1.71
   5   4  -3  104.08    7.12
  -5  -4   3  108.06    9.99
   5  -4  -3   89.85    7.32
   5   4  -3  101.48    6.24
   5  -4  -3  104.94    6.31
  -5  -4   2    4.77    2.15
   5   4  -2    7.37    1.24
   5   4  -2    8.45    0.73
   5  -4  -2    9.21    0.79
   5  -4  -2    7.07    1.32
  -5  -4   1    5.41    2.04
   5   4  -1    4.84    1.02
   5   4  -1    6.25    0.60
   5  -4  -1    6.80    0.61
   5  -4  -1    4.49    0.97
  -5  -4   0    1.60    1.18
   5   4   0    2.47    0.73
   5  -4   0    2.23    0.33
   5  -4   0    1.85    0.58
   5   4   0    2.54    0.33
  -5  -4  -1    1.96    1.44
   5   4   1    1.22    0.62
   5   4   1    0.67    0.22
   5  -4   1    0.46    0.33
   5  -4   1    0.78    0.22
   5  -4   2    2.40    0.35
  -5  -4  -2    3.87    1.61
   5   4   2    3.22    0.87
   5   4   2    2.73    0.35
   5  -4   2    1.55    0.43
  -5  -4  -3    0.38    1.04
   5  -4   3    0.68    0.22
   5   4   3    0.80    0.23
   5  -4   3    0.49    0.21
  -5  -4  -4   26.03    4.13
   5  -4   4   30.88    2.77
   5  -4   4   30.07    2.07
   5   4   4   28.99    1.99
   5  -4   5  300.60   17.25
  -5  -4  -5  265.62   19.51
   5  -4   5  295.43   16.40
   5   4   5  254.61   16.23
   5  -4   6   25.47    2.53
  -5  -4  -6   25.58    3.94
   5   4   6   28.91    2.13
   5  -4   6   29.01    2.11
   5   4   6   25.41    1.90
   5  -4   7   50.73    3.74
   5  -4   7   42.65    3.45
   5  -4   7   35.13    2.91
   5   4   7   47.04    3.06
  -5  -4  -7   38.50    4.97
   5   4   7   38.20    3.01
   5   4   8    4.03    0.77
   5  -4   8    8.20    1.46
  -5  -4  -8    5.31    1.94
   5  -4   8    6.10    1.08
   5   4   8    5.79    0.82
   5  -4   8    4.99    0.78
   5   4   9    0.93    0.39
   5   4   9    1.46    0.53
   5  -4   9    2.01    1.04
  -5  -4  -9   -0.35    0.86
   5  -4   9    1.24    0.53
   5   4  10    4.01    0.71
   5   4  10    1.68    0.65
   5  -4  10    3.63    1.44
   5  -4  10    3.76    0.84
   5  -4  11  111.72    7.56
   5   4  11   94.17    7.52
   5   4  11  114.05    7.32
  -5  -4 -12   17.99    3.34
   5   4  12   21.15    2.39
   5   4  12   23.24    2.08
  -5  -4 -13   13.15    2.81
   5   4  13   11.65    1.78
   5   4  13   15.64    1.59
   5   4  14   -0.54    0.52
   5   4  14   -0.16    0.65
   5   4  15   -0.17    0.67
   5   4  16    4.10    1.23
   5  -5 -11   34.51    4.63
   5  -5 -10    2.71    1.36
   5  -5  -9    0.64    0.86
  -5  -5   8    5.33    2.66
   5  -5  -8    1.18    0.93
  -5  -5   7   21.80    4.96
  -5  -5   6   -0.64    2.00
  -5  -5   5    8.55    3.14
   5  -5  -4    0.83    0.80
  -5  -5   4   -0.59    1.59
   5  -5  -3  142.07   10.14
  -5  -5   3  128.61   12.75
   5  -5  -2   26.59    3.13
  -5  -5   2   22.55    4.75
   5  -5  -1  209.05   13.45
  -5  -5   1  163.32   15.57
  -5  -5   0    8.70    2.97
   5  -5   0   13.68    2.16
  -5  -5  -1    0.99    1.35
   5  -5   1    1.66    0.94
  -5  -5  -2    1.47    1.53
   5  -5   2    0.90    0.80
   5  -5   3   41.58    3.94
  -5  -5  -3   40.12    5.81
   5  -5   4    6.74    1.41
   5  -5   5   56.03    4.85
   5  -5   6    0.34    0.64
   6   0 -22   10.68    1.57
   6   0 -21   -0.80    0.61
   6   0 -20   19.40    2.10
   6   0 -19    1.95    0.63
   6   0 -18  268.83   16.82
   6   0 -17    0.61    0.39
  -6   0  17    1.88    0.52
  -6   0  17    0.54    0.90
   6   0 -16    2.42    0.63
  -6   0  16    3.62    1.29
  -6   0  16    2.79    0.60
   6   0 -15   -0.09    0.23
  -6   0  15   -0.25    0.68
  -6   0  15    0.22    0.26
  -6   0  14    8.18    1.00
   6   0 -14    9.81    1.23
  -6   0  14    9.54    1.89
   6   0 -13    0.10    0.29
  -6   0  13   -0.21    0.58
  -6   0  13    0.06    0.19
  -6   0  12    0.24    0.22
   6   0 -12    0.23    0.24
  -6   0  11    0.22    0.17
   6   0 -11    0.07    0.14
  -6   0  11    0.58    0.68
  -6   0  10  546.14   34.90
  -6   0  10  615.26   36.40
   6   0 -10  646.57   35.18
  -6   0   9    0.49    0.23
   6   0  -9    0.60    0.28
   6   0  -8   31.56    2.32
  -6   0   8   25.41    2.03
   6   0  -7    0.43    0.23
  -6   0   7    0.09    0.14
   6   0  -6   46.93    3.14
  -6   0   6   39.67    2.91
  -6   0   5    0.34    0.34
   6   0  -5    0.24    0.20
   6   0  -4  856.35   48.18
  -6   0   4  922.02   49.17
  -6   0   3   -0.09    0.20
   6   0  -3    0.33    0.21
  -6   0   2  120.59    8.56
   6   0  -2  136.29    8.18
  -6   0   1    0.33    0.32
   6   0  -1    0.34    0.21
   6   0   0    0.67    0.37
  -6   0   0    0.87    0.42
   6   0   1    0.48    0.38
  -6   0  -1    0.14    0.37
   6   0   2   88.91    6.59
   6   0   3   -0.28    0.76
   6   0   3   -0.16    0.44
   6   0   4   66.66    6.97
   6   0   4   86.61    6.44
   6   0   5   -0.19    0.56
   6   0   5    0.35    0.94
   6   0   6   33.12    3.47
   6   0   6   29.78    4.19
   6   0   7    0.32    0.94
   6   0   8  261.06   17.93
   6   0   9    0.23    0.63
   6   0  10  167.24   11.63
   6   0  11    0.16    0.57
   6   0  12   57.12    4.68
   6   0  13    0.13    0.42
   6   0  14   16.02    1.86
   6   0  15    0.96    0.50
  -6   0 -15    0.51    0.75
   6   0  16   37.37    3.25
  -6   0 -16   53.99    4.84
   6   0  17    0.09    0.27
  -6   0 -17    0.76    0.88
   6   0  18   22.06    2.10
  -6   0 -18   32.35    3.58
   6   0  19    0.08    0.30
  -6   0 -19   -0.24    0.76
  -6   0 -20   31.68    3.73
  -6   0 -21   -0.25    0.79
  -6   0 -22  184.27   13.23
  -6   0 -23    0.24    0.76
  -6   0 -24   -0.25    0.73
  -6   0 -25   -0.25    0.69
  -6   0 -26    5.56    1.54
   6  -1 -24    7.78    1.15
   6  -1 -23    0.66    0.43
   6   1 -22    0.70    0.64
   6  -1 -22    0.72    0.57
   6   1 -21    3.29    1.38
   6   1 -21    1.64    0.70
   6  -1 -21    1.97    0.77
   6   1 -20    5.01    1.60
   6  -1 -20    5.85    1.69
   6   1 -20    4.77    1.04
   6  -1 -20    4.91    1.06
   6  -1 -19    3.83    1.42
   6   1 -19    9.98    2.27
   6   1 -19    9.05    1.31
   6  -1 -19    8.95    1.31
   6   1 -18  119.61    8.24
   6  -1 -18  122.69    8.30
   6  -1 -18  123.69    9.79
   6   1 -18  126.46   10.02
  -6   1  17  141.84    9.10
  -6  -1  17  144.06    9.15
  -6  -1  17  156.50   11.08
   6  -1 -17  134.53   10.73
   6   1 -17  143.48    9.30
   6  -1 -17  131.61    9.26
   6   1 -17  134.04   10.97
  -6   1  16  150.51   10.09
  -6  -1  16  162.63   10.17
   6   1 -16  160.87   12.36
  -6  -1  16  162.95   11.84
   6  -1 -16  159.82   11.84
   6   1 -16  167.71   10.38
   6  -1 -16  158.82   10.35
   6   1 -15   10.41    2.32
  -6   1  15   10.36    1.19
  -6  -1  15    9.89    1.20
   6   1 -15   11.31    1.31
   6  -1 -15    9.79    1.28
  -6  -1  15   11.36    2.14
   6  -1 -15    7.83    1.79
   6   1 -14    5.93    1.85
  -6   1  14    5.36    0.80
  -6  -1  14    5.70    0.86
   6   1 -14    6.24    0.93
   6  -1 -14    5.56    0.90
  -6  -1  14    4.19    1.33
   6  -1 -14    5.11    1.40
  -6  -1  13    5.02    0.82
  -6   1  13    6.80    0.89
   6   1 -13    4.65    1.81
   6   1 -13   10.65    1.27
   6  -1 -13    9.24    1.21
  -6  -1  13    6.63    1.58
   6  -1 -13    7.69    1.62
  -6   1  12  106.40    7.17
  -6  -1  12  111.41    7.21
  -6  -1  12  122.00    8.73
   6  -1 -12  108.85    8.50
   6   1 -12  106.26    9.44
   6   1 -12  116.72    7.42
   6  -1 -12  118.33    7.45
  -6   1  11  190.99   13.06
  -6   1  11  174.95   11.44
  -6  -1  11  182.37   11.49
  -6  -1  11  196.83   12.96
   6  -1 -11  190.17   12.87
   6   1 -11  194.20   11.67
   6  -1 -11  194.46   11.69
   6   1 -11  177.72   13.95
  -6   1  10  228.69   15.01
  -6   1  10  206.87   13.42
  -6  -1  10  207.14   13.43
  -6  -1  10  233.92   14.88
   6   1 -10  208.41   15.95
   6  -1 -10  224.18   14.80
   6   1 -10  240.75   13.67
   6  -1 -10  234.76   13.68
   6   1  -9   13.36    2.69
   6  -1  -9   14.39    1.38
  -6   1   9   14.88    2.13
  -6  -1   9   16.37    2.17
  -6   1   9   11.85    1.19
  -6  -1   9   13.15    1.25
   6  -1  -9   16.15    2.06
   6   1  -9   14.24    1.36
   6   1  -8    0.32    0.79
   6  -1  -8    0.16    0.45
  -6   1   8    0.05    0.13
  -6  -1   8    0.15    0.18
  -6   1   8    0.18    0.49
   6   1  -8    0.07    0.19
  -6  -1   8    0.34    0.53
   6  -1  -8   -0.13    0.22
   6  -1  -7   12.46    1.24
   6   1  -7   12.88    1.24
   6   1  -7   11.19    2.40
  -6   1   7   11.86    1.80
   6  -1  -7   10.21    1.57
  -6  -1   7   17.53    2.09
  -6   1   7   11.60    1.11
  -6  -1   7   12.06    1.14
   6  -1  -6   51.99    3.62
   6   1  -6   55.83    3.63
   6   1  -6   52.64    5.55
  -6   1   6   50.85    4.37
   6  -1  -6   50.17    4.22
  -6   1   6   51.42    3.48
  -6  -1   6   47.57    3.46
  -6   1   5    1.88    0.55
   6   1  -5    0.97    1.02
   6  -1  -5    2.03    0.46
   6   1  -5    2.54    0.48
  -6   1   5    1.68    0.65
  -6  -1   5    1.75    0.51
  -6  -1   4   37.56    3.17
  -6   1   4   42.49    3.25
   6  -1  -4   41.84    2.93
   6   1  -4   37.38    2.85
  -6   1   4   44.00    3.61
   6   1  -4   44.03    4.99
  -6  -1   3  158.67   10.42
  -6   1   3  144.77   10.32
   6   1  -3  165.42   12.65
   6  -1  -3  167.25   10.05
   6   1  -3  165.47   10.01
  -6   1   3  168.61   10.73
  -6  -1   2  181.68   12.33
  -6   1   2  187.04   12.33
  -6   1   2  204.64   12.48
   6  -1  -2  201.68   11.85
   6   1  -2  188.95   11.78
  -6  -1   1    1.68    0.63
  -6   1   1    1.28    0.51
   6  -1  -1    1.60    0.40
  -6   1   1    1.40    0.57
  -6   1   0  116.05    8.45
  -6  -1   0  109.71    8.43
  -6   1   0  134.67    8.23
   6  -1   0  131.34    8.45
   6   1   0  124.45    8.31
   6   1   1   72.73    4.95
  -6  -1  -1   58.90    5.07
   6  -1   1   68.13    4.98
  -6   1  -1   69.15    4.62
   6   1   1   78.35    7.25
   6   1   2   27.83    2.79
   6  -1   2   32.14    3.02
  -6   1  -2   31.29    2.54
   6  -1   3  335.87   20.35
   6   1   3  318.96   19.99
  -6   1  -3  301.62   19.33
   6   1   4  421.82   26.44
   6  -1   4  420.50   26.70
   6   1   4  444.17   28.63
   6  -1   5   48.75    4.46
   6   1   5   44.30    4.15
   6   1   5   46.22    5.19
  -6  -1  -6    1.22    1.35
   6   1   6    2.38    0.96
   6  -1   6    1.71    0.96
  -6  -1  -7    0.76    1.12
   6   1   7    2.04    1.02
   6   1   7    3.29    0.97
   6  -1   7    1.56    0.83
  -6  -1  -8   16.34    2.93
   6   1   8   10.84    1.93
   6   1   9   42.33    4.03
  -6  -1  -9   43.20    5.06
   6  -1   9   36.06    4.11
   6   1  10   19.66    2.48
   6  -1  10   19.79    2.81
  -6  -1 -10   26.68    3.73
  -6  -1 -11   -0.33    1.15
   6  -1  11    0.59    0.57
   6   1  11    0.16    0.49
  -6   1 -11    0.09    0.33
  -6  -1 -12    0.33    1.14
   6  -1  12    0.16    0.48
   6   1  12   -0.14    0.47
  -6   1 -12    0.09    0.34
  -6  -1 -13   12.92    2.57
   6  -1  13    8.52    1.43
  -6   1 -13   12.16    1.38
   6   1  13    9.74    1.51
  -6   1 -14  127.02    7.75
   6   1  14  112.30    7.86
   6  -1  14   99.77    7.67
  -6  -1 -14  122.99    9.79
   6  -1  15   83.20    6.39
   6   1  15   94.63    6.68
  -6   1 -15  105.11    6.70
  -6  -1 -15  111.33    8.83
   6  -1  16   19.19    1.91
   6   1  16   20.40    2.15
  -6  -1 -16   20.73    3.34
  -6   1 -16   26.64    2.33
   6   1  17    7.44    1.20
   6  -1  17    9.42    1.06
  -6  -1 -17    8.78    2.13
  -6   1 -17    8.89    1.32
   6  -1  18   44.14    3.16
   6   1  18   46.85    3.70
  -6  -1 -18   48.77    5.79
  -6   1 -18   51.30    3.93
  -6  -1 -18   44.97    5.22
  -6   1 -19    8.69    1.41
  -6  -1 -19    8.87    2.54
  -6  -1 -19   11.15    2.52
  -6  -1 -20    0.33    0.96
  -6  -1 -20    2.05    1.28
  -6   1 -20    1.47    0.65
  -6  -1 -21    9.10    2.19
  -6  -1 -21   12.23    2.79
  -6   1 -21    8.35    1.43
  -6  -1 -22    1.62    1.35
  -6   1 -22    1.29    0.64
  -6  -1 -23   10.43    2.58
  -6   1 -23    6.36    1.30
  -6  -1 -24   28.69    4.41
   6  -2 -24    6.97    1.30
   6  -2 -23   99.50    7.17
   6  -2 -22    0.41    0.65
   6  -2 -20    0.15    0.82
   6  -2 -20    1.02    0.92
   6   2 -20   -0.28    0.69
   6   2 -19  133.35    8.61
   6   2 -19  130.46    9.05
   6  -2 -19  135.94    9.19
   6  -2 -19  124.26   10.63
   6  -2 -18    5.49    1.17
   6   2 -18    6.38    1.08
   6   2 -18    4.96    1.06
   6  -2 -18    5.69    1.74
   6   2 -17   78.79    5.70
   6  -2 -17   68.60    6.85
   6   2 -17   77.29    5.57
   6  -2 -17   75.60    5.61
  -6   2  16    3.36    0.69
  -6  -2  16    2.32    0.62
   6   2 -16    3.32    0.79
   6  -2 -16    3.53    0.83
   6   2 -16    3.05    0.93
  -6  -2  16    3.15    1.31
   6  -2 -16    2.91    1.22
  -6   2  15    0.08    0.35
   6   2 -15    0.20    0.38
  -6  -2  15    0.08    0.28
   6  -2 -15    0.21    0.33
   6   2 -15   -0.32    0.58
  -6  -2  15    0.50    0.83
   6  -2 -15   -0.28    0.75
   6   2 -14    0.09    0.36
   6  -2 -14    0.10    0.33
  -6   2  14    0.08    0.29
   6   2 -14    0.34    0.62
  -6  -2  14    0.16    0.35
  -6  -2  14    0.24    0.69
   6  -2 -14    0.79    0.77
  -6   2  13   30.77    2.57
  -6  -2  13   38.76    2.75
   6  -2 -13   25.69    3.49
  -6  -2  13   34.64    3.75
   6   2 -13   32.18    2.73
   6  -2 -13   33.81    2.80
   6   2 -13   31.15    3.35
   6   2 -12    0.18    0.68
   6   2 -12    0.62    0.41
   6  -2 -12    0.48    0.37
  -6   2  12   -0.07    0.26
  -6  -2  12    0.14    0.30
   6  -2 -12    0.24    0.70
  -6  -2  12    0.22    0.59
   6  -2 -11  159.88   12.36
  -6  -2  11  169.46   12.33
  -6   2  11  167.63   10.91
  -6  -2  11  173.72   11.00
   6   2 -11  164.75   12.05
   6   2 -11  197.28   11.40
   6  -2 -11  194.89   11.36
   6  -2 -10   26.35    3.16
  -6  -2  10   29.10    3.20
  -6   2  10   24.82    2.07
  -6  -2  10   25.78    2.13
   6   2 -10   29.06    2.28
   6  -2 -10   25.84    2.23
   6   2 -10   28.14    3.08
   6   2  -9  217.00   15.42
  -6   2   9  270.24   16.63
   6  -2  -9  214.31   15.45
  -6  -2   9  253.75   15.79
  -6   2   9  216.00   14.14
  -6  -2   9  239.33   14.24
   6   2  -9  240.69   14.32
   6  -2  -9  238.45   14.36
  -6  -2   8    0.12    0.29
   6   2  -8   -0.39    0.67
  -6   2   8    0.25    0.72
   6   2  -8    0.25    0.26
   6  -2  -8    0.40    0.31
  -6   2   8    0.79    0.35
   6  -2  -8    0.18    0.44
   6   2  -7   37.15    2.69
   6  -2  -7   37.78    2.73
   6   2  -7   36.12    3.67
  -6   2   7   37.23    3.95
   6  -2  -7   29.78    3.28
  -6  -2   7   33.51    3.02
  -6   2   7   32.83    2.93
   6   2  -6    0.97    0.37
   6  -2  -6    0.78    0.32
  -6  -2   6    0.63    0.41
  -6   2   6    0.20    0.39
   6   2  -6    0.79    0.69
  -6   2   6    0.85    0.78
   6  -2  -6    0.30    0.55
  -6  -2   5  139.42    9.82
  -6   2   5  145.99    9.76
   6  -2  -5  165.64    9.48
  -6   2   5  150.36   10.73
   6   2  -5  155.95    9.39
   6  -2  -5  129.49   10.00
   6   2  -5  153.41   10.82
  -6  -2   4   17.30    1.90
   6  -2  -4   18.70    1.57
   6   2  -4   17.39    1.51
  -6   2   4   15.76    2.23
   6  -2  -4   17.04    1.95
  -6   2   4   15.59    1.79
   6   2  -4   15.45    2.35
  -6  -2   3  411.10   26.24
  -6   2   3  420.13   26.17
   6  -2  -3  435.56   25.65
   6   2  -3  452.73   25.62
  -6   2   3  452.77   26.81
   6  -2  -3  380.16   26.06
   6   2  -3  451.25   27.41
  -6  -2   2   -0.44    1.08
   6  -2  -2    0.06    0.21
   6   2  -2    0.31    0.23
   6   2  -2   -0.22    0.79
  -6  -2   2   -0.13    0.46
   6  -2  -2   -0.09    0.31
  -6   2   2    0.25    0.45
  -6   2   2    0.43    0.44
  -6  -2   1   -0.43    1.18
   6   2  -1   -0.24    0.64
  -6  -2   1    0.14    0.48
  -6   2   1    0.13    0.53
  -6   2   1   -0.12    0.43
   6  -2  -1    0.06    0.22
   6   2  -1    0.05    0.22
   6  -2   0    0.69    0.29
  -6  -2   0    1.72    1.43
   6   2   0    0.68    0.30
  -6   2   0    0.73    0.49
   6   2   1   80.13    5.59
   6  -2   1   81.13    5.73
   6   2   2   13.23    1.54
   6  -2   2   11.82    1.59
  -6  -2  -2   12.40    2.82
  -6  -2  -3    0.39    0.95
   6   2   3   -0.12    0.40
   6  -2   3   -0.14    0.52
   6   2   3   -0.25    0.62
   6   2   4   10.06    1.48
  -6  -2  -4    8.98    2.31
   6   2   4   11.74    2.11
   6  -2   4   10.35    1.63
   6   2   5   67.09    5.69
   6   2   5   56.26    4.71
   6  -2   5   63.00    5.14
  -6  -2  -5   49.11    6.03
   6   2   6    8.55    1.80
   6   2   6    6.57    1.33
   6  -2   6    8.58    1.69
   6   2   7  258.07   18.19
   6   2   7  275.58   17.96
   6  -2   7  305.19   18.68
  -6  -2  -8    6.47    1.92
   6   2   8    7.50    1.63
   6   2   8    4.87    1.33
   6  -2   8    7.02    1.67
  -6  -2  -9    3.04    1.41
   6   2   9    1.83    0.89
  -6  -2 -10   11.46    2.44
   6   2  10    8.02    1.54
   6   2  11  232.30   15.37
  -6  -2 -11  242.00   17.15
   6  -2  12    1.15    0.77
  -6  -2 -12    1.01    1.12
   6   2  12    1.79    0.74
   6  -2  13    4.21    1.15
  -6  -2 -13    5.45    1.84
   6   2  13    8.27    1.34
  -6  -2 -14    1.72    1.08
   6  -2  14    1.18    0.60
   6   2  14    0.67    0.47
  -6  -2 -15    3.14    1.55
   6  -2  15    3.03    0.74
   6   2  15    3.10    0.86
  -6  -2 -16    0.71    1.36
   6  -2  16    1.34    0.40
   6   2  16    0.51    0.55
   6   2  17   53.42    4.44
  -6  -2 -17   70.96    6.70
  -6  -2 -18    0.37    1.17
  -6  -2 -19    3.45    1.60
  -6  -2 -20    1.20    1.40
  -6  -2 -20    1.09    1.35
  -6  -2 -21   92.62    9.79
  -6  -2 -21   89.78    8.88
  -6  -2 -22   10.15    2.63
  -6  -2 -23   41.99    5.73
  -6  -2 -24   -0.44    1.30
   6  -3 -18   32.12    3.08
   6  -3 -18   20.80    3.67
   6   3 -17  210.50   13.50
   6  -3 -17  230.92   13.73
   6   3 -16   34.77    2.90
   6   3 -16   43.85    3.46
   6  -3 -16   42.30    3.51
   6  -3 -16   37.83    4.75
  -6  -3  16   40.16    3.16
   6   3 -15    7.26    1.17
   6  -3 -15    9.83    1.37
  -6  -3  15    6.89    1.01
   6   3 -15    5.70    0.94
  -6   3  15    6.59    0.97
   6  -3 -15    4.44    1.65
   6   3 -14   -0.69    0.55
   6  -3 -14    0.11    0.56
  -6   3  14    0.23    0.34
  -6  -3  14    0.24    0.43
   6   3 -14   -0.18    0.38
   6  -3 -14    0.30    0.67
   6   3 -13    4.32    0.88
   6  -3 -13    4.46    0.90
   6   3 -13    4.95    0.92
  -6   3  13    4.88    0.76
  -6  -3  13    4.52    0.77
   6  -3 -13    3.74    1.48
  -6  -3  13    2.42    1.13
   6   3 -12   40.36    3.41
   6  -3 -12   37.83    4.45
  -6  -3  12   43.06    4.46
   6   3 -12   41.58    3.28
   6  -3 -12   44.45    3.39
  -6   3  12   45.13    3.20
  -6  -3  12   42.71    3.20
   6   3 -11  223.79   14.78
   6  -3 -11  205.95   15.96
  -6  -3  11  223.91   15.93
   6   3 -11  239.24   14.54
   6  -3 -11  244.42   14.61
  -6   3  11  236.04   14.39
  -6  -3  11  242.31   14.45
   6   3 -10   44.91    3.80
   6  -3 -10   45.96    4.72
   6   3 -10   47.11    3.50
   6  -3 -10   49.79    3.58
  -6  -3  10   48.88    3.98
  -6   3  10   47.93    3.88
   6   3  -9   19.14    2.14
  -6  -3   9   20.07    2.15
   6  -3  -9   18.13    2.65
   6   3  -9   22.31    1.89
   6  -3  -9   21.79    1.94
  -6   3   9   16.84    1.96
  -6  -3   8    0.46    0.43
  -6   3   8    1.26    0.52
   6   3  -8    0.63    0.50
   6   3  -8    0.76    0.33
   6  -3  -8    1.14    0.43
   6  -3  -8    0.20    0.55
  -6  -3   7    3.98    0.91
  -6   3   7    4.85    0.91
   6   3  -7    3.40    0.91
   6  -3  -7    4.45    0.67
   6  -3  -7    2.98    1.00
   6   3  -7    4.81    0.68
  -6  -3   6    6.88    1.17
  -6   3   6    5.15    1.02
   6   3  -6    7.77    1.33
   6  -3  -6    6.07    1.30
   6   3  -6    8.54    0.91
   6  -3  -6    9.33    0.97
   6   3  -5   18.99    2.22
  -6  -3   5   19.24    2.17
  -6  -3   5   15.89    3.41
  -6   3   5   17.64    1.97
   6  -3  -5   17.66    2.21
   6  -3  -5   21.23    1.68
   6   3  -5   20.04    1.62
   6   3  -4    1.48    0.69
  -6  -3   4    2.18    1.60
  -6  -3   4    2.50    0.81
  -6   3   4    2.31    0.75
   6  -3  -4    1.60    0.62
   6  -3  -4    2.99    0.54
   6   3  -4    2.24    0.47
   6   3  -3  143.60    9.90
   6  -3  -3  147.05    8.92
   6   3  -3  149.60    8.87
  -6  -3   3  151.81    9.92
   6  -3  -3  116.96    9.36
  -6   3   3  142.75    9.63
  -6  -3   3  146.98   12.37
   6   3  -2   26.21    2.75
  -6  -3   2   19.93    3.84
   6  -3  -2   27.47    1.97
   6   3  -2   24.31    1.86
   6  -3  -2   17.63    2.10
   6   3  -1    0.67    0.72
  -6  -3   1    0.42    1.05
   6  -3  -1    0.98    0.35
   6   3  -1    0.71    0.34
   6  -3  -1    0.09    0.32
   6   3   0   14.49    2.01
  -6  -3   0   13.28    3.02
   6  -3   0   12.84    1.19
   6   3   0   11.66    1.11
   6  -3   0   10.26    1.22
   6   3   1   50.26    4.52
   6  -3   1   51.44    3.44
   6   3   1   47.45    3.33
  -6  -3  -1   45.57    5.80
   6  -3   2    0.23    0.29
   6   3   2    0.44    0.30
  -6  -3  -3  193.01   15.85
   6  -3   3  219.56   13.66
   6  -3   4   99.34    6.85
  -6  -3  -4   79.91    8.40
   6   3   4   96.00    6.56
   6   3   5   57.62    4.34
   6  -3   5   60.66    4.68
  -6  -3  -6    0.36    0.88
   6   3   6    0.12    0.39
   6  -3   6    0.67    0.64
   6   3   6    0.39    0.61
  -6  -3  -7   -0.35    0.78
   6   3   7    1.98    0.72
   6  -3   7    2.57    1.05
   6   3   7    2.87    0.90
   6   3   8    3.96    1.06
   6   3   8    2.99    1.06
   6  -3   8    6.65    1.56
   6   3   9   74.49    5.99
   6   3   9   67.87    6.03
   6   3  10   15.54    2.11
   6   3  10   10.89    1.83
  -6  -3 -10   10.91    2.44
  -6  -3 -11   -0.33    0.81
   6   3  11    0.19    0.70
   6  -3  11   -0.33    1.32
  -6  -3 -12    1.93    1.28
   6   3  12    0.61    0.84
   6  -3  12    1.05    1.10
  -6  -3 -13   16.57    2.94
  -6  -3 -14   12.66    2.53
   6  -3  15  106.91    7.85
  -6  -3 -15   94.39    9.09
  -6  -3 -16    7.23    1.92
  -6  -3 -17    8.21    2.06
  -6  -3 -18   10.26    2.37
  -6  -3 -19   12.63    2.66
   6  -4 -15   -0.36    1.06
   6  -4 -14    3.46    1.50
  -6   4  13    3.75    0.90
   6  -4 -13    2.95    1.51
  -6   4  12    1.67    0.65
   6   4 -12    1.53    0.50
   6  -4 -12    1.23    1.03
   6   4 -11    7.14    1.05
  -6   4  11    5.79    1.12
   6  -4 -11    5.78    1.71
   6   4 -11    7.21    1.02
   6  -4 -11    6.39    1.05
  -6   4  10  129.08    8.80
   6   4 -10  128.97    8.69
   6   4 -10  139.94    8.53
   6  -4 -10  111.06    9.97
   6  -4 -10  138.49    8.59
  -6   4   9   20.76    2.25
   6   4  -9   22.04    2.24
   6  -4  -9   23.49    3.17
   6   4  -9   26.91    2.06
   6  -4  -9   23.65    2.05
   6   4  -8    2.38    0.50
   6  -4  -8    2.25    0.53
  -6   4   8    0.75    0.62
   6   4  -8    3.12    0.78
   6  -4  -8    3.22    1.23
  -6  -4   7    7.62    2.91
   6   4  -7    6.09    1.10
  -6   4   7    5.73    1.00
   6   4  -7    6.06    0.81
   6  -4  -7    7.22    0.89
   6  -4  -7    5.47    1.40
  -6  -4   6   -0.55    1.21
   6   4  -6    0.19    0.26
   6  -4  -6    0.37    0.29
   6   4  -6    0.23    0.47
  -6  -4   6    0.32    1.06
  -6   4   6   -0.32    0.65
   6  -4  -6    0.19    0.56
  -6  -4   5    5.53    2.68
   6  -4  -5    4.53    0.69
   6   4  -5    6.85    1.16
   6   4  -5    5.72    0.70
   6  -4  -5    4.28    1.15
   6   4  -4  170.31   12.76
   6  -4  -4  152.41   12.87
   6   4  -4  215.86   12.18
   6  -4  -4  222.57   12.28
  -6  -4   4  192.74   16.58
   6   4  -3   27.79    2.69
  -6  -4   3   28.09    4.87
   6  -4  -3   22.56    2.54
   6   4  -3   27.36    1.95
   6  -4  -3   27.44    1.99
   6   4  -2   35.43    3.22
   6  -4  -2   27.82    2.86
   6   4  -2   36.24    2.40
   6  -4  -2   35.61    2.42
  -6  -4   2   42.55    5.89
  -6  -4   1    0.50    1.36
   6   4  -1    0.28    0.55
   6   4  -1   -0.03    0.21
   6  -4  -1   -0.07    0.23
   6  -4  -1    0.09    0.29
   6   4   0    0.03    0.20
   6  -4   0    0.22    0.34
   6  -4   0    0.11    0.24
   6  -4   1    3.10    0.46
   6   4   1    2.71    0.40
  -6  -4  -1    2.40    1.76
   6  -4   1    2.10    0.49
   6  -4   2   46.91    3.03
   6   4   2   43.33    2.93
  -6  -4  -3    2.25    1.65
   6  -4   3    1.10    0.36
   6   4   3    1.33    0.32
  -6  -4  -4   13.07    3.03
   6  -4   4   17.36    1.42
   6   4   4   15.06    1.26
   6  -4   5    3.79    0.64
   6   4   5    2.74    0.47
   6   4   6    1.92    0.43
   6  -4   6    2.93    0.59
  -6  -4  -7   14.65    3.22
   6   4   7   16.01    1.71
   6  -4   7   22.56    2.37
   6   4   8   78.01    5.89
   6  -4   8   91.40    6.15
  -6  -4  -8   78.61    8.22
  -6  -4  -9    0.78    1.22
   6   4   9   -0.09    0.45
   6  -4   9    0.21    0.80
   6  -4   9    0.60    0.49
   6   4  10   44.01    4.00
   6  -4  10   52.01    4.06
   6   4  11   13.71    1.80
   6   4  11   18.58    1.90
   6   4  12   24.57    2.67
  -6  -4 -12   23.16    3.88
   6   4  12   33.95    2.74
   6   4  13    0.43    0.53
   6   4  13    0.10    0.55
   6   4  14    3.71    1.05
   6   4  15    1.39    0.86
   6   4  16   39.62    4.00
   6   4  17    4.48    1.30
  -6  -5   7    0.69    2.40
  -6  -5   6   26.03    5.25
  -6  -5   5   -0.68    2.13
  -6  -5   4    4.66    2.77
  -6  -5   3    5.86    2.90
   6  -5  -2   41.79    4.11
  -6  -5   2   35.72    6.35
  -6  -5   1    1.23    2.37
   6  -5  -1    0.78    0.99
   6  -5   0   43.07    4.24
  -6  -5   0   51.42    7.02
   6  -5   1    0.36    0.78
   6  -5   2   11.49    1.89
   6  -5   3    8.54    1.57
   6  -5   4  108.43    7.92
   6  -5   5    2.82    0.98
   6  -5   6    0.15    0.51
   7   0 -21    1.36    0.66
   7   0 -20    0.13    0.47
   7   0 -19  195.73   12.69
   7   0 -18    0.46    0.46
   7   0 -17   15.48    1.75
  -7   0  16   -0.08    0.30
   7   0 -16   -0.11    0.41
  -7   0  16    0.28    0.70
  -7   0  15    8.84    1.10
   7   0 -15   12.18    1.45
  -7   0  15    8.80    1.99
  -7   0  14    0.21    0.21
   7   0 -14   -0.11    0.33
  -7   0  14   -0.25    0.72
  -7   0  13   84.40    6.80
  -7   0  13   72.68    5.20
   7   0 -13   83.94    5.51
  -7   0  12    0.12    0.19
   7   0 -12    0.08    0.19
  -7   0  12    0.45    0.56
   7   0 -11   40.02    3.01
  -7   0  11   36.75    2.76
  -7   0  10    0.05    0.18
   7   0 -10    0.54    0.28
   7   0  -9  119.00    7.10
  -7   0   9   99.65    6.74
   7   0  -8    0.66    0.29
  -7   0   8    0.31    0.21
   7   0  -7  251.14   13.88
  -7   0   7  206.88   13.54
  -7   0   6   -0.10    0.33
   7   0  -6   -0.07    0.28
  -7   0   6    0.84    0.59
  -7   0   5  208.24   14.64
   7   0  -5  241.03   14.45
   7   0  -4    0.07    0.22
  -7   0   4    0.31    0.34
  -7   0   4    0.16    0.52
  -7   0   3   12.91    1.65
   7   0  -3   15.89    1.47
  -7   0   2    0.12    0.19
   7   0  -2    0.06    0.10
  -7   0   1  120.69    8.94
   7   0  -1  138.47    8.43
   7   0   0    0.40    0.33
  -7   0   0    0.15    0.36
   7   0   1  223.86   12.67
  -7   0  -1  159.12   12.38
   7   0   2   -0.27    0.59
   7   0   2    0.46    0.48
   7   0   3   25.87    2.72
   7   0   3   15.98    2.85
   7   0   4    0.64    1.33
   7   0   4   -0.19    0.42
   7   0   5  136.08    8.82
   7   0   5   83.80    8.91
   7   0   6   -0.70    1.17
   7   0   6    0.22    0.54
   7   0   7  957.10   50.39
   7   0   7  669.93   50.49
   7   0   8   -0.31    0.83
   7   0   8   -0.24    0.71
   7   0   9    4.36    1.44
   7   0  10   -0.24    0.75
   7   0  11    1.64    0.79
   7   0  12    0.73    0.64
   7   0  13  238.98   15.61
   7   0  14   -0.43    0.45
   7   0  15   20.62    2.27
   7   0  16    0.12    0.38
  -7   0 -16    0.28    0.92
   7   0  17   40.63    3.53
  -7   0 -17   50.52    4.97
   7   0  18    0.21    0.39
  -7   0 -18    0.54    0.99
   7   0  19    7.07    1.08
  -7   0 -19    6.87    1.73
  -7   0 -20   -0.26    0.81
  -7   0 -21  160.97   11.90
  -7   0 -22    0.26    0.77
  -7   0 -23   38.59    4.33
  -7   0 -24    0.25    0.55
   7   1 -21   35.79    3.33
   7  -1 -21   35.81    3.39
   7   1 -20   19.64    3.13
   7   1 -20   20.41    2.25
   7  -1 -20   20.31    2.25
   7  -1 -20   17.83    3.03
   7   1 -19    1.36    0.63
   7  -1 -19    3.57    0.89
   7   1 -19    4.25    1.47
   7  -1 -19    4.73    1.50
   7   1 -18   20.24    3.41
   7  -1 -18   23.47    3.40
   7   1 -18   28.54    2.61
   7  -1 -18   28.72    2.62
   7   1 -17   12.47    2.62
   7   1 -17   12.65    1.60
   7  -1 -17   15.07    1.72
   7  -1 -17   16.29    2.61
   7   1 -16    2.40    1.48
   7   1 -16    3.21    0.73
   7  -1 -16    3.41    0.79
   7  -1 -16    2.85    1.23
  -7   1  15   63.82    4.66
  -7  -1  15   64.06    4.70
  -7  -1  15   76.79    6.52
   7  -1 -15   69.96    6.15
   7   1 -15   74.57    5.08
   7  -1 -15   71.29    5.05
   7   1 -15   56.74    6.53
   7   1 -14   17.86    3.26
  -7   1  14   19.24    2.97
  -7   1  14   17.17    1.81
  -7  -1  14   21.66    1.94
  -7  -1  14   22.86    3.08
   7  -1 -14   22.02    2.93
   7   1 -14   25.75    2.33
   7  -1 -14   28.48    2.46
  -7   1  13   30.05    3.68
  -7  -1  13   36.92    3.86
  -7   1  13   26.22    2.35
  -7  -1  13   31.32    2.47
   7  -1 -13   33.21    3.61
   7   1 -13   34.38    2.71
   7  -1 -13   32.12    2.69
   7   1 -13   29.06    4.34
  -7   1  12  105.30    7.78
  -7  -1  12  109.64    7.74
  -7   1  12   85.87    5.91
  -7  -1  12   81.88    5.92
   7  -1 -12   90.73    7.29
   7   1 -12  100.82    6.25
   7  -1 -12   94.87    6.24
   7   1 -12   80.08    8.28
  -7   1  11  140.44    9.76
  -7  -1  11  138.07    9.58
   7  -1 -11  128.73    9.30
  -7   1  11  119.03    7.86
  -7  -1  11  116.33    7.88
   7   1 -11  128.40    8.14
   7  -1 -11  132.63    8.19
   7   1 -11  119.03   10.58
   7   1 -10   15.15    3.22
  -7   1  10   29.12    3.23
  -7  -1  10   24.19    2.90
   7  -1 -10   20.06    2.63
  -7   1  10   21.80    1.79
  -7  -1  10   21.02    1.80
   7   1 -10   21.81    1.95
   7  -1 -10   21.98    1.98
   7  -1  -9    9.85    1.13
   7   1  -9   10.47    1.14
   7   1  -9    6.36    1.96
  -7   1   9    7.65    0.90
  -7  -1   9    8.00    0.92
  -7   1   9    8.12    1.65
  -7  -1   9    8.24    1.63
   7  -1  -9    8.49    1.54
   7   1  -8   11.92    1.26
   7  -1  -8   13.39    1.35
   7   1  -8   10.74    2.57
  -7  -1   8   13.06    1.97
  -7   1   8   11.16    1.91
  -7   1   8    9.90    1.07
  -7  -1   8   10.16    1.10
   7   1  -7   19.48    3.34
   7  -1  -7   19.28    1.76
   7   1  -7   17.09    1.68
  -7   1   7   24.35    2.65
  -7  -1   7   24.09    2.69
  -7  -1   7   20.11    2.02
  -7   1   7   17.24    1.90
   7  -1  -6   68.01    4.47
  -7   1   6   62.40    5.23
   7   1  -6   66.30    4.42
   7   1  -6   54.44    6.27
  -7  -1   6   57.24    4.63
  -7   1   6   62.42    4.68
  -7  -1   5   22.15    2.33
  -7   1   5   26.84    2.44
   7  -1  -5   28.23    2.23
   7   1  -5   26.03    2.15
  -7   1   5   27.41    2.84
   7   1  -5   25.90    3.96
   7   1  -4    0.36    0.81
  -7  -1   4    1.55    0.57
  -7   1   4    2.60    0.67
  -7   1   4    3.61    0.98
   7  -1  -4    1.97    0.48
   7   1  -4    1.75    0.43
   7   1  -3    0.37    0.90
  -7  -1   3    0.24    0.33
  -7   1   3    0.35    0.35
   7  -1  -3    0.14    0.25
   7   1  -3    0.06    0.17
  -7   1   3   -0.14    0.44
  -7  -1   2   40.68    3.68
  -7   1   2   41.43    3.66
  -7   1   2   49.43    3.84
   7  -1  -2   47.52    3.24
   7   1  -2   40.53    3.11
  -7  -1   1  360.20   24.58
  -7   1   1  347.08   24.49
  -7   1   1  429.67   24.58
   7  -1  -1  410.36   23.93
   7   1  -1  416.29   23.88
  -7   1   0  175.96   12.67
  -7   1   0  214.80   12.54
  -7  -1   0  157.31   12.59
   7   1   0  199.02   12.61
   7  -1   0  223.21   12.88
   7   1   1   83.12    6.02
   7  -1   1   88.98    6.23
  -7  -1  -1   69.92    6.13
  -7   1  -1   64.41    5.97
  -7   1  -1   94.83    5.92
   7   1   1   90.81    8.26
   7   1   2    4.36    1.65
   7   1   2    3.42    0.89
   7  -1   2    2.94    0.86
  -7   1  -2    3.06    0.74
   7   1   3   94.74    7.22
   7  -1   3   93.61    7.41
  -7   1  -3  108.36    6.85
   7   1   3   94.80    9.13
   7   1   4   -0.39    1.23
   7   1   4    1.34    0.72
   7  -1   4    0.58    0.64
   7   1   5  124.40    9.40
   7  -1   5  148.18    9.98
   7   1   5  123.59   10.91
   7   1   6  105.85    8.12
   7  -1   6  115.85    8.56
   7   1   6   97.92    9.05
   7   1   7   20.63    2.82
   7  -1   7   27.81    3.30
   7   1   7   29.32    3.86
   7   1   8   28.31    3.50
   7   1   8   31.99    3.32
   7  -1   8   29.38    3.40
   7   1   9  106.82    8.32
  -7  -1  -9  100.12    9.31
   7   1  10   23.49    2.87
  -7  -1 -10   17.43    3.23
   7  -1  10   15.35    2.57
   7  -1  11    1.41    0.87
   7   1  11    3.86    1.10
  -7  -1 -11    2.51    1.26
   7  -1  12   20.46    2.69
  -7   1 -12   24.96    2.32
   7   1  12   20.55    2.57
  -7  -1 -12   27.00    3.89
   7   1  13  100.37    7.93
  -7   1 -13  127.47    7.71
  -7  -1 -13  115.88    9.76
   7  -1  13  100.83    8.07
   7   1  14   89.49    7.01
   7  -1  14   89.04    7.05
  -7   1 -14  109.89    6.86
  -7  -1 -14  101.22    8.78
   7  -1  15   97.57    7.55
   7   1  15  111.36    7.72
  -7   1 -15  115.94    7.46
  -7  -1 -15  106.47    9.40
   7  -1  16   14.19    1.71
  -7  -1 -16   11.82    2.61
  -7   1 -16   13.48    1.65
   7   1  16   11.15    1.63
   7  -1  17    0.59    0.39
   7   1  17    0.49    0.49
  -7   1 -17    0.69    0.42
   7   1  18    1.90    0.68
  -7   1 -18    2.82    0.79
   7   1  19   50.13    4.29
  -7   1 -19   59.44    4.53
  -7  -1 -20   59.51    6.69
  -7   1 -20   55.54    4.52
  -7  -1 -21   47.14    5.84
  -7   1 -21   42.68    3.79
  -7  -1 -22   -0.85    1.05
  -7   1 -22    0.28    0.46
  -7  -1 -23   19.09    3.52
   7   2 -20   62.08    4.92
   7  -2 -20   58.72    4.92
   7   2 -19   13.08    1.78
   7  -2 -19   13.20    1.83
   7  -2 -19   13.16    2.61
   7   2 -18  139.51    9.47
   7  -2 -18  140.41    9.56
   7  -2 -18  123.30   10.87
   7   2 -18  155.85   10.09
   7   2 -17   -0.35    0.51
   7  -2 -17   -0.38    0.56
   7   2 -17   -0.19    0.77
   7  -2 -17   -0.30    0.75
   7   2 -16    0.11    0.39
   7   2 -16    1.07    0.94
   7  -2 -16    0.59    0.41
   7  -2 -16   -0.58    0.90
   7   2 -15   -0.11    0.39
   7   2 -15   -0.93    0.89
  -7   2  15    0.08    0.33
  -7  -2  15    0.09    0.41
   7  -2 -15    0.82    0.80
  -7  -2  14   59.81    5.51
   7  -2 -14   48.76    5.14
  -7   2  14   51.73    3.87
  -7  -2  14   51.61    3.93
   7   2 -14   53.92    4.12
   7  -2 -14   56.82    4.21
   7   2 -14   62.22    5.50
  -7   2  13    1.02    0.40
  -7  -2  13    0.54    0.32
   7   2 -13    1.23    0.98
   7   2 -13    1.59    0.56
   7  -2 -13    0.56    0.43
  -7  -2  13    1.23    0.86
   7  -2 -13    2.47    0.99
   7   2 -12   14.35    2.46
  -7   2  12   13.11    2.62
  -7   2  12   13.29    1.38
  -7  -2  12   12.89    1.39
   7   2 -12   16.97    1.72
   7  -2 -12   14.24    1.61
  -7  -2  12   12.89    2.24
   7  -2 -12   12.84    2.19
  -7  -2  11   -0.07    0.29
   7   2 -11    0.25    0.77
   7   2 -11    0.17    0.32
   7  -2 -11   -0.09    0.31
  -7   2  11    0.30    0.93
   7  -2 -11    0.66    0.73
  -7  -2  11    0.46    0.68
  -7   2  11   -0.07    0.26
   7   2 -10   12.05    2.32
   7  -2 -10   14.49    2.26
  -7  -2  10   17.99    2.51
  -7   2  10   17.12    2.82
  -7   2  10   15.39    1.47
  -7  -2  10   16.51    1.54
   7   2 -10   16.07    1.58
   7  -2 -10   14.35    1.55
  -7  -2   9    2.70    0.79
  -7   2   9    2.55    0.79
   7   2  -9    3.91    1.30
  -7   2   9    0.81    0.86
   7   2  -9    1.47    0.49
   7  -2  -9    2.27    0.55
   7  -2  -9    2.12    0.89
  -7  -2   9    2.89    1.08
   7   2  -8  249.23   14.81
   7  -2  -8  249.52   14.85
  -7   2   8  284.92   17.04
   7  -2  -8  215.99   15.69
   7   2  -8  223.66   16.30
  -7  -2   8  226.66   15.26
  -7   2   8  235.96   15.22
  -7  -2   7   12.85    1.64
  -7   2   7   10.58    1.51
   7   2  -7   13.47    1.38
   7  -2  -7   15.80    1.50
   7   2  -7   11.00    2.13
   7  -2  -7   12.15    1.84
  -7   2   7   15.24    2.38
   7  -2  -6    5.68    0.83
   7   2  -6    6.11    0.83
   7   2  -6    3.19    1.16
  -7  -2   6    5.38    1.06
  -7   2   6    4.92    0.98
  -7   2   6    8.18    1.69
   7  -2  -6    4.21    1.08
   7   2  -5    3.72    1.38
  -7  -2   5    5.28    1.11
  -7   2   5    7.60    1.18
   7  -2  -5    4.80    0.77
   7   2  -5    4.40    0.72
  -7   2   5    7.20    1.56
   7  -2  -5    4.80    1.03
  -7  -2   4  175.22   11.87
  -7   2   4  162.78   11.68
   7  -2  -4  188.17   11.28
   7   2  -4  192.69   11.24
  -7   2   4  212.30   12.77
   7  -2  -4  158.28   11.64
   7   2  -4  170.03   12.82
   7   2  -3    5.62    1.73
  -7  -2   3    5.46    1.17
  -7   2   3    5.93    1.17
   7  -2  -3    6.74    0.89
   7   2  -3    6.23    0.82
  -7   2   3    6.74    1.41
  -7  -2   2   47.93    4.50
  -7   2   2   54.41    4.51
  -7   2   2   64.81    4.83
   7  -2  -2   56.45    3.90
   7   2  -2   53.13    3.80
   7   2  -2   50.29    5.28
   7   2  -1    0.82    0.91
  -7  -2   1    0.67    0.56
  -7   2   1    1.24    0.60
  -7   2   1    1.13    0.63
   7  -2  -1    0.87    0.33
   7   2  -1    1.63    0.40
  -7  -2   0    0.99    1.33
  -7   2   0    0.12    0.40
   7  -2   0    0.34    0.25
   7   2   0    1.24    0.36
  -7  -2  -1    0.49    1.21
   7  -2   1    1.23    0.63
   7  -2   1    0.37    0.28
  -7   2  -1    0.41    0.44
  -7   2  -2  129.80    8.80
  -7  -2  -2  138.86   12.37
   7   2   2  144.82    9.37
   7  -2   2  144.55    9.54
   7   2   3    3.38    0.88
   7  -2   3    3.68    1.02
  -7  -2  -3    3.30    1.82
   7   2   3    3.61    1.42
  -7   2  -3    2.87    0.56
   7   2   4   12.99    1.74
   7  -2   4   12.84    1.87
  -7  -2  -4    8.33    2.51
   7   2   4   15.02    2.63
   7   2   5    2.57    1.27
   7   2   5    2.17    0.85
   7  -2   5    2.29    0.95
   7   2   6  405.93   26.33
   7   2   6  390.55   25.20
   7  -2   6  416.84   25.71
   7   2   7   31.81    3.81
   7  -2   7   37.41    3.87
   7   2   7   29.06    3.26
   7   2   8  199.97   14.92
   7   2   8  227.09   14.72
  -7  -2  -9    0.42    1.03
   7   2   9    0.22    0.74
   7   2   9    0.21    0.69
   7  -2   9   -0.54    1.11
  -7  -2 -10   10.74    2.72
   7   2  10    6.20    1.54
   7   2  10   10.02    1.89
   7  -2  10   14.71    2.59
   7  -2  11    0.65    0.84
  -7  -2 -11    0.41    1.12
   7   2  11    0.96    0.71
   7   2  11    1.62    0.99
   7   2  12  102.35    6.93
  -7  -2 -12  101.28    8.92
   7  -2  13    6.22    1.49
  -7  -2 -13    8.67    2.49
   7   2  13    7.67    1.47
   7   2  14   34.14    3.27
   7  -2  14   27.42    3.16
  -7  -2 -15    1.68    1.39
   7  -2  15    0.14    0.53
   7   2  15    0.73    0.53
   7   2  16   48.57    4.17
  -7  -2 -16   55.20    6.38
  -7  -2 -17    1.74    1.80
  -7  -2 -18    5.31    2.15
  -7  -2 -19    0.45    1.22
  -7  -2 -20   49.53    6.40
  -7  -2 -21    3.25    1.86
  -7  -2 -22   73.95    8.21
  -7  -2 -23    1.39    1.92
   7   3 -19    0.54    0.60
   7  -3 -19    1.04    0.75
   7   3 -18   24.81    2.68
   7  -3 -18   29.90    2.89
   7  -3 -17    2.33    1.44
   7   3 -17    3.50    0.99
   7  -3 -17    3.11    0.98
   7   3 -16    4.26    1.01
   7   3 -16    5.29    0.96
   7  -3 -16    2.23    1.25
   7  -3 -16    6.48    1.18
   7   3 -15   12.07    1.54
   7   3 -15   11.04    1.52
   7  -3 -15   13.71    1.69
   7  -3 -15   11.20    2.35
   7   3 -14   27.45    2.61
   7  -3 -14   23.07    3.42
   7   3 -14   28.93    2.51
   7  -3 -14   26.94    2.54
  -7   3  14   25.77    2.32
  -7  -3  14   27.75    2.39
   7   3 -13    4.99    0.95
   7  -3 -13    4.08    0.92
   7   3 -13    4.68    1.06
  -7   3  13    4.20    0.81
  -7  -3  13    4.27    0.88
   7  -3 -13    6.53    1.75
   7   3 -12  130.89    9.04
   7  -3 -12  114.00    9.86
   7   3 -12  132.43    8.62
   7  -3 -12  133.31    8.69
  -7  -3  12  138.12    9.29
  -7   3  12  135.45    9.14
   7   3 -11   22.41    2.43
   7  -3 -11   18.42    2.75
   7   3 -11   24.49    2.10
   7  -3 -11   21.30    2.05
  -7  -3  11   19.19    2.33
  -7   3  11   20.47    2.31
  -7  -3  10    9.09    1.51
  -7   3  10    6.41    1.26
   7   3 -10    8.99    1.53
   7   3 -10   11.57    1.36
   7  -3 -10   11.03    1.41
   7  -3 -10    6.91    1.63
  -7  -3   9    2.55    0.80
  -7   3   9    2.59    0.86
   7   3  -9    2.60    0.86
   7   3  -9    3.43    0.62
   7  -3  -9    2.83    0.61
   7  -3  -9    3.49    1.15
  -7  -3   8    1.06    0.61
  -7   3   8    1.34    0.56
   7   3  -8    0.63    0.63
   7   3  -8    0.96    0.38
   7  -3  -8    1.89    0.89
   7   3  -7   18.44    2.30
  -7  -3   7   20.00    2.24
  -7   3   7   16.19    1.99
   7  -3  -7   14.64    2.20
   7  -3  -7   19.69    1.73
   7   3  -7   19.76    1.68
   7   3  -6   75.42    5.81
  -7  -3   6   81.06    5.70
  -7   3   6   72.60    5.42
   7   3  -6   72.79    4.80
   7  -3  -6   74.92    4.88
   7   3  -5   16.47    2.20
   7   3  -5   17.48    1.49
   7  -3  -5   16.49    1.52
  -7  -3   5   12.57    1.92
  -7   3   5   15.61    1.92
   7  -3  -5   12.58    1.81
   7   3  -4    0.12    0.21
   7  -3  -4   -0.13    0.26
  -7  -3   4   -0.46    1.26
   7   3  -4   -0.18    0.55
  -7  -3   4    0.17    0.55
  -7   3   4   -0.14    0.47
   7  -3  -4    0.13    0.34
  -7  -3   3    0.95    1.58
   7  -3  -3    1.96    0.49
   7   3  -3    1.74    0.44
   7   3  -3    1.65    0.82
  -7  -3   3    1.06    0.73
  -7   3   3    0.46    0.66
   7  -3  -3    1.34    0.55
   7   3  -2   43.23    4.29
   7  -3  -2   53.43    3.44
   7   3  -2   47.01    3.29
   7  -3  -2   40.05    3.50
  -7  -3   2   40.83    5.89
   7   3  -1   68.16    6.05
   7  -3  -1   78.36    5.07
   7   3  -1   75.22    4.96
  -7  -3   1   69.13    8.06
   7   3   0  301.74   19.95
   7  -3   0  316.08   18.56
   7   3   0  301.86   18.44
  -7  -3   0  283.82   22.29
   7   3   1    4.05    1.26
  -7  -3  -1    8.18    2.63
   7  -3   1    7.90    0.93
   7   3   1    6.11    0.79
   7   3   2   28.94    3.33
  -7  -3  -2   21.84    4.14
   7  -3   2   26.41    2.15
   7   3   2   25.32    2.05
   7  -3   3   12.74    1.30
   7   3   3   10.32    1.14
  -7  -3  -4    0.46    1.44
   7   3   4    0.12    0.47
   7  -3   4    0.15    0.57
   7   3   5   34.79    3.03
   7  -3   5   31.98    3.23
  -7  -3  -5   27.87    4.57
   7   3   6   93.16    6.90
   7  -3   6  107.35    7.55
   7   3   6  107.26    8.04
  -7  -3  -6   80.57    8.91
  -7  -3  -7   -0.43    1.26
   7   3   7    0.42    0.49
   7  -3   7    1.24    0.85
   7   3   7    1.37    0.84
   7   3   8   40.47    4.18
   7   3   8   34.97    3.48
   7  -3   8   44.89    4.41
   7   3   9   31.80    3.37
   7  -3   9   45.46    4.54
   7   3  10   37.73    3.67
   7  -3  10   46.19    4.77
  -7  -3 -11    0.41    1.00
   7   3  11    0.39    0.62
   7  -3  11    1.31    1.31
   7   3  12   17.73    2.55
  -7  -3 -12   14.39    3.18
   7  -3  12   24.17    3.71
   7   3  13   26.16    3.20
  -7  -3 -13   16.57    3.43
   7   3  14  202.84   14.21
  -7  -3 -14  147.85   14.67
   7   3  15   33.73    4.08
  -7  -3 -15   35.17    4.90
  -7  -3 -16    8.44    2.41
  -7  -3 -17    0.38    1.20
  -7  -3 -18    3.45    1.60
   7  -4 -14    7.03    1.95
   7   4 -14    7.23    1.17
   7   4 -13   47.45    3.66
   7  -4 -13   45.74    5.12
   7   4 -12    0.10    0.33
   7  -4 -12    0.56    0.82
   7   4 -12   -0.09    0.52
   7   4 -11    5.33    0.91
  -7   4  11    5.61    1.16
   7   4 -11    6.01    1.03
   7  -4 -11    3.66    1.30
   7   4 -10    0.15    0.38
  -7   4  10   -0.25    0.58
   7   4 -10    0.22    0.41
   7  -4 -10    0.24    0.66
   7   4  -9    9.53    1.42
  -7   4   9    9.79    1.48
   7   4  -9    8.86    1.13
   7  -4  -9   10.40    1.21
   7  -4  -9   10.78    1.99
   7   4  -8   26.53    2.72
  -7   4   8   32.17    2.93
   7  -4  -8   24.14    3.18
   7   4  -8   33.22    2.39
   7  -4  -8   28.17    2.34
   7   4  -7   78.97    5.87
  -7   4   7   80.56    5.88
   7  -4  -7   70.67    6.23
   7   4  -7   81.47    5.26
   7  -4  -7   79.88    5.31
   7   4  -6   -0.24    0.44
   7  -4  -6   -0.27    0.44
   7   4  -6   -0.13    0.46
   7  -4  -6    0.33    0.58
   7  -4  -5   45.53    4.33
   7   4  -5   60.88    3.80
   7  -4  -5   52.53    3.75
  -7  -4   5   55.06    7.29
  -7  -4   4   18.48    4.14
   7   4  -4   18.50    1.43
   7  -4  -4   16.99    1.42
  -7  -4   3    0.59    1.59
   7   4  -3    0.63    0.32
   7  -4  -3    1.56    0.42
   7  -4  -3    0.45    0.36
  -7  -4   2    7.02    2.77
   7  -4  -2    4.92    0.95
   7   4  -2    7.23    0.77
   7  -4  -2    6.15    0.77
   7   4  -1   16.43    1.32
   7  -4  -1   16.99    1.39
  -7  -4   1   17.33    4.03
   7  -4  -1   10.73    1.42
   7  -4   0    2.96    0.53
   7   4   0    2.21    0.43
  -7  -4   0    1.14    1.67
   7  -4   1   79.54    4.97
   7   4   1   72.50    4.83
  -7  -4  -1   72.31    8.59
  -7  -4  -2    4.41    2.21
   7  -4   2    4.61    0.69
   7   4   2    3.97    0.58
  -7  -4  -3   10.73    3.33
   7  -4   3   13.33    1.29
   7   4   3   12.61    1.15
  -7  -4  -4   -0.52    1.53
   7  -4   4    0.07    0.33
   7   4   4   -0.05    0.23
  -7  -4  -5   20.59    4.22
   7   4   5   22.76    1.90
   7  -4   6   45.41    3.30
   7   4   6   40.10    2.94
  -7  -4  -6   48.42    6.32
  -7  -4  -7  181.37   15.95
   7   4   7  182.87   12.70
   7  -4   8   20.60    2.65
  -7  -4  -8   13.26    3.18
   7   4   8   14.35    1.68
  -7  -4  -9    0.92    1.14
   7   4   9    0.10    0.48
   7  -4   9    0.45    1.06
   7   4  10    5.05    1.03
   7   4  11    1.93    0.73
   7   4  12   11.84    1.71
   7   4  13   59.27    4.88
   7   4  14    3.35    1.03
   7   4  15    6.11    1.40
  -7  -5   6    6.30    3.12
  -7  -5   5   26.05    5.66
  -7  -5   4    2.83    2.35
   7  -5   1   29.68    3.23
   7  -5   2    0.70    0.67
   7  -5   3   24.51    2.79
   7  -5   4    1.11    0.86
   7  -5   5   28.95    3.01
   8   0 -20   41.01    3.62
   8   0 -19    0.25    0.51
   8   0 -18    2.58    0.74
   8   0 -17   -0.12    0.42
   8   0 -16   83.08    6.06
   8   0 -15    0.13    0.43
  -8   0  14   34.02    2.80
   8   0 -14   44.39    3.27
  -8   0  13   -0.13    0.25
   8   0 -13    0.10    0.32
  -8   0  12   17.93    1.66
   8   0 -12   21.82    1.98
   8   0 -11    0.18    0.28
  -8   0  11    0.06    0.17
   8   0 -10   52.90    3.63
  -8   0  10   42.30    3.24
   8   0  -9    0.52    0.32
  -8   0   9    0.60    0.25
  -8   0   9   -0.22    0.65
   8   0  -8  471.56   27.17
  -8   0   8  543.22   28.92
  -8   0   7    0.11    0.36
   8   0  -7    0.32    0.24
  -8   0   7   -0.40    0.63
  -8   0   6    0.89    0.48
   8   0  -6    0.55    0.34
  -8   0   6    1.37    0.78
  -8   0   5   -0.34    0.38
   8   0  -5    0.08    0.22
  -8   0   5   -0.19    0.63
   8   0  -4  104.81    6.65
  -8   0   4  126.59    7.98
  -8   0   3    1.75    0.65
  -8   0   3    0.36    0.65
  -8   0   2  686.03   42.94
   8   0  -2  726.37   42.30
  -8   0   1    8.90    1.39
   8   0  -1    0.86    0.31
   8   0   0    6.66    1.24
  -8   0   0    6.05    1.22
   8   0   1   -0.16    0.44
  -8   0  -1    0.90    0.53
   8   0   2   30.70    2.94
   8   0   2   15.81    2.87
   8   0   3   -0.30    0.74
   8   0   3    0.18    0.35
   8   0   4   36.97    3.44
   8   0   4   16.22    3.13
   8   0   5    1.02    0.99
   8   0   5   -0.22    0.68
   8   0   6  561.62   29.81
   8   0   6  362.87   29.73
   8   0   7    0.35    1.01
   8   0   7   -0.25    0.77
   8   0   8   41.80    4.24
   8   0   8   26.51    3.96
   8   0   9   -0.30    0.86
   8   0   9   -0.54    0.89
   8   0  10   93.19    7.47
   8   0  10   70.45    6.83
   8   0  11   -0.24    0.75
   8   0  12  367.41   23.61
   8   0  13    1.56    0.89
   8   0  14   40.35    3.83
   8   0  15   -0.16    0.46
   8   0  16    1.45    0.63
   8   0  17   -0.27    0.56
  -8   0 -17   -0.30    0.87
   8   0  18   11.16    1.62
  -8   0 -18   22.37    3.09
  -8   0 -19   -0.28    0.76
  -8   0 -20   45.65    4.91
  -8   0 -21    0.80    0.88
  -8   0 -22   21.43    3.12
  -8   0 -23    0.54    0.89
   8   1 -20   16.65    2.76
   8   1 -20   12.59    1.75
   8  -1 -20   13.37    1.83
   8   1 -19    0.13    0.57
   8  -1 -19   -0.13    0.55
   8   1 -19   -0.31    0.91
   8   1 -18    0.65    0.95
   8   1 -18    0.49    0.56
   8  -1 -18    0.25    0.51
   8   1 -17   28.28    2.57
   8  -1 -17   25.61    2.52
   8   1 -16  123.18    7.97
   8  -1 -16  124.77    8.00
   8   1 -15  109.16    7.27
   8  -1 -15  109.93    7.33
   8   1 -14   21.12    3.75
  -8   1  14   31.15    3.76
  -8  -1  14   30.67    3.70
  -8   1  14   21.56    2.03
  -8  -1  14   22.87    2.09
   8   1 -14   27.48    2.46
   8  -1 -14   28.23    2.49
   8   1 -13   17.08    3.32
  -8   1  13   12.28    1.36
  -8  -1  13   13.96    1.45
  -8   1  13   12.70    2.38
   8   1 -13   17.18    1.71
   8  -1 -13   16.28    1.72
   8   1 -12   13.74    3.02
  -8   1  12   16.37    1.53
  -8  -1  12   14.79    1.50
  -8   1  12   16.57    2.70
  -8  -1  12   14.93    2.47
   8   1 -12   16.17    1.68
   8  -1 -12   17.13    1.74
   8   1 -11   23.08    3.98
  -8   1  11   27.15    3.36
  -8  -1  11   22.93    3.08
  -8   1  11   22.34    1.92
  -8  -1  11   22.08    1.96
   8   1 -11   23.87    2.15
   8  -1 -11   24.77    2.19
   8   1 -10  171.77    9.89
   8  -1 -10  160.23    9.86
  -8   1  10  163.93   11.39
  -8  -1  10  183.02   11.51
  -8   1  10  137.07    9.48
  -8  -1  10  141.16    9.53
   8   1 -10  151.70   12.69
   8   1  -9  123.52    7.83
   8  -1  -9  126.36    7.88
  -8   1   9  121.74    9.10
  -8  -1   9  149.32    9.54
   8   1  -9   94.43    9.94
  -8  -1   9  104.83    8.00
  -8   1   9  110.72    8.02
   8  -1  -8   43.40    3.25
   8   1  -8   44.36    3.24
   8   1  -8   34.14    5.00
  -8   1   8   44.35    4.27
  -8  -1   8   48.16    4.39
  -8  -1   8   40.51    3.46
  -8   1   8   33.67    3.32
  -8  -1   7   12.26    1.64
  -8   1   7   13.40    1.68
   8   1  -7   15.63    3.16
   8  -1  -7   14.21    1.51
   8   1  -7   16.00    1.54
  -8   1   7   14.91    2.24
  -8  -1   6   51.60    4.29
  -8   1   6   49.52    4.23
   8  -1  -6   58.48    4.07
   8   1  -6   55.53    3.99
  -8   1   6   66.99    5.23
   8   1  -6   49.94    6.07
   8   1  -5    8.41    2.38
  -8  -1   5    5.62    1.09
  -8   1   5    7.33    1.21
   8  -1  -5    8.71    1.08
   8   1  -5    7.39    0.98
  -8   1   5    6.24    1.33
   8   1  -4    3.34    0.61
   8   1  -4    3.56    1.58
  -8  -1   4    2.42    0.77
  -8   1   4    1.31    0.62
   8  -1  -4    3.06    0.65
  -8   1   4    2.76    0.91
  -8  -1   3    9.13    1.51
  -8   1   3    9.50    1.49
   8   1  -3    7.04    2.12
   8  -1  -3   11.60    1.27
   8   1  -3   10.83    1.22
  -8   1   3   12.62    1.81
  -8  -1   2  195.35   14.14
  -8   1   2  208.70   14.19
  -8   1   2  253.97   14.50
   8  -1  -2  224.32   13.54
   8   1  -2  212.40   13.42
  -8  -1   1  303.33   20.97
  -8   1   1  281.29   20.80
  -8   1   1  368.62   21.02
   8  -1  -1  350.63   20.19
   8   1  -1  338.12   20.14
  -8  -1   0  145.21   10.49
  -8   1   0  121.81   10.16
   8  -1   0  154.24    9.64
   8   1   0  151.12    9.54
   8   1   0  123.95   11.83
   8   1   1    9.23    1.48
  -8   1  -1   11.21    1.49
   8  -1   1   10.61    1.62
   8   1   2    0.40    0.99
   8   1   2    0.15    0.45
   8  -1   2    0.17    0.33
  -8   1  -2    0.12    0.43
   8   1   3   31.36    3.20
   8  -1   3   31.66    3.34
  -8   1  -3   35.57    3.01
   8   1   3   28.31    4.37
   8   1   4  430.15   25.87
   8  -1   4  416.32   26.08
   8   1   4  363.76   27.54
   8   1   5  428.32   26.83
   8  -1   5  443.88   27.21
   8   1   5  391.36   28.49
   8   1   6  287.66   19.04
   8  -1   6  312.25   19.52
   8   1   6  267.99   20.36
   8  -1   7    8.32    1.86
   8   1   7   12.55    2.61
   8   1   7   13.87    2.18
   8  -1   7   14.50    2.47
   8  -1   8    3.41    1.24
   8   1   8    5.62    1.76
   8   1   8    7.20    1.55
   8  -1   8    8.24    1.82
   8  -1   9    9.49    2.15
   8   1   9   15.58    2.40
   8   1   9   12.83    2.41
   8  -1  10    0.28    0.81
   8   1  10    0.26    0.64
   8   1  10    0.52    0.86
   8  -1  10   -0.30    0.93
   8  -1  11    3.39    1.29
   8   1  11    4.33    1.34
   8   1  11    6.69    1.75
   8  -1  11    6.70    1.83
   8   1  12   20.91    2.71
   8  -1  12   18.18    2.69
   8   1  13   58.62    5.14
  -8   1 -13   67.63    4.78
   8  -1  13   50.67    5.09
   8   1  14   63.88    5.52
   8  -1  14   60.16    5.54
   8  -1  15   14.44    2.10
   8   1  15   17.67    2.21
  -8   1 -15   18.85    1.99
   8  -1  16    0.29    0.51
   8   1  16    0.45    0.55
  -8   1 -16    0.80    0.46
   8   1  17    1.72    0.72
  -8   1 -17    2.28    0.73
   8   1  18   36.74    3.60
  -8   1 -18   51.21    3.80
   8   1  19   52.08    4.60
  -8   1 -19   69.53    4.83
  -8  -1 -20  121.29   10.04
  -8   1 -20   88.70    6.71
  -8  -1 -21   27.90    4.52
  -8  -1 -22    0.44    1.09
  -8  -1 -23    2.16    1.36
   8   2 -19   23.24    2.51
   8  -2 -19   25.49    2.65
   8   2 -18    0.13    0.57
   8  -2 -18   -0.14    0.78
   8   2 -18    0.46    0.95
   8  -2 -18    0.31    0.84
   8  -2 -17   64.22    6.57
   8   2 -17   69.76    5.38
   8  -2 -17   75.75    5.55
   8   2 -17   82.62    6.80
   8   2 -16    2.82    0.81
   8  -2 -16    2.25    0.75
   8   2 -16    3.92    1.46
   8  -2 -16    1.99    1.10
   8   2 -15    2.35    1.34
   8   2 -15    1.37    0.59
   8  -2 -15    0.97    0.59
   8  -2 -15    0.27    0.80
   8   2 -14    3.02    1.51
   8   2 -14    3.68    0.86
   8  -2 -14    4.42    1.00
   8  -2 -14    4.64    1.45
  -8  -2  14    4.68    0.84
  -8   2  13   49.71    5.42
   8  -2 -13   43.10    4.49
   8   2 -13   38.53    4.77
  -8   2  13   37.96    3.17
  -8  -2  13   41.30    3.29
   8   2 -13   49.94    3.69
   8  -2 -13   44.85    3.59
  -8   2  12    0.69    0.41
   8   2 -12    0.91    1.06
  -8  -2  12    0.41    0.34
   8   2 -12    0.76    0.43
   8  -2 -12    0.10    0.34
  -8   2  12   -0.65    1.14
  -8  -2  12    0.26    0.65
   8  -2 -12    0.46    0.68
  -8  -2  11    0.75    0.60
  -8   2  11    0.28    0.50
   8   2 -11    0.91    1.11
   8   2 -11    1.08    0.47
   8  -2 -11    1.24    0.46
  -8   2  11    1.86    1.19
  -8  -2  11    0.76    0.84
   8  -2 -11    0.66    0.73
  -8  -2  10    4.51    1.07
  -8   2  10    4.40    0.99
   8   2 -10    4.47    1.56
  -8   2  10    4.16    1.45
   8   2 -10    2.71    0.66
   8  -2 -10    2.79    0.67
   8  -2 -10    2.27    1.01
  -8  -2  10    3.90    1.33
  -8   2   9  363.03   21.37
   8  -2  -9  275.60   19.84
  -8  -2   9  345.43   20.81
   8   2  -9  285.72   20.81
  -8  -2   9  284.96   19.40
   8   2  -9  309.70   18.90
  -8   2   9  302.06   19.40
   8  -2  -9  329.16   19.01
  -8   2   8   15.95    2.00
   8   2  -8   18.54    1.78
   8  -2  -8   18.03    1.81
  -8  -2   8   16.88    2.05
   8   2  -8   15.15    2.73
  -8   2   8   22.28    3.11
   8  -2  -8   21.77    2.56
  -8  -2   7  107.21    8.19
  -8   2   7  120.11    8.24
   8   2  -7  120.63    7.77
   8  -2  -7  130.50    7.89
  -8   2   7  142.53    9.75
   8  -2  -7  106.48    8.50
   8   2  -7  101.61    9.27
   8  -2  -6    1.91    0.52
   8   2  -6    1.73    1.11
   8   2  -6    2.71    0.62
  -8  -2   6    2.45    0.84
  -8   2   6    2.87    0.83
  -8   2   6    2.66    1.17
   8   2  -5    6.65    1.87
   8  -2  -5    9.04    1.11
   8   2  -5    7.73    1.03
  -8  -2   5    7.63    1.43
  -8   2   5    8.92    1.46
  -8   2   5   12.42    2.09
   8   2  -4    0.29    1.02
  -8  -2   4    2.10    0.82
  -8   2   4    1.04    0.66
  -8   2   4    2.10    0.93
   8  -2  -4    1.81    0.58
   8   2  -4    1.13    0.45
  -8  -2   3  412.91   27.32
  -8   2   3  412.52   27.20
   8  -2  -3  461.97   26.50
   8   2  -3  437.17   26.39
  -8   2   3  494.50   27.85
   8   2  -3  399.02   28.36
  -8  -2   2   49.73    4.90
  -8   2   2   54.69    4.85
   8  -2  -2   60.44    4.25
   8   2  -2   59.16    4.17
   8   2  -2   54.05    5.71
  -8  -2   1  176.29   13.42
  -8   2   1  180.74   13.27
   8  -2  -1  199.26   12.44
   8   2  -1  200.19   12.35
   8   2  -1  198.16   14.57
   8  -2   0    1.53    0.47
  -8   2   0    1.12    0.65
   8   2   0    1.95    0.49
  -8   2  -1   74.85    5.41
   8  -2   1   69.92    5.03
   8   2   1   71.97    4.96
   8   2   2    0.29    0.42
   8  -2   2   -0.17    0.61
  -8   2  -2    0.10    0.34
  -8  -2  -3    0.53    1.16
   8   2   3    0.15    0.43
   8  -2   3   -0.17    0.60
   8   2   3    1.34    1.05
  -8   2  -3    0.91    0.46
  -8  -2  -4    5.15    2.29
   8   2   4    2.88    0.89
   8  -2   4    3.62    1.08
   8   2   4    6.03    1.86
  -8   2  -4    3.40    0.63
   8   2   5  156.43   10.66
   8   2   5  141.78    8.77
   8  -2   5  154.45    9.32
   8  -2   6   14.97    2.30
   8   2   6   14.77    2.75
   8   2   6   11.08    1.87
   8   2   7  328.91   22.36
   8   2   7  305.20   21.16
   8  -2   7  374.09   22.05
  -8  -2  -8    0.48    1.30
   8   2   8   -0.28    0.69
   8   2   8    0.61    0.74
   8  -2   8    0.26    1.10
  -8  -2  -9   -0.48    1.05
   8   2   9    0.26    0.71
   8   2   9    0.44    0.68
   8  -2   9    0.28    0.76
  -8  -2 -10   -0.47    1.17
   8   2  10    0.24    0.71
   8   2  10    0.23    0.62
   8  -2  10    0.30    1.09
   8   2  11  205.69   13.47
   8   2  11  234.33   13.96
   8  -2  11  312.61   15.76
   8  -2  11  117.25   12.70
  -8  -2 -11  193.23   15.55
   8   2  12   20.45    2.77
  -8  -2 -12   21.07    4.09
   8  -2  12   16.05    2.78
   8   2  12   27.35    3.37
   8   2  13  246.41   17.09
   8   2  13  328.27   18.59
   8  -2  13  380.99   20.06
  -8  -2 -13  248.89   19.57
   8  -2  13  201.86   17.15
  -8  -2 -14    2.34    1.72
   8  -2  14    0.41    0.80
   8   2  14    2.77    1.19
  -8  -2 -15    4.22    2.09
  -8  -2 -16   -0.94    1.57
  -8  -2 -17    1.42    1.57
  -8  -2 -18    1.90    1.29
  -8  -2 -19   -0.48    1.60
  -8  -2 -20    0.48    1.60
  -8  -2 -21   35.29    5.47
  -8  -2 -22    3.85    2.27
   8   3 -18    0.79    0.59
   8  -3 -18    0.72    0.73
   8   3 -17   35.57    3.15
   8  -3 -17   32.32    3.14
   8   3 -16   24.51    2.39
   8  -3 -16   23.18    2.41
   8  -3 -16   19.00    3.23
   8   3 -15  114.03    7.80
   8  -3 -15   90.74    8.61
   8   3 -15  106.35    7.37
   8  -3 -15  112.16    7.53
   8   3 -14    4.25    0.87
   8  -3 -14    5.21    1.04
   8   3 -14    4.37    1.11
   8  -3 -14    5.59    1.57
  -8  -3  13    5.43    1.35
  -8   3  13    5.34    1.28
   8   3 -13    7.77    1.13
   8  -3 -13    6.32    1.08
   8   3 -13    5.99    1.30
   8  -3 -13    5.00    1.50
  -8  -3  12    1.31    0.81
  -8   3  12    1.22    0.81
   8   3 -12    1.39    0.77
   8   3 -12    1.27    0.55
   8  -3 -12    1.21    0.65
   8  -3 -12    1.98    1.03
  -8  -3  11    8.69    1.55
  -8   3  11    7.44    1.39
   8   3 -11    6.47    1.44
   8  -3 -11   11.04    1.53
   8   3 -11    9.38    1.39
   8  -3 -11    4.40    1.47
   8   3 -10   19.38    2.52
  -8  -3  10   20.87    2.40
  -8   3  10   18.16    2.20
   8  -3 -10   16.95    2.59
   8   3 -10   20.13    1.90
   8  -3 -10   22.42    2.03
   8   3  -9  137.85    9.79
  -8  -3   9  138.63    9.52
  -8   3   9  137.01    9.37
   8  -3  -9  110.89    9.57
   8   3  -9  137.22    8.75
   8  -3  -9  145.14    8.88
   8   3  -8    6.71    1.44
  -8  -3   8    5.66    1.29
  -8   3   8    6.10    1.30
   8   3  -8    6.07    0.89
   8  -3  -8    5.11    1.28
   8  -3  -8    7.27    1.01
  -8  -3   7   14.24    1.97
   8   3  -7   11.25    1.94
  -8   3   7    9.74    1.62
   8  -3  -7    9.82    1.75
   8   3  -7   14.05    1.37
   8  -3  -7   14.18    1.42
   8   3  -6    6.95    0.89
   8   3  -6    3.76    1.22
  -8  -3   6    6.24    1.33
  -8   3   6    6.55    1.31
   8  -3  -6    5.11    0.84
   8  -3  -6    3.14    0.91
   8   3  -5    8.66    1.04
   8  -3  -5    8.98    1.11
   8   3  -5    8.26    1.66
  -8  -3   5    6.72    1.48
  -8   3   5    8.47    1.49
   8  -3  -5    6.76    1.25
   8  -3  -4    2.15    0.52
   8   3  -4    2.52    0.56
   8   3  -4    2.68    1.08
  -8  -3   4    3.03    1.01
  -8   3   4    1.96    0.84
   8  -3  -4    1.49    0.63
   8   3  -3   33.91    3.71
  -8  -3   3   32.22    3.60
  -8   3   3   28.86    3.29
   8  -3  -3   35.56    2.78
   8   3  -3   39.56    2.76
   8  -3  -2   32.10    2.57
   8   3  -2   34.13    2.51
   8   3  -1  240.23   16.97
   8  -3  -1  258.15   15.60
   8   3  -1  260.16   15.48
  -8  -3   1  209.70   19.00
   8   3   0   56.76    5.37
   8  -3   0   59.90    4.12
   8   3   0   59.17    4.01
  -8  -3  -1    7.93    2.70
   8   3   1    9.67    1.99
   8  -3   1   12.18    1.31
   8   3   1   12.00    1.22
  -8  -3  -2    5.87    2.46
   8   3   2    5.96    1.62
   8  -3   2    6.97    0.97
   8   3   2    6.07    0.85
  -8  -3  -3   23.02    4.61
   8  -3   3   26.12    2.29
   8   3   3   26.36    2.17
  -8  -3  -4   43.15    6.42
   8   3   4   49.24    4.12
   8  -3   4   51.96    4.47
   8  -3   5  472.71   26.86
   8   3   5  414.93   26.16
   8   3   6   34.15    3.21
   8  -3   6   43.68    3.89
   8   3   7    4.84    1.11
   8  -3   7    7.65    1.63
   8   3   8    2.06    0.79
   8  -3   8    1.20    0.96
   8   3   9    5.18    1.29
   8  -3   9    8.03    1.91
  -8  -3 -10   -0.49    1.21
   8   3  10    1.86    0.96
   8  -3  10    2.04    1.41
  -8  -3 -11    0.48    1.18
   8   3  11    0.20    0.76
   8  -3  11   -0.98    1.44
  -8  -3 -12    2.35    1.75
   8   3  12    4.71    1.43
   8   3  13   75.75    6.47
  -8  -3 -13   48.75    7.10
   8   3  14   29.80    3.58
   8  -3  14   38.04    5.03
  -8  -3 -15   10.45    2.85
   8   3  15   14.89    2.61
  -8  -3 -16   -0.90    1.32
   8   3  16    1.06    0.97
   8  -3  16    0.89    1.47
   8   3  17    0.84    0.88
   8  -3  17    2.74    1.96
   8   3  18   14.70    2.81
   8  -3  18   26.98    4.55
   8   4 -14   24.18    2.35
   8   4 -13    2.26    0.69
   8  -4 -13    1.67    0.98
   8   4 -12    2.02    0.60
   8  -4 -12    1.81    1.08
   8   4 -11    0.58    0.42
   8  -4 -11    0.48    0.65
   8  -4 -10   24.02    3.29
   8   4 -10   34.57    2.62
  -8   4   9   16.07    2.09
   8  -4  -9   14.31    2.31
   8   4  -9   17.45    1.66
  -8   4   8  134.83    9.28
   8  -4  -8  112.72    9.34
   8   4  -8  142.65    8.57
   8  -4  -7    7.70    1.14
  -8   4   7    5.28    1.26
   8   4  -7    7.88    1.07
   8  -4  -7    5.74    1.30
   8   4  -6    1.81    0.54
   8  -4  -6    2.07    0.57
   8  -4  -6    2.72    0.89
   8   4  -5    0.41    0.34
   8  -4  -5    0.52    0.33
   8  -4  -5    0.13    0.47
   8  -4  -4   10.89    1.53
   8   4  -4   11.00    1.16
   8  -4  -4   12.83    1.26
  -8  -4   3   19.25    4.28
   8  -4  -3   16.43    1.84
   8   4  -3   18.46    1.55
   8  -4  -3   18.08    1.63
   8   4  -2  160.17   10.12
   8  -4  -2  170.40   10.26
  -8  -4   2  149.86   14.61
   8   4  -1   18.46    1.55
   8  -4  -1   17.76    1.62
  -8  -4   1   15.42    3.88
  -8  -4   0    1.25    1.83
   8  -4   0    0.65    0.38
   8   4   0    0.69    0.30
  -8  -4  -1    2.50    1.96
   8  -4   1    2.29    0.55
   8   4   1    1.96    0.43
  -8  -4  -2    6.86    2.70
   8  -4   2    7.14    0.94
   8   4   2    6.03    0.80
   8  -4   3    1.13    0.47
   8   4   3    1.60    0.41
  -8  -4  -3    1.84    2.04
  -8  -4  -4    2.41    2.00
   8  -4   4    2.18    0.60
   8   4   4    0.86    0.34
  -8  -4  -5   11.26    3.38
   8  -4   5   15.86    1.63
   8   4   5   13.62    1.30
   8   4   6  115.88    7.96
  -8  -4  -6  122.56   12.21
  -8  -4  -7    5.66    2.59
   8   4   7    4.75    0.73
  -8  -4  -8   25.27    4.81
   8   4   8   27.06    2.55
   8   4   9    0.46    0.57
   8   4  10    5.44    1.09
   8   4  11   20.96    2.29
   8   4  12  167.25   11.17
   8   4  13   13.69    1.96
   8   4  14    7.89    1.56
   8  -5   4   99.07    7.35
   9   0 -19   69.29    5.36
   9   0 -18   -0.13    0.58
   9   0 -17  343.89   21.46
   9   0 -16   -0.31    0.60
   9   0 -15    0.12    0.46
   9   0 -14    0.54    0.40
   9   0 -13   10.28    1.34
   9   0 -12   -0.10    0.31
  -9   0  12    0.07    0.24
   9   0 -11    7.50    1.08
  -9   0  11    6.44    1.15
  -9   0  11    8.28    1.90
  -9   0  11    5.09    0.79
  -9   0  10   -0.12    0.44
  -9   0  10   -0.52    0.91
   9   0 -10    0.29    0.33
   9   0  -9  215.53   12.76
  -9   0   9  165.90   12.75
   9   0  -8    0.28    0.43
  -9   0   8    0.37    0.36
  -9   0   8    0.24    0.65
  -9   0   7   27.16    2.86
   9   0  -7   38.40    2.89
  -9   0   7   37.23    3.91
  -9   0   6    0.13    0.40
   9   0  -6   -0.09    0.33
  -9   0   6    0.45    0.82
  -9   0   5   70.82    5.88
   9   0  -5   81.10    5.60
  -9   0   4    0.59    0.44
  -9   0   4    0.85    0.71
  -9   0   3  951.79   65.56
   9   0  -3 1104.21   65.02
   9   0  -2    0.86    0.37
  -9   0   2    0.17    0.46
  -9   0   2    0.62    0.80
  -9   0   1   53.71    5.17
   9   0  -1   71.19    4.73
   9   0   0   -0.10    0.26
  -9   0   0    0.19    0.42
   9   0   1    0.86    0.90
   9   0   1    1.46    0.76
   9   0   2    0.30    0.74
   9   0   2    0.19    0.42
   9   0   3  225.60   11.54
   9   0   3   97.27   10.72
   9   0   4    0.33    0.96
   9   0   4    0.42    0.51
   9   0   5    2.03    1.32
   9   0   5    7.22    1.56
   9   0   6   -0.69    1.14
   9   0   6    0.71    0.79
   9   0   7   50.72    4.59
   9   0   7   25.77    4.07
   9   0   8    0.99    1.10
   9   0   8    0.53    0.78
   9   0   9    0.31    0.90
   9   0   9    0.84    0.87
   9   0  10   -0.29    1.07
   9   0  10    1.16    1.06
   9   0  11  535.99   27.50
   9   0  11  328.50   25.74
   9   0  12    0.24    0.84
   9   0  12   -0.32    0.93
   9   0  13   38.61    4.30
   9   0  13   67.93    6.09
   9   0  14   -0.20    0.60
   9   0  15    6.95    1.45
   9   0  16   -0.17    0.49
   9   0  17   42.97    3.90
  -9   0 -18   -0.92    1.12
  -9   0 -19   27.40    3.73
  -9   0 -20   -0.58    1.01
  -9   0 -21    0.28    0.75
  -9   0 -22   -0.27    0.79
   9   1 -19    3.13    1.40
   9   1 -18    0.67    1.04
   9   1 -18    0.40    0.53
   9  -1 -18    0.27    0.50
   9   1 -17   59.82    4.57
   9  -1 -17   58.83    4.57
   9   1 -16   60.10    4.56
   9  -1 -16   58.45    4.57
   9   1 -15   51.77    4.01
   9  -1 -15   51.48    4.04
   9   1 -14    8.33    2.64
   9   1 -14   11.17    1.44
   9  -1 -14   11.27    1.44
   9   1 -13    0.43    1.08
   9   1 -13    1.46    0.56
   9  -1 -13    1.19    0.47
   9   1 -12   36.51    2.99
  -9   1  12   42.77    4.65
  -9  -1  12   40.26    4.43
  -9   1  12   33.72    2.73
  -9  -1  12   31.18    2.71
   9   1 -12   34.47    5.13
   9  -1 -12   40.11    3.09
  -9   1  11  324.50   18.89
  -9  -1  11  316.78   18.63
   9   1 -11  228.40   19.35
  -9  -1  11  235.17   16.73
  -9   1  11  241.74   16.72
   9   1 -11  272.59   16.51
   9  -1 -11  277.38   16.56
   9   1 -10  246.26   14.16
   9  -1 -10  238.92   14.15
  -9   1  10  272.86   16.23
  -9  -1  10  271.04   16.05
   9   1 -10  201.59   17.04
  -9  -1  10  184.76   14.20
  -9   1  10  194.08   14.22
  -9   1   9  164.86   11.35
   9   1  -9  184.55   11.14
   9  -1  -9  179.56   11.16
  -9   1   9  191.68   12.76
   9   1  -9  153.39   13.91
  -9  -1   9  156.23   11.32
   9   1  -8    8.21    2.52
   9  -1  -8   10.89    1.27
   9   1  -8    8.75    1.18
  -9  -1   8    8.38    1.37
  -9   1   8    7.66    1.30
  -9   1   8    8.99    1.83
   9   1  -7    2.24    1.57
  -9  -1   7    0.67    0.45
  -9   1   7    0.65    0.46
   9  -1  -7    2.54    0.62
   9   1  -7    2.16    0.55
  -9   1   7    1.39    0.85
   9   1  -6    5.27    2.09
   9  -1  -6    9.32    1.14
   9   1  -6    6.08    0.93
  -9  -1   6    4.19    1.00
  -9   1   6    4.24    1.01
  -9   1   6    5.95    1.48
  -9  -1   5   32.86    3.41
  -9   1   5   35.23    3.46
   9  -1  -5   43.53    3.22
   9   1  -5   38.96    3.09
  -9   1   5   48.65    4.31
   9   1  -5   32.31    4.94
  -9  -1   4   13.87    1.89
  -9   1   4   11.66    1.78
   9   1  -4   11.26    2.84
   9  -1  -4   14.27    1.53
   9   1  -4   13.01    1.44
  -9   1   4   13.59    2.10
   9   1  -3   -0.82    1.02
  -9  -1   3    0.34    0.56
   9  -1  -3    1.67    0.48
   9   1  -3    1.13    0.42
  -9   1   3    0.19    0.59
  -9  -1   2   34.44    3.60
  -9   1   2   35.26    3.60
  -9   1   2   43.22    3.82
   9  -1  -2   36.98    2.98
   9   1  -2   35.17    2.89
  -9  -1   1   72.68    6.87
  -9   1   1   83.49    6.99
   9  -1  -1   93.51    6.34
   9   1  -1   96.02    6.27
   9   1   0    7.61    2.27
  -9  -1   0    7.80    1.63
  -9   1   0   11.63    1.91
  -9   1   0   13.71    1.88
   9  -1   0   14.32    1.51
   9   1   0   11.86    1.37
   9   1   1    0.85    0.60
   9  -1   1    1.14    0.66
  -9   1  -1    0.46    0.54
   9   1   2   21.93    3.92
  -9   1  -2   28.85    2.80
   9   1   2   23.91    2.78
   9  -1   2   27.71    3.09
   9   1   3  247.69   16.96
   9  -1   3  262.31   17.25
  -9   1  -3  296.45   16.81
   9   1   4  344.80   23.83
   9  -1   4  406.97   24.42
  -9   1  -4  430.19   23.69
   9   1   4  296.92   25.23
   9   1   5  397.66   26.23
   9   1   5  367.10   27.79
   9   1   6   22.20    2.88
   9  -1   6   28.59    3.36
   9   1   6   18.28    3.48
   9  -1   7    4.03    1.41
   9   1   7    6.74    2.11
   9   1   7    8.37    1.72
   9  -1   7    6.97    1.73
   9  -1   8    1.14    1.00
   9   1   8    0.67    1.05
   9   1   8    1.43    0.95
   9  -1   8    1.09    1.00
   9   1   9   17.91    2.69
   9  -1   9   10.11    2.21
   9   1   9   12.53    2.55
   9  -1   9   18.33    2.87
   9   1  10   37.31    4.59
   9   1  10   57.91    5.12
   9  -1  10   63.88    5.62
   9  -1  10   28.86    4.25
   9   1  11   57.92    5.79
   9   1  11   82.64    6.59
   9  -1  11   79.52    6.78
   9  -1  11   46.76    5.62
   9  -1  12   -0.26    0.80
   9   1  12   -0.23    0.73
   9   1  12    0.58    1.06
   9  -1  12   -0.66    1.04
   9  -1  13    4.69    1.38
   9   1  13    2.77    1.09
   9  -1  14    0.43    0.79
   9   1  14    0.39    0.78
   9   1  14    0.31    1.04
   9  -1  14    0.36    0.97
  -9   1 -14    0.40    0.45
   9  -1  15    5.58    1.39
   9   1  15    5.78    1.30
  -9   1 -15    6.52    1.17
   9  -1  16    2.81    1.02
   9   1  16    4.05    1.13
  -9   1 -16    6.21    1.10
   9   1  17    5.10    1.21
  -9   1 -17    6.04    1.13
  -9   1 -18   44.78    3.76
  -9   1 -19   54.32    4.33
  -9  -1 -20    6.04    2.21
  -9  -1 -21    5.47    2.28
  -9  -1 -22    5.43    2.20
   9   2 -18  176.09   11.86
   9  -2 -18  185.39   12.03
   9   2 -17    9.52    1.51
   9   2 -17    9.37    2.32
   9  -2 -17   11.29    1.63
   9  -2 -17   10.10    2.25
   9  -2 -16   68.26    6.83
   9   2 -16   80.89    5.76
   9  -2 -16   79.33    5.83
   9   2 -16   71.83    7.23
   9   2 -15    0.68    1.13
   9   2 -15    3.09    0.82
   9  -2 -15    2.81    0.85
   9  -2 -15    1.68    1.08
   9   2 -14    3.81    1.64
   9   2 -14    4.07    1.03
   9  -2 -14    5.29    1.13
   9  -2 -14    4.01    1.38
   9   2 -13    0.35    1.02
   9   2 -13    0.21    0.49
   9  -2 -13   -0.34    0.49
   9  -2 -13    0.51    0.63
   9   2 -12   20.30    3.44
   9   2 -12   21.95    2.12
   9  -2 -12   23.28    2.21
  -9  -2  12   17.08    2.37
  -9   2  12   22.67    2.52
   9   2 -11    0.35    1.09
  -9  -2  11    0.16    0.47
  -9   2  11    0.31    0.45
   9   2 -11    1.45    0.49
   9  -2 -11    1.34    0.55
  -9   2  11    0.66    1.15
  -9  -2  10   28.05    3.01
  -9   2  10   28.63    2.96
  -9   2  10   34.62    4.24
   9   2 -10   25.79    3.90
   9   2 -10   30.14    2.57
   9  -2 -10   29.37    2.59
   9   2  -9    2.38    1.42
  -9  -2   9    2.98    0.91
  -9   2   9    3.12    0.91
  -9   2   9    6.06    1.85
   9   2  -9    3.26    0.72
   9  -2  -9    4.77    0.86
  -9  -2   9    4.23    1.42
  -9  -2   8  105.43    8.13
  -9   2   8  111.68    8.13
   9   2  -8  119.58    7.68
   9  -2  -8  124.77    7.78
  -9   2   8  133.36    9.73
   9  -2  -7    0.09    0.36
   9   2  -7   -0.35    0.41
   9   2  -7   -0.66    0.89
  -9  -2   7   -0.16    0.57
  -9   2   7   -0.15    0.59
  -9   2   7    0.27    0.91
   9  -2  -6    6.60    1.01
   9   2  -6    7.37    1.01
   9   2  -6    3.61    1.53
  -9  -2   6    4.47    1.26
  -9   2   6    4.38    1.13
  -9   2   6    7.97    1.81
   9   2  -5    8.47    2.13
   9  -2  -5    8.54    1.19
   9   2  -5    9.95    1.21
  -9  -2   5    6.47    1.48
  -9   2   5    7.91    1.48
  -9   2   5   12.04    2.11
  -9  -2   4  406.37   27.83
  -9   2   4  413.46   27.71
   9  -2  -4  460.39   27.03
   9   2  -4  466.63   26.97
  -9   2   4  525.62   28.70
   9   2  -4  379.19   28.87
  -9  -2   3   15.05    2.35
  -9   2   3   18.21    2.38
   9   2  -3   12.77    2.72
   9  -2  -3   18.39    1.84
   9   2  -3   22.10    1.89
  -9   2   3   17.96    2.54
  -9  -2   2  338.95   24.85
  -9   2   2  352.37   24.74
  -9   2   2  437.53   25.13
   9  -2  -2  424.68   23.99
   9   2  -2  409.31   23.87
   9   2  -2  346.62   25.88
   9   2  -1    1.97    1.16
  -9  -2   1    3.51    1.20
  -9   2   1    2.01    0.79
  -9   2   1    2.47    0.95
   9  -2  -1    2.72    0.63
   9   2  -1    3.34    0.67
   9  -2   0    0.73    0.41
   9   2   0    0.49    0.30
  -9   2   0    0.48    0.50
   9  -2   1    1.71    0.54
   9   2   1    1.35    0.44
  -9   2  -1    1.86    0.71
  -9   2  -2   73.19    5.74
   9   2   2   85.10    6.27
   9  -2   2   82.92    6.43
   9   2   3    6.22    1.32
   9  -2   3   10.15    1.74
   9   2   3    6.67    2.02
  -9   2  -3    6.44    1.10
   9   2   4   17.04    2.19
   9  -2   4   15.95    2.35
   9   2   4   19.65    3.30
  -9   2  -4   15.32    1.64
   9   2   5   -0.17    0.54
   9  -2   5    0.21    0.61
   9   2   5   -0.35    0.96
  -9   2  -5    0.13    0.26
   9   2   6   47.86    5.27
   9   2   6   45.78    4.08
   9  -2   6   51.66    4.57
  -9   2  -6   39.10    2.78
   9   2   7    0.98    1.03
   9   2   7    1.37    0.72
   9  -2   7    2.20    1.08
  -9  -2  -8    3.09    1.98
   9   2   8    5.60    1.73
   9   2   8    2.69    1.07
   9  -2   8    3.66    1.34
  -9  -2  -9    1.02    1.78
   9   2   9    0.88    0.97
   9   2   9    1.52    0.99
   9  -2   9    1.11    1.02
   9   2  10  121.34    8.70
   9   2  10  131.39    8.52
  -9  -2 -10  103.68   10.11
  -9  -2 -11   15.43    3.65
   9   2  11   23.62    3.02
   9  -2  11   27.14    3.62
   9  -2  11   13.40    2.63
   9   2  12  255.46   15.14
   9  -2  12  315.35   16.73
  -9  -2 -12  196.34   16.43
  -9  -2 -13    0.49    1.22
   9  -2  13   -0.27    0.88
   9   2  13    0.55    1.13
   9  -2  13   -0.35    1.18
  -9  -2 -14    3.45    1.90
   9   2  14    3.71    1.46
   9  -2  14    5.19    2.02
  -9  -2 -15    2.46    1.89
   9   2  15    2.39    1.37
   9  -2  15    5.13    2.06
  -9  -2 -16    9.35    2.82
   9   2  16   12.09    2.46
   9  -2  16   17.81    3.34
   9   2  17    6.38    2.00
   9  -2  17    7.91    2.68
   9   2  18   77.21    7.38
   9   3 -17    8.81    1.40
   9   3 -16   92.24    6.71
   9  -3 -16   98.38    6.88
   9   3 -15   23.37    2.30
   9  -3 -15   22.27    2.33
   9  -3 -15   15.56    2.81
   9   3 -14    0.55    0.60
   9  -3 -14    0.97    0.73
   9   3 -14    0.40    0.73
   9  -3 -14    1.60    0.94
   9   3 -13    0.63    0.87
   9   3 -13   -0.87    0.64
   9  -3 -13    0.25    0.65
   9  -3 -13    0.75    0.83
   9   3 -12   43.88    4.54
   9   3 -12   52.84    3.98
   9  -3 -12   57.55    4.29
   9   3 -11   69.29    5.88
  -9   3  11   60.68    5.22
   9  -3 -11   55.27    5.52
   9   3 -11   65.95    4.71
   9  -3 -11   66.46    4.82
   9   3 -10  282.19   18.87
  -9  -3  10  287.75   18.45
  -9   3  10  282.88   18.27
   9  -3 -10  230.83   18.33
   9   3 -10  288.06   17.53
   9  -3 -10  314.43   17.73
   9   3  -9   40.29    4.14
  -9  -3   9   35.32    3.69
  -9   3   9   37.32    3.62
   9   3  -9   41.89    3.05
   9  -3  -9   39.45    3.10
   9   3  -8    7.28    1.66
  -9  -3   8    8.12    1.62
  -9   3   8    6.05    1.35
   9  -3  -8    7.52    1.49
   9   3  -8    8.94    1.14
   9  -3  -8    8.41    1.16
   9   3  -7    3.19    1.13
  -9  -3   7    0.75    0.76
  -9   3   7    2.55    1.01
   9   3  -7    2.54    0.62
   9  -3  -7    2.75    0.69
   9   3  -6    0.23    0.76
  -9  -3   6    0.60    0.73
   9   3  -6   -0.08    0.38
   9  -3  -6    0.09    0.40
   9   3  -5   19.70    2.78
   9  -3  -5   19.68    1.89
   9   3  -5   19.67    1.81
  -9   3   5   18.44    2.41
  -9  -3   5   15.93    2.48
   9   3  -4   34.74    4.03
  -9  -3   4   30.51    3.78
  -9   3   4   33.67    3.66
   9  -3  -4   41.12    3.12
   9   3  -4   42.25    3.04
   9   3  -3    0.24    0.75
   9  -3  -3    0.18    0.42
   9   3  -3    0.16    0.32
  -9  -3   3    0.22    0.90
   9   3  -2   54.63    5.57
   9  -3  -2   67.67    4.62
   9   3  -2   61.97    4.43
   9  -3  -1   43.77    3.26
   9   3  -1   37.86    3.06
   9  -3   0    5.75    0.93
   9   3   0    5.25    0.83
   9  -3   1    1.00    0.48
   9   3   1    0.61    0.32
  -9  -3  -2   16.39    3.99
   9  -3   2   21.45    2.01
   9   3   2   20.63    1.86
  -9  -3  -3   24.42    4.84
   9  -3   3   29.36    2.60
   9   3   3   30.15    2.44
   9  -3   4  377.51   22.15
   9   3   4  358.65   21.84
  -9  -3  -5   70.33    8.92
   9   3   5   84.40    6.52
   9   3   6   35.86    3.46
   9  -3   6   40.48    4.03
  -9  -3  -6   32.82    5.56
   9   3   7    0.79    0.76
   9  -3   7    3.16    1.22
   9   3   8    2.30    0.92
   9  -3   8    3.65    1.30
   9   3   9    4.57    1.24
   9  -3   9    9.11    2.10
   9   3  10   78.10    6.73
  -9  -3 -10   70.10    8.90
  -9  -3 -11   12.43    3.43
   9   3  11   12.06    2.09
  -9  -3 -12    0.53    1.44
   9   3  12   -0.21    0.98
   9  -3  12    1.04    1.53
  -9  -3 -13    3.16    2.18
   9   3  13    2.51    1.17
   9  -3  13    3.01    1.82
  -9  -3 -14   -0.52    1.40
   9   3  14    0.24    0.80
   9  -3  14   -0.41    1.49
   9   3  15   -0.26    0.90
   9  -3  15    0.85    1.49
   9   3  16    2.42    1.34
   9  -3  16    3.08    2.18
   9   3  17   -0.28    1.41
   9   4 -12    1.82    0.61
   9  -4 -12    1.69    1.00
   9   4 -11    5.44    0.93
   9  -4 -11    7.11    1.61
   9   4 -10    4.25    0.80
   9  -4 -10    3.48    1.11
   9  -4  -9   56.54    5.55
   9   4  -9   77.83    5.01
   9   4  -8    8.12    1.17
   9  -4  -8    4.96    1.26
   9   4  -7    5.25    0.83
   9   4  -6    1.56    0.49
   9   4  -5   19.85    1.80
   9   4  -4   36.32    2.74
   9   4  -3  264.24   16.08
   9   4  -2   38.69    2.90
  -9  -4   1   18.36    4.34
   9   4  -1   18.36    1.64
  -9  -4   0    4.49    2.86
   9  -4   0    5.70    0.92
   9   4   0    5.69    0.83
  -9  -4  -1    0.65    1.44
   9   4   1   -0.19    0.44
  -9  -4  -2    2.61    2.39
   9   4   2    1.91    0.52
  -9  -4  -3   40.01    6.80
   9   4   3   52.26    3.61
  -9  -4  -4    9.18    3.19
   9   4   4    7.17    0.94
   9   4   5   12.22    1.25
   9   4   6    1.32    0.42
   9   4   7    2.65    0.58
   9   4   9   -0.38    0.63
   9   4  10    6.86    1.30
   9   4  11   72.67    5.55
   9   4  12   17.69    2.17
  10   0 -17   -0.15    0.59
  10   0 -16   37.48    3.38
  10   0 -15    0.61    0.43
  10   0 -14   11.91    1.54
  10   0 -13    0.56    0.43
  10   0 -12  143.74    9.52
 -10   0  11   -0.60    0.94
  10   0 -11    0.11    0.36
  10   0 -10    1.64    0.57
 -10   0  10    1.08    0.54
  10   0  -9    0.21    0.34
 -10   0   9   -0.13    0.49
 -10   0   9   -0.28    0.76
  10   0  -8    8.65    1.21
 -10   0   8    7.33    1.30
 -10   0   8   10.86    2.16
 -10   0   7   -0.28    0.49
  10   0  -7    0.10    0.34
 -10   0   7    0.26    0.71
 -10   0   6   -0.15    0.57
  10   0  -6    0.10    0.38
 -10   0   6    0.51    0.79
 -10   0   5    0.48    0.50
  10   0  -5    0.30    0.37
 -10   0   5    0.25    0.68
 -10   0   4  421.67   29.74
  10   0  -4  483.06   29.25
 -10   0   3    0.36    0.49
  10   0  -3    1.02    0.42
 -10   0   3    0.23    0.73
 -10   0   2   28.89    3.50
  10   0  -2   36.90    3.06
 -10   0   1   -0.20    0.74
  10   0  -1   -0.10    0.34
  10   0   0    1.82    1.08
 -10   0   0    2.57    1.00
  10   0   1   -0.31    0.83
  10   0   1    0.82    0.56
  10   0   2  157.09   15.73
  10   0   2  341.85   16.59
  10   0   3    0.65    0.95
  10   0   3    0.86    0.63
  10   0   4   26.48    2.90
  10   0   4    9.96    2.40
  10   0   5   -0.34    0.83
  10   0   5    0.46    0.80
  10   0   6    6.12    1.92
  10   0   6   13.17    2.16
  10   0   7   -0.34    0.75
  10   0   7    0.26    0.75
  10   0   8   85.09    6.35
  10   0   8   39.96    5.38
  10   0   9    0.31    0.92
  10   0   9   -0.28    0.88
  10   0  10   56.53    5.15
  10   0  10   26.73    4.05
  10   0  11   -0.29    0.90
  10   0  11    0.62    0.98
  10   0  12    1.04    0.82
  10   0  12    0.97    1.01
  10   0  13    0.24    0.70
  10   0  13    0.33    0.91
  10   0  14   81.65    7.42
  10   0  14  128.48    9.44
  10   0  15   -0.41    0.72
  10   0  15    0.37    1.14
  10   0  16   40.59    4.25
  10   0  16   72.95    6.63
  10   0  17   -1.14    1.69
 -10   0 -18   50.01    5.54
 -10   0 -19   -0.31    0.97
 -10   0 -20   -0.30    0.74
  10   1 -17   14.89    1.90
  10  -1 -17   12.04    1.78
  10   1 -16    7.79    2.37
  10   1 -16    9.58    1.57
  10  -1 -16    7.49    1.38
  10   1 -15    0.83    1.37
  10   1 -15    0.12    0.49
  10  -1 -15    0.51    0.53
  10   1 -14    5.26    2.07
  10   1 -14    3.28    0.81
  10  -1 -14    4.23    0.87
  10   1 -13    1.12    0.59
  10  -1 -13    1.97    0.67
  10   1 -12  109.11   11.20
  10   1 -12  132.65    8.58
  10  -1 -12  127.29    8.57
  10   1 -11  178.40   11.66
  10  -1 -11  185.41   11.74
 -10   1  11  206.33   13.95
 -10  -1  10  161.67   12.11
 -10   1  10  151.31   11.99
  10   1 -10  205.66   12.00
  10  -1 -10  211.22   12.09
 -10   1  10  235.10   14.33
  10   1 -10  161.45   14.88
 -10  -1   9   21.59    2.66
 -10   1   9   24.47    2.74
  10   1  -9   31.67    2.67
  10  -1  -9   34.47    2.79
  10   1  -9   25.67    4.54
 -10   1   9   41.04    4.32
  10   1  -8    4.39    2.16
  10  -1  -8    1.79    0.55
  10   1  -8    2.12    0.56
 -10  -1   8    1.63    0.70
 -10   1   8    2.04    0.76
 -10   1   8    1.34    0.95
  10   1  -7    0.48    1.30
 -10  -1   7    0.15    0.45
 -10   1   7   -0.46    0.48
  10  -1  -7    0.63    0.44
  10   1  -7    0.40    0.32
 -10   1   7    0.53    0.87
 -10  -1   6   49.30    4.96
 -10   1   6   59.27    5.14
  10  -1  -6   70.08    4.85
  10   1  -6   70.86    4.81
 -10   1   6   79.35    6.30
 -10  -1   6   67.58    6.04
  10   1  -6   56.13    7.04
 -10  -1   5  108.96    8.25
 -10   1   5  104.93    8.17
  10  -1  -5  119.69    7.74
  10   1  -5  115.24    7.62
 -10   1   5  137.04    9.24
  10   1  -5   86.91    9.75
 -10  -1   4   69.23    5.83
 -10   1   4   63.17    5.67
  10  -1  -4   75.14    5.25
  10   1  -4   73.56    5.16
  10   1  -3    0.85    1.35
 -10  -1   3    3.56    1.18
 -10   1   3    1.54    0.83
  10  -1  -3    6.89    1.03
  10   1  -3    6.70    0.98
 -10   1   3    5.43    1.38
 -10  -1   2    0.62    0.61
 -10   1   2    1.00    0.67
  10  -1  -2    1.85    0.57
  10   1  -2    1.14    0.49
 -10   1   2    2.66    1.04
  10  -1  -1    1.25    0.49
  10   1  -1    0.95    0.41
 -10  -1   1    0.44    0.64
 -10   1   1    0.42    0.70
 -10   1   1    0.60    0.73
 -10  -1   0   33.38    4.12
 -10   1   0   50.07    4.32
  10  -1   0   47.96    3.68
  10   1   0   48.38    3.58
  10   1   0   33.28    4.93
 -10   1  -1   17.80    2.21
  10  -1   1   13.47    1.62
  10   1   1   12.81    1.51
 -10   1  -2   23.72    2.70
  10   1   2   25.06    2.84
  10  -1   2   25.83    3.03
  10   1   3   62.71    5.64
  10  -1   3   73.00    6.09
 -10   1  -3   82.83    5.76
  10   1   4  105.24    8.20
  10  -1   4  108.63    8.50
 -10   1  -4  131.52    8.14
  10   1   5   17.74    2.51
  10  -1   5   19.24    2.79
 -10   1  -5   23.57    2.50
  10   1   6   41.66    3.93
  10  -1   6   44.33    4.27
  10   1   6   37.71    4.79
  10   1   7   30.63    3.32
  10  -1   7   34.74    3.71
  10  -1   7   13.07    2.68
  10   1   7   20.90    3.51
  10  -1   8    2.45    1.27
  10   1   8    5.81    1.88
  10   1   8   10.01    1.88
  10  -1   8   12.73    2.30
  10   1   9   52.16    4.80
  10  -1   9   57.29    5.25
  10   1   9   44.61    5.01
  10   1  10   83.32    8.17
  10   1  10  132.42    8.91
  10  -1  10  140.02    9.41
  10  -1  10   70.36    7.89
  10   1  11   31.76    3.70
  10  -1  11   31.22    3.96
  10  -1  11   14.32    2.73
  10   1  11   16.77    2.91
  10  -1  12    0.82    0.96
  10   1  12    0.26    0.75
  10   1  12    0.30    0.87
  10  -1  12    0.34    1.12
  10  -1  13    0.51    0.85
  10   1  13    0.47    0.69
  10   1  13    2.16    1.23
  10  -1  13    0.35    1.16
  10  -1  14    9.05    1.95
  10   1  14   15.06    2.81
  10  -1  14   14.87    3.05
  10  -1  15   12.00    2.16
 -10   1 -15   14.95    1.95
  10   1  15   22.23    3.35
  10  -1  15   22.92    3.64
 -10   1 -16   15.82    2.03
  10   1  16   18.20    3.34
  10   1  17   -0.36    1.52
  10  -1  17    0.40    1.89
 -10   1 -17    1.11    0.61
 -10  -1 -21   28.72    4.77
  10   2 -16    0.68    1.31
  10   2 -16    0.42    0.61
  10  -2 -16    0.15    0.61
  10   2 -15   -0.36    1.37
  10   2 -15   -0.65    0.86
  10  -2 -15    0.17    0.83
  10   2 -14    1.49    1.54
  10   2 -14    0.48    0.52
  10  -2 -14    1.16    0.77
  10   2 -13   93.43    6.63
  10  -2 -13   99.17    6.77
  10   2 -13   85.72    8.66
  10   2 -12    8.84    2.52
  10   2 -12    7.09    1.13
  10  -2 -12    7.32    1.20
  10   2 -11   35.15    3.07
  10  -2 -11   40.20    3.23
  10   2 -11   34.32    4.80
  10   2 -10   -0.38    1.12
 -10   2  10    0.34    1.17
  10   2 -10    0.41    0.43
  10  -2 -10    0.22    0.41
  10   2  -9    9.35    1.30
  10  -2  -9   10.44    1.39
  10   2  -9    7.58    2.36
 -10  -2   9   10.80    1.82
 -10   2   9    9.08    1.60
 -10   2   9   11.53    2.44
  10   2  -8   -0.20    0.36
  10  -2  -8   -0.11    0.34
  10   2  -8   -0.37    1.10
 -10  -2   8    0.18    0.76
 -10   2   8    0.17    0.58
 -10   2   8    0.31    1.01
 -10  -2   7   20.65    2.77
 -10   2   7   25.08    2.87
  10  -2  -7   25.19    2.34
  10   2  -7   25.62    2.30
  10   2  -7   20.32    3.61
 -10   2   7   26.27    3.59
  10   2  -6    0.37    1.14
  10  -2  -6    0.63    0.44
  10   2  -6    0.88    0.44
 -10  -2   6    0.40    0.66
 -10   2   6    0.56    0.62
 -10   2   6    1.36    1.17
 -10  -2   5   73.55    6.47
 -10   2   5   79.85    6.49
  10  -2  -5   80.35    5.72
  10   2  -5   82.31    5.68
 -10   2   5   94.15    7.29
  10   2  -5   72.73    7.54
 -10  -2   4   23.68    3.09
 -10   2   4   22.81    2.92
  10   2  -4   17.46    3.38
  10  -2  -4   24.86    2.36
  10   2  -4   28.98    2.41
 -10   2   4   28.83    3.39
 -10  -2   3  274.39   19.48
 -10   2   3  259.08   19.20
  10  -2  -3  310.70   18.45
  10   2  -3  315.68   18.37
 -10   2   3  348.04   19.95
  10   2  -3  241.09   20.26
  10   2  -2    0.36    0.96
  10  -2  -2    1.47    0.57
  10   2  -2    0.57    0.33
 -10  -2   2   -0.24    0.84
 -10   2   2   -0.22    0.80
 -10   2   2    0.21    0.70
  10   2  -1   10.20    2.50
  10  -2  -1   13.26    1.53
  10   2  -1   11.31    1.38
 -10   2   1   12.61    2.05
  10  -2   0    0.62    0.44
  10   2   0    0.91    0.44
 -10   2   0    0.19    0.54
 -10   2  -1   38.24    3.56
  10  -2   1   34.03    2.98
  10   2   1   34.48    2.90
 -10   2  -2    9.54    1.58
  10  -2   2    9.20    1.33
  10   2   2   11.19    1.32
  10   2   3  178.64   15.02
 -10   2  -3  216.93   13.40
  10   2   3  203.70   13.81
  10  -2   3  208.05   14.15
  10   2   4    4.02    1.13
  10  -2   4    4.37    1.28
  10   2   4    4.37    1.77
 -10   2  -4    4.42    0.95
  10   2   5    0.74    0.68
  10  -2   5    0.67    0.75
 -10   2  -5    0.63    0.45
  10   2   6    0.19    0.59
  10  -2   6   -0.23    0.81
 -10   2  -6    0.52    0.37
  10   2   7   33.63    3.44
 -10   2  -7   27.48    2.06
  10   2   8    2.32    0.85
  10  -2   8    2.12    1.18
  10   2   9    6.10    1.62
  10  -2   9   10.76    2.22
  10  -2  10    0.30    0.95
  10   2  10   -0.48    0.79
  10  -2  10    0.60    1.00
  10   2  11   38.84    4.04
  10  -2  11   45.39    4.74
  10  -2  12    0.91    1.01
  10   2  12    2.10    1.20
  10  -2  12    4.37    1.71
  10   2  13   47.87    5.29
  10  -2  13   63.54    6.36
  10   2  14   -0.29    0.97
  10  -2  14   -0.38    1.38
  10   2  15    4.83    1.67
  10  -2  15    6.64    2.27
  10   2  16    0.31    1.50
  10  -2  16    0.40    2.28
  10   3 -15    0.36    0.55
  10  -3 -15    0.13    0.59
  10   3 -14    1.07    0.59
  10  -3 -14    1.34    0.71
  10   3 -13    3.70    0.99
  10  -3 -13    7.11    1.36
  10   3 -12   19.87    2.12
  10  -3 -12   20.90    2.21
  10   3 -11  217.18   13.88
  10  -3 -11  223.69   14.02
  10   3 -10   30.23    2.65
  10  -3 -10   30.71    2.75
  10   3  -9   11.44    1.43
  10  -3  -9   14.09    1.60
 -10  -3   8    1.47    1.06
 -10   3   8    1.74    1.05
  10   3  -8    1.46    0.54
  10  -3  -8    1.64    0.61
 -10  -3   7    1.31    0.97
 -10   3   7    0.59    0.79
  10   3  -7    1.01    0.50
  10  -3  -7    0.93    0.48
  10   3  -6   20.76    1.96
  10  -3  -6   18.61    1.99
 -10  -3   6   22.21    2.90
 -10   3   6   15.99    2.41
  10  -3  -5  113.87    7.60
  10   3  -5  119.26    7.52
 -10  -3   5  103.05    8.64
 -10   3   5  105.34    8.44
  10  -3  -4   10.68    1.41
  10   3  -4   10.81    1.32
 -10  -3   4    7.26    1.87
 -10   3   4    8.95    1.83
  10  -3  -3    5.89    1.03
  10   3  -3    6.20    0.99
  10  -3  -2   -0.21    0.41
  10   3  -2    0.27    0.43
  10  -3  -1    1.43    0.55
  10   3  -1    1.23    0.52
  10  -3   0   10.22    1.34
  10   3   0    9.28    1.21
  10  -3   1   22.20    2.21
  10   3   1   22.75    2.09
  10  -3   2    1.90    0.62
  10   3   2    2.30    0.59
  10  -3   3   96.25    6.75
  10   3   3   97.28    6.53
  10  -3   4   42.78    3.52
  10   3   4   41.71    3.28
  10   3   5    0.67    0.69
  10  -3   5    1.57    0.93
  10   3   6    7.25    1.41
  10  -3   6    6.71    1.63
  10   3   7   23.05    2.73
  10  -3   7   27.27    3.32
  10   3   8   -0.17    0.72
  10  -3   8   -0.77    1.17
  10   3   9   74.27    6.34
 -10  -3  -9   63.39    8.66
  10   3  10   27.03    3.03
  10  -3  10   31.52    3.99
  10   3  11   28.29    3.33
 -10  -3 -11   21.10    4.56
  10   3  12   -0.43    0.86
  10  -3  12    0.69    1.09
  10   3  13    0.46    0.80
  10  -3  13   -0.74    1.29
  10   3  14   15.67    2.62
  10  -3  14   18.10    3.54
  10   3  15   50.38    5.11
  10   4 -10    0.92    0.51
  10   4  -9    0.11    0.46
  10   4  -8    0.33    0.40
  10   4  -7    1.85    0.56
  10   4  -6    1.49    0.49
  10   4  -5   12.22    1.33
  10   4  -4  112.63    7.32
  10   4  -3    8.67    1.12
  10   4  -2    8.78    1.11
  10   4  -1    5.04    0.85
  10   4   0    0.50    0.50
  10   4   1    5.91    0.88
  10   4   2   73.45    5.01
  10   4   3   15.77    1.55
  10   4   4   16.48    1.60
  10   4   5    0.34    0.36
  10   4   6    0.96    0.39
  10   4   7    4.06    0.73
  10   4   8   41.26    3.12
  10   4   9   -0.14    0.80
  10   4  10   11.96    1.76
  11   0 -15    1.42    0.69
  11   0 -14    0.12    0.48
  11   0 -13  178.16   11.63
  11   0 -12   -0.36    0.47
  11   0 -11   40.44    3.45
  11   0 -10   -0.24    0.40
  11   0  -9    1.14    0.49
  11   0  -8    0.69    0.44
 -11   0   8    0.61    0.89
  11   0  -7   50.72    3.75
 -11   0   7   61.11    5.56
 -11   0   6   -0.35    0.60
  11   0  -6    0.23    0.40
 -11   0   6    1.14    1.00
 -11   0   5   17.22    2.35
  11   0  -5   19.48    2.07
 -11   0   5   24.93    3.36
  11   0  -4    0.11    0.37
 -11   0   4   -0.39    0.77
 -11   0   4    0.55    0.74
 -11   0   3   24.19    3.18
  11   0  -3   32.99    2.90
  11   0  -2    0.33    0.89
 -11   0   2    0.22    0.75
  11   0  -2    0.56    0.33
 -11   0   2   -0.26    0.81
 -11   0   1  168.79   13.02
  11   0  -1  221.57   12.32
  11   0   0    0.12    0.34
  11   0   0    0.65    0.94
  11   0   1   76.93    4.86
  11   0   1   34.62    5.15
  11   0   2   -0.33    0.96
  11   0   2    0.92    0.63
  11   0   3   35.30    5.02
  11   0   3   73.09    5.58
  11   0   4    0.33    0.90
  11   0   4    0.71    0.83
  11   0   5   25.76    3.09
  11   0   5   13.16    2.78
  11   0   6    0.34    0.99
  11   0   6    0.25    0.61
  11   0   7   82.69    6.08
  11   0   7   34.25    5.02
  11   0   8    0.65    1.14
  11   0   8   -0.55    1.00
  11   0   9   21.66    3.07
  11   0   9   13.26    2.73
  11   0  10    0.31    0.97
  11   0  10    0.30    0.87
  11   0  11   89.19    6.89
  11   0  11   41.18    5.23
  11   0  12    0.28    0.91
  11   0  12   -0.33    0.95
  11   0  13  291.90   16.41
  11   0  13  164.52   13.93
  11   0  14    1.06    1.18
  11   0  15   -0.36    1.45
  11   1 -15   24.23    2.45
  11  -1 -15   20.90    2.35
  11   1 -14    9.36    1.45
  11  -1 -14    9.95    1.54
  11   1 -13    3.71    0.87
  11  -1 -13    3.47    0.83
  11   1 -12   33.66    3.04
  11  -1 -12   35.68    3.11
  11   1 -11   17.95    1.97
  11  -1 -11   17.09    1.96
  11   1 -10    3.92    0.91
  11  -1 -10    3.22    0.88
  11   1  -9   57.48    4.40
  11  -1  -9   57.38    4.47
  11   1  -8   15.72    3.56
  11  -1  -8   16.54    1.93
  11   1  -8   17.66    1.92
 -11   1   8   24.63    3.44
  11  -1  -7    6.01    1.04
  11   1  -7    4.90    0.97
 -11   1   7    6.83    1.88
 -11  -1   6   63.79    5.63
 -11   1   6   52.33    5.34
  11  -1  -6   72.15    5.19
  11   1  -6   76.12    5.18
 -11   1   6   82.12    6.80
 -11  -1   6   83.96    6.75
  11   1  -6   52.26    7.04
 -11  -1   5  117.69    9.84
 -11   1   5  122.88    9.89
  11  -1  -5  148.75    9.44
  11   1  -5  154.01    9.40
 -11   1   5  167.89   11.20
 -11  -1   5  172.61   11.27
  11   1  -5   97.67   11.22
 -11  -1   4   16.31    2.43
 -11   1   4   14.24    2.28
  11   1  -4   13.89    3.26
  11  -1  -4   17.36    1.95
  11   1  -4   19.42    1.96
  11   1  -3   -0.87    1.18
  11  -1  -3   -0.12    0.39
  11   1  -3    0.55    0.38
 -11  -1   3    1.32    0.88
 -11   1   3   -0.21    0.79
 -11   1   3    0.25    0.73
 -11  -1   2    0.23    0.80
 -11   1   2   -0.22    0.78
  11  -1  -2    0.35    0.34
  11   1  -2    0.21    0.36
 -11   1   2    0.23    0.63
 -11   1   1    7.22    1.72
  11  -1  -1   11.19    1.42
  11   1  -1    9.33    1.26
 -11   1   1   11.15    2.01
 -11   1   0   49.96    4.47
  11  -1   0   41.91    3.53
  11   1   0   41.70    3.44
  11  -1   1   24.83    2.43
  11   1   1   23.71    2.31
  11   1   2   -0.21    0.78
  11  -1   2    0.48    0.87
  11   1   2    0.76    1.19
 -11   1  -2    1.17    0.75
  11   1   3   -0.37    0.71
  11   1   3    0.43    0.67
  11  -1   3    0.24    0.80
 -11   1  -3    0.19    0.55
  11   1   4   29.99    3.39
  11  -1   4   29.32    3.51
 -11   1  -4   37.04    3.41
  11   1   5  155.38   10.23
  11  -1   5  174.44   10.80
 -11   1  -5  206.16   10.29
  11   1   5  124.68   11.01
  11  -1   6  169.10    9.86
 -11   1  -6  171.52    8.87
  11   1   7   52.84    4.66
  11  -1   7   58.58    5.12
  11  -1   8    5.19    1.73
  11   1   8    8.92    1.86
  11  -1   8    6.99    1.85
  11   1   9   55.12    5.02
  11  -1   9   60.12    5.45
  11   1  10   13.10    2.36
  11  -1  10   12.91    2.47
  11   1  11   12.59    2.38
  11  -1  11   13.99    2.64
  11   1  12   36.02    4.10
  11  -1  12   31.54    4.05
  11  -1  13    0.27    0.91
  11   1  13    0.93    1.09
  11  -1  13    0.35    1.23
  11  -1  14   10.02    2.15
  11   1  14   19.36    3.17
  11  -1  14   20.01    3.48
  11   1  15   36.20    4.65
  11  -1  15   44.61    5.31
 -11   1 -15   34.40    3.41
  11   2 -14   44.20    3.83
  11  -2 -14   48.25    3.98
  11   2 -13    9.36    1.39
  11  -2 -13    8.57    1.39
  11   2 -12  118.98    8.27
  11  -2 -12  124.81    8.39
  11   2 -11   -0.11    0.49
  11  -2 -11    0.24    0.42
  11   2 -10   -0.11    0.49
  11  -2 -10    0.24    0.40
 -11   2   9    0.34    1.35
  11   2  -9   -0.23    0.52
  11  -2  -9    0.12    0.52
  11   2  -8   46.34    3.81
  11  -2  -8   46.86    3.89
 -11   2   8   55.47    5.64
  11  -2  -7   -0.12    0.39
  11   2  -7    0.11    0.40
 -11   2   7    0.61    0.89
  11  -2  -6    2.24    0.70
  11   2  -6    1.53    0.58
 -11   2   6    1.15    1.20
 -11  -2   5   -1.19    1.05
 -11   2   5   -0.22    0.78
  11  -2  -5    0.23    0.47
  11   2  -5    0.22    0.38
 -11   2   5    0.27    0.80
  11  -2  -4    9.72    1.42
  11   2  -4    8.69    1.27
 -11  -2   4    6.33    1.71
 -11   2   4    6.57    1.66
 -11  -2   3    2.28    1.33
 -11   2   3    1.17    0.95
 -11   2   3    3.90    1.33
  11  -2  -3    3.48    0.82
  11   2  -3    3.06    0.76
 -11  -2   2  151.30   12.84
 -11   2   2  159.66   12.74
 -11   2   2  217.71   13.30
  11  -2  -2  189.53   11.87
  11   2  -2  188.34   11.74
 -11   2   1   14.97    2.32
  11  -2  -1   14.05    1.72
  11   2  -1   12.53    1.55
 -11   2   0    6.93    1.50
  11  -2   0    6.16    1.07
  11   2   0    5.89    0.99
  11  -2   1    5.06    0.99
  11   2   1    6.66    1.03
 -11   2  -1    5.25    1.32
  11  -2   2  151.26   10.29
  11   2   2  146.13   10.08
  11   2   3    0.64    0.43
 -11   2  -3    1.54    0.82
  11  -2   3    1.13    0.67
  11   2   4    8.23    1.67
  11  -2   4    7.40    1.80
 -11   2  -4    8.81    1.43
  11   2   5    1.00    0.71
  11  -2   5    1.46    1.01
 -11   2  -5    1.62    0.66
  11   2   6    4.28    1.25
  11  -2   6    5.70    1.56
 -11   2  -6    5.49    0.97
  11   2   7    3.13    1.18
  11  -2   7    4.58    1.51
 -11   2  -7    4.45    0.72
  11   2   8   64.34    5.85
  11  -2   8   76.77    6.59
  11  -2   9    0.33    0.81
  11   2   9    0.23    0.66
  11  -2   9    1.13    0.99
  11  -2  10    2.33    1.45
  11   2  10    6.25    1.64
  11  -2  10    6.32    1.84
  11  -2  11    0.67    1.12
  11   2  11    1.26    1.08
  11  -2  11    0.32    1.00
  11   2  12  186.98   14.21
  11  -2  12  223.69   15.33
  11   2  13   16.03    2.67
  11  -2  13   11.73    2.71
  11   2  14  106.73    9.18
  11  -2  14  122.79   10.23
  11   3 -13    0.43    0.67
  11  -3 -13    1.19    0.77
  11   3 -12   27.93    2.64
  11  -3 -12   28.35    2.76
  11  -3 -11    9.63    1.51
  11   3 -11   10.88    1.47
  11   3 -10    2.83    0.82
  11  -3 -10    3.53    0.88
  11   3  -9    7.72    1.15
  11  -3  -9    7.76    1.25
  11   3  -8   30.85    2.86
  11  -3  -8   37.62    3.11
  11   3  -7    0.10    0.56
  11  -3  -7   -0.12    0.62
  11   3  -6  107.84    7.26
  11  -3  -6  104.80    7.37
  11  -3  -5   29.19    2.70
  11   3  -5   28.99    2.58
  11  -3  -4   20.96    2.22
  11   3  -4   22.61    2.17
  11  -3  -3   -0.11    0.56
  11   3  -3   -0.10    0.45
  11  -3  -2   -0.24    0.54
  11   3  -2   -0.20    0.43
  11  -3  -1    6.20    1.11
  11   3  -1    6.42    1.02
  11  -3   0   40.45    3.47
  11   3   0   42.87    3.37
  11  -3   1    6.39    1.14
  11   3   1    6.32    1.02
  11  -3   2    0.47    0.54
  11   3   2    0.66    0.42
  11  -3   3    0.72    0.62
  11   3   3    0.56    0.44
  11  -3   4   28.83    2.71
  11   3   4   25.83    2.40
  11  -3   5   29.19    2.77
  11   3   5   25.55    2.40
  11   3   6  150.30   11.16
  11  -3   6  181.12   12.21
  11   3   7    7.57    1.58
  11  -3   7    9.65    2.06
  11   3   8    8.80    1.79
  11  -3   8   13.59    2.48
  11   3   9    4.01    1.18
  11  -3   9   10.76    2.24
  11   3  10    6.48    1.52
  11  -3  10    6.24    1.87
  11   3  11    0.41    0.71
  11  -3  11   -0.32    1.11
  11   3  12   17.59    2.63
  11  -3  12   27.15    3.93
  11   3  13   -0.45    1.17
  11   4  -6    1.30    0.51
  11   4  -5    3.78    0.74
  11   4  -4    0.57    0.45
  11   4  -3    6.04    0.97
  11   4  -2   16.90    1.70
  11   4  -1   58.64    4.23
  11   4   0   -0.08    0.56
  11   4   1   33.73    2.74
  11   4   2    8.17    1.11
  11   4   3    7.12    1.04
  11   4   4    0.08    0.43
  11   4   5    1.45    0.49
  11   4   6    0.07    0.38
  12   0 -13   -0.13    0.54
  12   0 -12   -0.13    0.43
  12   0 -11   -0.13    0.56
  12   0 -10   34.25    3.16
  12   0  -9   -0.13    0.55
  12   0  -8   66.45    5.10
  12   0  -7   -0.13    0.40
  12   0  -6   19.46    2.15
  12   0  -5    0.25    0.42
 -12   0   5    0.31    0.91
  12   0  -4   74.38    5.68
 -12   0   4   83.60    7.35
  12   0  -3    0.64    0.43
 -12   0   3   -0.30    1.10
  12   0  -2  322.14   22.21
 -12   0   2  483.96   24.86
  12   0  -1    0.50    0.34
 -12   0   1   -0.29    0.95
  12   0   0    1.28    0.53
 -12   0   0    0.57    1.10
  12   0   1   -0.13    0.38
  12   0   2   19.38    2.17
  12   0   3    0.51    0.74
  12   0   4  331.78   21.95
  12   0   5    0.25    0.75
  12   0   6    2.33    1.12
  12   0   7    0.26    0.77
  12   0   8   51.07    5.23
  12   0   9    0.28    0.95
  12   0  10   12.93    2.51
  12   0  11    1.24    1.09
  12   0  12  197.19   14.64
  12   0  13   -0.66    1.47
  12   1 -13    0.51    0.55
  12  -1 -13    1.07    0.55
  12   1 -12   -0.13    0.61
  12   1 -11   16.71    2.00
  12  -1 -11   16.79    2.03
  12   1 -10  130.87    8.78
  12  -1 -10  124.01    8.77
  12   1  -9   80.41    6.06
  12  -1  -9   87.97    6.22
  12  -1  -8   21.64    2.35
  12   1  -8   22.45    2.30
  12  -1  -7    4.31    0.99
  12   1  -7    3.45    0.89
 -12   1   7    5.33    1.86
  12  -1  -6   21.01    2.30
  12   1  -6   21.53    2.25
 -12   1   6   20.69    3.38
  12  -1  -5    3.92    0.93
  12   1  -5    1.10    0.53
 -12   1   5    2.73    1.35
  12  -1  -4   83.73    6.46
  12   1  -4   88.54    6.42
  12  -1  -3   54.03    4.36
  12   1  -3   49.78    4.20
  12  -1  -2   11.83    1.64
  12   1  -2   12.15    1.60
 -12   1   2   14.00    2.46
  12  -1  -1    8.61    1.37
  12   1  -1    8.04    1.27
 -12   1   0   57.15    5.19
  12  -1   0   51.19    4.19
  12   1   0   47.51    4.02
 -12   1  -1   23.81    3.01
  12  -1   1   21.99    2.36
  12   1   1   21.86    2.28
  12  -1   2    9.90    1.47
 -12   1  -2   11.42    1.99
  12   1   2    7.63    1.25
 -12   1  -3   24.51    2.97
  12   1   3   20.92    2.87
  12  -1   3   23.61    3.21
 -12   1  -4  168.39   11.22
  12   1   4  143.55   11.21
  12  -1   4  157.14   11.68
  12   1   5  136.46    9.86
  12  -1   5  114.49    9.80
 -12   1  -5  134.02    9.42
  12   1   6   81.44    7.46
  12  -1   6  106.54    8.23
 -12   1  -6   99.63    7.31
  12   1   7    4.09    1.34
  12  -1   7    4.07    1.44
 -12   1  -7    7.25    1.48
  12  -1   8   -0.28    1.24
 -12   1  -8    0.17    0.59
  12   1   9    6.00    1.79
  12  -1   9   10.55    2.27
  12   1  10   85.72    7.71
  12  -1  10   99.32    8.28
  12   1  11   97.24    8.49
  12  -1  11  108.34    9.03
  12   1  12   81.86    7.36
  12  -1  12   78.71    7.55
  12   2 -12    0.25    0.62
  12   2 -11   24.58    2.53
  12  -2 -11   28.67    2.75
  12   2 -10    1.74    0.71
  12  -2 -10    2.66    0.84
  12   2  -9    1.25    0.60
  12  -2  -9    2.55    0.79
  12   2  -8    4.84    1.01
  12  -2  -8    4.43    1.00
  12  -2  -7   56.62    4.65
  12   2  -7   58.88    4.61
  12  -2  -6    0.52    0.50
  12   2  -6    0.84    0.44
 -12   2   6    0.61    0.90
  12  -2  -5    6.05    1.15
  12   2  -5    4.84    0.99
 -12   2   5    3.76    1.49
  12  -2  -4    1.98    0.83
  12   2  -4    3.45    0.87
  12  -2  -3  196.24   12.90
  12   2  -3  189.78   12.74
 -12   2   3  227.60   14.50
  12  -2  -2    7.52    1.25
  12   2  -2    8.59    1.28
 -12   2   2    9.57    2.01
 -12   2   1  113.55    8.16
  12  -2  -1   88.90    6.88
  12   2  -1   97.37    6.82
  12  -2   0    0.90    0.57
  12   2   0    0.90    0.45
 -12   2   0    1.10    0.98
  12  -2   1    5.23    1.05
  12   2   1    5.31    0.97
 -12   2  -1    5.12    1.34
 -12   2  -2    1.70    0.98
  12  -2   2    0.53    0.46
  12   2   2    1.46    0.55
 -12   2  -3  148.23    9.45
  12  -2   3  121.94    8.85
  12   2   3  124.99    8.66
  12  -2   4    8.70    1.47
  12   2   4    9.06    1.38
 -12   2  -4   12.87    1.79
 -12   2  -5   76.77    5.44
  12   2   5   59.31    5.77
  12  -2   5   67.53    6.28
  12   2   6   -0.22    0.90
  12  -2   6   -0.26    1.09
 -12   2  -6    0.91    0.66
  12   2   7   47.90    4.79
  12  -2   7   56.40    5.45
  12   2   8   -0.22    0.86
  12  -2   8   -0.28    1.01
  12   2   9    6.65    1.61
  12  -2   9    5.97    1.70
  12   2  10    3.59    1.44
  12  -2  10    3.27    1.48
  12   2  11   67.82    6.33
  12  -2  11   75.30    7.05
  12   2  12    0.26    1.19
  12   3 -10   24.16    2.48
  12  -3 -10   28.34    2.71
  12   3  -9  102.17    6.89
  12  -3  -9   94.11    6.94
  12   3  -8    7.30    1.21
  12  -3  -8    6.22    1.20
  12   3  -7    4.87    1.05
  12  -3  -7    4.36    1.08
  12   3  -6    2.45    0.79
  12  -3  -6    1.90    0.78
  12  -3  -5    1.24    0.66
  12   3  -5    1.09    0.54
  12  -3  -4    7.74    1.35
  12   3  -4    5.84    1.10
  12  -3  -3   71.31    5.50
  12   3  -3   76.42    5.42
  12  -3  -2    1.04    0.71
  12   3  -2    2.10    0.74
  12  -3  -1   19.52    2.21
  12   3  -1   19.38    2.05
  12  -3   0   18.21    2.06
  12   3   0   15.97    1.85
  12  -3   1   15.03    1.95
  12   3   1   16.94    1.88
  12  -3   3   24.16    2.46
  12   3   3   19.58    2.07
  12  -3   4   18.99    2.20
  12   3   4   18.20    1.94
  12  -3   5  166.43   10.66
  12   3   5  150.20   10.15
  12  -3   6   37.99    3.44
  12   3   6   34.36    3.03
  12   3   7    5.55    1.49
  12  -3   7    6.19    1.79
  12  -3   8   -0.87    1.25
  12   3   9    3.03    1.18
  12  -3   9    6.61    1.98
  12   3  10   18.24    2.64
  13   0  -9    0.27    0.48
  13   0  -8   -0.14    0.49
  13   0  -7    3.05    0.89
  13   0  -6   -0.14    0.53
  13   0  -5    0.28    0.60
  13   0  -4    0.97    0.58
  13   0  -3  150.22   10.21
  13   0  -2    0.86    0.50
 -13   0   2    1.30    1.25
  13   0  -1   27.24    2.84
 -13   0   1   39.08    4.47
  13   0   0   -0.14    0.40
 -13   0   0   -0.31    1.02
 -13   0  -1   48.74    5.12
  13   0   1   38.54    3.59
  13   0   2    2.85    0.87
  13   0   3  444.74   27.46
  13   0   4    0.55    1.13
  13   0   5   29.10    3.72
  13   0   6    0.82    1.00
  13   0   7    7.96    1.88
  13   0   8    0.28    0.81
  13   0   9   35.67    4.25
  13   0  10    0.30    1.09
  13   1 -10   65.19    5.14
  13   1  -9   53.50    4.45
  13  -1  -9   56.86    4.58
  13  -1  -8    2.41    0.89
  13   1  -8    2.54    0.82
  13  -1  -7   -0.14    0.79
  13   1  -7   -0.27    0.68
  13  -1  -6   21.53    2.37
  13   1  -6   18.48    2.17
  13  -1  -5  147.66   10.10
  13   1  -5  147.36    9.99
  13  -1  -4  149.32   10.41
  13   1  -4  145.20   10.25
  13  -1  -3  118.97    8.60
  13   1  -3  117.31    8.45
  13  -1  -2    3.98    1.00
  13   1  -2    3.75    0.92
 -13   1   2    4.42    1.64
  13  -1  -1    5.76    1.20
  13   1  -1    7.29    1.24
 -13   1   0    2.10    1.09
  13  -1   0    0.72    0.57
  13   1   0    1.42    0.64
  13  -1   1    3.90    0.93
  13   1   1    2.33    0.75
 -13   1  -1    2.27    1.16
  13  -1   2    2.63    0.86
  13   1   2    3.53    0.88
 -13   1  -2    4.49    1.42
  13  -1   3    1.79    0.71
  13   1   3    2.40    0.67
 -13   1  -3    1.57    0.94
 -13   1  -4   35.95    3.76
  13   1   4   31.08    3.77
  13  -1   4   30.55    3.93
 -13   1  -5   60.47    5.23
  13   1   5   57.17    5.44
  13  -1   5   51.07    5.50
  13   1   6    9.82    2.05
  13  -1   6    7.95    2.02
 -13   1  -6   11.19    1.87
  13   1   7   -0.25    1.19
  13  -1   7   -0.29    1.30
 -13   1  -7   -0.36    0.69
  13   1   8    2.83    1.28
  13  -1   8    3.18    1.51
 -13   1  -8    3.42    1.09
  13   1   9   76.72    7.11
  13  -1   9   95.27    7.81
  13   2  -8    8.14    1.34
  13  -2  -8    7.52    1.34
  13  -2  -7   -0.14    0.66
  13   2  -7   -0.26    0.59
  13  -2  -6    0.57    0.63
  13   2  -6    0.65    0.58
  13  -2  -5    0.14    0.58
  13   2  -5   -0.39    0.59
 -13   2   5   -0.31    0.95
  13  -2  -4   47.65    3.96
  13   2  -4   41.18    3.73
 -13   2   4   45.82    4.98
 -13   2   3    4.41    1.55
  13  -2  -3    4.40    0.98
  13   2  -3    4.46    0.95
  13  -2  -2   96.39    7.10
  13   2  -2   93.70    6.90
 -13   2   2  111.26    8.46
  13  -2  -1    0.57    0.55
  13   2  -1    1.13    0.59
 -13   2   1    2.01    1.08
  13  -2   0    0.29    0.64
  13   2   0    0.88    0.46
 -13   2   0    0.24    0.78
 -13   2  -1    1.32    1.06
  13  -2   1    1.41    0.65
  13   2   1    1.58    0.59
  13  -2   2  173.88   12.22
  13   2   2  181.73   12.06
  13  -2   3   20.16    2.29
  13   2   3   20.11    2.17
  13  -2   4  190.17   11.96
  13   2   4  168.14   11.55
  13  -2   5    0.45    0.57
  13   2   5    0.25    0.48
  13   2   6    1.17    1.04
  13  -2   6    3.12    1.51
  13   2   7    0.93    0.93
  13  -2   7    1.14    1.30
  13   2   8    8.81    1.82
  13  -2   8    5.84    1.88
  13   3  -6   15.98    1.94
  13  -3  -5   39.19    3.53
  13   3  -5   38.24    3.37
  13  -3  -4  186.57   12.34
  13   3  -4  186.98   12.14
  13  -3  -3   26.94    2.73
  13   3  -3   26.61    2.57
  13  -3  -2    2.12    0.87
  13   3  -2    3.21    0.88
  13  -3  -1    0.43    0.67
  13   3  -1    0.47    0.59
  13  -3   0    1.56    0.81
  13   3   0    1.27    0.60
  13  -3   1    0.14    0.73
  13   3   1    0.34    0.52
  13  -3   2    3.87    1.08
  13   3   2    4.15    0.97
  13  -3   3    2.46    0.91
  13   3   3    1.32    0.66
  13  -3   4   39.00    3.48
  13   3   4   32.46    3.00
  13  -3   5   14.29    2.01
  13   3   5   15.46    1.80
  14   0  -5    0.16    0.60
  14   0  -4    3.21    0.93
  14   0  -3    0.46    0.54
  14   0  -2    0.46    0.54
  14   0  -1    0.16    0.49
  14   0   0    0.91    0.61
  14   0   2  196.98   13.09
  14   0   3    0.46    0.53
  14   0   4   10.68    1.68
  14   0   5   -0.29    1.11
  14  -1  -4  110.75    7.84
  14   1  -4  103.23    7.61
  14  -1  -3   11.67    1.75
  14   1  -3    9.64    1.50
  14  -1  -2    2.05    0.81
  14   1  -2    3.01    0.88
  14  -1  -1   -0.16    0.72
  14   1  -1    0.58    0.54
 -14   1   1   -0.30    1.12
  14  -1   0   26.16    2.85
  14   1   0   25.90    2.72
  14  -1   1   44.50    4.08
  14   1   1   44.13    3.93
 -14   1  -2   36.49    4.16
  14  -1   2   34.59    3.36
  14   1   2   33.73    3.20
  14  -1   3    3.45    0.99
  14   1   3    3.36    0.88
 -14   1  -4    1.81    0.94
  14   1   4    1.14    0.57
   0   0   0    0.00    0.00
;
_shelx_hkl_checksum              96651
loop_
_space_group_symop_operation_xyz
'x, y, z'
'-x+1/2, y+1/2, -z+1/2'
'-x, -y, -z'
'x-1/2, -y-1/2, z-1/2'
loop_
_atom_site_label
_atom_site_type_symbol
_atom_site_fract_x
_atom_site_fract_y
_atom_site_fract_z
_atom_site_U_iso_or_equiv
_atom_site_adp_type
_atom_site_occupancy
_atom_site_site_symmetry_order
_atom_site_calc_flag
_atom_site_refinement_flags_posn
_atom_site_refinement_flags_adp
_atom_site_refinement_flags_occupancy
_atom_site_disorder_assembly
_atom_site_disorder_group
Cu1 Cu 0.67349(8) 0.13984(17) 0.20832(4) 0.0231(3) Uani 1 1 d . . . . .
Cu2 Cu 0.54659(8) -0.34942(16) 0.13983(4) 0.0190(3) Uani 1 1 d . . . . .
I1 I 0.63760(4) 0.14144(8) 0.07764(2) 0.0151(2) Uani 1 1 d . . . . .
I2 I 0.59199(4) -0.36038(8) 0.27642(2) 0.0140(2) Uani 1 1 d . . . . .
C3 C 0.1810(6) -0.3718(12) 0.1475(3) 0.0172(14) Uani 1 1 d . . . . .
H3A H 0.1081 -0.3195 0.1646 0.021 Uiso 1 1 calc R U . . .
C2 C 0.2855(5) -0.2692(14) 0.1713(3) 0.0168(13) Uani 1 1 d . . . . .
H2A H 0.2968 -0.1307 0.2077 0.020 Uiso 1 1 calc R U . . .
C1 C 0.3193(6) -0.5771(13) 0.0860(3) 0.0163(13) Uani 1 1 d . . . . .
H1A H 0.3569 -0.6922 0.0521 0.020 Uiso 1 1 calc R U . . .
C4 C 0.1169(5) -0.7385(14) 0.0510(3) 0.0150(12) Uani 1 1 d . . . . .
H4A H 0.0589 -0.8321 0.0806 0.018 Uiso 1 1 calc R U . . .
H4B H 0.1556 -0.9090 0.0268 0.018 Uiso 1 1 calc R U . . .
C5 C 0.0568(6) -0.5256(14) -0.0003(3) 0.0185(13) Uani 1 1 d . . . . .
H5A H 0.1014 -0.4267 -0.0336 0.022 Uiso 1 1 calc R U . . .
N1 N 0.3742(5) -0.4058(11) 0.1320(3) 0.0159(11) Uani 1 1 d . . . . .
N2 N 0.2033(4) -0.5680(11) 0.0931(2) 0.0115(10) Uani 1 1 d . . . . .
loop_
_atom_site_aniso_label
_atom_site_aniso_U_11
_atom_site_aniso_U_22
_atom_site_aniso_U_33
_atom_site_aniso_U_23
_atom_site_aniso_U_13
_atom_site_aniso_U_12
Cu1 0.0220(6) 0.0241(5) 0.0232(5) -0.0007(3) 0.0042(4) -0.0014(3)
Cu2 0.0121(5) 0.0187(5) 0.0263(5) -0.0023(3) 0.0000(4) -0.0032(3)
I1 0.0152(3) 0.0119(3) 0.0182(3) -0.00145(13) 0.0026(2) -0.00150(13)
I2 0.0121(3) 0.0126(3) 0.0173(3) -0.00053(12) 0.0022(2) -0.00055(12)
C3 0.017(4) 0.013(3) 0.022(3) -0.003(2) 0.008(3) 0.002(2)
C2 0.019(4) 0.012(3) 0.020(3) 0.000(2) 0.002(3) 0.000(2)
C1 0.017(3) 0.013(3) 0.019(3) -0.001(2) 0.002(3) 0.003(2)
C4 0.011(3) 0.014(3) 0.021(3) -0.002(2) 0.000(2) -0.006(2)
C5 0.023(3) 0.014(3) 0.018(3) -0.003(2) -0.003(3) -0.007(3)
N1 0.011(3) 0.020(3) 0.018(3) -0.0018(19) 0.002(2) -0.0009(19)
N2 0.009(3) 0.011(2) 0.015(2) -0.0012(19) -0.008(2) 0.0017(19)
loop_
_atom_type_symbol
_atom_type_description
_atom_type_scat_dispersion_real
_atom_type_scat_dispersion_imag
_atom_type_scat_source
C C 0.0033 0.0016 'International Tables Vol C Tables 4.2.6.8 and 6.1.1.4'
H H 0.0000 0.0000 'International Tables Vol C Tables 4.2.6.8 and 6.1.1.4'
N N 0.0061 0.0033 'International Tables Vol C Tables 4.2.6.8 and 6.1.1.4'
Cu Cu 0.3201 1.2651 'International Tables Vol C Tables 4.2.6.8 and 6.1.1.4'
I I -0.4742 1.8119 'International Tables Vol C Tables 4.2.6.8 and 6.1.1.4'
loop_
_geom_angle_atom_site_label_1
_geom_angle_atom_site_label_2
_geom_angle_atom_site_label_3
_geom_angle
_geom_angle_site_symmetry_1
_geom_angle_site_symmetry_3
_geom_angle_publ_flag
I1 Cu1 I2 115.93(3) . 1_565 ?
I1 Cu1 I2 116.18(3) . . ?
I2 Cu1 I2 104.59(3) 1_565 . ?
I1 Cu1 I2 105.05(3) . 2_655 ?
I2 Cu1 I2 107.30(3) 1_565 2_655 ?
I2 Cu1 I2 107.26(3) . 2_655 ?
I1 Cu1 Cu2 57.43(3) . . ?
I2 Cu1 Cu2 128.83(4) 1_565 . ?
I2 Cu1 Cu2 58.79(2) . . ?
I2 Cu1 Cu2 123.69(3) 2_655 . ?
I1 Cu1 Cu2 58.00(3) . 1_565 ?
I2 Cu1 Cu2 57.94(2) 1_565 1_565 ?
I2 Cu1 Cu2 129.61(4) . 1_565 ?
I2 Cu1 Cu2 122.86(3) 2_655 1_565 ?
Cu2 Cu1 Cu2 93.96(4) . 1_565 ?
N1 Cu2 I1 117.14(15) . . ?
N1 Cu2 I1 104.96(14) . 1_545 ?
I1 Cu2 I1 105.39(3) . 1_545 ?
N1 Cu2 I2 104.80(14) . . ?
I1 Cu2 I2 113.25(3) . . ?
I1 Cu2 I2 111.04(3) 1_545 . ?
N1 Cu2 Cu1 128.56(14) . . ?
I1 Cu2 Cu1 56.09(2) . . ?
I1 Cu2 Cu1 126.38(4) 1_545 . ?
I2 Cu2 Cu1 57.20(3) . . ?
N1 Cu2 Cu1 115.90(15) . 1_545 ?
I1 Cu2 Cu1 126.65(4) . 1_545 ?
I1 Cu2 Cu1 54.69(2) 1_545 1_545 ?
I2 Cu2 Cu1 56.36(3) . 1_545 ?
Cu1 Cu2 Cu1 93.96(4) . 1_545 ?
Cu1 I1 Cu2 66.48(3) . . ?
Cu1 I1 Cu2 67.31(3) . 1_565 ?
Cu2 I1 Cu2 105.39(3) . 1_565 ?
Cu1 I2 Cu1 104.59(3) 1_545 . ?
Cu1 I2 Cu1 72.73(3) 1_545 2_645 ?
Cu1 I2 Cu1 72.71(3) . 2_645 ?
Cu1 I2 Cu2 65.70(3) 1_545 . ?
Cu1 I2 Cu2 64.01(3) . . ?
Cu1 I2 Cu2 106.94(3) 2_645 . ?
C2 C3 N2 106.8(5) . . ?
C2 C3 H3A 126.6 . . ?
N2 C3 H3A 126.6 . . ?
C3 C2 N1 108.9(5) . . ?
C3 C2 H2A 125.5 . . ?
N1 C2 H2A 125.5 . . ?
N1 C1 N2 112.6(5) . . ?
N1 C1 H1A 123.7 . . ?
N2 C1 H1A 123.7 . . ?
N2 C4 C5 112.5(5) . . ?
N2 C4 H4A 109.1 . . ?
C5 C4 H4A 109.1 . . ?
N2 C4 H4B 109.1 . . ?
C5 C4 H4B 109.1 . . ?
H4A C4 H4B 107.8 . . ?
C5 C5 C4 122.5(7) 3_545 . ?
C5 C5 H5A 118.8 3_545 . ?
C4 C5 H5A 118.8 . . ?
C1 N1 C2 104.9(5) . . ?
C1 N1 Cu2 126.0(4) . . ?
C2 N1 Cu2 129.1(4) . . ?
C1 N2 C3 106.8(5) . . ?
C1 N2 C4 126.4(5) . . ?
C3 N2 C4 126.8(5) . . ?
loop_
_geom_bond_atom_site_label_1
_geom_bond_atom_site_label_2
_geom_bond_distance
_geom_bond_site_symmetry_2
_geom_bond_publ_flag
Cu1 I1 2.5842(10) . ?
Cu1 I2 2.6687(7) 1_565 ?
Cu1 I2 2.6701(7) . ?
Cu1 I2 2.7046(11) 2_655 ?
Cu1 Cu2 2.8552(12) . ?
Cu1 Cu2 2.9215(12) 1_565 ?
Cu2 N1 1.997(6) . ?
Cu2 I1 2.6242(7) . ?
Cu2 I1 2.6856(7) 1_545 ?
Cu2 I2 2.7166(9) . ?
Cu2 Cu1 2.9216(12) 1_545 ?
I1 Cu2 2.6856(7) 1_565 ?
I2 Cu1 2.6687(7) 1_545 ?
I2 Cu1 2.7046(11) 2_645 ?
C3 C2 1.355(10) . ?
C3 N2 1.374(7) . ?
C3 H3A 0.9300 . ?
C2 N1 1.402(7) . ?
C2 H2A 0.9300 . ?
C1 N1 1.311(8) . ?
C1 N2 1.340(7) . ?
C1 H1A 0.9300 . ?
C4 N2 1.472(8) . ?
C4 C5 1.509(9) . ?
C4 H4A 0.9700 . ?
C4 H4B 0.9700 . ?
C5 C5 1.322(13) 3_545 ?
C5 H5A 0.9300 . ?
