#------------------------------------------------------------------------------
#$Date: 2021-01-07 06:41:00 +0200 (Thu, 07 Jan 2021) $
#$Revision: 260642 $
#$URL: file:///home/coder/svn-repositories/cod/cif/7/12/71/7127112.cif $
#------------------------------------------------------------------------------
#
# This file is available in the Crystallography Open Database (COD),
# http://www.crystallography.net/
#
# All data on this site have been placed in the public domain by the
# contributors.
#
data_7127112
loop_
_publ_author_name
'O'Connor, Helen M'
'Coletta, Marco'
'Etcheverry-Berr\'ios, Alvaro'
'Nichol, Gary S.'
'Brechin, Euan K.'
'Lusby, Paul J.'
_publ_section_title
;
 Kinetic selection of Pd<sub>4</sub>L<sub>2</sub> metallocyclic and
 Pd<sub>6</sub>L<sub>3</sub> trigonal prismatic assemblies.
;
_journal_issue                   79
_journal_name_full
'Chemical communications (Cambridge, England)'
_journal_page_first              11799
_journal_page_last               11802
_journal_paper_doi               10.1039/d0cc05311b
_journal_volume                  56
_journal_year                    2020
_chemical_formula_moiety         'C34 H18 N4, 2 C H4 O'
_chemical_formula_sum            'C36 H26 N4 O2'
_chemical_formula_weight         546.61
_space_group_crystal_system      triclinic
_space_group_IT_number           2
_space_group_name_Hall           '-P 1'
_space_group_name_H-M_alt        'P -1'
_atom_sites_solution_hydrogens   geom
_atom_sites_solution_primary     dual
_audit_creation_date             2019-02-07
_audit_creation_method
;
Olex2 1.2-beta
(compiled 2018.05.29 svn.r3508 for OlexSys, GUI svn.r5506)
;
_audit_update_record
;
2020-06-03 deposited with the CCDC.	2020-08-25 downloaded from the CCDC.
;
_cell_angle_alpha                84.216(4)
_cell_angle_beta                 84.817(4)
_cell_angle_gamma                79.331(4)
_cell_formula_units_Z            1
_cell_length_a                   3.7895(2)
_cell_length_b                   10.0133(5)
_cell_length_c                   18.8245(9)
_cell_measurement_reflns_used    4731
_cell_measurement_temperature    120.0
_cell_measurement_theta_max      75.7030
_cell_measurement_theta_min      4.5000
_cell_volume                     696.50(6)
_computing_cell_refinement       'CrysAlisPro 1.171.39.46 (Rigaku OD, 2018)'
_computing_data_collection       'CrysAlisPro 1.171.39.46 (Rigaku OD, 2018)'
_computing_data_reduction        'CrysAlisPro 1.171.39.46 (Rigaku OD, 2018)'
_computing_molecular_graphics    'Olex2 (Dolomanov et al., 2009)'
_computing_publication_material  'Olex2 (Dolomanov et al., 2009)'
_computing_structure_refinement  'ShelXL (Sheldrick, 2015)'
_computing_structure_solution    'ShelXT (Sheldrick, 2015)'
_diffrn_ambient_environment      N~2~
_diffrn_ambient_temperature      120.0
_diffrn_detector                 'CCD plate'
_diffrn_detector_area_resol_mean 5.1574
_diffrn_detector_type            Atlas
_diffrn_measured_fraction_theta_full 1.000
_diffrn_measured_fraction_theta_max 0.987
_diffrn_measurement_details
;
List of Runs (angles in degrees, time in seconds):

  # Type    Start    End  Width  t~exp~   \w     \q     \k     \f   Frames
#--------------------------------------------------------------------------
  1  \w   -127.00 -34.00   1.00   15.00    --  -41.67 178.00 -90.00   93
  2  \w   -112.00 -65.00   1.00   15.00    --  -41.67-137.00 -51.00   47
  3  \w    -68.00  28.00   1.00   15.00    --  -41.67  57.00 -60.00   96
  4  \w   -112.00 -15.00   1.00   15.00    --  -41.67 -57.00 150.00   97
  5  \w     39.00 118.00   1.00   30.00    --  111.00-125.00 -90.00   79
  6  \w     31.00 156.00   1.00   30.00    --  111.00 -15.00-150.00  125
  7  \w     40.00 135.00   1.00   30.00    --  111.00 -45.00  30.00   95
  8  \w     30.00 110.00   1.00   30.00    --  111.00 -94.00 -60.00   80
  9  \w     40.00 135.00   1.00   30.00    --  111.00 -45.00-150.00   95
 10  \w     40.00 135.00   1.00   30.00    --  111.00 -45.00 120.00   95
 11  \w     40.00 135.00   1.00   30.00    --  111.00 -45.00 -60.00   95
 12  \w     94.00 178.00   1.00   30.00    --  111.00 125.00 -30.00   84
 13  \w     39.00 118.00   1.00   30.00    --  111.00-125.00 -60.00   79
 14  \w     30.00 110.00   1.00   30.00    --  111.00 -94.00 -30.00   80
 15  \w     30.00 110.00   1.00   30.00    --  111.00 -94.00  60.00   80
 16  \w     66.00 178.00   1.00   30.00    --  111.00  15.00 150.00  112
 17  \w     94.00 178.00   1.00   30.00    --  111.00 125.00 120.00   84
 18  \w     39.00 118.00   1.00   30.00    --  111.00-125.00-180.00   79
 19  \w     30.00 110.00   1.00   30.00    --  111.00 -94.00-180.00   80
 20  \w     94.00 178.00   1.00   30.00    --  111.00 125.00  30.00   84
 21  \w     39.00 118.00   1.00   30.00    --  111.00-125.00  60.00   79
 22  \w     87.00 178.00   1.00   30.00    --  111.00  30.00-150.00   91
 23  \w     40.00 124.00   1.00   30.00    --  111.00-133.00  72.97   84
 24  \w   -112.00 -15.00   1.00   15.00    --  -41.67 -57.00-120.00   97
 25  \w   -112.00 -15.00   1.00   15.00    --  -41.67 -57.00  30.00   97
 26  \w   -112.00 -15.00   1.00   15.00    --  -41.67 -57.00 -30.00   97
 27  \w     57.00 128.00   1.00   15.00    --   41.67 178.00 -90.00   71
 28  \w     89.00 162.00   1.00   30.00    --  111.00  35.00  45.48   73
 29  \w     66.00 178.00   1.00   30.00    --  111.00  15.00 -30.00  112
;
_diffrn_measurement_device       'four-circle diffractometer'
_diffrn_measurement_device_type  'Rigaku Oxford Diffraction SuperNova'
_diffrn_measurement_method       '\w scans'
_diffrn_orient_matrix_type
'CrysAlisPro convention (1999,Acta A55,543-557)'
_diffrn_orient_matrix_UB_11      0.0749694000
_diffrn_orient_matrix_UB_12      0.0583979000
_diffrn_orient_matrix_UB_13      -0.0776472000
_diffrn_orient_matrix_UB_21      0.1347306000
_diffrn_orient_matrix_UB_22      0.1197386000
_diffrn_orient_matrix_UB_23      0.0277928000
_diffrn_orient_matrix_UB_31      0.3850815000
_diffrn_orient_matrix_UB_32      -0.0833350000
_diffrn_orient_matrix_UB_33      -0.0011206000
_diffrn_radiation_monochromator  mirror
_diffrn_radiation_probe          x-ray
_diffrn_radiation_type           CuK\a
_diffrn_radiation_wavelength     1.54184
_diffrn_reflns_av_R_equivalents  0.0508
_diffrn_reflns_av_unetI/netI     0.0324
_diffrn_reflns_Laue_measured_fraction_full 1.000
_diffrn_reflns_Laue_measured_fraction_max 0.987
_diffrn_reflns_limit_h_max       4
_diffrn_reflns_limit_h_min       -3
_diffrn_reflns_limit_k_max       12
_diffrn_reflns_limit_k_min       -12
_diffrn_reflns_limit_l_max       23
_diffrn_reflns_limit_l_min       -23
_diffrn_reflns_number            11081
_diffrn_reflns_point_group_measured_fraction_full 1.000
_diffrn_reflns_point_group_measured_fraction_max 0.987
_diffrn_reflns_theta_full        67.684
_diffrn_reflns_theta_max         76.227
_diffrn_reflns_theta_min         4.510
_diffrn_source                   'micro-focus sealed X-ray tube'
_diffrn_source_type              'SuperNova (Cu) X-ray Source'
_exptl_absorpt_coefficient_mu    0.654
_exptl_absorpt_correction_T_max  1.00000
_exptl_absorpt_correction_T_min  0.91181
_exptl_absorpt_correction_type   multi-scan
_exptl_absorpt_process_details
;
CrysAlisPro 1.171.39.46 (Rigaku Oxford Diffraction, 2018)
Empirical absorption correction using spherical harmonics,
 implemented in SCALE3 ABSPACK scaling algorithm.
;
_exptl_crystal_colour            colourless
_exptl_crystal_colour_primary    colourless
_exptl_crystal_density_diffrn    1.303
_exptl_crystal_description       needle
_exptl_crystal_F_000             286
_exptl_crystal_recrystallization_method
'The material was recrystallised from a mixture of dichloromethane and methanol  by slow evaporation'
_exptl_crystal_size_max          0.436
_exptl_crystal_size_mid          0.094
_exptl_crystal_size_min          0.039
_refine_diff_density_max         0.275
_refine_diff_density_min         -0.349
_refine_diff_density_rms         0.070
_refine_ls_extinction_method     none
_refine_ls_goodness_of_fit_ref   1.068
_refine_ls_hydrogen_treatment    constr
_refine_ls_matrix_type           full
_refine_ls_number_parameters     228
_refine_ls_number_reflns         2887
_refine_ls_number_restraints     87
_refine_ls_restrained_S_all      1.063
_refine_ls_R_factor_all          0.0867
_refine_ls_R_factor_gt           0.0808
_refine_ls_shift/su_max          0.000
_refine_ls_shift/su_mean         0.000
_refine_ls_structure_factor_coef Fsqd
_refine_ls_weighting_details
'w=1/[\s^2^(Fo^2^)+(0.1466P)^2^+0.2512P] where P=(Fo^2^+2Fc^2^)/3'
_refine_ls_weighting_scheme      calc
_refine_ls_wR_factor_gt          0.2270
_refine_ls_wR_factor_ref         0.2339
_reflns_Friedel_coverage         0.000
_reflns_number_gt                2535
_reflns_number_total             2887
_reflns_threshold_expression     'I > 2\s(I)'
_cod_data_source_file            d0cc05311b2.cif
_cod_data_source_block           L
_cod_depositor_comments
'Adding full bibliography for 7127112--7127114.cif.'
_cod_database_code               7127112
_shelx_shelxl_version_number     2018/3
_chemical_oxdiff_formula         'C20 H20 Cu N5 O5'
_chemical_oxdiff_usercomment     '@ 120 K MC-Exp132'
_shelx_space_group_comment
;
The symmetry employed for this shelxl refinement is uniquely defined
by the following loop, which should always be used as a source of
symmetry information in preference to the above space-group names.
They are only intended as comments.
;
_shelx_estimated_absorpt_t_max   0.975
_shelx_estimated_absorpt_t_min   0.764
_reflns_odcompleteness_completeness 99.79
_reflns_odcompleteness_iscentric 1
_reflns_odcompleteness_theta     74.33
_olex2_refinement_description
;
1. Twinned data refinement
 Scales: 0.9182(16)
 0.0818(16)
2. Fixed Uiso
 At 1.2 times of:
  All C(H) groups
3. Restrained distances
 C12-C13 \\sim C12-C13A
 with sigma of 0.02
 C13-C14 \\sim C13A-C14A
 with sigma of 0.02
 C13-C17 \\sim C13A-C17A
 with sigma of 0.02
 C14-N2 \\sim C14A-N2A
 with sigma of 0.02
 N2-C15 \\sim N2A-C15A
 with sigma of 0.02
 C17-C16 \\sim C17A-C16A
 with sigma of 0.02
 C15-C16 \\sim C15A-C16A
 with sigma of 0.02
 C12-C14 \\sim C12-C14A
 with sigma of 0.04
 C12-C17 \\sim C12-C17A
 with sigma of 0.04
 C13-N2 \\sim C13A-N2A
 with sigma of 0.04
 C13-C16 \\sim C13A-C16A
 with sigma of 0.04
 C14-C17 \\sim C14A-C17A
 with sigma of 0.04
 C14-C15 \\sim C14A-C15A
 with sigma of 0.04
 N2-C16 \\sim N2A-C16A
 with sigma of 0.04
 C17-C15 \\sim C17A-C15A
 with sigma of 0.04
4. Rigid body (RIGU) restrains
 N2, C13, C14, C15, C16, C17
 with sigma for 1-2 distances of 0.004 and sigma for 1-3 distances of 0.004
 N2A, C13A, C14A, C15A, C16A, C17A
 with sigma for 1-2 distances of 0.004 and sigma for 1-3 distances of 0.004
5. Others
 Sof(N2A)=Sof(C13A)=Sof(C14A)=Sof(H14A)=Sof(C15A)=Sof(H15A)=Sof(C16A)=
 Sof(H16A)=Sof(C17A)=Sof(H17A)=1-FVAR(1)
 Sof(N2)=Sof(C13)=Sof(C14)=Sof(H14)=Sof(C15)=Sof(H15)=Sof(C16)=Sof(H16)=
 Sof(C17)=Sof(H17)=FVAR(1)
6.a Aromatic/amide H refined with riding coordinates:
 C2(H2), C7(H7), C8(H8), C9(H9), C10(H10), C14(H14), C15(H15), C16(H16),
 C17(H17), C14A(H14A), C15A(H15A), C16A(H16A), C17A(H17A)
;
_shelx_res_file
;
TITL L_a.res in P-1
    L.res
    created by SHELXL-2018/3 at 15:14:10 on 07-Feb-2019
REM Old TITL L_reint in P-1
REM SHELXT solution in P-1: R1 0.250, Rweak 0.026, Alpha 0.129
REM <I/s> 0.000 for 0 systematic absences, Orientation as input
REM Formula found by SHELXT: C17 N3
rem orig UNIT 34 18 4
rem 2 MeOH per formula unit removed
rem UNIT reflects this
CELL 1.54184 3.7895 10.0133 18.8245 84.216 84.817 79.331
ZERR 1 0.0002 0.0005 0.0009 0.004 0.004 0.004
LATT 1
SFAC C H N O
UNIT 36 26 4 2
SADI C12 C13 C12 C13A
SADI C13 C14 C13A C14A
SADI C13 C17 C13A C17A
SADI C14 N2 C14A N2A
SADI N2 C15 N2A C15A
SADI C17 C16 C17A C16A
SADI C15 C16 C15A C16A
SADI 0.04 C12 C14 C12 C14A
SADI 0.04 C12 C17 C12 C17A
SADI 0.04 C13 N2 C13A N2A
SADI 0.04 C13 C16 C13A C16A
SADI 0.04 C14 C17 C14A C17A
SADI 0.04 C14 C15 C14A C15A
SADI 0.04 N2 C16 N2A C16A
SADI 0.04 C17 C15 C17A C15A
RIGU N2 C13 > C17
RIGU N2A > C17A

L.S. 16
PLAN  50
SIZE 0.039 0.094 0.436
TEMP -153.15
BOND
list 8
abin
fmap 2 53
acta
bond $h
conf
more -1
htab
TWIN 1 0 0 1 -1 0 1 0 -1 2
REM <olex2.extras>
REM <HklSrc "%.\\L.hkl">
REM </olex2.extras>

WGHT    0.146600    0.251200
BASF   0.08182
FVAR       0.89022   0.40781
N1    3    0.261585    0.482529    0.097561    11.00000    0.09849    0.09015 =
         0.05471   -0.01506   -0.00028    0.00084
PART 1
N2    3    1.057454   -0.185039    0.662037    21.00000    0.05538    0.02149 =
         0.07562   -0.00179   -0.00407    0.00008
PART 0
C1    1    0.014781    0.526076    0.424618    11.00000    0.03354    0.02515 =
         0.04058   -0.00047   -0.00260   -0.00250
C2    1    0.210704    0.405937    0.456956    11.00000    0.03236    0.02263 =
         0.04665   -0.00159   -0.00289   -0.00039
AFIX  43
H2    2    0.354797    0.341846    0.427605    11.00000   -1.20000
AFIX   0
C3    1    0.198639    0.378754    0.530684    11.00000    0.03115    0.02060 =
         0.04903    0.00047   -0.00497   -0.00260
C4    1    0.033948    0.550737    0.346000    11.00000    0.02971    0.02143 =
         0.05711   -0.00142   -0.00672    0.00010
C5    1    0.047631    0.567826    0.285967    11.00000    0.03642    0.03211 =
         0.06262   -0.00358   -0.00094   -0.00224
C6    1    0.073029    0.585984    0.208670    11.00000    0.04386    0.04656 =
         0.04415   -0.00095   -0.00412   -0.00541
C7    1    0.222786    0.476376    0.168072    11.00000    0.06292    0.05834 =
         0.05566   -0.00828   -0.00163   -0.00005
AFIX  43
H7    2    0.302707    0.390775    0.193473    11.00000   -1.20000
AFIX   0
C8    1    0.148735    0.604472    0.062793    11.00000    0.09708    0.12084 =
         0.04427   -0.01397    0.00463   -0.01658
AFIX  43
H8    2    0.178790    0.612346    0.011982    11.00000   -1.20000
AFIX   0
C9    1   -0.010703    0.720749    0.097048    11.00000    0.08956    0.08034 =
         0.05276    0.01763   -0.01486   -0.00870
AFIX  43
H9    2   -0.092199    0.804622    0.070215    11.00000   -1.20000
AFIX   0
C10   1   -0.045944    0.710302    0.170205    11.00000    0.06382    0.05008 =
         0.05051    0.00154   -0.00622    0.00226
AFIX  43
H10   2   -0.151592    0.787796    0.194897    11.00000   -1.20000
AFIX   0
C11   1    0.401369    0.255419    0.562735    11.00000    0.03277    0.02506 =
         0.04606    0.00025   -0.00264   -0.00395
C12   1    0.569048    0.154405    0.591650    11.00000    0.03636    0.02423 =
         0.04629   -0.00023   -0.00165   -0.00360
PART 1
C13   1    0.724906    0.040819    0.637969    21.00000    0.01242    0.02259 =
         0.03563    0.00115    0.01012    0.00151
C14   1    0.882140   -0.085804    0.614585    21.00000    0.04444    0.02865 =
         0.04103   -0.00239    0.00997   -0.00558
AFIX  43
H14   2    0.868940   -0.103790    0.566390    21.00000   -1.20000
AFIX   0
C15   1    1.073196   -0.146500    0.730662    21.00000    0.03890    0.04994 =
         0.05408    0.00086   -0.00108   -0.00273
AFIX  43
H15   2    1.179493   -0.214980    0.764860    21.00000   -1.20000
AFIX   0
C16   1    0.952918   -0.022263    0.753006    21.00000    0.05969    0.03937 =
         0.03594    0.00144   -0.00998    0.00236
AFIX  43
H16   2    0.986419   -0.000484    0.799616    21.00000   -1.20000
AFIX   0
C17   1    0.785530    0.067238    0.705954    21.00000    0.03885    0.03285 =
         0.03219   -0.00679   -0.00356    0.01227
AFIX  43
H17   2    0.699663    0.156905    0.719705    21.00000   -1.20000
AFIX   0

PART 0
PART 2
N2A   3    1.093904   -0.195052    0.628054   -21.00000    0.04345    0.02872 =
         0.04899   -0.00383   -0.00741    0.00395

C13A  1    0.784634    0.038910    0.628296   -21.00000    0.02008    0.02877 =
         0.03515    0.00209    0.00641   -0.00111
C14A  1    0.914552   -0.080657    0.595499   -21.00000    0.02957    0.02374 =
         0.03267   -0.00007   -0.00001    0.00165
AFIX  43
H14A  2    0.873214   -0.081294    0.546515   -21.00000   -1.20000
AFIX   0

C15A  1    1.131255   -0.192138    0.699836   -21.00000    0.04035    0.03187 =
         0.04473    0.01009   -0.00627   -0.00030
AFIX  43
H15A  2    1.255996   -0.271584    0.724789   -21.00000   -1.20000
AFIX   0

C16A  1    0.996182   -0.079032    0.738040   -21.00000    0.05029    0.05034 =
         0.03500   -0.00407   -0.00404    0.00741
AFIX  43
H16A  2    1.026235   -0.080600    0.787693   -21.00000   -1.20000
AFIX   0

C17A  1    0.820875    0.032774    0.701396   -21.00000    0.05068    0.03641 =
         0.05059   -0.01420    0.00394    0.01205
AFIX  43
H17A  2    0.718557    0.110078    0.726508   -21.00000   -1.20000
AFIX   0
HKLF 4




REM  L_a.res in P-1
REM wR2 = 0.2339, GooF = S = 1.068, Restrained GooF = 1.063 for all data
REM R1 = 0.0808 for 2535 Fo > 4sig(Fo) and 0.0867 for all 2887 data
REM 228 parameters refined using 87 restraints

END

WGHT      0.1466      0.2513

REM No hydrogen bonds found for HTAB generation

REM Highest difference peak  0.275,  deepest hole -0.349,  1-sigma level  0.070
Q1    1   1.4826 -0.1163  0.9224  11.00000  0.05    0.25
Q2    1   0.3145  0.5777  0.2801  11.00000  0.05    0.25
Q3    1   0.2404  0.5575  0.3442  11.00000  0.05    0.22
Q4    1   1.3194 -0.0628  0.7948  11.00000  0.05    0.22
Q5    1   0.4772  0.0184  0.6293  11.00000  0.05    0.21
Q6    1  -0.3461  0.5772  0.3937  11.00000  0.05    0.20
Q7    1  -0.2370  0.5449  0.2813  11.00000  0.05    0.19
Q8    1   1.3268 -0.0657  0.7206  11.00000  0.05    0.18
Q9    1   1.1954 -0.0551  0.6564  11.00000  0.05    0.18
Q10   1   0.5991 -0.1133  0.5381  11.00000  0.05    0.18
Q11   1  -0.2080  0.4563  0.2959  11.00000  0.05    0.18
Q12   1   0.9057 -0.1162  0.5186  11.00000  0.05    0.18
Q13   1   0.6121  0.1435  0.5112  11.00000  0.05    0.18
Q14   1  -0.4156  0.5990  0.2675  11.00000  0.05    0.18
Q15   1   0.4660  0.4157  0.4585  11.00000  0.05    0.17
Q16   1  -0.4129  0.5447  0.3366  11.00000  0.05    0.17
Q17   1   0.5089 -0.0565  0.7367  11.00000  0.05    0.17
Q18   1   1.1961 -0.0650  0.6008  11.00000  0.05    0.17
Q19   1   0.4192  0.4826  0.3786  11.00000  0.05    0.16
Q20   1   1.3289 -0.1544  0.5619  11.00000  0.05    0.16
Q21   1   0.2183  0.1190  0.5414  11.00000  0.05    0.16
Q22   1   0.3138  0.7146  0.1775  11.00000  0.05    0.16
Q23   1   0.4359  0.4846  0.3121  11.00000  0.05    0.16
Q24   1   0.2878  0.5407  0.4219  11.00000  0.05    0.16
Q25   1   0.6231 -0.0976  0.6039  11.00000  0.05    0.16
Q26   1   0.4491  0.5259  0.3073  11.00000  0.05    0.16
Q27   1   1.0190  0.0580  0.5547  11.00000  0.05    0.16
Q28   1   0.2993  0.7364  0.0981  11.00000  0.05    0.15
Q29   1   0.8601  0.1753  0.6006  11.00000  0.05    0.15
Q30   1   0.4800  0.4428  0.5874  11.00000  0.05    0.15
Q31   1   0.4797 -0.0001  0.5780  11.00000  0.05    0.15
Q32   1   0.5818  0.0409  0.7856  11.00000  0.05    0.15
Q33   1   1.4020 -0.0281  0.7005  11.00000  0.05    0.15
Q34   1   0.4747  0.5136  0.3609  11.00000  0.05    0.15
Q35   1   0.0281  0.3451  0.3973  11.00000  0.05    0.15
Q36   1  -0.1544  0.4591  0.4990  11.00000  0.05    0.15
Q37   1  -0.1866  0.4451  0.3596  11.00000  0.05    0.15
Q38   1   0.1969  0.6855  0.3256  11.00000  0.05    0.15
Q39   1   0.4645  0.5115  0.2387  11.00000  0.05    0.14
Q40   1   0.3331  0.4564  0.0327  11.00000  0.05    0.14
Q41   1   0.2729  0.4121  0.3571  11.00000  0.05    0.14
Q42   1   0.7656 -0.2144  0.5653  11.00000  0.05    0.14
Q43   1   0.3504  0.7330  0.0405  11.00000  0.05    0.14
Q44   1   0.5323  0.0277  0.7025  11.00000  0.05    0.14
Q45   1   0.2917  0.6246  0.4641  11.00000  0.05    0.13
Q46   1   1.1555 -0.3040  0.6502  11.00000  0.05    0.13
Q47   1   0.7107  0.0295  0.5564  11.00000  0.05    0.13
Q48   1   1.4846 -0.2917  0.7214  11.00000  0.05    0.13
Q49   1  -0.0728  0.4821  0.1611  11.00000  0.05    0.13
Q50   1   0.6521  0.3002  0.6226  11.00000  0.05    0.13
;
_shelx_res_checksum              55255
_shelx_hkl_file
;
   0   0   2    5.15    0.40
   0   0   2    5.14    0.38
   0   0  -2    5.70    0.44
   0   0   3   22.43    0.95
   0   0   3   23.71    1.01
   0   0  -3   23.82    1.07
   0   0   4  791.80   10.53
   0   0  -4  784.70   10.85
   0   0   4  770.58   10.39
   0   0   5  173.40    3.76
   0   0   5  175.02    3.88
   0   0  -5  180.80    4.15
   0   0   6 1087.32   14.76
   0   0  -6 1066.93   15.20
   0   0   6 1033.76   14.48
   0   0  -7    4.65    0.89
   0   0   7    5.60    0.92
   0   0   8  427.12    8.33
   0   0  -8  408.35    8.69
   0   0  -9   17.20    1.79
   0   0   9   19.53    1.81
   0   0 -10   40.31    2.85
   0   0  10   45.58    2.82
   0   0 -11  512.90   11.77
   0   0  11  542.50   11.58
   0   0  12    4.95    1.25
   0   0 -12    4.61    1.19
   0   0  13    5.93    1.82
   0   0 -13    2.72    1.05
   0   0 -14    6.82    1.36
   0   0  14    3.54    1.29
   0   0 -14    3.99    1.32
   0   0  14    5.42    1.13
   0   0 -14    3.81    1.04
   0   0  14    4.38    1.06
   0   0 -14    4.59    0.96
   0   0  15   28.64    2.36
   0   0 -15   34.82    2.77
   0   0 -15   29.58    3.30
   0   0  15   38.11    2.72
   0   0 -15   41.04    3.66
   0   0  15   36.61    3.47
   0   0 -15   31.92    2.60
   0   0 -15   30.40    2.17
   0   0 -16   37.97    2.92
   0   0  16   48.58    4.12
   0   0 -16   35.31    2.74
   0   0 -16   55.50    4.44
   0   0 -16   31.15    2.29
   0   0  16   32.57    2.58
   0   0 -16   44.51    4.23
   0   0  16   36.83    2.77
   0   0 -17   11.21    1.77
   0   0 -17    9.81    1.36
   0   0 -17   10.85    1.63
   0   0  17   10.88    1.62
   0   0  17   12.06    1.65
   0   0 -18    0.12    0.69
   0   0 -18    0.98    0.74
   0   0 -18    0.86    0.93
   0   0  18    1.09    0.91
   0   0  18    0.15    0.87
   0   0  19   10.66    1.61
   0   0  19   12.77    1.58
   0   0 -19   10.59    1.52
   0   0 -19   12.20    1.63
   0   0 -19   10.34    1.35
   0   0  20    2.25    0.89
   0   0 -20    4.54    1.10
   0   0 -20    2.77    0.77
   0   0 -20    2.69    0.85
   0   0 -21    2.22    0.59
   0   0 -21    0.84    0.54
   0   0  21    1.25    0.70
   0   0 -21    2.25    0.78
   0   0 -21    1.56    0.68
   0   0 -22    1.03    0.56
   0   0 -22    0.74    0.60
   0   0 -22    0.50    0.43
   0   0  22    1.79    0.65
   0   0 -23    0.60    0.43
   0   0 -23    0.42    0.36
   0   0  23    0.46    0.44
   0   0 -23    0.33    0.38
   0   1 -23   -0.01    0.29
   0  -1  23   -0.03    0.41
   0   1 -23    0.25    0.40
   0   1 -22    0.66    0.57
   0   1 -22    0.31    0.43
   0   1 -22    0.59    0.39
   0  -1  22    0.50    0.55
   0   1 -22    1.01    0.47
   0   1 -21    7.84    1.06
   0   1 -21   11.02    1.28
   0  -1  21    7.33    1.10
   0   1 -21   10.29    1.07
   0   1 -21    7.94    0.99
   0  -1  20    0.48    0.69
   0   1 -20    0.91    0.67
   0   1 -20    0.74    0.64
   0   1 -19    9.86    1.35
   0  -1  19    8.32    1.41
   0  -1  19   10.31    1.54
   0   1 -19   10.84    1.32
   0   1 -18   19.50    1.96
   0  -1  18   18.59    1.99
   0   1 -18   18.60    2.04
   0   1 -18   17.50    1.70
   0  -1  18   17.82    1.96
   0   1 -17    0.88    0.73
   0  -1  17    1.35    0.88
   0  -1  17    0.36    0.88
   0   1 -17    0.61    0.74
   0   1 -17    0.59    0.78
   0   1 -16  145.05    7.21
   0  -1  16   87.05    4.21
   0   1 -16   89.81    3.86
   0  -1  16   90.14    4.43
   0   1 -16   96.82    4.38
   0   1 -16  138.75    7.07
   0   1 -16   99.32    4.72
   0  -1  15   14.15    1.83
   0   1 -15   12.43    1.45
   0  -1  15   11.61    1.63
   0  -1  15   19.33    2.54
   0   1 -15   12.05    1.64
   0   1 -15   14.14    1.84
   0   1 -15   14.00    2.28
   0   1 -14   -0.35    1.02
   0   1 -14    0.57    0.86
   0  -1  14    0.77    0.77
   0  -1  14   -0.49    1.01
   0   1 -14   -0.07    0.64
   0  -1  14    1.23    1.09
   0   1 -14    0.29    0.80
   0   1 -13    9.76    1.81
   0  -1  13   12.35    1.83
   0  -1  12   12.04    1.69
   0   1 -12   10.50    1.76
   0   1 -11   19.32    2.12
   0  -1  11   22.86    2.14
   0   1 -10    5.98    1.20
   0  -1  10    6.95    1.17
   0  -1   9   38.81    2.34
   0   1  -9   31.96    2.38
   0   1  -8  269.33    6.69
   0  -1   8  249.74    6.29
   0  -1   7   78.33    2.79
   0  -1   7   68.43    2.84
   0   1  -7   70.15    3.00
   0  -1   6  135.30    3.75
   0   1  -6  133.17    3.94
   0   1  -5   10.01    1.04
   0  -1   5    8.71    0.88
   0  -1   5    9.89    0.85
   0  -1   4  222.05    4.05
   0  -1   4  212.20    4.28
   0   1  -4  216.91    4.66
   0  -1   3  595.57    7.61
   0  -1   3  547.33    7.99
   0   1  -3  579.79    8.37
   0   1  -3  549.82    8.38
   0  -1   2  301.64    5.36
   0  -1   2  306.34    4.83
   0  -1   1   98.58    2.29
   0  -1   1   97.18    1.83
   0   1  -1  100.03    2.20
   0   1   0  216.19    3.53
   0  -1   0  216.55    3.66
   0  -1   0  214.71    2.83
   0   1   1   21.12    0.73
   0  -1  -1   22.13    0.57
   0  -1  -1   20.05    0.93
   0  -1  -2   64.36    1.92
   0   1   2   61.88    1.60
   0   1   3 1766.68   21.47
   0  -1  -3 1869.94   22.18
   0   1   4  609.83    8.92
   0  -1  -4  622.64    9.37
   0  -1  -5   27.87    1.63
   0   1   5   27.72    1.54
   0  -1  -6  302.42    6.40
   0   1   6  299.17    6.13
   0  -1  -7   89.01    3.41
   0   1   7   86.07    3.22
   0  -1  -8  444.63    9.22
   0   1   8  456.76    9.03
   0   1   9  421.26    9.16
   0  -1  -9  403.89    9.16
   0   1  10   63.72    3.45
   0  -1 -10   63.05    3.56
   0   1  11   60.51    3.59
   0  -1 -11   58.25    3.62
   0   1  12   -0.52    0.92
   0  -1 -12    0.17    0.74
   0  -1 -13   10.04    1.87
   0  -1 -13   11.89    1.94
   0   1  13    9.89    1.78
   0  -1 -14   20.66    2.41
   0   1  14   18.10    1.93
   0  -1 -14   17.38    2.51
   0  -1 -14   17.20    1.67
   0  -1 -14   19.44    1.95
   0   1  14   15.48    2.26
   0  -1 -14   22.71    2.23
   0  -1 -15    7.12    1.42
   0   1  15    8.24    1.91
   0  -1 -15    8.25    1.64
   0   1  15    5.50    1.19
   0  -1 -15    8.81    1.79
   0   1  15    9.49    1.43
   0  -1 -15    6.06    1.10
   0  -1 -15    6.38    1.80
   0  -1 -16    0.82    0.90
   0   1  16    0.71    0.92
   0   1  16    3.18    1.56
   0   1  16    0.74    0.95
   0  -1 -16    0.74    0.90
   0  -1 -16    1.03    1.13
   0  -1 -16    1.34    1.27
   0  -1 -16    1.42    0.79
   0  -1 -17   10.03    1.67
   0  -1 -17   10.61    1.57
   0  -1 -17    9.99    1.36
   0   1  17   12.92    1.67
   0   1  17    9.34    1.46
   0  -1 -18   18.36    2.06
   0  -1 -18   16.35    1.64
   0   1  18   18.82    1.95
   0  -1 -18   15.97    1.86
   0   1  18   15.45    1.84
   0  -1 -19   -0.33    0.70
   0   1  19    0.27    0.75
   0  -1 -19    0.03    0.69
   0  -1 -19    0.15    0.58
   0  -1 -19    1.19    0.83
   0   1  19    0.47    0.80
   0  -1 -20    1.97    0.87
   0   1  20    2.18    0.86
   0  -1 -20    3.69    1.01
   0  -1 -20    2.63    0.80
   0  -1 -20    2.72    0.92
   0  -1 -21    0.32    0.62
   0  -1 -21    0.09    0.50
   0   1  21    0.02    0.58
   0  -1 -21    0.31    0.60
   0  -1 -22    5.61    0.82
   0  -1 -22    5.22    0.82
   0   1  22    4.50    0.88
   0  -1 -22    4.49    0.73
   0   1  23    0.05    0.42
   0  -1 -23    0.16    0.38
   0  -1 -23    0.01    0.33
   0   2 -22    2.33    0.56
   0  -2  22    1.92    0.62
   0   2 -22    2.16    0.64
   0   2 -22    1.92    0.48
   0   2 -22    1.84    0.47
   0   2 -21    1.76    0.58
   0  -2  21    1.76    0.70
   0   2 -21    1.23    0.58
   0   2 -21    1.32    0.53
   0   2 -21    1.82    0.75
   0   2 -20    0.89    0.59
   0   2 -20    0.82    0.62
   0   2 -20    0.86    0.59
   0  -2  20    0.68    0.70
   0  -2  19   10.38    1.48
   0   2 -19   11.24    1.30
   0   2 -19   12.76    1.52
   0  -2  18   18.55    1.86
   0  -2  18   16.79    1.99
   0   2 -18   15.14    1.54
   0  -2  18   14.37    1.74
   0   2 -18   17.02    1.77
   0   2 -17    5.95    1.21
   0   2 -17    6.89    1.17
   0  -2  17    5.20    1.32
   0  -2  17    6.84    1.41
   0  -2  17    7.29    1.31
   0   2 -16    0.65    0.80
   0   2 -16    0.79    0.80
   0  -2  16    0.46    0.80
   0  -2  16    1.05    1.03
   0   2 -15   20.90    2.81
   0  -2  15   18.31    2.09
   0  -2  15   16.22    1.89
   0   2 -15   19.20    1.94
   0   2 -15   17.25    2.03
   0   2 -15   17.93    1.68
   0   2 -14    2.14    0.79
   0  -2  14    1.60    1.03
   0   2 -14    1.55    1.13
   0   2 -14    1.95    0.87
   0   2 -14    2.10    1.04
   0  -2  14    1.13    0.82
   0  -2  13    2.24    1.03
   0   2 -13    2.59    1.18
   0  -2  13    0.83    0.87
   0   2 -13    1.61    0.75
   0   2 -13    2.12    0.93
   0   2 -13    1.43    0.96
   0  -2  13    1.61    0.86
   0  -2  12    8.22    1.42
   0   2 -12    6.98    1.52
   0  -2  11    0.98    0.81
   0   2 -11    0.81    0.74
   0  -2  10  102.41    4.11
   0   2 -10   84.35    4.21
   0  -2   9   18.40    1.60
   0   2  -9   14.14    1.67
   0  -2   8   17.64    1.69
   0   2  -8   17.97    1.74
   0  -2   7    7.00    0.98
   0  -2   7    5.22    0.99
   0   2  -7    4.61    1.01
   0   2  -6   13.20    1.38
   0  -2   6   12.48    1.24
   0   2  -6   14.52    1.45
   0  -2   6   15.72    1.13
   0  -2   5   86.31    2.42
   0   2  -5   81.22    3.14
   0   2  -5   84.65    3.19
   0  -2   5   78.73    2.74
   0  -2   4  389.59    7.89
   0   2  -4  403.32    7.49
   0   2  -4  386.83    7.40
   0  -2   4  398.06    6.88
   0  -2   3  209.18    4.30
   0   2  -3  210.83    4.84
   0  -2   3  197.70    5.10
   0  -2   2   17.20    0.66
   0  -2   2   15.10    0.99
   0   2  -2   14.25    1.21
   0   2  -1  988.05   13.73
   0  -2   1  994.35   14.02
   0  -2   1 1015.65   12.46
   0  -2   0 1331.29   14.76
   0  -2   0 1157.24   16.33
   0  -2   0 1243.04   14.48
   0  -2  -1 1784.22   24.48
   0  -2  -1 2012.51   22.30
   0   2   1 2065.99   23.07
   0  -2  -1 2020.38   22.54
   0   2   1 1870.75   24.56
   0  -2  -2  522.26    6.66
   0   2   2  520.99    7.55
   0   2   3   16.11    1.09
   0  -2  -3   15.40    1.30
   0  -2  -3   17.55    0.82
   0  -2  -4  360.01    7.33
   0   2   4  368.04    6.53
   0   2   5  248.53    5.44
   0  -2  -5  248.66    6.16
   0  -2  -6   94.86    2.89
   0   2   6   83.26    3.15
   0  -2  -6   85.85    3.59
   0  -2  -7    3.95    1.02
   0  -2  -7    5.19    0.92
   0   2   7    4.68    0.99
   0  -2  -8  123.10    4.87
   0   2   8  121.94    4.49
   0  -2  -9    3.00    0.98
   0  -2  -9    2.01    0.94
   0   2   9    2.10    1.03
   0  -2 -10   98.46    4.09
   0  -2 -10   89.83    4.63
   0   2  10   86.41    4.24
   0   2  11   17.79    2.07
   0  -2 -11   22.50    2.12
   0  -2 -11   19.84    2.42
   0  -2 -12    1.60    0.98
   0   2  12    1.33    0.94
   0  -2 -12    2.11    1.01
   0   2  13    1.15    1.14
   0  -2 -13    1.45    1.05
   0  -2 -13    0.72    1.05
   0   2  14   46.21    3.08
   0   2  14   45.92    3.93
   0  -2 -14   64.63    4.06
   0  -2 -14   45.64    4.12
   0  -2 -14   54.75    2.85
   0  -2 -14   48.98    3.17
   0  -2 -14   62.88    3.60
   0  -2 -15   17.08    2.05
   0  -2 -15   14.85    1.61
   0  -2 -15   15.19    2.66
   0   2  15   13.22    2.26
   0   2  15   14.45    1.75
   0  -2 -15   14.04    1.81
   0   2  16   43.60    4.15
   0  -2 -16   40.76    3.08
   0  -2 -16   37.36    2.49
   0  -2 -16   38.98    2.91
   0   2  16   35.42    2.72
   0  -2 -17    3.79    0.93
   0  -2 -17    4.65    1.26
   0   2  17    2.80    1.11
   0  -2 -17    4.05    1.21
   0  -2 -18    0.36    0.73
   0  -2 -18    0.74    0.78
   0  -2 -18    0.00    0.62
   0  -2 -18    0.18    0.81
   0   2  18   -0.01    0.72
   0  -2 -19    3.31    1.06
   0  -2 -19    3.08    0.95
   0   2  19    2.32    0.91
   0  -2 -19    2.54    0.95
   0  -2 -19    1.90    0.78
   0  -2 -20   -0.20    0.62
   0  -2 -20   -0.18    0.65
   0  -2 -20    0.24    0.64
   0  -2 -20    0.18    0.53
   0   2  20    0.10    0.74
   0  -2 -21    3.29    0.83
   0   2  21    1.74    0.77
   0  -2 -21    2.61    0.81
   0  -2 -21    3.43    0.72
   0  -2 -21    3.28    0.75
   0  -2 -22    1.42    0.59
   0   2  22    1.32    0.63
   0  -2 -22    1.77    0.51
   0  -2 -22    1.09    0.48
   0  -2 -23    0.50    0.41
   0  -2 -23    0.55    0.36
   0   2  23    0.65    0.43
   0   3 -22   23.65    1.27
   0   3 -21    0.08    0.39
   0  -3  21    0.05    0.51
   0   3 -21    0.16    0.42
   0   3 -21    0.89    0.61
   0   3 -21    0.22    0.40
   0   3 -20    1.41    0.57
   0   3 -20    1.29    0.62
   0  -3  20    1.12    0.70
   0   3 -20    1.46    0.64
   0  -3  19    1.00    0.73
   0   3 -19    0.77    0.57
   0   3 -19    0.45    0.58
   0   3 -19    0.50    0.59
   0  -3  18    3.42    0.94
   0   3 -18    2.87    0.80
   0   3 -18    2.89    0.89
   0  -3  18    3.57    1.05
   0   3 -18    3.49    0.90
   0  -3  17   11.78    1.53
   0  -3  17   10.02    1.69
   0   3 -17   10.08    1.47
   0  -3  17   12.38    1.44
   0  -3  17   10.49    1.54
   0   3 -17    9.51    1.26
   0  -3  16   51.18    3.41
   0  -3  16   68.45    3.36
   0   3 -16   61.04    3.06
   0  -3  16   67.46    3.59
   0   3 -16   60.11    3.33
   0  -3  16   51.83    3.25
   0  -3  15   61.21    3.46
   0  -3  15   61.78    3.31
   0  -3  15   49.05    3.33
   0  -3  15   49.82    3.19
   0   3 -15   53.17    3.12
   0   3 -15   52.52    2.85
   0  -3  14    3.86    1.06
   0   3 -14    2.99    0.90
   0   3 -14    5.00    1.54
   0  -3  14    3.13    1.20
   0  -3  14    3.81    1.08
   0   3 -14    3.26    0.99
   0  -3  13  274.34    8.02
   0   3 -13  327.98    7.93
   0   3 -13  313.84   10.19
   0  -3  13  294.01    7.87
   0   3 -13  327.24    7.36
   0   3 -12    6.27    1.45
   0  -3  12    8.34    1.36
   0   3 -12    8.55    1.17
   0  -3  12    8.79    1.51
   0   3 -12    8.84    1.31
   0   3 -11   31.35    2.88
   0   3 -10   24.17    2.39
   0   3  -9    1.88    0.79
   0  -3   9    2.93    0.75
   0   3  -8   36.29    2.69
   0  -3   8   35.60    2.47
   0   3  -7  141.36    5.03
   0  -3   7  152.10    3.87
   0   3  -7  123.36    4.86
   0  -3   7  119.43    4.31
   0   3  -6    2.16    0.84
   0  -3   6    2.30    0.64
   0   3  -6    1.33    0.76
   0  -3   6    1.62    0.77
   0  -3   5   44.26    2.18
   0   3  -5   50.82    2.71
   0   3  -5   43.66    2.59
   0  -3   5   44.87    2.91
   0  -3   5   54.01    1.77
   0   3  -4   34.29    2.19
   0  -3   4   30.72    2.31
   0  -3   4   34.77    1.86
   0   3  -3   63.44    2.95
   0  -3   3   63.66    2.37
   0  -3   3   58.14    3.05
   0   3  -2  582.77   11.27
   0  -3   2  589.22    9.92
   0  -3   2  584.65   11.56
   0  -3   1    5.98    0.77
   0  -3   1    5.65    0.77
   0   3  -1    5.15    0.95
   0  -3   1    5.17    0.99
   0  -3   0  344.55    7.58
   0  -3   0  381.46    5.69
   0  -3   0  364.10    5.48
   0   3   0  330.63    7.20
   0  -3  -1  146.46    4.59
   0   3   1  140.14    4.38
   0  -3  -1  168.53    2.81
   0  -3  -1  171.39    3.01
   0   3   2  369.59    6.21
   0  -3  -2  391.63    4.88
   0  -3  -2  333.26    7.57
   0   3   2  344.36    7.61
   0   3   3  789.75   13.97
   0  -3  -3  713.32   13.73
   0  -3  -3  906.70   11.12
   0   3   3  803.58   12.45
   0   3   4 1646.28   23.68
   0   3   4 1660.81   22.13
   0  -3  -5  136.12    5.02
   0   3   5  148.01    4.34
   0  -3  -6  254.75    7.23
   0   3   6  259.46    6.45
   0  -3  -7    7.32    1.38
   0  -3  -7    9.22    1.01
   0   3   7    6.84    1.19
   0  -3  -8    1.71    0.94
   0  -3  -8    2.22    0.73
   0  -3  -8    1.33    0.94
   0   3   8    1.57    0.83
   0   3   9   -0.14    0.97
   0  -3  -9    0.07    0.87
   0  -3  -9    1.16    0.69
   0  -3 -10   34.01    3.09
   0   3  10   33.37    2.73
   0  -3 -10   40.96    2.51
   0   3  11   94.57    4.86
   0  -3 -11  103.77    5.57
   0  -3 -12  183.54    7.98
   0   3  12  182.82    7.27
   0  -3 -13   42.78    2.80
   0  -3 -13   34.23    3.62
   0  -3 -13   35.88    3.66
   0  -3 -13   52.03    3.17
   0  -3 -13   53.22    2.72
   0   3  13   34.97    3.38
   0   3  13   46.84    3.01
   0   3  14   71.65    4.94
   0  -3 -14   68.51    5.30
   0  -3 -14   81.01    3.51
   0  -3 -14   88.76    4.23
   0   3  14   80.17    3.96
   0  -3 -14   78.52    3.92
   0  -3 -15  111.60    4.98
   0  -3 -15   96.63    6.54
   0  -3 -15   97.87    4.51
   0   3  15   97.66    5.92
   0   3  15   94.72    4.39
   0  -3 -15   93.91    3.95
   0  -3 -16   -0.13    0.88
   0  -3 -16    0.13    0.62
   0   3  16   -0.01    0.87
   0  -3 -16    1.01    0.94
   0  -3 -17   25.50    2.44
   0  -3 -17   23.09    2.24
   0  -3 -17   21.75    1.88
   0   3  17   20.24    2.16
   0  -3 -18    0.55    0.64
   0   3  18    1.00    0.86
   0  -3 -18    0.87    0.90
   0  -3 -18    0.74    0.82
   0   3  19    0.50    0.79
   0  -3 -19   -0.33    0.77
   0  -3 -19    0.53    0.75
   0  -3 -19    0.13    0.55
   0  -3 -20    2.28    0.86
   0  -3 -20    2.89    0.97
   0  -3 -20    1.56    0.62
   0   3  20    1.97    0.77
   0   3  21    0.21    0.55
   0  -3 -21   -0.01    0.55
   0  -3 -21    0.14    0.55
   0  -3 -21    0.42    0.51
   0  -3 -22    8.81    0.86
   0   3  22    7.73    0.98
   0  -3 -22    7.53    0.92
   0  -3 -22    7.88    0.93
   0   3  23   11.86    0.91
   0  -3 -23   11.64    0.90
   0   4 -21   29.41    1.44
   0   4 -21   30.27    1.51
   0   4 -20    1.20    0.65
   0   4 -20    0.41    0.50
   0   4 -20    0.26    0.49
   0   4 -20   -0.10    0.38
   0  -4  20    0.69    0.70
   0  -4  19    0.27    0.66
   0  -4  19    0.65    0.54
   0   4 -19   -0.01    0.51
   0   4 -19    0.78    0.59
   0   4 -19    0.51    0.46
   0  -4  18    5.19    1.03
   0   4 -18    5.04    0.88
   0  -4  18    5.13    0.90
   0  -4  18    5.68    1.19
   0   4 -18    5.77    1.06
   0   4 -18    5.50    0.99
   0  -4  17    7.85    1.19
   0   4 -17    6.86    1.05
   0  -4  17    9.18    1.34
   0  -4  17    6.43    1.29
   0   4 -17    7.63    1.22
   0   4 -17    7.08    1.21
   0  -4  16   67.33    3.68
   0  -4  16   78.05    3.83
   0   4 -16   70.19    3.20
   0   4 -16   72.91    3.59
   0  -4  16   74.98    3.57
   0   4 -16   73.86    3.57
   0  -4  15   91.11    4.64
   0  -4  15   93.14    4.50
   0   4 -15  102.62    4.41
   0  -4  15  109.95    4.45
   0   4 -15  105.11    4.01
   0  -4  15  116.45    4.80
   0  -4  14  159.23    5.73
   0   4 -14  152.29    4.89
   0  -4  14  140.23    5.45
   0   4 -14  148.96    5.32
   0  -4  14  156.02    5.42
   0   4 -13   15.48    1.59
   0  -4  13   16.07    1.90
   0  -4  13   14.91    1.81
   0  -4  13   15.10    1.98
   0   4 -13   18.25    2.57
   0   4 -13   14.61    1.69
   0  -4  12   19.18    1.90
   0  -4  12   23.44    2.21
   0   4 -12   18.95    2.54
   0   4 -12   23.77    2.01
   0   4 -12   22.19    1.77
   0  -4  12   16.12    1.94
   0  -4  11    7.47    1.30
   0  -4  11    4.36    1.23
   0  -4  11    3.74    1.09
   0   4 -11    6.27    1.19
   0   4 -11    6.39    1.08
   0   4 -11    4.44    1.29
   0   4 -10   87.21    4.90
   0   4  -9    6.04    1.38
   0   4  -8   25.14    2.42
   0   4  -8   20.76    2.30
   0  -4   8   23.67    2.13
   0  -4   7   17.55    1.79
   0   4  -7   19.60    2.15
   0   4  -7   18.28    2.11
   0   4  -6   56.98    3.44
   0   4  -6   61.75    3.53
   0  -4   6   54.81    2.88
   0   4  -5  135.61    5.14
   0  -4   5  123.72    5.31
   0  -4   5  121.61    4.07
   0  -4   4  552.73   12.17
   0  -4   4  544.93    9.63
   0   4  -3   12.31    1.59
   0  -4   3   11.03    1.66
   0  -4   3   11.21    1.09
   0  -4   2  246.61    5.05
   0  -4   2  218.35    6.76
   0   4  -2  230.42    6.57
   0  -4   2  252.05    5.47
   0  -4   1  106.55    4.48
   0   4  -1  104.38    4.22
   0  -4   1  115.07    3.03
   0  -4   0   92.90    2.57
   0  -4   0   82.59    3.92
   0  -4   0   92.74    2.47
   0   4   0   80.57    3.71
   0  -4  -1   89.68    4.10
   0  -4  -1  118.91    2.63
   0  -4  -1  115.30    2.43
   0   4   1   85.05    3.91
   0  -4  -2    4.28    1.13
   0  -4  -2    6.05    0.45
   0   4   2    4.76    1.12
   0   4   3   14.22    1.30
   0  -4  -3   11.59    1.62
   0   4   3   11.48    1.62
   0   4   4  186.96    6.13
   0   4   4  196.23    4.91
   0   4   5  341.39    7.36
   0   4   5  326.31    8.59
   0   4   6   63.06    3.68
   0   4   6   62.85    3.10
   0  -4  -6   56.79    3.60
   0   4   7  171.75    6.41
   0   4   7  167.84    5.55
   0  -4  -7  153.73    6.10
   0   4   8   45.75    2.98
   0   4   8   47.09    3.42
   0  -4  -8   40.80    3.33
   0   4   9  127.24    5.86
   0  -4  -9  117.59    5.87
   0   4   9  120.52    5.16
   0   4  10   88.76    5.05
   0   4  10   86.85    4.58
   0  -4 -10   80.96    5.05
   0   4  11   92.23    5.29
   0   4  11   89.38    4.91
   0  -4 -11   84.98    5.46
   0  -4 -12  107.25    6.52
   0  -4 -12  149.51    5.38
   0   4  12  112.18    6.12
   0   4  12  105.70    5.71
   0  -4 -12  139.89    5.12
   0   4  12  151.31    5.22
   0   4  13   28.46    3.13
   0   4  13   30.82    3.34
   0  -4 -13   30.63    2.55
   0  -4 -13   30.59    2.51
   0  -4 -13   23.86    3.31
   0  -4 -13   37.32    2.36
   0   4  13   30.51    2.57
   0  -4 -14  284.81   11.52
   0  -4 -14  310.39    7.40
   0   4  14  288.98   10.41
   0   4  14  301.17    8.29
   0  -4 -14  291.12    8.21
   0  -4 -14  322.20    8.60
   0  -4 -15  563.71   10.97
   0  -4 -15  610.38   12.71
   0  -4 -15  549.49   12.23
   0   4  15  547.80   12.15
   0  -4 -15  624.87   17.53
   0   4  15  622.72   16.07
   0  -4 -16    4.57    1.33
   0  -4 -16    4.11    1.01
   0  -4 -16    4.48    1.22
   0   4  16    2.88    1.11
   0  -4 -17    3.22    0.87
   0  -4 -17    2.52    1.03
   0  -4 -17    3.87    1.28
   0   4  17    2.74    1.02
   0  -4 -18    0.86    0.65
   0   4  18    0.03    0.70
   0  -4 -18    0.09    0.70
   0  -4 -18    0.24    0.75
   0   4  19    0.64    0.71
   0  -4 -19    0.90    0.61
   0  -4 -19    0.10    0.68
   0  -4 -19    0.28    0.69
   0  -4 -20    0.62    0.68
   0   4  20    0.39    0.64
   0  -4 -20   -0.04    0.46
   0  -4 -20   -0.02    0.59
   0  -4 -20    0.15    0.46
   0  -4 -21    2.83    0.56
   0  -4 -21    2.22    0.70
   0  -4 -21    1.90    0.55
   0  -4 -21    1.68    0.63
   0   4  21    1.72    0.68
   0  -4 -22    0.08    0.32
   0  -4 -22    0.01    0.40
   0   4  22    0.50    0.47
   0   5 -20   20.04    1.24
   0   5 -20   23.82    1.27
   0   5 -19    5.52    0.79
   0   5 -19    4.86    0.80
   0  -5  19    5.08    0.71
   0   5 -18    0.69    0.59
   0  -5  18   -0.15    0.52
   0  -5  18    0.47    0.55
   0   5 -18    0.47    0.55
   0   5 -17    0.00    0.59
   0   5 -17    0.90    0.58
   0  -5  17    1.36    0.71
   0   5 -17    0.79    0.68
   0  -5  17    0.11    0.68
   0  -5  17    0.10    0.57
   0   5 -16   18.19    1.75
   0  -5  16   17.60    1.68
   0  -5  16   18.87    1.83
   0   5 -16   19.07    1.77
   0  -5  16   17.89    1.92
   0   5 -16   19.66    1.58
   0   5 -15    2.27    0.76
   0   5 -15    2.22    0.89
   0   5 -15    1.29    0.68
   0  -5  15    1.27    0.91
   0  -5  15    2.55    0.91
   0  -5  15    2.39    0.97
   0   5 -14    1.67    0.76
   0  -5  14    0.70    0.86
   0  -5  14    1.35    0.86
   0   5 -14    2.00    0.90
   0  -5  14    2.31    1.04
   0   5 -14    2.12    0.95
   0   5 -13  242.69    7.02
   0   5 -13  248.62    6.99
   0  -5  13  254.53    7.53
   0  -5  13  231.44    7.25
   0   5 -13  255.17    6.41
   0  -5  13  251.91    7.24
   0   5 -12  539.23   11.09
   0  -5  12  541.39   11.73
   0  -5  12  524.96   11.26
   0   5 -12  562.92   10.30
   0  -5  12  553.37   14.81
   0   5 -12  525.89   10.83
   0   5 -11    6.51    1.32
   0   5 -11    5.86    1.00
   0  -5  11    6.38    1.90
   0   5 -11    6.78    1.37
   0   5 -11    5.41    1.58
   0  -5  11    5.02    1.28
   0  -5  11    5.56    1.36
   0  -5  11    6.93    1.39
   0   5 -10   27.99    2.15
   0   5 -10   33.83    2.07
   0  -5  10   27.07    2.33
   0  -5  10   20.87    2.16
   0  -5  10   25.19    2.17
   0   5 -10   23.00    2.70
   0   5 -10   26.56    2.04
   0  -5  10   20.71    2.66
   0  -5  10   26.95    2.27
   0  -5   9   50.66    3.08
   0   5  -9   50.71    2.67
   0  -5   9   52.39    2.94
   0   5  -8    1.73    1.17
   0   5  -8    1.54    1.09
   0   5  -7  183.90    7.21
   0  -5   7  185.19    6.59
   0   5  -7  202.92    7.52
   0  -5   6   45.85    2.82
   0   5  -6   50.82    3.50
   0   5  -6   46.23    3.44
   0  -5   6   49.78    3.10
   0  -5   5    0.65    0.79
   0  -5   5    0.57    0.66
   0   5  -5    0.36    0.84
   0  -5   5    0.76    0.71
   0  -5   4    9.02    1.28
   0   5  -4    8.48    1.54
   0  -5   4    9.26    1.77
   0  -5   4    8.51    1.12
   0  -5   3  100.71    5.20
   0  -5   3  115.43    4.07
   0   5  -3  112.28    5.08
   0  -5   3  103.05    3.57
   0  -5   2  204.49    4.86
   0   5  -2  190.29    6.76
   0  -5   2  185.81    7.06
   0  -5   1  438.04   11.39
   0  -5   1  508.28    8.53
   0   5  -1  431.85   10.91
   0  -5   1  523.70    8.17
   0   5   0   83.72    4.33
   0  -5   0   82.76    4.57
   0  -5  -1   19.77    2.26
   0   5   1   19.19    2.14
   0   5   2  205.12    6.94
   0  -5  -2  212.69    7.46
   0   5   3   11.09    1.74
   0  -5  -3   10.98    1.86
   0   5   4  327.58    9.14
   0  -5  -4  342.51    9.87
   0  -5  -5  132.09    6.09
   0   5   5  134.89    5.88
   0  -5  -6    7.03    1.51
   0   5   6    8.44    1.59
   0   5   6    9.34    1.34
   0   5   7   23.01    2.11
   0  -5  -7   20.13    2.51
   0   5   7   20.82    2.48
   0   5   8    9.79    1.48
   0   5   8    9.36    1.83
   0  -5  -8    8.17    1.77
   0   5   9    2.37    1.02
   0   5   9    1.91    1.23
   0  -5  -9    1.51    1.06
   0   5  10    1.78    1.08
   0  -5 -10    0.31    0.85
   0   5  10    1.16    1.03
   0   5  11    3.09    1.06
   0  -5 -11    0.75    0.94
   0  -5 -11    2.94    0.98
   0   5  11    2.17    1.21
   0   5  11    1.71    1.20
   0  -5 -11    3.21    1.07
   0   5  12   28.95    2.38
   0   5  12   25.43    2.82
   0  -5 -12   24.70    2.23
   0   5  12   25.02    3.12
   0  -5 -12   34.29    2.18
   0  -5 -12   18.98    2.97
   0  -5 -12   25.41    2.30
   0  -5 -13   58.25    3.44
   0  -5 -13   55.90    4.96
   0  -5 -13   73.36    3.26
   0   5  13   69.32    3.69
   0   5  13   66.79    5.00
   0   5  13   64.36    4.62
   0  -5 -13   63.37    3.66
   0   5  14   64.07    4.85
   0   5  14   51.39    3.26
   0  -5 -14   48.54    3.23
   0  -5 -14   58.11    2.95
   0  -5 -14   54.33    4.96
   0  -5 -14   51.83    3.39
   0  -5 -15   82.71    3.55
   0  -5 -15   75.58    4.04
   0   5  15   77.38    4.12
   0  -5 -15   82.40    4.29
   0  -5 -16    2.99    0.88
   0  -5 -16    2.47    1.04
   0   5  16    3.33    1.07
   0  -5 -16    3.23    1.20
   0   5  17   28.57    2.36
   0  -5 -17   30.94    2.55
   0  -5 -17   28.88    1.98
   0  -5 -17   29.78    2.42
   0   5  18   16.73    1.72
   0  -5 -18   17.34    1.47
   0  -5 -18   17.58    1.82
   0  -5 -18   17.68    1.94
   0  -5 -19    6.45    0.89
   0  -5 -19    7.03    1.15
   0   5  19    5.90    1.03
   0  -5 -19    6.57    1.19
   0   5  20    4.06    0.84
   0  -5 -20    5.12    0.94
   0  -5 -20    4.50    0.69
   0  -5 -20    3.63    0.86
   0  -5 -20    4.92    0.75
   0  -5 -21    0.89    0.52
   0   5  21    1.13    0.52
   0  -5 -21    0.91    0.42
   0  -5 -21    1.47    0.57
   0  -5 -21    0.59    0.38
   0  -5 -22    0.40    0.35
   0   6 -19    1.55    0.48
   0  -6  18    5.05    0.73
   0   6 -18    7.06    0.90
   0   6 -17    1.51    0.60
   0  -6  17    0.82    0.63
   0   6 -17    1.00    0.61
   0  -6  17    0.23    0.49
   0   6 -16    1.41    0.68
   0   6 -16    1.23    0.66
   0  -6  16    1.00    0.56
   0  -6  16    1.39    0.68
   0   6 -15    5.15    1.06
   0  -6  15    3.73    0.93
   0  -6  15    5.00    1.09
   0   6 -15    5.94    1.07
   0  -6  14    1.31    0.81
   0  -6  14    1.17    0.84
   0   6 -14    2.10    0.79
   0   6 -14    1.76    0.81
   0   6 -13    2.77    0.94
   0   6 -13    1.99    0.91
   0  -6  13    2.00    0.94
   0  -6  13    1.92    0.93
   0   6 -12  133.11    4.86
   0  -6  12  125.96    5.15
   0  -6  12  123.08    5.02
   0  -6  12  138.49    5.39
   0   6 -12  142.06    5.06
   0  -6  11   77.51    4.02
   0  -6  11   81.68    4.20
   0  -6  11   80.15    4.00
   0   6 -11   82.09    3.73
   0   6 -11   87.87    3.93
   0  -6  10   75.40    4.90
   0   6 -10   72.18    4.98
   0   6 -10   65.14    3.38
   0   6 -10   62.33    3.18
   0  -6  10   59.43    3.45
   0  -6  10   59.59    3.54
   0  -6  10   58.95    3.42
   0  -6   9   58.61    3.40
   0   6  -9   67.44    3.37
   0   6  -9   58.20    4.55
   0  -6   9   62.09    3.55
   0  -6   9   65.06    4.45
   0   6  -9   63.36    3.20
   0   6  -8   31.51    2.24
   0   6  -8   22.04    2.84
   0   6  -8   22.26    2.91
   0  -6   8   26.33    2.68
   0  -6   8   24.06    2.19
   0   6  -8   25.35    2.01
   0  -6   8   24.19    2.21
   0   6  -7    8.75    1.96
   0   6  -7    9.87    1.41
   0   6  -7    7.11    1.68
   0  -6   7    8.47    1.58
   0   6  -7   10.50    1.34
   0  -6   7    9.34    1.45
   0  -6   7    9.17    1.46
   0   6  -6    2.11    1.19
   0   6  -6    1.75    1.14
   0  -6   6    2.89    0.98
   0   6  -5    0.54    0.78
   0   6  -5    2.05    1.32
   0  -6   5    1.15    1.05
   0  -6   4   66.33    4.73
   0   6  -4   65.11    4.42
   0  -6   3   59.29    4.41
   0   6  -3   59.31    4.13
   0   6  -2   29.94    2.93
   0  -6   2   30.51    3.14
   0   6  -1  189.48    7.48
   0  -6   1  189.82    7.78
   0   6   0   70.25    4.39
   0  -6   0   65.51    4.54
   0   6   1   13.79    2.05
   0  -6  -1   13.62    2.19
   0  -6  -2   18.44    2.54
   0   6   2   17.62    2.31
   0  -6  -3    7.03    1.75
   0   6   3    6.95    1.61
   0  -6  -4   82.56    5.20
   0   6   4   79.02    4.84
   0  -6  -5    2.00    1.30
   0   6   5    1.41    1.06
   0   6   6    2.89    1.19
   0  -6  -6    3.04    1.39
   0  -6  -7   10.50    2.12
   0   6   7   10.24    1.97
   0  -6  -8    9.24    1.99
   0   6   8    9.19    1.92
   0  -6  -9    6.70    1.94
   0  -6  -9    8.56    1.46
   0   6   9    9.07    1.70
   0  -6  -9    9.94    1.44
   0  -6  -9    8.65    1.38
   0   6   9    5.37    1.65
   0   6   9    8.71    1.49
   0  -6 -10   10.72    1.57
   0   6  10    8.09    1.94
   0  -6 -10   11.99    1.62
   0   6  10    9.82    1.57
   0   6  10   13.19    2.10
   0  -6 -10    7.90    2.04
   0  -6 -10   15.43    1.58
   0   6  11   10.90    1.63
   0  -6 -11   10.49    1.55
   0  -6 -11   10.45    1.57
   0  -6 -11    8.47    2.27
   0   6  11   14.79    2.30
   0   6  11   10.16    2.26
   0   6  12   10.60    1.65
   0  -6 -12   10.06    1.57
   0   6  12   16.09    2.44
   0  -6 -12   10.17    1.61
   0   6  12   13.18    2.85
   0  -6 -12    8.93    2.25
   0  -6 -13   14.89    1.84
   0  -6 -13   15.41    1.99
   0   6  13   14.74    1.77
   0  -6 -14    1.37    0.89
   0  -6 -14    1.38    0.74
   0  -6 -14    0.96    0.93
   0   6  14    0.72    0.83
   0  -6 -14    3.16    0.81
   0  -6 -15   48.58    2.54
   0  -6 -15   51.50    2.68
   0  -6 -15   42.30    3.05
   0  -6 -15   42.70    2.96
   0   6  15   41.88    2.94
   0  -6 -16    0.50    0.80
   0  -6 -16    0.17    0.52
   0   6  16    0.03    0.74
   0  -6 -16    0.38    0.74
   0  -6 -17   10.79    1.44
   0  -6 -17   10.71    1.11
   0  -6 -17    9.71    1.50
   0   6  17    9.49    1.37
   0  -6 -18   10.49    1.37
   0  -6 -18   10.22    1.45
   0   6  18    9.17    1.27
   0   6  19    5.39    0.90
   0  -6 -19    5.76    1.02
   0  -6 -19    5.83    0.98
   0  -6 -19    6.57    0.74
   0   6  20    0.08    0.43
   0  -6 -20    0.94    0.55
   0  -6 -20    0.11    0.46
   0  -6 -20   -0.73    0.51
   0  -6 -21    2.04    0.40
   0  -6 -21    1.63    0.47
   0   6  21    1.56    0.44
   0   7 -18    0.65    0.38
   0  -7  17    0.63    0.45
   0  -7  17    0.44    0.45
   0   7 -17    0.58    0.44
   0  -7  16    6.37    0.90
   0   7 -16    7.29    0.96
   0  -7  16    6.06    0.90
   0  -7  15    0.67    0.60
   0   7 -15    0.79    0.56
   0  -7  15    0.86    0.59
   0  -7  14    7.52    1.01
   0  -7  14    4.97    0.96
   0   7 -14    7.06    1.15
   0   7 -14    6.55    1.07
   0  -7  14    4.68    1.03
   0  -7  13    1.84    0.78
   0   7 -13    3.06    0.84
   0  -7  13    3.21    0.94
   0   7 -13    3.10    0.86
   0  -7  13    3.60    0.96
   0  -7  12   -0.19    0.71
   0   7 -12   -0.08    0.64
   0  -7  12   -0.17    0.65
   0   7 -12   -0.17    0.64
   0   7 -11    4.60    1.00
   0  -7  11    3.96    1.09
   0  -7  11    3.18    1.01
   0   7 -11    4.76    1.02
   0  -7  10    2.16    1.04
   0   7 -10    2.11    0.77
   0  -7  10    1.12    0.79
   0   7 -10    1.97    0.85
   0   7  -9    2.59    0.91
   0  -7   9    1.89    0.91
   0  -7   9    1.10    0.81
   0   7  -9    1.59    0.82
   0   7  -8   40.58    2.56
   0  -7   8   40.10    2.93
   0  -7   8   35.87    2.68
   0   7  -8   43.14    2.75
   0   7  -7   16.35    1.77
   0   7  -7   14.28    1.56
   0   7  -7   19.00    2.93
   0   7  -7   14.92    2.50
   0  -7   7   14.78    1.81
   0  -7   7   14.66    1.80
   0   7  -6    1.82    1.31
   0   7  -6    3.70    1.02
   0  -7   6    3.21    1.02
   0  -7   6    3.63    1.18
   0   7  -6    3.39    1.52
   0   7  -5   14.36    2.46
   0  -7   5   14.78    1.70
   0  -7   5   15.18    1.78
   0  -7   5   14.02    2.50
   0   7  -5   21.23    1.83
   0   7  -5   12.98    2.28
   0  -7   4   17.02    1.75
   0  -7   4   15.39    2.71
   0  -7   4   14.55    1.71
   0   7  -4   13.26    2.38
   0  -7   3    8.22    2.03
   0  -7   3   11.41    1.48
   0  -7   3    9.00    1.48
   0   7  -3    7.39    1.90
   0  -7   2   52.57    3.14
   0   7  -2   47.63    4.16
   0  -7   2   51.23    4.53
   0   7  -1    2.17    1.22
   0  -7   1    3.19    1.50
   0   7   0    6.58    1.83
   0  -7   0    3.85    1.46
   0   7   1    2.05    1.36
   0  -7  -1    1.31    1.40
   0  -7  -2  305.00   11.07
   0   7   2  293.41   10.39
   0  -7  -3    0.61    1.36
   0   7   3    0.21    1.02
   0  -7  -4    4.07    1.54
   0   7   4    4.29    1.56
   0  -7  -4    7.26    1.33
   0   7   5    9.36    2.01
   0  -7  -5   10.90    1.43
   0  -7  -5    9.64    1.56
   0  -7  -5   11.92    1.50
   0  -7  -5    9.99    2.24
   0  -7  -6   11.62    1.48
   0  -7  -6   10.01    1.64
   0  -7  -6   13.90    1.68
   0  -7  -6    8.99    1.36
   0  -7  -6    9.29    2.19
   0   7   6    9.80    2.09
   0   7   7    0.96    0.97
   0  -7  -7    1.19    0.99
   0  -7  -7    0.18    0.77
   0  -7  -7    0.74    1.22
   0  -7  -7    0.30    0.87
   0  -7  -8    2.57    1.03
   0   7   8    3.77    1.58
   0  -7  -8    4.39    1.18
   0   7   8    4.89    1.17
   0  -7  -8    3.16    1.64
   0  -7  -8    3.63    1.04
   0  -7  -8    2.44    1.06
   0  -7  -9    2.05    1.09
   0  -7  -9    3.58    1.69
   0  -7  -9    4.51    1.25
   0  -7  -9    5.55    1.18
   0  -7  -9    4.47    1.09
   0   7   9    4.96    1.21
   0   7   9    3.71    1.57
   0   7  10    1.12    0.95
   0   7  10    0.57    1.09
   0  -7 -10    0.14    0.76
   0  -7 -10   -0.21    1.29
   0  -7 -10    0.09    0.84
   0  -7 -10   -0.35    0.83
   0  -7 -11    0.82    0.90
   0  -7 -11    0.88    0.85
   0   7  11    1.22    0.90
   0  -7 -11    1.76    0.91
   0   7  12    0.63    0.79
   0  -7 -12    1.16    0.86
   0  -7 -12    0.99    0.89
   0  -7 -12    0.04    0.73
   0   7  13   16.83    1.88
   0  -7 -13   14.54    1.87
   0  -7 -13   16.59    1.88
   0  -7 -14    0.88    0.78
   0  -7 -14    1.11    0.80
   0  -7 -14    0.16    0.64
   0   7  14    0.11    0.71
   0  -7 -15   10.60    1.47
   0   7  15    9.21    1.46
   0  -7 -15    9.25    1.49
   0  -7 -15   12.70    1.39
   0   7  16    7.02    1.24
   0  -7 -16    6.07    1.25
   0  -7 -16    8.86    1.12
   0  -7 -16    7.86    1.26
   0  -7 -17    1.21    0.69
   0  -7 -17    1.40    0.78
   0   7  17    0.88    0.65
   0  -7 -18   23.80    1.72
   0  -7 -18   20.53    1.76
   0   7  18   19.83    1.51
   0  -7 -19   15.08    1.08
   0  -7 -19   16.18    1.31
   0  -7 -19   16.60    1.31
   0   7  19   15.10    1.18
   0  -7 -20    1.83    0.49
   0  -7 -20    1.46    0.42
   0  -8  16    6.16    0.72
   0   8 -16    8.68    0.77
   0  -8  15    0.36    0.48
   0   8 -15    1.03    0.49
   0  -8  15    0.32    0.47
   0  -8  14   20.58    1.63
   0  -8  14   17.86    1.50
   0   8 -14   21.39    1.48
   0  -8  14   19.80    1.33
   0  -8  13    2.45    0.78
   0   8 -13    1.77    0.67
   0  -8  13    2.21    0.75
   0  -8  13    1.80    0.73
   0   8 -12   15.27    1.49
   0  -8  12   12.07    1.43
   0  -8  12   14.36    1.65
   0  -8  12   13.58    1.43
   0  -8  11   22.89    2.16
   0  -8  11   20.97    1.87
   0  -8  11   17.55    1.72
   0   8 -11   23.06    1.80
   0   8 -10    4.11    0.91
   0  -8  10    2.45    0.85
   0  -8  10    4.43    1.13
   0   8  -9   72.89    3.31
   0  -8   9   64.82    3.72
   0  -8   9   61.51    3.32
   0  -8   8   33.64    2.72
   0   8  -8   32.36    2.26
   0  -8   8   29.05    2.28
   0   8  -7   51.56    2.83
   0  -8   7   40.98    2.77
   0  -8   7   45.14    3.16
   0  -8   6   80.36    3.83
   0  -8   6   80.40    4.19
   0  -8   5   30.77    2.60
   0  -8   5   30.93    2.31
   0   8  -4   38.80    4.14
   0  -8   4   28.32    2.53
   0  -8   4   32.80    2.43
   0  -8   4   35.16    4.10
   0   8  -4   33.43    3.80
   0  -8   3  344.80    7.69
   0   8  -3  300.35   11.43
   0  -8   3  287.10   11.61
   0  -8   3  263.20    7.12
   0  -8   3  227.20    7.43
   0  -8   2   72.91    4.04
   0  -8   2   83.34    6.29
   0   8  -2   84.64    6.06
   0  -8   2   97.44    4.07
   0  -8   2   92.92    3.92
   0  -8   2   96.80    3.77
   0   8  -1   82.68    5.97
   0  -8   1   89.37    3.95
   0  -8   1   90.77    6.43
   0  -8   1   95.36    3.73
   0  -8   0   57.75    3.26
   0   8   0   57.28    5.00
   0  -8   0   63.45    3.10
   0  -8   0   49.24    3.26
   0  -8   0   55.96    5.08
   0  -8  -1   92.39    4.14
   0  -8  -1   90.86    4.39
   0  -8  -1   99.54    3.95
   0   8   1   92.77    6.27
   0  -8  -1  102.00    6.81
   0  -8  -1  103.22    4.09
   0  -8  -2  179.54    5.53
   0  -8  -2  176.32    5.87
   0   8   2  175.80    8.69
   0  -8  -2  169.11    6.21
   0  -8  -2  189.78    9.32
   0   8   3   82.07    5.95
   0  -8  -3   82.28    3.69
   0  -8  -3   81.07    4.01
   0  -8  -3   79.65    4.25
   0  -8  -3   85.48    6.34
   0   8   4   15.55    2.72
   0  -8  -4   17.34    1.95
   0  -8  -4   14.64    1.64
   0  -8  -4   16.55    2.95
   0  -8  -4   14.10    1.91
   0  -8  -5   10.50    1.55
   0   8   5   10.74    2.40
   0  -8  -5    7.84    1.29
   0  -8  -5    7.21    1.46
   0   8   6    1.51    1.43
   0  -8  -6    1.99    1.04
   0  -8  -6    1.77    0.86
   0  -8  -6    1.68    1.00
   0  -8  -6    3.33    1.61
   0   8   7    0.86    0.92
   0  -8  -7    1.84    1.01
   0  -8  -7    0.52    0.88
   0   8   7   -0.18    1.15
   0  -8  -7   -0.16    0.85
   0  -8  -7    0.22    0.81
   0  -8  -7    0.51    1.47
   0  -8  -8    7.37    1.42
   0  -8  -8    4.31    1.35
   0  -8  -8    6.25    1.19
   0  -8  -8    8.80    1.42
   0  -8  -8    5.97    1.17
   0   8   8    7.76    1.35
   0  -8  -9    0.50    0.88
   0   8   9    1.17    0.74
   0  -8  -9    0.88    0.84
   0  -8  -9    0.09    0.81
   0  -8  -9    0.95    0.85
   0  -8  -9    0.56    0.96
   0  -8 -10   53.76    3.34
   0   8  10   55.47    3.28
   0  -8 -10   56.87    3.09
   0  -8 -10   51.35    3.12
   0   8  11   14.31    1.69
   0  -8 -11   13.98    1.71
   0  -8 -11   15.63    1.72
   0  -8 -11   12.03    1.75
   0   8  12   -0.12    0.67
   0  -8 -12   -0.35    0.71
   0  -8 -12    0.12    0.72
   0  -8 -12   -0.13    0.67
   0  -8 -13    3.07    1.00
   0   8  13    4.04    1.04
   0  -8 -13    4.57    1.04
   0  -8 -13    5.34    1.13
   0  -8 -14    1.20    0.71
   0   8  14    1.23    0.81
   0  -8 -14    0.50    0.63
   0  -8 -14    0.38    0.66
   0  -8 -15    1.80    0.73
   0   8  15    2.15    0.80
   0  -8 -15    0.95    0.74
   0  -8 -15    1.65    0.66
   0  -8 -16    2.01    0.77
   0  -8 -16    0.89    0.59
   0  -8 -16    1.18    0.58
   0   8  16    0.67    0.61
   0  -8 -17    3.93    0.79
   0  -8 -17    3.24    0.76
   0  -8 -17    4.04    0.70
   0   8  17    3.06    0.70
   0  -8 -18    1.65    0.59
   0  -8 -18    1.71    0.50
   0  -8 -18    2.05    0.56
   0   8  18    1.81    0.51
   0  -8 -19    3.60    0.49
   0  -9  14    2.98    0.57
   0  -9  14    2.29    0.51
   0  -9  13    0.61    0.49
   0  -9  13    1.10    0.56
   0   9 -13    1.30    0.46
   0  -9  13    0.84    0.47
   0  -9  12    0.30    0.50
   0  -9  12    0.44    0.49
   0  -9  12    0.74    0.58
   0   9 -12    0.21    0.47
   0  -9  11    1.24    0.61
   0  -9  11    2.24    0.73
   0   9 -11    2.89    0.67
   0  -9  11    2.29    0.70
   0  -9  10    3.11    0.82
   0  -9  10    3.35    0.87
   0   9 -10    3.91    0.77
   0  -9  10    3.13    0.90
   0  -9   9   -0.17    0.56
   0  -9   9    0.02    0.64
   0   9  -9    0.32    0.52
   0  -9   9    0.72    0.68
   0  -9   8    3.45    0.99
   0  -9   8    4.01    1.00
   0   9  -8    4.04    0.84
   0  -9   8    2.95    0.89
   0  -9   7    0.65    0.73
   0  -9   7    1.30    0.72
   0  -9   7    1.85    0.87
   0  -9   6    9.98    1.52
   0  -9   6   13.84    1.53
   0  -9   6    9.23    1.35
   0  -9   6    9.08    1.49
   0  -9   5   11.29    1.53
   0  -9   5   10.32    1.41
   0  -9   5   13.02    1.54
   0  -9   5   10.31    1.60
   0  -9   4   20.68    1.99
   0  -9   4   21.72    2.05
   0  -9   4   17.52    2.00
   0  -9   4   19.42    1.85
   0  -9   3   54.58    3.25
   0  -9   3   53.86    2.91
   0  -9   3   43.52    3.10
   0  -9   3   48.31    2.99
   0  -9   2  134.27    5.02
   0  -9   2  123.12    5.26
   0  -9   2  156.39    5.14
   0  -9   2  155.73    4.97
   0  -9   1    3.99    1.04
   0  -9   1    1.75    0.99
   0  -9   1    2.76    1.17
   0  -9   1    2.61    1.05
   0  -9   0   78.91    3.43
   0  -9   0   71.61    3.58
   0  -9   0   71.48    3.58
   0  -9   0   68.46    3.98
   0  -9  -1   53.06    3.60
   0  -9  -1   60.13    3.22
   0  -9  -1   58.33    3.08
   0  -9  -1   54.38    3.22
   0  -9  -2  456.09    9.61
   0  -9  -2  456.19   10.22
   0  -9  -2  446.80   11.07
   0  -9  -3  257.44    6.87
   0  -9  -3  265.26    7.51
   0  -9  -3  258.75    8.22
   0  -9  -4   14.25    1.84
   0  -9  -4   11.73    1.61
   0  -9  -4   10.40    1.75
   0  -9  -5    3.28    1.14
   0  -9  -5    3.00    1.04
   0  -9  -5    3.29    1.24
   0  -9  -5    0.91    0.76
   0  -9  -6    0.06    0.73
   0  -9  -6    0.34    0.82
   0  -9  -6    0.28    0.89
   0  -9  -6   -0.64    0.81
   0  -9  -7    3.50    1.04
   0  -9  -7    2.87    1.06
   0  -9  -7    3.50    1.00
   0   9   7    3.38    1.09
   0  -9  -7    4.85    1.17
   0  -9  -7    3.20    1.12
   0  -9  -8    2.89    1.00
   0   9   8    5.33    1.16
   0  -9  -8    3.45    1.00
   0  -9  -8    2.39    0.93
   0  -9  -8    5.15    1.14
   0  -9  -8    3.44    1.01
   0  -9  -9    4.97    1.15
   0  -9  -9    4.83    1.10
   0  -9  -9    3.77    1.03
   0  -9  -9    5.08    1.03
   0   9   9    4.92    1.10
   0  -9 -10    0.06    0.69
   0  -9 -10    0.85    0.74
   0  -9 -10    0.78    0.74
   0   9  10    0.97    0.78
   0  -9 -10    0.46    0.63
   0   9  11    3.80    1.00
   0  -9 -11    2.88    0.92
   0  -9 -11    3.28    0.96
   0  -9 -11    2.80    0.88
   0  -9 -11    3.90    0.97
   0  -9 -12    1.06    0.74
   0  -9 -12    0.61    0.74
   0  -9 -12    0.38    0.65
   0   9  12    1.05    0.75
   0  -9 -12    0.13    0.69
   0   9  13   20.88    1.72
   0  -9 -13   21.61    1.69
   0  -9 -13   21.07    1.72
   0  -9 -13   19.50    1.82
   0   9  14    6.19    0.96
   0  -9 -14    6.42    1.06
   0  -9 -14    7.00    0.97
   0  -9 -14    5.71    0.82
   0  -9 -14    6.56    0.98
   0  -9 -15    0.86    0.48
   0  -9 -15    0.39    0.57
   0  -9 -15   -0.18    0.50
   0   9  15   -0.38    0.48
   0  -9 -15   -0.26    0.46
   0  -9 -16    0.79    0.46
   0  -9 -16    0.77    0.42
   0  -9 -16    0.51    0.51
   0  -9 -16    0.89    0.43
   0   9  16    0.37    0.42
   0  -9 -17    2.60    0.55
   0  -9 -17    2.15    0.43
   0 -10  12    3.47    0.51
   0 -10  11    2.51    0.62
   0 -10  11    2.17    0.54
   0 -10  11    2.37    0.54
   0 -10  10    6.20    0.84
   0 -10  10    6.21    0.93
   0 -10  10    6.40    0.83
   0 -10   9    0.41    0.59
   0 -10   9   -0.26    0.54
   0 -10   9    0.03    0.48
   0 -10   8    6.69    1.05
   0 -10   8    8.20    1.20
   0 -10   8    8.07    1.01
   0 -10   7    0.10    0.46
   0 -10   7    0.44    0.65
   0 -10   7   -0.09    0.62
   0 -10   6    7.80    1.05
   0 -10   6    6.32    1.12
   0 -10   6    7.33    1.24
   0 -10   5   18.59    1.58
   0 -10   5   13.59    1.64
   0 -10   5   14.39    1.42
   0 -10   5   13.24    1.47
   0 -10   4    8.04    1.24
   0 -10   4    9.94    1.18
   0 -10   4    7.85    1.35
   0 -10   4    9.33    1.28
   0 -10   3   -0.02    0.72
   0 -10   3    0.32    0.63
   0 -10   2    2.27    0.85
   0 -10   2    2.18    0.83
   0 -10   2    1.44    0.86
   0 -10   2    1.73    0.87
   0 -10   1    1.55    0.88
   0 -10   1    0.59    0.65
   0 -10   1    0.02    0.66
   0 -10   1    1.53    0.87
   0 -10   0    1.18    0.71
   0 -10   0    0.35    0.84
   0 -10   0    0.33    0.72
   0 -10   0    0.31    0.78
   0 -10  -1   56.44    3.21
   0 -10  -1   54.86    3.05
   0 -10  -1   53.55    2.91
   0 -10  -1   51.04    3.34
   0 -10  -2    1.63    0.84
   0 -10  -2    2.05    1.05
   0 -10  -2    3.05    1.07
   0 -10  -2    2.33    0.97
   0 -10  -3   71.47    3.96
   0 -10  -3   73.29    3.78
   0 -10  -3   66.06    3.72
   0 -10  -3   73.52    3.62
   0 -10  -4   48.17    2.96
   0 -10  -4   51.14    3.14
   0 -10  -4   43.32    3.06
   0 -10  -4   45.48    3.01
   0 -10  -5   34.88    2.69
   0  10   5   43.63    2.62
   0 -10  -5   40.20    2.48
   0 -10  -5   45.27    2.82
   0 -10  -5   33.36    2.65
   0 -10  -5   40.11    2.64
   0 -10  -6   25.60    2.30
   0 -10  -6   30.12    2.11
   0 -10  -6   25.00    2.20
   0 -10  -6   32.87    2.41
   0  10   6   29.37    2.12
   0 -10  -6   28.37    2.29
   0 -10  -7   19.99    2.00
   0 -10  -7   24.42    1.88
   0  10   7   24.15    1.92
   0 -10  -7   23.52    2.03
   0 -10  -7   18.84    1.97
   0 -10  -7   25.54    2.02
   0 -10  -8    2.83    0.97
   0 -10  -8    3.11    0.89
   0  10   8    2.68    0.81
   0 -10  -8    3.42    0.91
   0 -10  -8    3.17    0.86
   0 -10  -8    3.21    0.97
   0  10   9    1.28    0.72
   0 -10  -9    1.29    0.78
   0 -10  -9    1.45    0.69
   0 -10  -9    1.37    0.74
   0 -10  -9    2.04    0.78
   0 -10  -9    2.28    0.77
   0 -10 -10    3.46    0.82
   0 -10 -10    3.55    0.93
   0 -10 -10    4.11    0.95
   0 -10 -10    3.59    0.88
   0  10  10    4.96    0.93
   0 -10 -10    5.52    0.86
   0 -10 -11   12.16    1.42
   0 -10 -11   12.75    1.32
   0  10  11   15.54    1.35
   0 -10 -11   14.48    1.36
   0 -10 -11   15.64    1.35
   0 -10 -12    2.32    0.64
   0  10  12    2.57    0.66
   0 -10 -12    3.17    0.72
   0 -10 -12    3.19    0.74
   0 -10 -12    2.15    0.76
   0  10  13    7.05    0.92
   0 -10 -13    5.04    0.80
   0 -10 -13    4.67    0.83
   0 -10 -13    7.15    0.84
   0 -10 -13    6.43    0.65
   0 -10 -14    7.97    0.90
   0 -10 -14    8.84    0.86
   0 -10 -15    2.63    0.54
   0 -11   8    0.66    0.48
   0 -11   8    0.59    0.39
   0 -11   7    0.46    0.50
   0 -11   7    0.13    0.41
   0 -11   6    0.28    0.50
   0 -11   6    0.30    0.46
   0 -11   5    1.51    0.57
   0 -11   5    1.72    0.70
   0 -11   4    0.60    0.62
   0 -11   4    0.39    0.51
   0 -11   4   -0.18    0.50
   0 -11   3    1.31    0.73
   0 -11   3    1.61    0.63
   0 -11   3    2.05    0.64
   0 -11   2    1.90    0.75
   0 -11   2    1.32    0.67
   0 -11   2    1.82    0.64
   0 -11   1    0.90    0.70
   0 -11   1    0.84    0.66
   0 -11   1    0.59    0.52
   0 -11   1    1.08    0.59
   0 -11   0    3.90    0.79
   0 -11   0    3.85    0.96
   0 -11   0    3.85    0.97
   0 -11   0    4.61    0.89
   0 -11   0    3.66    0.92
   0 -11  -1   21.57    1.70
   0 -11  -1   18.78    1.75
   0 -11  -1   20.54    1.95
   0 -11  -1   21.52    1.54
   0 -11  -1   19.86    1.72
   0  11   2    0.41    0.59
   0 -11  -2    0.30    0.59
   0 -11  -2    0.69    0.65
   0 -11  -2    0.49    0.66
   0 -11  -2    0.65    0.67
   0 -11  -3    6.38    1.12
   0 -11  -3    8.27    1.17
   0 -11  -3    8.67    0.98
   0 -11  -3    6.17    1.07
   0 -11  -3    6.29    1.16
   0  11   3    8.35    1.05
   0 -11  -4   15.50    1.53
   0 -11  -4   13.70    1.53
   0 -11  -4   15.71    1.39
   0 -11  -4   15.50    1.52
   0 -11  -4   12.63    1.50
   0  11   4   17.14    1.37
   0 -11  -5    0.79    0.63
   0 -11  -5   -0.12    0.58
   0 -11  -5    0.06    0.54
   0 -11  -5    0.52    0.53
   0 -11  -5   -0.42    0.64
   0  11   5    1.06    0.62
   0 -11  -6    2.17    0.75
   0 -11  -6    1.34    0.65
   0 -11  -6    1.97    0.75
   0 -11  -6    1.49    0.61
   0  11   6    2.38    0.68
   0 -11  -7    0.16    0.50
   0 -11  -7    0.46    0.49
   0 -11  -7    0.52    0.55
   0  11   7    1.07    0.56
   0 -11  -7    0.84    0.62
   0 -11  -8    0.45    0.57
   0 -11  -8   -0.13    0.52
   0 -11  -8   -0.47    0.58
   0 -11  -8    0.43    0.53
   0 -11  -9    2.38    0.62
   0 -11  -9    3.31    0.60
   0 -11  -9    2.67    0.70
   0 -11  -9    2.39    0.68
   0 -11 -10    0.91    0.48
   0 -11 -10    1.16    0.55
   0 -11 -10    1.65    0.59
   0 -11 -11    0.00    0.42
   0 -11 -11    0.07    0.43
   0 -11 -11    0.27    0.41
   0 -11 -12    2.95    0.51
   0 -11 -12    3.14    0.56
   0 -12   3    0.73    0.38
   0 -12   3    0.31    0.44
   0 -12   2    1.96    0.52
   0 -12   2    1.46    0.52
   0 -12   1   -0.08    0.38
   0 -12   1    0.05    0.40
   0 -12   1    0.37    0.48
   0 -12   0    0.53    0.47
   0 -12   0   -0.02    0.42
   0 -12   0    0.71    0.47
   0 -12  -1    1.51    0.53
   0 -12  -1    0.95    0.53
   0 -12  -1    0.79    0.45
   0 -12  -1    1.17    0.53
   0 -12  -2    6.80    0.84
   0 -12  -2    6.75    0.85
   0 -12  -2    6.98    0.89
   0 -12  -2    7.08    0.79
   0 -12  -3    8.18    0.92
   0 -12  -3    8.53    0.91
   0 -12  -3    8.77    0.90
   0 -12  -4    4.81    0.69
   0 -12  -4    4.57    0.72
   0 -12  -4    4.93    0.72
   0 -12  -5    6.77    0.81
   0 -12  -5    5.19    0.73
   0 -12  -5    6.01    0.75
   0 -12  -6   44.97    1.84
   0 -12  -6   41.50    1.78
   0 -12  -6   47.56    1.73
   0 -12  -7   25.56    1.33
   0 -12  -7   24.53    1.29
   1 -11  -8   33.56    1.48
   1 -11  -7   13.13    0.98
   1 -11  -7   14.33    1.11
   1 -11  -6    4.97    0.70
   1 -11  -6    5.42    0.68
   1 -11  -6    5.42    0.80
   1 -11  -5    0.38    0.43
   1 -11  -5    1.12    0.52
   1 -11  -5    0.62    0.50
   1 -11  -4   27.52    1.59
   1 -11  -4   28.92    1.53
   1 -11  -4   29.19    1.69
   1 -11  -3   12.94    1.16
   1 -11  -3   13.68    1.19
   1 -11  -3   13.76    1.09
   1 -11  -2    1.38    0.60
   1 -11  -2    2.04    0.63
   1 -11  -2    1.54    0.52
   1 -11  -1   18.29    1.14
   1 -11  -1   17.61    1.21
   1 -11  -1   16.97    1.27
   1 -11  -1   14.52    1.25
   1 -11   0   28.27    1.44
   1 -11   0   24.66    1.52
   1 -11   0   30.39    1.55
   1 -11   0   28.92    1.48
   1 -11   1    0.04    0.49
   1 -11   1    0.28    0.41
   1 -11   1    0.23    0.44
   1 -11   2    2.46    0.59
   1 -11   2    3.14    0.62
   1 -11   2    3.13    0.62
   1 -11   3   16.67    1.05
   1 -11   3   14.29    1.05
   1 -11   4    5.77    0.73
   1 -11   5    5.87    0.67
   1 -10 -12   -0.08    0.35
   1 -10 -12    0.22    0.38
   1 -10 -11    2.09    0.52
   1 -10 -11    3.36    0.68
   1 -10 -11    4.45    0.67
   1 -10 -10    0.10    0.48
   1 -10 -10    0.60    0.49
   1 -10 -10   -0.21    0.48
   1 -10  -9   -0.22    0.52
   1 -10  -9   -0.42    0.58
   1 -10  -9   -0.15    0.46
   1 -10  -9    0.40    0.51
   1 -10  -8    2.73    0.76
   1 -10  -8    2.52    0.69
   1 -10  -8    2.44    0.76
   1 -10  -8    2.32    0.64
   1 -10  -7    6.05    0.98
   1 -10  -7    6.24    1.02
   1 -10  -7    5.81    0.90
   1 -10  -7    6.37    0.98
   1 -10  -6   11.68    1.37
   1 -10  -6   11.82    1.35
   1 -10  -6   11.74    1.22
   1 -10  -6   12.95    1.37
   1 -10  -5   48.96    2.71
   1 -10  -5   47.44    2.58
   1 -10  -5   47.55    2.59
   1 -10  -5   44.89    2.22
   1 -10  -4    2.85    0.93
   1 -10  -4    3.91    1.00
   1 -10  -4    3.25    0.99
   1 -10  -4    2.12    0.70
   1 -10  -3    5.52    1.13
   1 -10  -3    4.17    0.99
   1 -10  -3    4.65    0.91
   1 -10  -3    4.81    0.92
   1 -10  -3    5.78    1.15
   1 -10  -2    8.59    1.23
   1 -10  -2    6.84    1.03
   1 -10  -2    7.08    1.33
   1 -10  -2    8.33    1.20
   1 -10  -2    6.64    1.30
   1 -10  -1    1.83    0.86
   1 -10  -1    1.46    0.71
   1 -10  -1    1.68    0.66
   1 -10  -1    1.70    0.72
   1 -10  -1    1.64    0.76
   1 -10   0    0.54    0.60
   1 -10   0   -0.05    0.61
   1 -10   0    0.50    0.77
   1 -10   0    1.75    0.72
   1 -10   0    0.97    0.61
   1 -10   0    0.86    0.75
   1 -10   1    4.97    0.94
   1 -10   1    5.44    0.97
   1 -10   1    6.36    1.04
   1 -10   1    5.96    1.02
   1 -10   1    5.08    1.01
   1 -10   1    7.41    0.95
   1 -10   1    7.50    1.01
   1 -10   2    1.84    0.76
   1 -10   2    1.65    0.73
   1 -10   2    2.48    0.76
   1 -10   2    2.29    0.76
   1 -10   2    2.28    0.68
   1 -10   2    2.19    0.83
   1 -10   3    0.18    0.59
   1 -10   3    0.40    0.54
   1 -10   3    1.04    0.70
   1 -10   3   -0.18    0.54
   1 -10   3    0.25    0.59
   1 -10   4    0.31    0.54
   1 -10   4    2.17    0.72
   1 -10   4    1.03    0.59
   1 -10   4    0.59    0.61
   1 -10   4    0.18    0.47
   1 -10   5    0.45    0.53
   1 -10   5   -0.29    0.55
   1 -10   5    0.53    0.52
   1 -10   5    0.58    0.59
   1 -10   6    4.42    0.83
   1 -10   6    4.18    0.84
   1 -10   6    3.17    0.69
   1 -10   7    5.45    0.84
   1 -10   7    5.26    0.76
   1 -10   7    4.69    0.82
   1 -10   8    4.18    0.73
   1 -10   8    4.01    0.69
   1 -10   8    4.39    0.71
   1 -10   9    1.83    0.49
   1 -10   9    1.56    0.48
   1 -10   9    2.09    0.56
   1 -10  10    0.14    0.37
   1 -10  10    0.21    0.34
   1  -9 -15    0.29    0.41
   1  -9 -14   -0.16    0.40
   1  -9 -14   -0.13    0.44
   1  -9 -13    0.42    0.50
   1  -9 -13    0.31    0.47
   1  -9 -13    0.33    0.38
   1  -9 -12    0.38    0.53
   1  -9 -12    0.45    0.51
   1  -9 -12    0.38    0.58
   1  -9 -12    0.37    0.41
   1  -9 -11    0.88    0.61
   1  -9 -11    1.00    0.48
   1  -9 -11    0.61    0.58
   1  -9 -11    0.22    0.58
   1  -9 -10    0.81    0.71
   1  -9 -10    0.62    0.64
   1  -9 -10    0.63    0.66
   1  -9 -10    2.03    0.68
   1  -9 -10    0.51    0.50
   1  -9  -9   14.89    1.56
   1  -9  -9   18.16    1.53
   1  -9  -9   14.16    1.47
   1  -9  -9   13.71    1.55
   1  -9  -8    3.52    0.93
   1  -9  -8    3.05    0.90
   1  -9  -8    2.22    0.83
   1  -9  -8    3.21    0.93
   1  -9  -7    1.51    0.73
   1  -9  -7    1.43    0.84
   1  -9  -7    1.26    0.78
   1  -9  -7    1.07    0.68
   1  -9  -6    0.44    0.66
   1  -9  -6   -0.02    0.73
   1  -9  -6    0.44    0.71
   1  -9  -6    0.09    0.72
   1  -9  -5    3.80    0.92
   1  -9  -5    3.48    1.00
   1  -9  -5    4.51    1.08
   1  -9  -5    4.21    1.04
   1  -9  -4    1.46    0.88
   1  -9  -4    3.07    1.06
   1  -9  -4    1.16    0.70
   1  -9  -4    0.64    0.74
   1  -9  -4    1.71    0.79
   1  -9  -4    2.06    0.99
   1  -9  -3   10.22    1.46
   1  -9  -3    7.94    1.36
   1  -9  -3    7.38    1.18
   1  -9  -3    9.27    1.45
   1  -9  -3    6.69    1.19
   1  -9  -3    7.07    1.37
   1  -9  -3    7.27    1.31
   1  -9  -2   61.46    3.38
   1  -9  -2   52.59    3.24
   1  -9  -2   59.04    2.87
   1  -9  -2   55.73    3.25
   1  -9  -2   59.52    3.13
   1  -9  -2   61.01    3.15
   1  -9  -2   59.13    3.35
   1  -9  -1    1.64    0.85
   1  -9  -1    2.80    0.98
   1  -9  -1    2.25    0.86
   1  -9  -1    2.67    0.92
   1  -9  -1    0.94    0.79
   1  -9  -1    3.68    1.03
   1  -9   0    1.93    0.84
   1  -9   0    1.29    0.75
   1  -9   0    1.57    0.75
   1  -9   0    0.72    0.82
   1  -9   0    1.70    0.82
   1  -9   0    1.37    0.75
   1  -9   0    0.93    0.72
   1  -9   1    5.68    1.29
   1  -9   1    5.56    1.17
   1  -9   1    6.97    1.40
   1  -9   1    3.31    0.98
   1  -9   1    4.70    1.15
   1  -9   1    3.05    1.18
   1  -9   2   12.89    1.59
   1  -9   2   10.83    1.55
   1  -9   2   11.64    1.36
   1  -9   2    9.70    1.46
   1  -9   2    7.80    1.23
   1  -9   2   11.15    1.57
   1  -9   3    4.09    1.04
   1  -9   3    3.85    0.90
   1  -9   3    1.39    0.90
   1  -9   3    2.99    0.99
   1  -9   3    2.98    0.96
   1  -9   3    1.38    0.73
   1  -9   4    0.33    0.74
   1  -9   4    0.21    0.59
   1  -9   4   -0.13    0.66
   1  -9   4   -0.54    0.63
   1  -9   4   -0.16    0.68
   1  -9   5    2.90    0.91
   1  -9   5    2.93    0.97
   1  -9   5    4.05    0.84
   1  -9   5    4.11    0.98
   1  -9   5    2.74    0.90
   1  -9   6    7.64    1.27
   1  -9   6   11.72    1.25
   1  -9   6    9.51    1.28
   1  -9   6    8.95    1.33
   1  -9   7    0.64    0.66
   1  -9   7    0.65    0.65
   1  -9   7    1.16    0.71
   1  -9   8   -0.04    0.58
   1  -9   8    0.64    0.57
   1  -9   8    0.01    0.61
   1  -9   9    1.21    0.64
   1  -9   9    1.25    0.68
   1  -9   9    1.33    0.65
   1  -9  10   -0.18    0.51
   1  -9  10    0.11    0.50
   1  -9  10    0.03    0.48
   1  -9  11    3.40    0.67
   1  -9  11    3.69    0.68
   1  -9  11    3.89    0.77
   1  -9  12    1.48    0.48
   1  -9  12    1.61    0.59
   1  -9  13   18.81    1.15
   1  -9  13   15.37    0.95
   1  -8 -17    3.02    0.45
   1  -8 -17    3.27    0.59
   1  -8 -16    2.26    0.51
   1  -8 -16    2.62    0.53
   1  -8 -16    1.68    0.63
   1  -8 -15    0.20    0.44
   1  -8 -15    0.10    0.43
   1  -8 -15    0.77    0.57
   1  -8 -14    0.90    0.66
   1  -8 -14    0.78    0.50
   1  -8 -14   -0.06    0.56
   1  -8 -13    6.48    1.03
   1  -8 -13    5.29    1.08
   1  -8 -13    5.85    0.85
   1  -8 -12    0.87    0.68
   1  -8 -12    1.59    0.83
   1  -8 -12    1.09    0.62
   1  -8 -12    0.29    0.63
   1  -8 -11    2.77    0.87
   1  -8 -11    2.51    0.97
   1  -8 -11    2.57    0.71
   1  -8 -11    2.26    0.91
   1  -8 -10   31.12    1.99
   1  -8 -10   51.29    2.56
   1  -8 -10   34.02    2.58
   1  -8 -10   35.03    2.45
   1  -8 -10   46.68    2.80
   1  -8  -9    8.51    1.24
   1  -8  -9    7.20    1.29
   1  -8  -9    7.29    1.32
   1  -8  -9    6.83    1.02
   1  -8  -9    9.29    1.49
   1  -8  -8    0.71    0.86
   1  -8  -8    1.04    0.85
   1  -8  -8    1.31    0.88
   1  -8  -8    0.92    0.76
   1  -8  -8    0.88    0.67
   1  -8  -7    0.69    0.98
   1  -8  -7    0.85    0.91
   1  -8  -7    0.82    0.85
   1  -8  -7    0.17    0.81
   1  -8  -6   12.40    1.69
   1  -8  -6   15.28    1.71
   1  -8  -6   13.46    1.76
   1  -8  -6   11.55    1.55
   1  -8  -5   55.56    3.27
   1  -8  -5   55.52    3.38
   1  -8  -5   55.86    3.17
   1  -8  -5   62.89    3.47
   1  -8  -5   60.94    3.56
   1  -8  -4  103.84    4.54
   1  -8  -4   93.65    4.43
   1  -8  -4   89.20    3.92
   1  -8  -4   93.15    4.20
   1  -8  -4  100.52    4.56
   1  -8  -3  180.03    6.30
   1  -8  -3  172.56    6.13
   1  -8  -3  175.63    5.82
   1  -8  -3  180.18    6.25
   1  -8  -3  163.66    5.38
   1  -8  -2  244.29    7.31
   1  -8  -2  251.88    7.01
   1  -8  -2  240.18    7.21
   1  -8  -2  242.60    7.22
   1  -8  -2  232.21    6.80
   1  -8  -2  232.94    6.43
   1  -8  -1   11.73    1.83
   1  -8  -1    8.69    1.70
   1  -8  -1   11.40    1.56
   1  -8  -1    9.00    1.70
   1  -8  -1    7.67    1.37
   1  -8  -1    8.86    1.78
   1  -8  -1    8.93    1.57
   1  -8   0  190.30    5.94
   1  -8   0  183.30    6.02
   1  -8   0  178.60    6.15
   1  -8   0  195.44    6.25
   1  -8   0  183.96    6.20
   1  -8   0  197.26    5.78
   1  -8   1    4.72    1.21
   1  -8   1    4.20    1.16
   1  -8   1    4.00    0.97
   1  -8   1    3.85    1.12
   1  -8   1    3.54    1.09
   1  -8   1    3.11    0.93
   1  -8   2    5.13    1.24
   1  -8   2    5.00    1.09
   1  -8   2    5.83    1.35
   1  -8   2    8.36    1.50
   1  -8   2    6.43    1.44
   1  -8   2    5.74    1.35
   1  -8   3    9.89    1.61
   1  -8   3    8.83    1.41
   1  -8   3    9.11    1.45
   1  -8   3    9.61    1.54
   1  -8   3    8.48    1.46
   1  -8   3   11.73    1.63
   1  -8   4   13.80    1.70
   1  -8   4   13.50    1.62
   1  -8   4   13.61    1.67
   1  -8   4   15.69    1.69
   1  -8   4   15.91    1.67
   1  -8   5   12.55    1.68
   1  -8   5   10.87    1.55
   1  -8   5   13.20    1.56
   1  -8   5   11.84    1.61
   1  -8   5   14.80    1.61
   1  -8   6   22.22    1.88
   1  -8   6   19.54    1.83
   1  -8   6   14.74    1.73
   1  -8   6   13.17    1.63
   1  -8   6   13.25    1.75
   1  -8   7    1.87    0.93
   1  -8   7    2.66    0.96
   1  -8   7    2.55    0.99
   1  -8   7    2.93    0.88
   1  -8   8    2.12    0.76
   1  -8   8    2.29    0.98
   1  -8   8    1.22    0.78
   1  -8   8    1.64    0.87
   1  -8   9   23.19    2.00
   1  -8   9   21.07    1.91
   1  -8   9   25.34    2.17
   1  -8   9   29.20    1.96
   1  -8  10    0.15    0.60
   1  -8  10    0.10    0.62
   1  -8  10    0.03    0.60
   1  -8  10    0.30    0.58
   1  -8  11   10.55    1.40
   1  -8  11   14.44    1.27
   1  -8  11   11.62    1.28
   1  -8  11    9.79    1.25
   1  -8  12    1.38    0.71
   1  -8  12    1.48    0.59
   1  -8  12    1.47    0.67
   1  -8  13    2.45    0.74
   1  -8  13    0.93    0.58
   1  -8  13    2.45    0.59
   1  -8  14   39.10    2.00
   1  -8  14   39.57    1.84
   1  -8  15   16.68    1.00
   1  -8  15   16.09    1.14
   1  -7 -18   18.64    1.39
   1  -7 -18   19.44    1.08
   1  -7 -17    1.14    0.50
   1  -7 -17    0.25    0.54
   1  -7 -16    2.85    0.65
   1  -7 -16    2.52    0.64
   1  -7 -16    2.75    0.89
   1  -7 -15    0.55    0.55
   1  -7 -15   -0.25    0.54
   1  -7 -15    0.54    0.70
   1  -7 -14    0.65    0.65
   1  -7 -14    0.28    0.65
   1  -7 -14    0.50    0.62
   1  -7 -13   24.45    1.96
   1  -7 -13   21.21    2.13
   1  -7 -13   22.17    1.68
   1  -7 -12   34.37    2.12
   1  -7 -12   36.36    2.71
   1  -7 -12   39.05    2.54
   1  -7 -11    0.44    0.75
   1  -7 -11    0.58    0.88
   1  -7 -11    0.80    0.66
   1  -7 -11    0.05    0.71
   1  -7 -10    8.49    1.45
   1  -7 -10   11.28    1.52
   1  -7 -10    8.37    1.37
   1  -7 -10    6.63    1.07
   1  -7  -9    0.02    0.81
   1  -7  -9    0.61    0.94
   1  -7  -9    0.31    0.71
   1  -7  -9    0.23    0.77
   1  -7  -9    0.51    0.68
   1  -7  -8    7.79    1.45
   1  -7  -8    6.59    1.08
   1  -7  -8    9.48    1.44
   1  -7  -8   11.04    1.50
   1  -7  -8    9.76    1.52
   1  -7  -7    0.99    1.18
   1  -7  -7    2.03    0.95
   1  -7  -7    1.01    0.70
  -1   7   7    0.44    1.12
   1  -7  -7    2.66    1.32
   1  -7  -7    1.37    0.89
   1  -7  -7    0.01    0.86
   1  -7  -7    0.79    0.84
   1  -7  -6    1.09    0.86
   1  -7  -6    1.57    0.75
   1  -7  -6    1.18    0.84
   1  -7  -6    0.36    0.78
  -1   7   6    1.34    1.44
   1  -7  -6    1.34    1.44
   1  -7  -6    1.12    0.91
   1  -7  -6    1.21    1.09
   1  -7  -5    0.96    0.83
   1  -7  -5    0.39    0.86
   1  -7  -5    0.86    1.01
   1  -7  -5    1.03    0.91
   1  -7  -5    0.71    0.82
   1  -7  -5    1.33    0.93
   1  -7  -5    0.96    1.28
  -1   7   5    0.30    1.22
   1  -7  -4    1.90    0.96
   1  -7  -4    1.13    1.03
   1  -7  -4    1.36    0.94
   1  -7  -4    1.49    0.90
   1  -7  -4    3.02    1.10
   1  -7  -4    2.10    1.40
  -1   7   4    1.41    1.35
   1  -7  -4    0.58    1.24
   1  -7  -3    8.30    2.50
   1  -7  -3    9.84    1.59
   1  -7  -3    8.31    1.58
   1  -7  -3    4.56    1.36
  -1   7   3    6.03    2.02
   1  -7  -3    9.22    1.61
   1  -7  -3    7.89    1.45
   1  -7  -3    8.65    1.54
   1  -7  -2  278.76    7.05
   1  -7  -2  261.77   11.12
   1  -7  -2  255.18    7.50
  -1   7   2  298.98   10.98
   1  -7  -2  269.23    7.39
   1  -7  -2  270.89    7.62
   1  -7  -2  298.27    7.54
   1  -7  -1  503.94   10.28
   1  -7  -1  397.41    9.28
   1  -7  -1  370.47    9.34
   1  -7  -1  456.33    9.11
   1  -7  -1  416.74    9.40
  -1   7   1  427.87   13.29
   1  -7  -1  391.29    9.44
   1  -7  -1  457.75    9.28
   1  -7  -1  368.66   13.62
   1  -7   0   85.98    4.10
   1  -7   0   88.93    4.27
  -1   7   0   93.13    5.99
   1  -7   0   82.02    4.09
   1  -7   0   83.82    6.42
   1  -7   0   90.14    3.92
   1  -7   0  102.21    4.46
   1  -7   0   91.47    4.23
   1  -7   1  366.90    8.65
   1  -7   1  342.47    8.54
   1  -7   1  346.61   13.01
   1  -7   1  346.02    8.63
   1  -7   1  366.01    8.90
   1  -7   1  388.91    9.17
   1  -7   1  362.28    8.58
   1  -7   2    2.19    1.58
   1  -7   2    3.22    1.13
   1  -7   2    3.67    1.17
   1  -7   2    3.23    1.12
   1  -7   2    4.26    1.21
  -1   7  -2    5.55    2.03
   1  -7   2    3.37    1.03
   1  -7   2    3.86    1.17
   1  -7   3   64.80    3.46
   1  -7   3   73.40    3.57
   1  -7   3   87.73    3.90
  -1   7  -3   73.37    5.35
   1  -7   3   69.58    5.64
   1  -7   3   73.30    3.58
   1  -7   3   70.96    3.50
   1  -7   3   73.16    3.79
   1  -7   4   51.04    3.00
   1  -7   4   43.99    2.86
   1  -7   4   49.51    4.84
   1  -7   4   48.59    2.93
  -1   7  -4   50.39    4.49
   1  -7   4   49.05    2.96
   1  -7   4   45.15    3.04
   1  -7   5   62.95    3.59
   1  -7   5   78.53    3.57
   1  -7   5   58.43    3.26
   1  -7   5   69.69    3.45
  -1   7  -5   71.92    5.43
   1  -7   5   59.15    3.36
   1  -7   6   52.77    3.37
   1  -7   6   49.31    3.08
   1  -7   6   57.37    3.20
   1  -7   6   49.34    3.02
   1  -7   7   44.18    2.90
   1  -7   7   43.53    2.94
   1  -7   7   47.85    3.21
   1  -7   7   51.06    3.00
   1  -7   8    1.11    0.99
   1  -7   8    1.51    0.91
   1  -7   8    1.87    1.01
   1  -7   8    1.05    0.79
   1  -7   9    4.07    1.09
   1  -7   9    3.65    1.11
   1  -7   9    2.53    0.98
   1  -7   9    3.23    1.01
   1  -7  10    7.42    1.36
   1  -7  10    6.97    1.41
   1  -7  10    7.36    1.30
   1  -7  10    7.19    1.20
   1  -7  11   17.21    1.67
   1  -7  11   16.09    1.88
   1  -7  11   13.79    1.69
   1  -7  11   16.46    1.69
   1  -7  12    9.90    1.38
   1  -7  12   10.30    1.30
   1  -7  12    9.46    1.26
   1  -7  12    9.31    1.51
  -1   7 -13    0.81    0.59
   1  -7  13    0.98    0.54
   1  -7  13    0.62    0.63
   1  -7  13    0.41    0.69
   1  -7  13    0.49    0.56
   1  -7  14    3.02    0.90
   1  -7  14    2.86    0.79
   1  -7  14    3.01    0.69
  -1   7 -14    4.17    0.73
   1  -7  15    2.74    0.80
  -1   7 -15    4.45    0.70
   1  -7  15    3.13    0.69
   1  -7  16    4.59    0.79
   1  -7  16    4.06    0.64
   1  -7  17    2.71    0.54
   1  -6 -19    0.69    0.56
   1  -6 -19    0.78    0.39
   1  -6 -18    8.86    0.90
   1  -6 -18    7.17    0.83
   1  -6 -18    6.74    1.06
   1  -6 -17    0.47    0.53
   1  -6 -17    0.32    0.70
   1  -6 -17    0.21    0.51
   1  -6 -16    1.39    0.69
   1  -6 -16    0.87    0.78
   1  -6 -16    0.82    0.55
   1  -6 -16    0.60    0.57
   1  -6 -15    2.09    0.73
   1  -6 -15    3.19    0.83
   1  -6 -15    2.14    0.91
   1  -6 -15    2.93    0.75
   1  -6 -14    1.29    0.69
   1  -6 -14    0.41    0.76
   1  -6 -14    1.95    0.83
   1  -6 -14    0.70    0.73
   1  -6 -13    4.82    1.22
   1  -6 -13    4.69    1.11
   1  -6 -13    4.53    1.07
   1  -6 -13    4.22    1.02
   1  -6 -12    1.19    0.71
   1  -6 -12    1.32    0.86
   1  -6 -12    2.40    0.87
   1  -6 -11    0.95    0.90
   1  -6 -11    0.48    0.86
   1  -6 -11    0.62    0.77
   1  -6 -10   32.62    3.95
   1  -6 -10   25.63    2.26
  -1   6  10   30.94    3.88
   1  -6 -10   35.88    2.54
   1  -6 -10   24.23    2.37
   1  -6  -9   23.57    2.19
   1  -6  -9   17.81    1.93
   1  -6  -9   20.01    3.05
   1  -6  -9   16.86    1.85
  -1   6   9   16.92    2.96
   1  -6  -8    1.13    0.90
   1  -6  -8    1.07    0.88
   1  -6  -8    0.14    0.73
  -1   6   8   -0.13    1.16
   1  -6  -8    1.70    1.36
   1  -6  -8    0.89    0.94
   1  -6  -7    1.97    1.50
   1  -6  -7    2.68    1.08
   1  -6  -7    2.62    1.24
   1  -6  -7    2.68    1.03
   1  -6  -7    3.41    1.04
  -1   6   7    1.98    1.35
   1  -6  -7    1.75    0.99
   1  -6  -6    1.44    0.95
   1  -6  -6    1.55    0.94
   1  -6  -6    2.01    0.90
   1  -6  -6    0.85    0.96
   1  -6  -6    2.30    0.94
  -1   6   6    1.23    1.38
   1  -6  -6    1.01    1.18
   1  -6  -5    1.57    1.22
   1  -6  -5    2.52    1.13
   1  -6  -5    3.76    1.06
  -1   6   5    1.98    1.34
   1  -6  -5    2.44    0.92
   1  -6  -5    3.97    1.14
   1  -6  -5    2.91    1.01
   1  -6  -4   17.78    2.86
   1  -6  -4   20.40    2.06
   1  -6  -4   17.67    1.94
  -1   6   4   16.34    2.58
   1  -6  -4   21.65    1.95
   1  -6  -4   25.35    2.24
  -1   6   3   20.22    2.72
   1  -6  -3   19.71    2.91
   1  -6  -3   23.43    2.07
  -1   6   2  247.94    9.24
   1  -6  -2  250.02    9.98
   1  -6  -1  195.00    8.61
  -1   6   1  205.55    8.18
  -1   6   0  145.35    6.64
   1  -6   0  131.93    7.11
  -1   6  -1   41.94    3.72
   1  -6   1   36.73    3.98
   1  -6   2    2.84    1.28
  -1   6  -2    4.31    1.55
   1  -6   2    4.86    2.11
   1  -6   3   40.76    2.55
   1  -6   3   33.70    2.33
  -1   6  -3   38.25    3.32
   1  -6   3   36.21    2.45
   1  -6   3   29.89    3.48
   1  -6   3   33.73    2.79
   1  -6   4  155.16    5.42
   1  -6   4  120.19    7.02
   1  -6   4  133.28    5.74
   1  -6   4  140.03    4.89
  -1   6  -4  119.69    6.53
   1  -6   4  158.55    5.16
   1  -6   4  138.42    4.86
   1  -6   5   25.77    2.17
   1  -6   5   25.14    2.63
   1  -6   5   24.20    2.16
   1  -6   5   18.70    3.08
   1  -6   5   23.93    2.20
   1  -6   5   24.39    2.22
  -1   6  -5   22.75    2.97
   1  -6   6    2.22    0.87
  -1   6  -6    2.27    1.38
   1  -6   6    2.85    1.02
   1  -6   6    2.60    1.22
   1  -6   6    3.02    0.96
   1  -6   6    2.34    0.88
   1  -6   7   25.05    2.27
   1  -6   7   22.41    2.26
   1  -6   7   22.35    2.03
   1  -6   7   21.08    2.03
   1  -6   7   24.14    2.74
  -1   6  -7   24.86    3.23
   1  -6   8   16.60    1.87
   1  -6   8   16.14    1.69
   1  -6   8   18.78    2.54
   1  -6   8   14.76    1.70
  -1   6  -8   16.69    2.63
   1  -6   8   15.05    1.90
  -1   6  -9   47.63    4.47
   1  -6   9   42.63    2.72
   1  -6   9   40.38    2.80
   1  -6   9   48.31    3.03
   1  -6   9   42.03    3.07
   1  -6  10   74.06    3.72
   1  -6  10   68.02    3.93
   1  -6  10   67.10    3.56
   1  -6  10   73.63    3.55
   1  -6  11    2.86    1.00
   1  -6  11    2.92    1.03
   1  -6  11    3.93    1.09
  -1   6 -11    3.32    0.98
   1  -6  11    1.92    0.95
   1  -6  12   29.79    2.26
   1  -6  12   24.32    2.48
   1  -6  12   27.97    2.30
   1  -6  12   26.98    2.30
  -1   6 -12   29.45    2.18
   1  -6  13   15.97    1.75
   1  -6  13   13.74    1.86
  -1   6 -13   17.12    1.67
   1  -6  13   17.38    1.80
   1  -6  14    1.08    0.69
  -1   6 -14    1.22    0.63
   1  -6  14    0.82    0.77
   1  -6  14    0.73    0.70
   1  -6  15    6.46    0.99
  -1   6 -15    8.72    1.08
   1  -6  15    7.03    1.07
   1  -6  15    6.31    1.24
   1  -6  16    0.74    0.50
   1  -6  16    0.90    0.64
   1  -6  16    1.83    0.63
  -1   6 -16    1.88    0.62
   1  -6  17    4.40    0.69
   1  -6  17    5.11    0.68
   1  -6  17    4.42    0.85
  -1   6 -17    4.92    0.72
   1  -6  18    0.13    0.40
  -1   6 -18    0.53    0.39
   1  -5 -20    6.58    0.63
   1  -5 -20    7.24    0.72
   1  -5 -20    5.14    0.84
   1  -5 -19    3.13    0.63
   1  -5 -19    3.09    0.84
   1  -5 -19    2.91    0.59
   1  -5 -18   20.99    1.42
   1  -5 -18   19.19    1.91
   1  -5 -18   21.52    1.62
   1  -5 -17    6.52    1.07
   1  -5 -17    6.24    1.33
   1  -5 -17    6.76    0.98
   1  -5 -16    0.46    0.66
   1  -5 -16    0.36    0.59
   1  -5 -16    0.26    0.77
   1  -5 -15   45.56    3.18
   1  -5 -15   50.51    2.95
   1  -5 -15   41.98    2.42
   1  -5 -14   39.83    2.54
   1  -5 -14   36.53    2.54
   1  -5 -13   14.99    2.02
   1  -5 -13   17.49    1.79
   1  -5 -13   17.86    1.89
   1  -5 -12    2.61    0.93
   1  -5 -12    1.88    1.01
   1  -5 -12    2.57    0.98
   1  -5 -12    2.96    1.61
  -1   5  12    2.01    1.52
  -1   5  11    3.95    1.84
   1  -5 -11    4.68    1.30
   1  -5 -11    7.16    1.29
   1  -5 -11    7.43    1.30
   1  -5 -11    6.86    2.22
   1  -5 -10    9.45    2.43
  -1   5  10    7.90    2.39
   1  -5 -10   15.12    1.72
   1  -5 -10   10.54    1.70
   1  -5  -9    3.97    1.27
   1  -5  -9    2.50    1.38
   1  -5  -9    4.64    1.11
  -1   5   9    2.93    1.56
   1  -5  -9    2.40    1.01
   1  -5  -8    6.41    1.27
   1  -5  -8    7.14    1.28
   1  -5  -8    4.85    1.61
  -1   5   8    4.99    1.66
   1  -5  -7    1.20    1.15
  -1   5   7    0.36    1.06
  -1   5   6    3.32    1.49
   1  -5  -6    3.13    1.43
   1  -5  -5    4.54    1.50
  -1   5   5    2.44    1.34
  -1   5   4   64.23    4.47
   1  -5  -4   61.88    4.37
   1  -5  -3   25.80    2.95
  -1   5   3   20.41    2.66
   1  -5  -2   38.18    3.38
  -1   5   2   37.22    3.14
  -1   5   1   84.46    4.63
   1  -5  -1   86.77    3.90
   1  -5  -1   86.12    5.12
   1  -5   0    4.10    1.47
   1  -5   0    3.51    1.02
  -1   5   0    3.40    1.26
  -1   5  -1   39.71    3.09
   1  -5   1   37.23    3.40
   1  -5   1   38.91    2.65
   1  -5   2   34.61    3.59
  -1   5  -2   35.55    3.05
   1  -5   2   34.41    2.60
   1  -5   3    4.46    1.12
   1  -5   3    4.53    1.47
  -1   5  -3    5.68    1.26
   1  -5   4    7.02    2.14
   1  -5   4    6.59    1.55
  -1   5  -4    6.45    1.81
   1  -5   5    3.63    1.61
  -1   5  -5    3.78    1.41
   1  -5   5    2.98    1.20
   1  -5   6    8.54    1.68
  -1   5  -6    9.58    2.00
   1  -5   7   20.59    2.01
   1  -5   7   17.20    1.69
   1  -5   7   24.87    1.96
  -1   5  -7   18.05    2.57
   1  -5   7   15.02    2.10
   1  -5   7   23.31    2.06
   1  -5   8   11.22    1.42
   1  -5   8   11.91    1.58
   1  -5   8   15.45    1.60
  -1   5  -8   11.37    2.09
   1  -5   8   11.42    1.99
   1  -5   8   13.68    1.65
   1  -5   9   28.07    2.19
   1  -5   9   39.03    2.47
   1  -5   9   29.07    2.51
   1  -5   9   28.59    3.09
   1  -5   9   32.55    2.48
  -1   5  -9   27.73    3.24
  -1   5 -10    9.78    2.02
   1  -5  10   14.27    1.59
   1  -5  10   10.21    1.54
   1  -5  10    8.76    1.32
   1  -5  10   10.32    1.64
   1  -5  10    9.60    1.88
  -1   5 -11    1.21    1.15
   1  -5  11    3.77    1.05
   1  -5  11    1.09    0.78
   1  -5  11    1.88    0.91
   1  -5  11    1.69    0.89
   1  -5  11    2.72    1.15
   1  -5  12   31.04    2.49
   1  -5  12   31.43    2.56
   1  -5  12   27.03    2.54
   1  -5  12   28.15    2.29
   1  -5  13   36.87    2.75
   1  -5  13   36.40    2.72
   1  -5  13   41.64    2.72
   1  -5  13   39.86    3.08
   1  -5  14   17.70    1.85
  -1   5 -14   19.81    1.86
   1  -5  14   18.08    1.99
   1  -5  14   21.75    1.91
   1  -5  14   17.18    2.03
   1  -5  14   19.13    1.82
   1  -5  15    5.32    1.30
   1  -5  15    5.41    1.13
  -1   5 -15    7.48    1.22
   1  -5  15    6.58    1.12
   1  -5  16    9.57    1.48
   1  -5  16    9.78    1.24
   1  -5  16    8.11    1.26
  -1   5 -16    9.27    1.26
   1  -5  17    1.73    0.60
   1  -5  17    0.75    0.59
   1  -5  17    0.78    0.64
  -1   5 -17    1.35    0.63
   1  -5  18    0.25    0.44
   1  -5  18   -0.24    0.51
  -1   5 -18    0.23    0.46
   1  -5  19    1.58    0.56
  -1   5 -19    2.61    0.57
   1  -4 -21    6.03    0.65
   1  -4 -21    4.42    0.77
   1  -4 -21    5.42    0.67
   1  -4 -20   -0.01    0.53
   1  -4 -20   -0.27    0.43
   1  -4 -20    0.38    0.39
   1  -4 -19    1.94    0.59
   1  -4 -19    1.68    0.62
   1  -4 -19    1.43    0.79
   1  -4 -18    4.81    0.97
   1  -4 -18    5.22    1.19
   1  -4 -18    4.81    0.84
   1  -4 -17    4.81    0.96
   1  -4 -17    5.78    1.13
   1  -4 -17    5.42    1.27
  -1   4  17    5.51    1.06
  -1   4  16   45.84    2.59
   1  -4 -16   49.17    2.57
   1  -4 -16   39.66    2.35
   1  -4 -16   46.71    2.89
   1  -4 -16   42.50    3.18
   1  -4 -15    3.73    1.01
   1  -4 -15    2.73    0.97
   1  -4 -15    3.21    1.18
   1  -4 -15    3.44    0.96
  -1   4  15    2.81    0.97
   1  -4 -14   67.49    3.58
   1  -4 -14   64.55    3.83
   1  -4 -14   73.60    3.34
   1  -4 -13   17.55    2.09
   1  -4 -13   21.42    2.03
   1  -4 -13   25.91    3.41
   1  -4 -13   24.12    1.95
  -1   4  13   22.21    2.98
   1  -4 -12   66.47    3.78
   1  -4 -12   68.38    5.19
   1  -4 -12   82.94    3.65
  -1   4  12   71.00    4.84
   1  -4 -12   85.12    3.88
   1  -4 -11   35.35    2.37
   1  -4 -11   37.68    2.62
   1  -4 -11   24.01    2.32
  -1   4  11   19.63    2.62
   1  -4 -11   22.08    3.09
   1  -4 -10   12.65    1.66
   1  -4 -10   11.26    2.11
  -1   4  10   10.79    1.84
  -1   4   9    1.80    1.05
   1  -4  -9    1.68    1.11
   1  -4  -8    2.20    0.97
  -1   4   8    2.44    1.00
   1  -4  -8    1.89    1.09
   1  -4  -7   12.52    2.05
   1  -4  -7   14.18    1.86
  -1   4   7   11.99    1.64
   1  -4  -6   84.37    4.77
   1  -4  -6   89.19    4.01
  -1   4   6   82.26    3.60
  -1   4   5   64.86    2.95
   1  -4  -5   65.06    3.29
  -1   4   5   56.13    4.05
   1  -4  -5   59.00    3.91
  -1   4   4   72.95    3.09
   1  -4  -4   82.63    4.66
  -1   4   4   67.72    4.34
   1  -4  -4   79.66    3.76
  -1   4   3   57.68    3.96
   1  -4  -3   70.57    4.13
   1  -4  -3   64.67    3.30
  -1   4   2   31.24    2.93
   1  -4  -2   40.86    3.16
   1  -4  -2   36.35    2.59
   1  -4  -2   31.59    2.39
   1  -4  -1   26.30    2.18
  -1   4   1   25.47    2.60
   1  -4   0   13.16    1.56
  -1   4   0   12.47    1.76
   1  -4   0   16.76    2.14
   1  -4   1   19.30    2.21
   1  -4   1   19.21    1.82
  -1   4  -1   21.68    2.08
  -1   4  -2  140.99    5.17
   1  -4   2  127.79    4.79
   1  -4   2  137.62    5.98
   1  -4   3    6.39    1.20
   1  -4   3    7.38    1.61
  -1   4  -3    6.84    1.29
   1  -4   4  134.76    5.22
   1  -4   4  140.90    6.24
  -1   4  -5  293.27    8.89
   1  -4   5  292.85    8.32
   1  -4   5  289.48    9.53
  -1   4  -6    0.60    0.86
   1  -4   6    0.96    0.93
   1  -4   7    7.68    1.74
  -1   4  -7   10.92    2.01
  -1   4  -8    9.85    1.91
   1  -4   8    9.68    1.74
   1  -4   9   18.72    2.49
  -1   4  -9   19.42    2.48
   1  -4   9   23.85    2.15
   1  -4  10  170.98    5.33
   1  -4  10  162.91    5.95
   1  -4  10  143.50    6.96
   1  -4  10  184.75    6.03
  -1   4 -10  146.73    7.07
   1  -4  11   87.69    3.79
  -1   4 -11   80.17    5.29
   1  -4  11   93.55    4.32
   1  -4  11   82.75    5.34
   1  -4  11   98.62    4.22
   1  -4  11   82.01    4.26
   1  -4  12  101.37    4.67
   1  -4  12   99.34    4.13
   1  -4  12   95.75    5.99
   1  -4  12  101.28    4.46
  -1   4 -12  107.48    6.23
   1  -4  12   96.95    4.69
   1  -4  13   96.77    4.54
   1  -4  13   91.34    4.51
   1  -4  13   94.22    4.78
   1  -4  13  103.63    4.25
   1  -4  14   40.12    2.91
   1  -4  14   38.98    2.85
   1  -4  14   38.15    3.02
   1  -4  14   43.93    2.74
   1  -4  15    5.32    1.35
   1  -4  15    8.33    1.53
   1  -4  15    6.15    1.41
   1  -4  15    3.71    1.37
   1  -4  15    8.53    1.35
   1  -4  16   10.13    1.62
   1  -4  16   10.63    1.48
   1  -4  16   13.28    1.42
   1  -4  16   12.79    1.53
   1  -4  16   10.11    1.61
   1  -4  17    5.93    1.06
   1  -4  17    4.52    1.05
   1  -4  17    5.38    1.18
   1  -4  17    3.39    1.20
  -1   4 -18    1.98    0.73
   1  -4  18    0.96    0.63
   1  -4  18    1.06    0.71
   1  -4  18    1.45    0.69
   1  -4  19    1.67    0.61
  -1   4 -19    1.86    0.66
   1  -4  19    1.77    0.70
  -1   4 -20    1.09    0.49
   1  -4  20    0.76    0.42
   1  -4  20    1.23    0.56
   1  -3 -22   18.34    0.95
   1  -3 -21    0.07    0.46
   1  -3 -21    0.48    0.41
   1  -3 -21    0.29    0.47
   1  -3 -20    0.10    0.48
   1  -3 -20   -0.06    0.58
   1  -3 -20    0.15    0.50
  -1   3  20    0.24    0.46
   1  -3 -19    0.95    0.76
   1  -3 -19    0.45    0.57
   1  -3 -19    0.39    0.46
   1  -3 -19    0.96    0.57
  -1   3  19    0.17    0.60
   1  -3 -19    0.47    0.53
   1  -3 -18    0.85    0.67
   1  -3 -18    0.15    0.48
  -1   3  18    0.26    0.60
   1  -3 -18   -0.01    0.54
   1  -3 -18    0.85    0.72
   1  -3 -18   -0.12    0.81
   1  -3 -17   56.78    3.15
   1  -3 -17   52.42    2.57
   1  -3 -17   56.55    2.60
   1  -3 -17   59.05    2.96
   1  -3 -17   51.50    3.47
  -1   3  17   52.49    2.91
   1  -3 -16   32.75    2.16
   1  -3 -16   34.25    2.42
   1  -3 -16   34.02    2.88
   1  -3 -16   34.12    2.12
  -1   3  16   33.50    2.37
   1  -3 -16   34.63    2.59
   1  -3 -15   46.57    3.39
   1  -3 -15   46.49    2.80
  -1   3  15   46.57    2.83
   1  -3 -15   43.03    2.51
   1  -3 -15   44.94    3.00
   1  -3 -14  159.27    5.61
   1  -3 -14  152.60    5.29
   1  -3 -14  147.18    5.95
  -1   3  14  177.64    5.53
  -1   3  14  181.27    8.12
   1  -3 -13  138.32    5.15
   1  -3 -13  141.19    4.89
   1  -3 -13  131.70    5.42
   1  -3 -13  137.14    6.98
  -1   3  13  127.06    6.62
   1  -3 -12   16.65    1.93
   1  -3 -12   21.80    1.93
   1  -3 -12   14.95    2.33
   1  -3 -12   19.22    1.94
  -1   3  12   14.85    2.22
   1  -3 -11    9.33    1.52
   1  -3 -11    9.23    1.75
  -1   3  11   10.74    1.82
   1  -3 -11    8.60    1.74
   1  -3 -10   47.79    3.40
   1  -3 -10   37.54    3.26
  -1   3  10   40.11    3.10
   1  -3  -9    4.04    1.23
   1  -3  -9    5.48    1.37
  -1   3   9    4.49    1.21
  -1   3   8    1.83    0.98
   1  -3  -8    1.33    0.97
   1  -3  -8    1.81    1.02
  -1   3   7   64.40    3.23
   1  -3  -7   67.21    3.63
   1  -3  -7   60.28    3.71
  -1   3   6    1.84    0.83
   1  -3  -6    2.16    1.02
   1  -3  -6    1.88    0.89
  -1   3   5    2.84    0.86
   1  -3  -5    1.92    0.97
   1  -3  -5    2.99    1.04
   1  -3  -4  207.91    6.56
  -1   3   4  214.64    5.10
   1  -3  -4  222.62    6.15
   1  -3  -3  767.24   13.11
  -1   3   3  770.04   11.45
   1  -3  -3  777.78   14.20
   1  -3  -2   99.00    3.87
   1  -3  -2   89.77    3.62
   1  -3  -2   97.10    4.22
   1  -3  -1  140.07    4.52
   1  -3  -1  129.04    4.83
  -1   3   1  133.02    4.99
  -1   3   0   10.22    0.68
   1  -3   0    8.06    1.48
   1  -3   0    9.37    1.52
   1  -3   0    7.05    1.19
  -1   3   0    7.45    1.40
   1  -3   1   21.02    2.08
  -1   3  -1   21.80    1.85
   1  -3   1   16.93    1.60
   1  -3   2 1258.59   19.73
   1  -3   2 1341.90   21.50
   1  -3   3  154.69    5.78
   1  -3   3  150.24    4.97
  -1   3  -4   99.35    4.30
   1  -3   4   93.13    4.05
   1  -3   4   96.84    4.62
  -1   3  -5    6.18    1.29
   1  -3   5    5.31    1.20
  -1   3  -5    5.97    1.04
  -1   3  -6   75.57    4.06
   1  -3   6   73.60    3.89
   1  -3   7   77.39    4.11
  -1   3  -7   76.35    4.20
  -1   3  -8   47.14    3.46
   1  -3   8   48.07    3.42
  -1   3  -9    1.88    1.07
   1  -3   9    2.00    1.10
  -1   3 -10    5.79    1.48
   1  -3  10    4.09    1.43
   1  -3  11    3.01    1.09
   1  -3  11    1.72    1.19
  -1   3 -11    2.00    1.11
   1  -3  12   12.95    1.51
   1  -3  12   13.11    1.59
   1  -3  12    9.82    1.58
   1  -3  12    8.97    2.02
  -1   3 -12    9.52    2.04
  -1   3 -13  750.82   18.42
   1  -3  13  751.48   14.56
   1  -3  13  890.50   14.21
   1  -3  13  643.81   17.54
   1  -3  13  874.02   14.53
   1  -3  14  218.78    6.47
  -1   3 -14  233.96    9.62
   1  -3  15    5.16    1.18
   1  -3  15    4.82    1.40
   1  -3  16   13.66    1.88
   1  -3  16   13.80    1.89
   1  -3  16   15.13    1.67
   1  -3  17   14.62    1.89
   1  -3  17   14.78    1.86
   1  -3  17   17.15    1.73
   1  -3  18    1.11    0.78
   1  -3  18    2.04    0.90
   1  -3  18    2.09    0.84
   1  -3  18    2.20    0.98
   1  -3  19    6.82    1.19
   1  -3  19    7.14    1.27
   1  -3  19    5.87    1.02
   1  -3  19    7.86    1.14
  -1   3 -20   15.34    1.35
   1  -3  20   13.78    1.38
   1  -3  20   12.55    1.25
   1  -3  20   16.73    1.32
   1  -3  21   17.22    1.26
   1  -3  21   16.66    1.14
  -1   3 -21   17.59    1.22
   1  -2 -22   10.35    0.77
   1  -2 -22    7.45    0.75
   1  -2 -21    0.54    0.53
   1  -2 -21    0.30    0.46
   1  -2 -21   -0.03    0.47
   1  -2 -21    0.34    0.56
   1  -2 -21    0.01    0.34
  -1   2  21    0.31    0.46
   1  -2 -20    0.46    0.60
   1  -2 -20    0.50    0.65
   1  -2 -20    0.70    0.49
  -1   2  20    0.26    0.53
   1  -2 -20    0.72    0.61
   1  -2 -19    1.63    0.64
   1  -2 -19    1.51    0.75
  -1   2  19    1.32    0.67
   1  -2 -19    1.74    0.91
   1  -2 -19    1.67    0.74
   1  -2 -18    0.88    0.72
   1  -2 -18    0.69    0.96
  -1   2  18    0.91    0.70
   1  -2 -18    0.20    0.70
   1  -2 -18    1.04    0.59
   1  -2 -17    0.59    0.83
   1  -2 -17    0.27    0.72
   1  -2 -17    0.82    0.64
   1  -2 -17    0.54    0.66
   1  -2 -17    0.10    0.83
  -1   2  17    0.88    0.81
   1  -2 -16    1.67    1.07
   1  -2 -16    1.33    0.94
   1  -2 -16    2.85    0.92
  -1   2  16    1.53    0.89
   1  -2 -16    2.30    0.89
   1  -2 -16    1.89    0.98
   1  -2 -15    1.36    0.77
   1  -2 -15    1.69    1.06
   1  -2 -15    1.31    0.71
  -1   2  15    2.00    0.96
   1  -2 -15    1.24    0.87
   1  -2 -15    2.33    1.07
   1  -2 -14  507.45    9.73
   1  -2 -14  480.40   10.46
   1  -2 -14  465.59   11.41
  -1   2  14  482.30   13.74
   1  -2 -14  475.99   10.72
   1  -2 -13  109.24    5.86
   1  -2 -13  113.35    4.57
   1  -2 -13  105.65    4.82
   1  -2 -13  110.34    4.40
   1  -2 -13  127.74    4.18
  -1   2  13  135.93    4.76
   1  -2 -13  104.32    5.94
  -1   2  13   91.53    5.42
   1  -2 -12   87.89    4.20
   1  -2 -12  100.14    4.09
   1  -2 -12  104.98    4.22
   1  -2 -12   82.10    4.93
   1  -2 -12   76.13    4.89
  -1   2  12   70.53    4.48
   1  -2 -11   77.74    4.49
   1  -2 -11   70.74    4.49
  -1   2  11   63.76    4.00
   1  -2 -10   34.85    3.00
  -1   2  10   34.71    2.81
   1  -2 -10   38.71    3.11
   1  -2  -9   10.29    1.85
  -1   2   9    7.89    1.51
   1  -2  -9    9.43    1.67
   1  -2  -8  142.16    5.51
   1  -2  -8  142.77    5.52
  -1   2   8  138.23    4.94
   1  -2  -7   65.86    3.54
  -1   2   7   62.82    3.12
   1  -2  -7   62.27    3.63
   1  -2  -6  514.04   10.57
  -1   2   6  485.31    9.63
   1  -2  -6  481.34   10.62
  -1   2   5   65.72    1.90
   1  -2  -5   62.38    3.15
  -1   2   4   84.07    2.99
   1  -2  -4   87.04    3.56
   1  -2  -4   87.88    3.53
  -1   2   3  300.67    6.00
   1  -2  -3  298.03    6.99
   1  -2  -3  310.27    7.04
   1  -2  -2   78.23    3.22
   1  -2  -2   85.76    3.33
   1  -2  -2   77.69    3.10
  -1   2   2   81.58    2.61
   1  -2  -1   13.26    1.33
   1  -2  -1   12.94    1.28
  -1   2   1   13.71    0.87
  -1   2   1   10.94    0.82
   1  -2  -1   12.84    1.40
   1  -2   0   97.04    3.83
   1  -2   0   90.56    3.51
   1  -2   1   13.15    1.39
   1  -2   1   11.47    1.21
  -1   2  -1   13.26    1.25
   1  -2   1   12.80    1.34
   1  -2   2  195.64    5.67
   1  -2   2  184.34    5.12
  -1   2  -3    8.92    1.18
  -1   2  -3    9.84    0.97
   1  -2   3    9.15    1.23
   1  -2   3    7.85    1.28
  -1   2  -4    2.88    0.98
  -1   2  -4    2.87    0.67
   1  -2   4    3.63    1.17
   1  -2   4    2.96    0.95
  -1   2  -5  334.98    8.25
   1  -2   5  332.93    8.19
  -1   2  -6   66.29    3.45
   1  -2   6   71.68    3.56
  -1   2  -7    4.45    1.11
   1  -2   7    4.70    1.20
   1  -2   8   27.60    2.46
  -1   2  -8   20.95    2.33
   1  -2   9    4.24    1.21
  -1   2  -9    3.44    1.11
   1  -2  10    6.18    1.38
  -1   2 -10    6.82    1.42
   1  -2  11   93.56    5.21
  -1   2 -11  107.68    5.48
   1  -2  12    3.41    1.06
   1  -2  12    4.19    1.41
  -1   2 -12    3.25    1.24
  -1   2 -13   22.53    2.86
   1  -2  13   25.16    2.19
   1  -2  13   21.27    2.75
   1  -2  14    9.39    1.45
  -1   2 -14   13.14    1.52
   1  -2  14    9.71    1.61
   1  -2  14    9.14    2.05
  -1   2 -14   10.26    2.22
   1  -2  15   66.37    3.52
   1  -2  15   64.71    3.75
  -1   2 -16   48.54    2.63
   1  -2  16   42.37    2.81
   1  -2  16   38.59    2.96
  -1   2 -17   14.40    1.41
   1  -2  17   10.57    1.70
   1  -2  17   13.04    1.62
  -1   2 -18    6.24    0.97
   1  -2  18    5.22    1.09
   1  -2  18    4.25    1.18
   1  -2  19    3.42    0.87
   1  -2  19    2.69    0.98
  -1   2 -19    3.35    0.72
   1  -2  19    3.72    1.07
   1  -2  20    6.34    1.16
  -1   2 -20    9.09    0.94
   1  -2  20    6.82    1.14
   1  -2  20    8.39    1.10
   1  -2  21    0.28    0.47
  -1   2 -21    0.45    0.42
  -1   2 -21    0.81    0.53
   1  -2  21    0.84    0.57
   1  -2  21    0.20    0.47
   1  -2  22   10.36    0.88
  -1   2 -22   12.87    0.98
   1  -1 -22    4.29    0.61
   1  -1 -22    3.77    0.50
   1  -1 -22    3.17    0.60
   1  -1 -21    1.62    0.55
   1  -1 -21    0.77    0.51
   1  -1 -21    1.70    0.61
   1  -1 -21    1.02    0.46
  -1   1  21    0.83    0.55
   1  -1 -21    0.89    0.61
   1  -1 -20   -0.28    0.72
   1  -1 -20    0.53    0.48
  -1   1  20    0.31    0.53
   1  -1 -20    0.56    0.56
   1  -1 -20    0.48    0.68
   1  -1 -20    0.30    0.60
   1  -1 -19    2.73    0.87
   1  -1 -19    4.02    1.02
   1  -1 -19    2.94    1.09
   1  -1 -19    3.61    0.82
  -1   1  19    3.18    0.87
   1  -1 -18    1.79    0.82
   1  -1 -18    0.94    0.84
   1  -1 -18    1.68    1.02
   1  -1 -18    1.76    0.73
  -1   1  18    1.68    0.82
   1  -1 -17    1.42    1.07
   1  -1 -17    1.38    0.85
   1  -1 -17    1.75    0.76
   1  -1 -17    1.45    0.94
  -1   1  17    2.29    1.18
  -1   1  16    4.13    1.15
   1  -1 -16    3.96    1.20
   1  -1 -16    3.97    1.26
   1  -1 -16    4.00    1.00
   1  -1 -16    3.44    1.06
   1  -1 -15    9.64    1.53
   1  -1 -15   12.25    2.26
   1  -1 -15    8.86    1.61
   1  -1 -15    8.50    1.28
   1  -1 -15    9.43    1.53
  -1   1  15    8.62    1.44
  -1   1  15   10.43    2.14
   1  -1 -14   93.08    4.66
   1  -1 -14  105.63    6.05
   1  -1 -14   95.44    4.24
   1  -1 -14   82.57    3.61
  -1   1  14   87.76    5.39
  -1   1  14   96.27    4.17
   1  -1 -14   91.53    4.22
   1  -1 -13   17.58    1.62
   1  -1 -13   18.92    2.11
   1  -1 -13   17.97    1.86
   1  -1 -13   17.46    1.89
  -1   1  13   12.47    2.07
  -1   1  13   21.58    2.01
   1  -1 -13   17.32    2.46
   1  -1 -13   17.90    2.51
   1  -1 -12    8.85    1.69
   1  -1 -12    9.19    1.83
  -1   1  12    9.21    1.73
   1  -1 -12   10.85    1.61
  -1   1  11   77.29    4.31
   1  -1 -11   91.73    4.92
  -1   1  10   91.52    4.42
  -1   1  10   99.62    3.82
   1  -1 -10  106.05    5.02
  -1   1   9    2.81    1.07
  -1   1   9    2.68    0.79
   1  -1  -9    3.33    1.12
  -1   1   8   38.74    2.08
  -1   1   8   35.50    2.50
   1  -1  -8   39.16    2.87
  -1   1   7   35.95    2.41
   1  -1  -7   38.98    2.53
   1  -1  -7   33.56    2.59
  -1   1   7   41.17    2.08
   1  -1  -6   27.74    2.52
  -1   1   6   25.61    2.18
  -1   1   6   30.75    1.78
  -1   1   5   25.70    1.42
  -1   1   5   24.74    1.84
   1  -1  -5   23.23    2.03
   1  -1  -4  259.83    6.38
  -1   1   4  275.23    4.87
  -1   1   4  264.65    5.79
   1  -1  -3  449.32    8.77
   1  -1  -3  480.17    8.00
  -1   1   3  458.00    8.00
  -1   1   3  462.81    7.06
  -1   1   2  196.17    4.49
   1  -1  -2  213.31    4.58
  -1   1   2  210.79    4.06
   1  -1  -2  196.99    5.11
  -1   1   1  148.03    3.44
   1  -1  -1  156.70    4.47
   1  -1  -1  162.42    3.89
   1  -1  -1  150.36    4.24
   1  -1   0 1662.85   22.71
   1  -1   0 1763.55   21.85
   1  -1   1  192.64    4.70
   1  -1   1  193.44    5.03
  -1   1  -2   57.96    2.37
  -1   1  -2   60.66    2.01
   1  -1   3  170.53    4.62
  -1   1  -3  161.65    4.44
  -1   1  -4    5.59    0.43
  -1   1  -4    6.84    1.16
  -1   1  -5   48.03    2.51
   1  -1   5   47.13    2.64
  -1   1  -6   12.19    1.46
   1  -1   6   14.27    1.58
   1  -1   7   25.94    2.07
  -1   1  -7   23.18    2.03
   1  -1   8  124.77    4.85
  -1   1  -8  120.60    4.75
  -1   1  -9    0.59    0.78
   1  -1   9    0.60    0.81
   1  -1  10    1.14    0.97
  -1   1 -10    0.54    0.68
  -1   1 -11   26.10    2.78
   1  -1  11   26.57    2.74
   1  -1  12   12.06    1.93
  -1   1 -12   14.93    2.24
  -1   1 -13   17.44    2.51
  -1   1 -13   29.82    2.07
   1  -1  13   25.63    2.10
   1  -1  13   15.26    2.29
   1  -1  13   20.45    1.95
  -1   1 -14  139.59    7.25
  -1   1 -14  174.61    5.18
   1  -1  14  137.84    5.16
   1  -1  14  133.64    6.77
   1  -1  14  164.80    5.47
  -1   1 -15    6.73    1.17
   1  -1  15    6.37    1.31
   1  -1  15    5.08    1.22
   1  -1  15    6.45    1.80
  -1   1 -15    4.77    1.58
  -1   1 -16   53.29    3.05
  -1   1 -16   43.85    2.70
   1  -1  16   46.13    3.02
   1  -1  16   45.59    3.15
  -1   1 -17   30.35    2.25
  -1   1 -17   25.45    2.05
   1  -1  17   23.79    2.17
   1  -1  17   23.83    2.30
  -1   1 -18    0.33    0.62
  -1   1 -18    0.54    0.61
   1  -1  18   -0.12    0.66
   1  -1  18    1.02    0.99
  -1   1 -19    2.08    0.75
  -1   1 -19    2.53    0.82
   1  -1  19    1.97    0.91
   1  -1  19    2.14    1.07
   1  -1  20    1.86    0.75
  -1   1 -20    2.56    0.69
   1  -1  20    1.34    0.79
  -1   1 -21    1.32    0.52
   1  -1  21    0.92    0.57
   1  -1  21    0.80    0.59
   1  -1  21    1.55    0.78
   1  -1  22    0.57    0.46
   1  -1  22    0.73    0.47
  -1   1 -22    0.85    0.39
  -1   1 -22    0.87    0.48
   1  -1  22    0.47    0.45
   1   0 -22    1.47    0.51
   1   0 -22    1.32    0.50
   1   0 -22    1.24    0.40
   1   0 -21    1.07    0.48
   1   0 -21    1.35    0.61
   1   0 -21    0.71    0.58
   1   0 -21    0.72    0.43
  -1   0  21    1.39    0.56
   1   0 -20    4.57    0.84
   1   0 -20    2.41    0.89
   1   0 -20    4.18    0.89
   1   0 -20    4.86    0.99
  -1   0  20    4.20    0.89
   1   0 -20    3.75    0.75
   1   0 -19    1.73    0.78
   1   0 -19    2.00    0.74
   1   0 -19    1.06    0.83
   1   0 -19    1.29    0.82
   1   0 -19    1.18    0.59
  -1   0  19    0.90    0.67
  -1   0  18    5.31    1.17
   1   0 -18    4.80    1.12
   1   0 -18    5.91    1.26
   1   0 -18    4.70    1.22
   1   0 -18    5.59    1.02
   1   0 -17    0.72    0.76
   1   0 -17    0.23    0.81
   1   0 -17    0.88    0.94
   1   0 -17    0.11    0.62
  -1   0  17    0.66    0.76
   1   0 -16   13.26    1.81
   1   0 -16   15.78    2.10
   1   0 -16   17.10    1.95
   1   0 -16   14.90    1.64
  -1   0  16   15.15    1.81
  -1   0  15    3.03    1.07
   1   0 -15    3.04    1.63
   1   0 -15    3.32    1.10
   1   0 -15    3.95    1.27
   1   0 -15    2.97    1.09
   1   0 -15    2.77    0.90
  -1   0  15    2.97    1.53
  -1   0  14   12.95    1.60
   1   0 -14   11.16    1.74
   1   0 -14   15.41    1.87
   1   0 -14   11.44    1.49
   1   0 -14   12.95    1.73
  -1   0  14   12.26    2.12
   1   0 -14   15.25    2.54
   1   0 -13    9.86    1.62
   1   0 -13    8.11    1.27
   1   0 -13    9.46    1.50
  -1   0  13   11.50    1.49
   1   0 -13   10.39    2.07
  -1   0  13    8.89    1.82
   1   0 -12    5.27    1.64
  -1   0  12    4.99    1.40
  -1   0  11   59.67    3.70
  -1   0  11   55.75    3.20
   1   0 -11   64.98    4.21
   1   0 -10   42.32    3.23
  -1   0  10   37.26    2.84
  -1   0  10   40.10    2.55
  -1   0   9  106.20    4.45
   1   0  -9  106.28    4.85
  -1   0   9  105.08    4.01
  -1   0   8   55.57    2.79
   1   0  -8   53.54    3.31
  -1   0   7   52.24    2.89
   1   0  -7   51.99    3.03
  -1   0   7   60.73    2.67
  -1   0   6   89.14    3.07
  -1   0   6   78.96    3.38
   1   0  -6   77.47    3.68
  -1   0   5   16.24    1.53
   1   0  -5   20.17    1.30
   1   0  -5   16.76    1.71
  -1   0   5   17.82    1.32
  -1   0   4   26.71    1.48
  -1   0   4   25.11    1.70
   1   0  -4   25.02    1.82
   1   0  -3  383.06    7.86
  -1   0   3  402.56    6.95
   1   0  -2  705.17   11.74
  -1   0   2  706.56   10.80
   1   0  -1  424.88    7.75
  -1   0   1  409.02    6.96
   1   0  -1  415.19    5.61
   1   0   0 3131.56   38.63
  -1   0   0 3157.59   36.32
  -1   0  -1  903.70   11.72
   1   0   1  952.54   13.31
   1   0   2  771.53   11.46
   1   0   2  770.26   11.19
   1   0   3  808.68   11.15
   1   0   3  766.86   11.42
  -1   0  -4   36.43    1.86
   1   0   4   51.69    2.31
   1   0   5   12.18    1.34
  -1   0  -5   10.41    1.15
  -1   0  -6    2.46    0.86
   1   0   6    6.05    1.11
  -1   0  -7    0.35    0.63
   1   0   7    0.76    0.75
  -1   0  -8   13.62    1.77
   1   0   8   14.39    1.69
   1   0   9   67.52    3.73
  -1   0  -9   68.14    4.00
  -1   0 -10   17.46    2.14
   1   0  10   19.69    2.04
   1   0  10   18.96    2.01
  -1   0 -11   49.89    3.71
   1   0  11   48.76    3.35
   1   0  11   49.06    3.36
  -1   0 -12    2.88    1.15
   1   0  12    3.40    1.16
   1   0  12    3.19    1.11
  -1   0 -13    5.71    1.57
   1   0  13    5.49    1.49
   1   0  13    7.95    1.33
   1   0  13    4.70    1.46
  -1   0 -14    6.22    1.37
  -1   0 -14    3.56    1.45
   1   0  14    3.77    1.32
  -1   0 -14    3.98    0.98
   1   0  14    3.86    1.09
   1   0  14    3.14    1.31
   1   0  14    3.23    1.07
  -1   0 -15    3.88    1.25
  -1   0 -15    0.81    0.96
  -1   0 -15    2.12    0.93
   1   0  15    1.54    1.20
   1   0  15    2.39    1.00
   1   0  15    1.97    1.00
   1   0  16    3.28    1.13
  -1   0 -16    4.58    1.18
  -1   0 -16    4.20    1.08
   1   0  16    2.07    0.92
   1   0  17   15.91    1.95
   1   0  17   16.03    1.91
  -1   0 -17   15.89    1.68
  -1   0 -17   18.38    1.94
   1   0  18    2.81    0.98
  -1   0 -18    3.09    0.92
  -1   0 -18    2.54    0.87
   1   0  18    2.05    0.92
  -1   0 -19   16.61    1.63
  -1   0 -19   15.16    1.51
   1   0  19   15.50    1.80
   1   0  19   14.21    1.64
  -1   0 -20    3.53    0.84
  -1   0 -20    2.97    0.78
   1   0  20    2.87    0.90
   1   0  20    1.34    0.81
  -1   0 -21    0.40    0.46
   1   0  21    0.56    0.59
   1   0  21    0.52    0.68
  -1   0 -21    0.72    0.56
   1   0  22    5.84    0.83
  -1   0 -22    5.97    0.74
   1   0  22    5.72    0.86
   1   0  23    0.51    0.41
  -1   0 -23   -0.09    0.32
   1   1 -22   -0.10    0.42
   1   1 -22    0.30    0.32
   1   1 -22    0.09    0.38
   1   1 -21    2.85    0.70
   1   1 -21    2.90    0.76
   1   1 -21    2.76    0.61
  -1  -1  21    3.49    0.76
   1   1 -20    1.19    0.64
   1   1 -20    0.89    0.71
   1   1 -20    0.86    0.51
  -1  -1  20    0.86    0.63
   1   1 -20    2.30    0.65
   1   1 -19    3.22    0.82
   1   1 -19    3.25    0.90
  -1  -1  19    2.37    0.84
   1   1 -19    2.91    0.97
   1   1 -19    2.44    0.77
   1   1 -18    3.30    1.01
   1   1 -18    3.39    0.91
   1   1 -18    3.02    1.11
   1   1 -18    2.96    0.85
   1   1 -18    2.29    1.04
  -1  -1  18    2.61    0.93
   1   1 -17    8.26    1.41
   1   1 -17    9.01    1.64
   1   1 -17   10.42    1.58
   1   1 -17    9.20    1.32
  -1  -1  17    9.14    1.48
   1   1 -17   11.40    1.38
   1   1 -16   16.17    1.88
   1   1 -16   17.19    2.19
   1   1 -16   20.47    2.12
   1   1 -16   18.54    1.80
  -1  -1  16   17.80    1.99
  -1  -1  15    8.45    1.44
   1   1 -15   10.70    2.32
   1   1 -15    5.29    1.31
   1   1 -15    9.26    1.58
   1   1 -15    7.91    1.54
   1   1 -15    6.93    1.20
  -1  -1  15   10.92    2.18
   1   1 -14   11.28    1.68
   1   1 -14   13.71    1.91
   1   1 -14   11.77    1.47
   1   1 -14   15.43    2.57
  -1  -1  14   13.94    1.76
  -1  -1  14   15.87    2.38
   1   1 -13    2.99    1.43
  -1  -1  13    2.23    1.03
   1   1 -13    2.33    0.95
   1   1 -13    1.16    0.98
   1   1 -13    2.95    0.84
  -1  -1  13    2.18    1.19
   1   1 -12   46.36    3.87
  -1  -1  12   43.66    3.35
  -1  -1  12   40.92    3.08
  -1  -1  11    1.46    0.89
  -1  -1  11    1.25    0.95
   1   1 -11    1.64    1.14
  -1  -1  10   66.16    3.48
  -1  -1  10   67.16    3.76
   1   1 -10   71.09    4.29
   1   1  -9    4.25    0.88
  -1  -1   9    2.43    1.07
  -1  -1   9    3.13    1.03
   1   1  -9    2.71    1.19
  -1  -1   8  714.80   13.15
  -1  -1   8  725.44   12.85
   1   1  -8  684.11   13.92
  -1  -1   7  136.89    4.41
   1   1  -7  121.98    4.76
  -1  -1   7  130.13    4.60
   1   1  -6    3.64    0.63
   1   1  -6    3.06    1.01
  -1  -1   6    2.33    0.88
  -1  -1   6    2.97    0.86
  -1  -1   5   23.55    1.86
   1   1  -5   26.36    1.63
  -1  -1   5   23.50    1.64
   1   1  -5   22.47    1.91
   1   1  -5   24.65    1.24
   1   1  -4   31.25    1.12
   1   1  -4   28.59    1.71
   1   1  -4   27.00    1.92
  -1  -1   4   26.34    1.65
   1   1  -3  283.11    5.95
  -1  -1   3  273.97    5.67
   1   1  -3  272.97    6.14
  -1  -1   2 6014.97   69.44
   1   1  -2 5986.36   69.93
   1   1  -1   78.73    2.95
  -1  -1   1   80.24    2.93
   1   1   0  541.06    9.14
   1   1   0  527.75    8.64
  -1  -1   0  522.55    8.80
   1   1   0  548.60    8.56
  -1  -1  -1  723.15    9.04
   1   1   1  677.23    9.81
   1   1   1  748.57   10.38
   1   1   1  685.70   10.33
   1   1   2 1440.04   16.63
   1   1   2 1452.24   18.72
   1   1   2 1333.65   17.77
   1   1   2 1329.37   17.59
  -1  -1  -2 1308.62   16.96
   1   1   3 1105.94   12.30
   1   1   3 1025.41   14.68
   1   1   3  954.78   13.82
   1   1   3 1011.36   14.07
  -1  -1  -3  916.56   13.62
   1   1   4  179.95    4.71
   1   1   4  185.80    2.54
   1   1   4  188.42    4.36
  -1  -1  -5   14.35    1.34
   1   1   5   17.49    1.38
   1   1   5   16.77    1.36
  -1  -1  -6   12.52    1.41
   1   1   6   15.27    1.29
   1   1   6   15.23    0.54
   1   1   6   14.35    1.39
  -1  -1  -7  109.53    4.24
   1   1   7  110.87    4.41
   1   1   7  122.35    4.03
  -1  -1  -8   12.05    1.67
   1   1   8   11.89    1.67
   1   1   8   15.55    1.63
   1   1   9  394.37    8.64
  -1  -1  -9  395.63    9.59
   1   1   9  374.27    9.31
  -1  -1 -10   14.31    1.93
   1   1  10   12.60    1.72
   1   1  10   12.29    1.83
  -1  -1 -11   68.23    4.25
   1   1  11   64.15    3.63
   1   1  11   61.71    3.87
  -1  -1 -12   17.78    2.34
   1   1  12   18.56    2.09
   1   1  12   15.40    2.19
   1   1  13   35.71    2.99
   1   1  13   32.37    3.15
  -1  -1 -13   33.26    3.32
   1   1  14    2.80    1.42
  -1  -1 -14    7.24    1.65
  -1  -1 -14    6.27    1.96
  -1  -1 -14    3.89    1.15
   1   1  14    4.37    1.55
   1   1  14    3.22    1.37
   1   1  14    4.86    1.27
   1   1  15    3.33    1.11
   1   1  15    3.65    1.34
   1   1  15    2.80    1.04
  -1  -1 -15    4.10    1.24
  -1  -1 -15    3.12    1.00
  -1  -1 -15    3.93    1.53
   1   1  15    2.76    1.43
  -1  -1 -16   23.05    2.04
   1   1  16   19.91    1.98
  -1  -1 -16   24.79    3.37
  -1  -1 -16   23.98    2.29
   1   1  16   21.18    2.17
   1   1  17   45.06    3.12
  -1  -1 -17   51.42    2.96
   1   1  17   50.88    3.16
  -1  -1 -17   56.79    3.35
  -1  -1 -18    4.28    1.06
  -1  -1 -18    4.17    1.00
   1   1  18    3.77    1.07
   1   1  18    4.34    1.09
   1   1  19    5.04    1.17
  -1  -1 -19    4.64    1.01
  -1  -1 -19    5.43    1.02
   1   1  19    4.83    1.12
  -1  -1 -20    6.87    1.07
  -1  -1 -20    6.26    1.03
   1   1  20    6.19    1.18
   1   1  20    5.70    1.17
   1   1  21    1.12    0.60
  -1  -1 -21    1.32    0.62
  -1  -1 -21    1.32    0.63
   1   1  21    1.33    0.73
   1   1  21    1.13    0.68
  -1  -1 -22    2.16    0.56
  -1  -1 -22    2.32    0.61
  -1  -1 -22    1.74    0.52
   1   1  22    2.45    0.67
   1   1  22    1.29    0.63
  -1  -1 -23    0.33    0.33
   1   1  23    0.69    0.41
   1   2 -22    1.22    0.42
   1   2 -22    1.69    0.48
   1   2 -21    1.18    0.54
   1   2 -21    0.93    0.57
   1   2 -21    1.01    0.47
   1   2 -21    1.60    0.54
  -1  -2  21    1.17    0.48
  -1  -2  21    0.93    0.55
   1   2 -20    5.99    0.87
  -1  -2  20    6.43    1.04
   1   2 -20    7.29    1.10
   1   2 -20    5.89    0.98
  -1  -2  19    0.35    0.64
   1   2 -19    0.34    0.62
   1   2 -19    0.55    0.71
   1   2 -19    0.53    0.56
   1   2 -18   14.23    1.68
   1   2 -18   11.04    1.37
   1   2 -18   16.31    1.39
  -1  -2  18   12.27    1.58
   1   2 -18    9.98    1.43
   1   2 -18   15.32    1.42
   1   2 -17    0.07    0.70
   1   2 -17    0.28    0.68
   1   2 -17    0.95    0.99
   1   2 -17    0.27    0.61
   1   2 -17    0.52    0.60
  -1  -2  17    0.13    0.75
   1   2 -16   22.57    2.39
   1   2 -16   22.27    1.98
   1   2 -16   31.03    2.53
  -1  -2  16   23.70    2.23
   1   2 -16   30.10    2.13
   1   2 -16   29.77    2.08
   1   2 -16   21.25    2.18
   1   2 -15    8.23    1.48
   1   2 -15    9.10    1.64
   1   2 -15    7.78    1.28
  -1  -2  15    8.12    1.51
   1   2 -15   11.61    1.46
   1   2 -15   10.22    1.32
   1   2 -14    7.36    1.38
   1   2 -14   12.01    1.49
   1   2 -14    8.56    1.56
   1   2 -14    9.32    2.17
   1   2 -14    7.91    1.30
   1   2 -14   10.43    1.36
  -1  -2  14    9.04    1.54
  -1  -2  14   11.76    2.11
   1   2 -13   20.72    2.12
  -1  -2  13   22.66    2.65
  -1  -2  13   23.91    2.19
   1   2 -13   24.09    2.44
   1   2 -13   19.53    1.82
  -1  -2  13   25.66    2.77
   1   2 -13   21.07    2.91
   1   2 -13   31.25    2.22
   1   2 -12    6.15    1.27
   1   2 -12    7.36    1.46
   1   2 -12    6.55    1.14
   1   2 -12    7.35    1.79
  -1  -2  12    6.48    1.55
  -1  -2  12    7.56    1.39
  -1  -2  12    5.50    1.44
   1   2 -11   31.31    3.16
  -1  -2  11   26.45    2.54
  -1  -2  11   28.28    2.56
  -1  -2  10  157.17    5.79
   1   2 -10  156.44    6.53
  -1  -2  10  149.54    5.71
  -1  -2   9    0.98    0.76
  -1  -2   9    1.72    0.97
   1   2  -9    1.45    1.03
  -1  -2   8    1.37    0.92
  -1  -2   8    1.49    0.97
   1   2  -8    2.32    0.70
   1   2  -8    2.60    1.16
  -1  -2   7  114.74    4.41
   1   2  -7  150.86    4.03
   1   2  -7  113.02    4.66
  -1  -2   7  127.87    4.54
   1   2  -7  141.68    3.95
  -1  -2   6   33.73    2.26
   1   2  -6   41.99    2.21
   1   2  -6   33.55    2.42
  -1  -2   6   37.47    2.36
   1   2  -6   43.05    1.91
   1   2  -5    2.81    0.55
   1   2  -5    3.40    1.06
  -1  -2   5    2.75    0.93
  -1  -2   5    2.13    0.85
   1   2  -5    2.90    0.92
   1   2  -4   24.07    1.71
  -1  -2   4   18.77    1.57
   1   2  -4   21.70    1.79
   1   2  -4   23.99    1.14
   1   2  -3   92.98    3.32
  -1  -2   3   82.86    3.06
   1   2  -3   85.89    3.23
   1   2  -3   79.65    3.42
   1   2  -3   95.93    2.17
   1   2  -2  292.72    6.38
  -1  -2   2  275.68    6.02
   1   2  -2  261.70    6.40
   1   2  -2  307.53    4.48
   1   2  -2  294.88    6.12
   1   2  -1  563.56    9.63
   1   2  -1  551.95    8.83
  -1  -2   1  533.24    9.17
  -1  -2   1  551.13    7.24
   1   2   0 1364.70   19.03
  -1  -2   0 1445.94   17.29
   1   2   0 1471.13   18.71
  -1  -2   0 1374.53   19.36
   1   2   1 9776.79  114.54
   1   2   1 9945.87  112.75
   1   2   1 9999.00  113.46
   1   2   2  699.80    9.77
  -1  -2  -2  694.59   10.56
   1   2   2  729.32   11.62
  -1  -2  -2  713.43   10.16
   1   2   2  675.98    9.85
   1   2   2  703.92   10.36
   1   2   3  144.96    4.37
   1   2   3  150.86    3.40
   1   2   3  161.10    3.68
   1   2   3  150.63    3.44
  -1  -2  -3  151.45    4.05
  -1  -2  -4  167.68    4.71
   1   2   4  181.36    4.83
   1   2   4  200.77    4.08
   1   2   4  186.92    3.94
  -1  -2  -5   29.78    2.08
   1   2   5   32.67    2.08
   1   2   5   34.79    1.77
   1   2   5   37.94    1.62
   1   2   6   69.49    2.88
   1   2   6   65.94    2.48
   1   2   7  262.98    7.46
   1   2   7  338.92    6.94
   1   2   7  303.80    6.40
  -1  -2  -7  243.95    6.92
   1   2   7  356.69    6.01
  -1  -2  -8   79.64    3.89
   1   2   8  108.81    3.52
   1   2   8   95.89    3.47
   1   2   8   77.17    3.98
   1   2   8  117.21    3.25
  -1  -2  -9  107.81    4.82
   1   2   9  107.63    4.93
  -1  -2 -10   10.36    1.71
   1   2  10    9.86    1.66
   1   2  10   13.62    1.50
  -1  -2 -11    9.92    1.88
   1   2  11   11.86    1.59
   1   2  11    7.28    1.65
   1   2  12   92.39    4.26
   1   2  12   78.41    4.80
  -1  -2 -12   85.78    5.06
  -1  -2 -13    1.61    1.47
  -1  -2 -13    2.78    1.00
   1   2  13    0.84    1.00
   1   2  14    1.49    0.96
  -1  -2 -14    3.26    1.45
  -1  -2 -14    1.98    1.12
  -1  -2 -14    2.39    0.96
   1   2  14    2.62    1.40
   1   2  14    3.26    1.00
  -1  -2 -15   21.54    2.34
  -1  -2 -15   19.54    1.91
   1   2  15   23.08    2.07
  -1  -2 -15   16.35    2.74
   1   2  15   16.78    2.07
   1   2  15   17.22    2.74
   1   2  16    3.31    1.17
  -1  -2 -16    3.03    1.11
  -1  -2 -16    2.48    1.38
  -1  -2 -16    3.51    1.04
   1   2  16    3.45    1.08
  -1  -2 -17   24.75    2.36
  -1  -2 -17   21.62    2.04
   1   2  17   19.42    2.08
   1   2  17   21.00    2.04
   1   2  18    4.82    1.15
  -1  -2 -18    4.51    1.15
  -1  -2 -18    4.90    1.06
   1   2  18    4.51    1.09
  -1  -2 -19    0.25    0.65
   1   2  19    0.59    0.72
  -1  -2 -19    0.84    0.69
   1   2  19    0.14    0.81
   1   2  20    4.46    1.00
  -1  -2 -20    5.15    1.01
  -1  -2 -20    4.60    0.91
   1   2  20    5.26    1.03
  -1  -2 -21    2.01    0.67
  -1  -2 -21    1.41    0.59
   1   2  21    1.68    0.72
   1   2  21    1.05    0.65
  -1  -2 -22    1.04    0.52
   1   2  22    0.79    0.50
  -1  -2 -22    0.91    0.48
   1   2  22    0.48    0.49
  -1  -2 -23    0.55    0.36
   1   2  23    0.15    0.40
   1   3 -21    4.09    0.68
   1   3 -21    3.98    0.66
   1   3 -20    5.64    0.92
   1   3 -20    4.87    0.78
   1   3 -20    6.80    0.76
  -1  -3  20    5.06    0.72
   1   3 -20    4.92    0.87
  -1  -3  20    5.78    0.95
  -1  -3  19    3.30    0.76
   1   3 -19    4.74    0.97
   1   3 -19    4.41    0.84
   1   3 -19    5.11    0.80
   1   3 -19    4.20    0.89
  -1  -3  19    4.05    0.94
  -1  -3  18    0.32    0.69
   1   3 -18    0.82    0.87
   1   3 -18    0.35    0.55
   1   3 -18    0.57    0.67
   1   3 -18    0.47    0.58
  -1  -3  17    3.83    1.07
   1   3 -17    3.89    1.05
   1   3 -17    4.57    1.22
   1   3 -17    3.51    0.89
   1   3 -17    4.81    0.99
   1   3 -16    8.42    1.42
   1   3 -16    6.97    1.23
   1   3 -16   10.47    1.65
   1   3 -16    8.21    1.25
  -1  -3  16    7.02    1.39
   1   3 -15   43.39    2.75
   1   3 -15   53.50    2.99
   1   3 -15   46.13    3.08
  -1  -3  15   48.01    3.15
   1   3 -14   31.55    2.34
  -1  -3  14   32.98    2.62
   1   3 -14   50.20    2.59
   1   3 -14   44.19    4.26
   1   3 -14   37.21    2.54
   1   3 -14   29.46    2.54
   1   3 -13   11.91    1.84
   1   3 -13   13.61    1.57
  -1  -3  13   11.97    1.68
  -1  -3  13   21.47    2.53
  -1  -3  13   13.52    2.17
   1   3 -13   14.94    1.63
   1   3 -13   18.13    2.81
   1   3 -13   20.50    1.74
   1   3 -13   12.09    1.68
   1   3 -12    3.17    0.90
   1   3 -12    8.35    1.21
   1   3 -12    3.77    1.11
   1   3 -12    4.78    1.26
  -1  -3  12    4.00    1.14
  -1  -3  12    3.22    1.29
  -1  -3  12    5.32    1.44
   1   3 -12    5.17    1.07
   1   3 -12    5.11    1.69
   1   3 -11    0.47    0.67
   1   3 -11    1.50    0.94
   1   3 -11    0.56    0.62
  -1  -3  11    0.80    0.87
  -1  -3  11    0.28    0.85
   1   3 -11    0.85    1.12
  -1  -3  11    0.87    0.89
  -1  -3  10   15.73    2.07
  -1  -3  10   15.33    1.90
   1   3 -10   16.90    2.34
  -1  -3   9    1.63    1.04
  -1  -3   9    2.56    0.87
   1   3  -9    2.14    1.15
  -1  -3   8    7.72    1.46
   1   3  -8    8.53    1.16
   1   3  -8    8.00    1.53
  -1  -3   8    8.27    1.35
   1   3  -7  280.05    6.46
  -1  -3   7  250.77    6.63
   1   3  -7  244.79    5.90
   1   3  -7  207.34    6.78
  -1  -3   7  218.14    6.69
  -1  -3   6    9.97    1.33
   1   3  -6    8.24    1.21
  -1  -3   6    7.66    1.30
   1   3  -6    8.29    1.42
   1   3  -6    8.82    1.04
  -1  -3   5   14.76    1.65
   1   3  -5   13.83    1.64
   1   3  -5   18.49    1.78
   1   3  -5   17.46    1.38
  -1  -3   5   16.67    1.68
   1   3  -5   12.30    1.85
  -1  -3   4   49.32    2.81
   1   3  -4   58.98    2.46
   1   3  -4   54.07    3.32
   1   3  -4   55.79    2.94
   1   3  -3   25.10    2.17
  -1  -3   3   22.33    1.81
   1   3  -3   22.90    1.77
   1   3  -3   18.94    2.03
   1   3  -2   13.57    1.55
  -1  -3   2   14.65    1.45
   1   3  -2   16.99    1.44
  -1  -3   2   16.12    1.28
  -1  -3   1  228.29    5.56
  -1  -3   1  238.50    5.04
   1   3  -1  243.14    5.06
  -1  -3   0    6.69    1.09
   1   3   0    8.34    0.92
  -1  -3   0    7.57    0.91
   1   3   0    7.11    1.13
  -1  -3  -1  779.29   11.72
   1   3   1  792.81   10.52
   1   3   1  746.89   12.60
  -1  -3  -1  747.89   12.24
   1   3   2   11.45    0.76
  -1  -3  -2   10.50    1.15
   1   3   2   10.50    1.30
  -1  -3  -2    9.18    1.21
   1   3   3   77.12    3.02
  -1  -3  -3   71.78    2.98
  -1  -3  -4   44.63    2.60
   1   3   4   44.55    2.31
   1   3   5   26.96    2.16
  -1  -3  -5   25.55    2.11
   1   3   5   26.48    1.79
   1   3   5   32.11    1.29
   1   3   6  199.33    5.74
  -1  -3  -6  183.78    6.16
   1   3   6  217.70    5.40
   1   3   6  230.34    4.21
   1   3   7  127.06    4.48
  -1  -3  -7  120.86    5.24
   1   3   7  129.41    4.18
   1   3   8  118.78    4.19
   1   3   8  115.00    3.90
  -1  -3  -9  155.28    6.44
   1   3   9  151.65    6.17
  -1  -3 -10   83.86    4.95
   1   3  10   82.17    4.65
  -1  -3 -11   35.64    3.34
   1   3  11   32.91    3.11
  -1  -3 -12   37.61    3.65
   1   3  12   34.75    3.36
   1   3  13   14.27    2.43
  -1  -3 -13   19.62    2.15
  -1  -3 -13   13.84    2.52
  -1  -3 -13   17.46    1.83
   1   3  13   16.57    2.08
   1   3  14   12.67    1.82
  -1  -3 -14   14.71    1.90
  -1  -3 -14   11.30    2.43
  -1  -3 -14   13.59    1.64
   1   3  14    9.67    2.14
  -1  -3 -15   89.68    4.58
  -1  -3 -15   89.08    6.39
  -1  -3 -15   86.62    3.99
   1   3  15   80.67    4.26
   1   3  16    1.02    0.97
  -1  -3 -16    0.12    0.79
  -1  -3 -16    0.65    0.73
   1   3  16    1.23    0.90
  -1  -3 -17    0.04    0.67
   1   3  17    0.59    0.81
   1   3  17    0.65    0.88
  -1  -3 -17    0.33    0.75
  -1  -3 -18    0.68    0.83
  -1  -3 -18    0.29    0.71
   1   3  18    0.55    0.77
   1   3  18    0.18    0.74
  -1  -3 -19    2.96    0.92
  -1  -3 -19    2.17    0.81
   1   3  19    2.29    0.94
   1   3  19    2.67    0.85
  -1  -3 -20    1.08    0.70
  -1  -3 -20    0.43    0.54
   1   3  20    0.80    0.70
   1   3  20    0.80    0.71
  -1  -3 -21   -0.10    0.50
  -1  -3 -21    0.10    0.45
   1   3  21    0.20    0.56
  -1  -3 -22    0.25    0.42
  -1  -3 -22   -0.31    0.41
   1   3  22    0.58    0.54
  -1  -3 -23    5.17    0.60
   1   3  23    5.19    0.70
   1   4 -20    2.86    0.64
   1   4 -20    3.60    0.68
   1   4 -20    3.68    0.57
   1   4 -20    4.22    0.60
   1   4 -19    2.55    0.74
   1   4 -19    1.39    0.65
  -1  -4  19    1.78    0.54
  -1  -4  19    2.44    0.63
   1   4 -19    2.72    0.64
   1   4 -18   19.05    1.74
  -1  -4  18   19.57    1.82
   1   4 -18   23.70    1.81
   1   4 -18   17.93    1.53
  -1  -4  18   19.80    1.55
  -1  -4  18   18.20    1.57
   1   4 -18   22.59    1.67
  -1  -4  17    8.40    1.43
   1   4 -17   10.21    1.39
   1   4 -17    8.43    1.21
   1   4 -17    9.63    1.27
   1   4 -17    8.38    1.30
   1   4 -16    4.13    1.09
   1   4 -16    7.53    1.36
   1   4 -16    4.36    1.00
  -1  -4  16    5.14    1.21
   1   4 -16    4.93    1.05
   1   4 -15    5.15    1.21
   1   4 -15    4.86    1.04
  -1  -4  15    5.76    1.34
   1   4 -15    6.53    1.21
   1   4 -14   16.54    1.78
  -1  -4  14   17.66    2.10
   1   4 -14   18.44    1.88
   1   4 -14   16.19    1.93
   1   4 -13   27.16    2.15
  -1  -4  13   29.04    2.54
   1   4 -13   30.27    2.31
   1   4 -13   27.79    2.45
   1   4 -12  114.11    4.42
  -1  -4  12  121.84    5.18
  -1  -4  12  131.51    6.42
   1   4 -12  128.23    4.74
   1   4 -12  119.23    4.91
   1   4 -11   16.62    1.86
   1   4 -11   19.90    1.78
  -1  -4  11   21.53    2.15
   1   4 -11   22.78    2.90
  -1  -4  11   18.00    2.30
   1   4 -11   21.05    1.94
  -1  -4  10    4.21    1.27
   1   4 -10    3.17    1.05
   1   4 -10    5.00    1.07
   1   4 -10    6.55    1.64
  -1  -4  10    4.31    1.11
   1   4 -10    4.47    1.04
   1   4  -9   16.72    2.29
  -1  -4   9   16.34    2.13
  -1  -4   9   18.71    1.96
  -1  -4   8   17.51    2.14
   1   4  -8   18.25    2.20
  -1  -4   8   20.00    1.91
   1   4  -7   16.81    1.64
  -1  -4   7   17.78    1.74
   1   4  -7   18.78    1.90
  -1  -4   7   14.98    1.89
   1   4  -7   14.01    1.89
   1   4  -6   15.71    1.89
  -1  -4   6   16.52    1.63
  -1  -4   6   12.88    1.75
   1   4  -6   10.80    1.94
   1   4  -6   15.80    1.55
   1   4  -6   12.03    1.72
  -1  -4   5   16.45    1.59
   1   4  -5   12.51    1.66
  -1  -4   5   13.34    1.64
   1   4  -5   12.93    1.96
   1   4  -5   18.56    1.99
   1   4  -5   15.19    1.53
   1   4  -4   14.19    1.42
  -1  -4   4   13.01    1.52
   1   4  -4   12.23    1.46
   1   4  -4   10.87    1.75
  -1  -4   3   62.10    3.03
   1   4  -3   70.83    3.06
   1   4  -3   58.19    3.51
  -1  -4   3   72.92    3.27
   1   4  -2   28.02    1.77
  -1  -4   2   31.58    2.17
   1   4  -2   25.16    2.31
  -1  -4   2   26.44    2.02
  -1  -4   1  288.95    6.76
   1   4  -1  276.41    7.75
   1   4   0   14.81    1.01
   1   4   0   12.51    1.62
  -1  -4   0   14.56    1.44
  -1  -4   0   14.37    1.48
  -1  -4  -1   17.81    1.64
   1   4   1   14.16    1.69
  -1  -4  -1   16.56    1.53
  -1  -4  -2   18.19    1.71
  -1  -4  -2   14.26    1.52
   1   4   2   13.02    1.68
  -1  -4  -3   26.32    2.11
  -1  -4  -3   22.61    1.92
   1   4   3   23.98    2.06
  -1  -4  -4  291.76    6.82
   1   4   4  276.55    7.23
  -1  -4  -4  293.43    7.46
  -1  -4  -5   44.85    2.92
   1   4   5   45.77    2.79
  -1  -4  -6   12.11    1.71
   1   4   6   13.25    1.56
   1   4   7   13.80    1.80
  -1  -4  -7   12.25    1.84
   1   4   7   13.07    1.58
   1   4   8   40.44    2.78
  -1  -4  -8   35.06    3.03
   1   4   8   38.37    2.66
  -1  -4  -9   11.66    2.01
  -1  -4  -9   13.18    2.07
   1   4   9   14.19    1.68
   1   4   9   13.37    1.65
  -1  -4 -10    7.07    1.72
  -1  -4 -10    8.42    1.87
  -1  -4 -11    8.59    2.07
  -1  -4 -11   10.30    2.04
  -1  -4 -12    4.06    1.62
  -1  -4 -12    5.05    1.20
  -1  -4 -12    4.61    1.03
   1   4  12    4.71    1.18
  -1  -4 -12    3.28    1.37
   1   4  13    1.45    1.08
  -1  -4 -13    0.39    1.11
  -1  -4 -13    1.53    0.93
  -1  -4 -13    2.22    0.88
  -1  -4 -13    1.04    1.21
  -1  -4 -14   17.79    3.00
  -1  -4 -14   17.13    1.87
  -1  -4 -14   19.08    2.17
   1   4  14   15.75    2.04
  -1  -4 -15  143.62    5.54
  -1  -4 -15  144.04    8.22
  -1  -4 -15  133.58    4.91
   1   4  15  122.94    5.44
   1   4  16    5.21    1.28
  -1  -4 -16    5.03    1.33
  -1  -4 -16    5.11    1.14
  -1  -4 -17   13.72    1.81
  -1  -4 -17   13.20    1.59
   1   4  17   11.08    1.76
  -1  -4 -18    7.48    1.23
   1   4  18    6.04    1.26
  -1  -4 -18    6.76    1.37
  -1  -4 -19    0.85    0.78
  -1  -4 -19    0.40    0.59
   1   4  19    0.28    0.72
  -1  -4 -20    0.04    0.58
  -1  -4 -20    0.19    0.50
   1   4  20   -0.07    0.63
  -1  -4 -21    0.21    0.50
  -1  -4 -21    0.20    0.44
   1   4  21    0.29    0.56
  -1  -4 -22    0.73    0.44
  -1  -4 -22    0.24    0.37
   1   4  22    0.50    0.48
   1   5 -20    3.06    0.54
   1   5 -19    1.64    0.61
  -1  -5  19    1.99    0.51
   1   5 -19    2.15    0.53
   1   5 -18   11.69    1.14
  -1  -5  18   11.39    1.04
  -1  -5  18    8.75    1.04
   1   5 -18   10.71    1.13
   1   5 -18    9.43    1.17
  -1  -5  17    7.52    1.02
   1   5 -17   10.57    1.21
  -1  -5  17    6.87    1.14
   1   5 -17    8.14    1.11
   1   5 -17    7.71    1.17
  -1  -5  16   24.45    1.86
   1   5 -16   33.29    2.16
   1   5 -16   26.01    1.94
  -1  -5  16   26.27    2.10
  -1  -5  16   25.96    2.27
   1   5 -16   28.30    2.11
   1   5 -16   25.17    2.14
   1   5 -15   18.33    1.71
  -1  -5  15   19.91    2.09
  -1  -5  15   17.86    1.71
   1   5 -15   18.46    2.00
   1   5 -15   21.07    1.94
   1   5 -14   50.66    2.89
  -1  -5  14   52.21    3.44
   1   5 -14   51.11    3.19
  -1  -5  14   61.06    3.17
   1   5 -14   56.37    3.14
   1   5 -13    6.23    1.36
   1   5 -13    5.42    1.11
  -1  -5  13    5.88    1.33
   1   5 -13    6.16    1.21
   1   5 -12  170.30    5.52
   1   5 -12  184.73    5.91
  -1  -5  12  180.14    6.55
   1   5 -12  179.16    6.20
   1   5 -11   18.01    1.77
  -1  -5  11   17.98    2.06
   1   5 -11   19.54    2.02
   1   5 -11   23.22    3.10
  -1  -5  11   21.23    2.66
   1   5 -11   16.44    1.77
   1   5 -10   11.40    1.38
  -1  -5  10   11.36    1.70
   1   5 -10   11.76    1.56
   1   5 -10   13.73    2.24
  -1  -5  10   12.02    1.98
   1   5 -10   11.63    1.48
   1   5  -9   56.28    2.93
   1   5  -9   62.37    4.21
  -1  -5   9   54.32    3.77
  -1  -5   9   62.32    3.54
   1   5  -9   59.33    3.09
   1   5  -9   56.98    3.31
   1   5  -8    5.54    1.19
  -1  -5   8    5.81    1.24
  -1  -5   8    4.49    1.33
   1   5  -8    5.62    1.41
   1   5  -8    6.34    1.13
   1   5  -7   58.30    3.70
   1   5  -7   52.79    4.40
  -1  -5   7   52.42    3.58
   1   5  -6  111.33    4.70
   1   5  -6  115.81    5.12
   1   5  -6   92.88    4.43
  -1  -5   6   90.46    4.54
   1   5  -6   88.60    5.41
  -1  -5   5    5.92    1.19
   1   5  -5    6.45    1.26
   1   5  -5    6.36    1.56
   1   5  -5    7.19    1.22
  -1  -5   5    8.01    1.15
   1   5  -4   46.05    2.74
  -1  -5   4   58.20    2.92
  -1  -5   4   58.52    3.49
  -1  -5   4   47.86    2.97
   1   5  -4   42.70    3.47
  -1  -5   3  115.47    4.44
   1   5  -3  128.89    4.20
  -1  -5   3  128.68    5.10
  -1  -5   2    1.34    0.86
  -1  -5   2    2.49    0.94
   1   5  -2    1.58    1.03
  -1  -5   1  309.66    7.16
   1   5  -1  285.56    8.88
  -1  -5   0   14.32    1.71
   1   5   0   12.26    1.88
  -1  -5   0   14.28    1.53
  -1  -5  -1   79.83    3.92
  -1  -5  -1   73.15    3.13
  -1  -5  -2  238.69    7.17
  -1  -5  -2  240.59    5.94
  -1  -5  -3  195.57    5.29
   1   5   3  180.12    6.42
  -1  -5  -3  191.16    6.45
  -1  -5  -4  221.44    7.20
  -1  -5  -4  237.39    5.93
   1   5   4  212.54    7.01
  -1  -5  -5  432.49   10.83
   1   5   5  419.61   10.34
  -1  -5  -6   58.50    3.85
  -1  -5  -6   67.92    3.14
   1   5   6   61.41    3.68
  -1  -5  -7  235.95    6.30
   1   5   7  219.42    7.24
  -1  -5  -8   21.15    2.52
   1   5   8   21.13    2.33
   1   5   9   11.54    1.74
   1   5   9    9.07    1.61
  -1  -5  -9    7.23    1.66
  -1  -5 -10    0.62    1.05
  -1  -5 -11   42.74    2.92
  -1  -5 -11   44.53    2.70
   1   5  11   42.81    2.95
  -1  -5 -12  155.59    5.67
  -1  -5 -12  153.22    5.17
   1   5  12  151.93    5.59
  -1  -5 -13   97.39    4.52
  -1  -5 -13   89.84    6.31
  -1  -5 -13   93.77    4.04
   1   5  13   93.35    4.49
  -1  -5 -14   18.22    1.89
  -1  -5 -14   17.62    3.09
   1   5  14   15.88    2.06
  -1  -5 -14   17.68    2.06
  -1  -5 -15   73.66    3.97
  -1  -5 -15   70.57    3.57
   1   5  15   70.25    3.98
  -1  -5 -16   16.03    1.97
  -1  -5 -16   14.23    1.66
   1   5  16   14.79    1.92
  -1  -5 -17    5.69    1.15
   1   5  17    4.78    1.25
  -1  -5 -17    7.03    1.39
  -1  -5 -18   12.06    1.58
  -1  -5 -18   10.78    1.36
   1   5  18   10.95    1.60
  -1  -5 -19    1.67    0.81
  -1  -5 -19    1.98    0.70
   1   5  19    1.59    0.85
  -1  -5 -20    0.60    0.55
  -1  -5 -20    0.71    0.52
   1   5  20    0.58    0.61
  -1  -5 -21    0.32    0.42
   1   5  21    0.09    0.50
  -1  -5 -21    0.47    0.52
  -1  -5 -22    1.52    0.45
  -1  -5 -22    1.54    0.42
   1   5  22    1.13    0.48
   1   6 -18    2.25    0.63
  -1  -6  18    1.44    0.49
   1   6 -18    2.57    0.58
   1   6 -17   -0.36    0.51
  -1  -6  17    0.31    0.56
   1   6 -17    0.33    0.48
   1   6 -16    7.80    1.10
  -1  -6  16    7.74    1.16
   1   6 -16    7.23    1.14
  -1  -6  16    7.20    0.97
  -1  -6  15   48.88    2.85
   1   6 -15   54.49    2.86
   1   6 -15   49.71    2.92
  -1  -6  15   52.56    2.60
   1   6 -14   34.34    2.37
  -1  -6  14   31.64    2.19
   1   6 -14   30.13    2.37
  -1  -6  13   21.13    1.90
   1   6 -13   22.20    2.01
   1   6 -13   18.73    2.01
  -1  -6  12   35.45    2.56
   1   6 -12   39.07    2.86
   1   6 -12   38.90    2.66
   1   6 -11   19.06    1.94
  -1  -6  11   16.43    1.85
   1   6 -11   17.88    1.96
   1   6 -10    6.06    1.32
   1   6 -10    5.03    1.09
  -1  -6  10    4.13    1.12
  -1  -6  10    8.11    1.91
  -1  -6   9    8.74    1.75
   1   6  -9    5.57    1.15
   1   6  -9    7.48    1.37
  -1  -6   9    6.57    1.23
   1   6  -8    7.27    1.28
  -1  -6   8    7.51    1.26
  -1  -6   8    8.01    1.62
   1   6  -8    8.51    1.39
   1   6  -7    3.36    0.99
  -1  -6   7    6.37    1.32
   1   6  -7    2.54    1.37
  -1  -6   7    3.18    1.20
   1   6  -7    3.58    0.94
  -1  -6   7    3.78    1.03
  -1  -6   6   23.41    1.99
  -1  -6   6   18.62    2.19
   1   6  -6   17.58    2.69
   1   6  -6   19.63    1.93
   1   6  -6   19.49    1.84
  -1  -6   5   34.90    2.84
   1   6  -5   40.27    3.15
   1   6  -5   33.67    3.50
   1   6  -4   30.41    3.23
  -1  -6   4   31.03    2.60
  -1  -6   4   37.37    3.17
  -1  -6   3   97.94    4.34
   1   6  -3   90.21    5.36
  -1  -6   2    2.47    1.01
  -1  -6   2    3.09    0.98
   1   6  -2    2.30    1.27
  -1  -6   1  112.85    4.35
   1   6  -1  105.39    5.69
  -1  -6   0   14.00    2.00
   1   6   0   11.84    2.05
  -1  -6   0   14.70    1.60
  -1  -6  -1   16.99    1.64
   1   6   1   15.62    2.22
  -1  -6  -1   17.20    2.18
  -1  -6  -2   27.46    1.91
   1   6   2   27.07    2.80
  -1  -6  -2   30.42    2.84
  -1  -6  -3    6.80    1.62
   1   6   3    4.19    1.35
  -1  -6  -4   82.28    4.84
   1   6   4   74.17    4.60
  -1  -6  -5   49.30    3.81
   1   6   5   45.85    3.57
  -1  -6  -6   30.35    3.11
   1   6   6   29.49    2.88
  -1  -6  -7   11.51    2.08
   1   6   7   11.29    1.88
  -1  -6  -8    1.16    1.10
   1   6   8    0.48    0.82
  -1  -6  -9    6.64    1.18
   1   6   9    7.48    1.67
   1   6   9    7.14    1.40
  -1  -6  -9    6.88    1.20
  -1  -6  -9    5.30    1.64
   1   6   9    5.84    1.52
  -1  -6 -10   29.25    2.43
  -1  -6 -10   30.60    2.27
  -1  -6 -10   28.09    3.41
   1   6  10   29.40    2.49
  -1  -6 -11   94.90    4.44
  -1  -6 -11   97.22    4.16
  -1  -6 -11   88.43    6.12
   1   6  11   89.46    4.37
  -1  -6 -12   31.40    2.65
   1   6  12   33.93    2.73
  -1  -6 -12   32.39    2.42
  -1  -6 -12   33.57    3.98
  -1  -6 -13   13.62    1.87
  -1  -6 -13   12.68    1.56
  -1  -6 -13   17.02    3.09
   1   6  13   12.47    1.80
  -1  -6 -14    2.58    1.17
  -1  -6 -14    3.18    0.96
   1   6  14    3.13    1.21
  -1  -6 -15  185.94    6.35
  -1  -6 -15  179.14    5.61
   1   6  15  171.82    6.23
  -1  -6 -16  151.49    5.61
  -1  -6 -16  144.61    4.87
   1   6  16  142.35    5.51
   1   6  17    3.84    1.14
  -1  -6 -17    4.27    1.10
  -1  -6 -17    3.48    0.90
  -1  -6 -18    8.75    1.34
  -1  -6 -18    8.01    1.10
   1   6  18    7.19    1.24
  -1  -6 -19    2.72    0.84
  -1  -6 -19    2.83    0.69
   1   6  19    2.37    0.81
  -1  -6 -20    0.82    0.55
  -1  -6 -20    0.34    0.42
   1   6  20    0.12    0.50
  -1  -6 -21    3.84    0.68
  -1  -6 -21    3.84    0.55
   1   6  21    3.62    0.70
   1   7 -17    0.20    0.39
  -1  -7  17   -0.16    0.40
   1   7 -16    1.20    0.59
   1   7 -16    1.31    0.56
  -1  -7  16    0.35    0.47
   1   7 -15    3.55    0.86
   1   7 -15    4.04    0.88
  -1  -7  15    3.41    0.81
   1   7 -14    1.45    0.70
   1   7 -14    1.32    0.71
  -1  -7  14    1.49    0.78
  -1  -7  14    1.61    0.68
   1   7 -13    3.01    0.94
  -1  -7  13    2.68    0.75
  -1  -7  13    3.57    0.99
   1   7 -13    2.39    0.88
  -1  -7  12  115.26    4.21
   1   7 -12  115.15    4.72
  -1  -7  12  106.27    4.55
   1   7 -12  115.49    4.52
  -1  -7  11  150.59    5.07
   1   7 -11  145.16    5.44
  -1  -7  11  144.60    5.43
   1   7 -11  143.89    5.22
   1   7 -10   22.77    2.18
  -1  -7  10   28.75    2.26
  -1  -7  10   23.10    2.04
   1   7 -10   23.94    2.20
  -1  -7   9   34.78    2.53
   1   7  -9   37.31    2.87
   1   7  -9   34.82    2.64
  -1  -7   8   40.56    2.82
  -1  -7   8   33.37    2.50
   1   7  -8   34.79    2.66
   1   7  -8   32.63    2.57
  -1  -7   7    3.44    1.03
  -1  -7   7    2.50    0.92
   1   7  -7    3.21    1.07
  -1  -7   7    2.31    1.17
   1   7  -7    1.92    1.26
   1   7  -7    1.95    0.83
  -1  -7   6   52.64    3.06
  -1  -7   6   55.94    3.73
   1   7  -6   50.91    3.18
   1   7  -6   57.70    5.07
   1   7  -6   50.60    3.02
   1   7  -5   15.82    2.80
   1   7  -5   14.54    1.70
  -1  -7   5   14.45    2.01
   1   7  -5   14.78    1.78
  -1  -7   5   18.16    2.01
  -1  -7   5   15.00    1.71
  -1  -7   4   26.37    2.15
  -1  -7   4   26.31    2.50
   1   7  -4   24.08    3.24
   1   7  -4   24.69    2.11
  -1  -7   4   32.38    2.47
  -1  -7   3   32.28    2.47
   1   7  -3   23.64    2.01
   1   7  -3   22.02    3.00
  -1  -7   3   34.14    3.37
  -1  -7   3   31.80    2.60
  -1  -7   3   23.96    2.04
  -1  -7   2    6.97    1.71
  -1  -7   2    7.65    1.41
   1   7  -2    4.84    1.67
  -1  -7   2    6.15    1.14
   1   7  -2    6.61    1.17
  -1  -7   1   57.88    3.00
  -1  -7   1   61.60    4.43
   1   7  -1   49.18    4.31
  -1  -7   0  145.03    6.82
   1   7   0  122.01    6.68
  -1  -7  -1   69.83    4.69
   1   7   1   53.56    4.35
   1   7   2   51.36    4.29
  -1  -7  -2   70.05    4.78
  -1  -7  -3   86.64    5.38
   1   7   3   68.45    4.90
   1   7   4    3.05    1.42
  -1  -7  -4    2.39    1.31
  -1  -7  -4    2.91    0.87
  -1  -7  -4    2.36    1.08
  -1  -7  -5   57.45    3.66
  -1  -7  -5   65.10    3.21
  -1  -7  -5   65.95    4.92
   1   7   5   57.46    4.52
   1   7   6   11.45    2.12
  -1  -7  -6   12.13    2.26
  -1  -7  -6   10.07    1.73
  -1  -7  -6   10.96    1.45
  -1  -7  -7   17.87    2.04
   1   7   7   11.37    2.21
  -1  -7  -7   13.70    2.51
  -1  -7  -7   12.03    1.51
   1   7   7   20.26    1.89
  -1  -7  -7    9.84    1.75
  -1  -7  -8   12.37    1.93
  -1  -7  -8   23.69    2.13
  -1  -7  -8   17.44    1.78
  -1  -7  -8   17.40    2.84
   1   7   8   17.87    2.67
  -1  -7  -8   14.37    1.72
   1   7   8   23.75    2.07
  -1  -7  -9    0.05    0.83
  -1  -7  -9    0.07    0.72
   1   7   9    0.49    1.99
   1   7   9    0.17    0.81
  -1  -7  -9    0.63    1.21
  -1  -7 -10    3.37    1.10
  -1  -7 -10    4.05    1.12
  -1  -7 -10    2.59    0.95
  -1  -7 -10    4.40    1.27
   1   7  10    2.59    1.09
  -1  -7 -10    2.80    1.56
   1   7  11    6.02    1.41
  -1  -7 -11    4.77    1.33
  -1  -7 -11    5.39    1.23
  -1  -7 -11    4.50    1.09
  -1  -7 -11    5.56    2.06
  -1  -7 -11    6.73    1.33
  -1  -7 -12    1.85    1.00
  -1  -7 -12    2.54    0.93
  -1  -7 -12    2.27    0.94
   1   7  12    2.60    1.15
  -1  -7 -12    3.30    1.03
  -1  -7 -13    4.83    1.24
  -1  -7 -13    5.87    1.21
  -1  -7 -13    4.07    0.98
   1   7  13    4.69    1.28
  -1  -7 -14   12.76    1.74
  -1  -7 -14   14.83    1.70
  -1  -7 -14   12.25    1.50
   1   7  14   10.67    1.62
  -1  -7 -15    1.92    0.94
  -1  -7 -15    1.51    0.77
   1   7  15    1.25    0.88
  -1  -7 -16   14.05    1.69
  -1  -7 -16   13.23    1.42
   1   7  16   11.02    1.60
  -1  -7 -17    0.89    0.74
  -1  -7 -17    0.15    0.49
   1   7  17    0.20    0.66
  -1  -7 -18    2.83    0.81
  -1  -7 -18    3.32    0.72
   1   7  18    2.96    0.81
  -1  -7 -19    1.89    0.64
  -1  -7 -19    1.84    0.52
   1   7  19    1.23    0.62
  -1  -7 -20    4.86    0.58
   1   7  20    3.96    0.70
  -1  -7 -20    4.76    0.74
   1   8 -16    0.75    0.41
  -1  -8  16    0.60    0.40
   1   8 -15    0.85    0.48
  -1  -8  15    0.42    0.44
   1   8 -14    4.00    0.81
  -1  -8  14    3.10    0.74
  -1  -8  13    2.25    0.62
  -1  -8  13    1.48    0.73
   1   8 -13    1.67    0.71
  -1  -8  12    4.13    0.85
  -1  -8  12    3.42    0.93
   1   8 -12    3.71    0.91
  -1  -8  11   53.66    2.67
  -1  -8  11   45.53    2.79
   1   8 -11   47.28    2.75
   1   8 -10   52.96    3.03
  -1  -8  10   57.04    2.90
  -1  -8  10   53.00    3.07
  -1  -8   9   30.94    2.40
  -1  -8   9   25.52    2.23
   1   8  -9   25.59    2.17
  -1  -8   9   27.73    2.13
  -1  -8   8   25.73    2.29
  -1  -8   8   23.66    2.05
   1   8  -8   23.31    2.10
  -1  -8   8   23.58    2.12
  -1  -8   7   18.06    2.02
  -1  -8   7   16.25    1.85
  -1  -8   7   16.25    1.74
   1   8  -7   15.12    1.75
  -1  -8   6    8.07    1.44
  -1  -8   6    6.24    1.21
  -1  -8   6    8.15    1.36
   1   8  -6    6.42    1.22
  -1  -8   5   10.22    1.62
   1   8  -5    8.65    1.35
  -1  -8   5    9.71    1.42
  -1  -8   5    9.92    1.51
  -1  -8   4    7.28    1.26
   1   8  -4    7.36    1.28
   1   8  -4   10.28    2.39
  -1  -8   4    8.73    1.45
  -1  -8   4    8.99    1.52
  -1  -8   3    8.15    1.49
   1   8  -3    7.26    1.29
  -1  -8   3    6.55    1.24
   1   8  -3    8.96    2.27
  -1  -8   2   14.13    1.68
  -1  -8   2   11.02    1.67
   1   8  -2    9.60    1.43
  -1  -8   2    9.57    1.39
   1   8  -2    9.89    2.30
  -1  -8   1   12.14    1.78
  -1  -8   1   13.72    1.67
   1   8  -1   14.01    1.74
   1   8  -1   13.72    2.63
  -1  -8   0   77.27    4.17
  -1  -8   0   68.52    3.49
   1   8   0   77.55    3.62
   1   8   0   74.93    5.63
  -1  -8  -1   78.35    4.34
  -1  -8  -1   73.25    3.63
   1   8   1   84.76    5.94
   1   8   1   89.20    3.85
  -1  -8  -2   60.17    3.85
   1   8   2   64.69    3.29
  -1  -8  -2   52.04    3.08
   1   8   2   53.54    4.76
  -1  -8  -3   55.59    3.76
   1   8   3   92.93    3.66
  -1  -8  -3   52.69    3.08
  -1  -8  -3   83.74    5.72
   1   8   3   59.01    4.94
   1   8   3   70.53    3.36
  -1  -8  -4    7.35    2.08
  -1  -8  -4    5.13    1.14
  -1  -8  -4    5.64    1.48
   1   8   4    6.37    1.93
   1   8   4    7.89    1.30
  -1  -8  -5   14.55    2.79
   1   8   5   12.09    1.50
  -1  -8  -5    8.42    1.65
   1   8   5    8.55    2.10
  -1  -8  -5    9.83    1.43
  -1  -8  -6    8.33    2.16
  -1  -8  -6    5.64    1.47
  -1  -8  -6    7.25    1.29
   1   8   6    9.89    2.21
  -1  -8  -7    0.80    0.79
  -1  -8  -7    0.96    1.04
  -1  -8  -7    0.64    0.87
  -1  -8  -7   -0.06    0.71
   1   8   7    1.51    1.33
  -1  -8  -7    0.04    1.26
  -1  -8  -8    1.35    0.81
  -1  -8  -8    2.84    1.20
  -1  -8  -8    1.12    0.96
  -1  -8  -8    1.41    1.50
  -1  -8  -8    0.73    0.88
  -1  -8  -8    1.10    0.79
   1   8   8    5.30    1.97
  -1  -8  -9    7.63    1.45
   1   8   9    7.45    1.48
  -1  -8  -9    7.52    1.52
  -1  -8  -9    6.43    1.22
  -1  -8 -10    2.95    1.07
   1   8  10    2.75    1.14
  -1  -8 -10    2.56    1.01
  -1  -8 -10    1.92    1.00
  -1  -8 -10    2.88    0.97
  -1  -8 -11    8.61    1.45
  -1  -8 -11    7.63    1.51
  -1  -8 -11    9.93    1.47
  -1  -8 -11    8.53    1.23
   1   8  11    8.52    1.54
  -1  -8 -12    0.40    0.77
  -1  -8 -12    0.27    0.80
  -1  -8 -12    0.16    0.78
  -1  -8 -12    0.03    0.59
   1   8  12    0.22    0.77
  -1  -8 -13    7.36    1.12
  -1  -8 -13    7.87    1.26
   1   8  13    5.37    1.24
  -1  -8 -13    5.05    1.18
  -1  -8 -13    6.13    1.08
   1   8  14    2.80    1.00
  -1  -8 -14    2.91    0.97
  -1  -8 -14    4.43    0.94
  -1  -8 -14    2.72    0.79
  -1  -8 -15    0.28    0.64
  -1  -8 -15    0.87    0.62
  -1  -8 -15    0.96    0.58
   1   8  15    1.09    0.84
  -1  -8 -16    3.64    0.92
   1   8  16    3.53    0.95
  -1  -8 -16    3.72    0.74
  -1  -8 -17    1.33    0.70
  -1  -8 -17    0.92    0.48
   1   8  17    1.26    0.67
  -1  -8 -18    1.36    0.61
  -1  -8 -18    1.21    0.44
   1   8  18    1.17    0.61
  -1  -8 -19   10.40    0.94
   1   8  19    8.80    0.87
   1   9 -14    3.09    0.55
  -1  -9  14    2.18    0.49
  -1  -9  13    5.98    0.77
   1   9 -13    6.69    0.82
  -1  -9  13    6.25    0.83
  -1  -9  12   -0.39    0.55
   1   9 -12    0.44    0.55
  -1  -9  11    3.39    0.73
  -1  -9  11    1.49    0.61
  -1  -9  11    2.45    0.62
   1   9 -11    2.44    0.72
  -1  -9  10    3.62    0.85
  -1  -9  10    2.09    0.69
  -1  -9  10    2.53    0.70
   1   9 -10    2.92    0.80
  -1  -9   9    1.86    0.80
  -1  -9   9    1.60    0.69
   1   9  -9    2.27    0.83
  -1  -9   9    1.08    0.62
  -1  -9   8    8.02    1.28
  -1  -9   8    7.23    1.10
  -1  -9   8    5.87    1.06
   1   9  -8    7.03    1.17
  -1  -9   7    5.19    0.99
  -1  -9   7    5.86    1.16
   1   9  -7    6.22    1.15
  -1  -9   7    6.11    1.06
  -1  -9   6   11.09    1.64
  -1  -9   6   11.26    1.41
  -1  -9   6    9.62    1.33
   1   9  -6   10.63    1.44
  -1  -9   5   36.19    2.79
  -1  -9   5   36.93    2.47
  -1  -9   5   35.67    2.40
   1   9  -5   35.09    2.48
  -1  -9   4   18.15    2.07
  -1  -9   4   18.01    1.82
   1   9  -4   16.49    1.78
   1   9  -3    3.62    1.00
  -1  -9   3    3.51    1.17
  -1  -9   3    3.21    0.99
  -1  -9   2   43.30    2.68
  -1  -9   2   34.79    2.92
   1   9  -2   36.75    2.52
  -1  -9   2   37.02    2.57
  -1  -9   1   41.36    2.74
  -1  -9   1   35.56    2.53
  -1  -9   1   35.74    3.04
   1   9  -1   38.52    2.60
  -1  -9   0    3.33    1.12
   1   9   0    1.49    0.84
  -1  -9   0    2.68    1.19
  -1  -9   0    2.28    1.05
  -1  -9  -1   44.35    2.85
  -1  -9  -1   44.19    3.33
  -1  -9  -1   39.24    2.63
   1   9   1   44.11    2.71
  -1  -9  -2   39.51    2.85
  -1  -9  -2   37.86    3.29
  -1  -9  -2   31.94    2.44
   1   9   2   40.80    2.63
  -1  -9  -3  119.62    5.58
  -1  -9  -3  112.70    4.55
  -1  -9  -4   24.48    2.29
  -1  -9  -4   18.91    1.93
  -1  -9  -4   22.73    2.59
  -1  -9  -5   11.63    1.75
  -1  -9  -5   11.37    1.89
  -1  -9  -5   10.83    1.58
  -1  -9  -6    7.77    1.52
  -1  -9  -6    5.49    1.45
  -1  -9  -6    7.08    1.12
  -1  -9  -6    6.00    1.25
  -1  -9  -6    6.20    1.20
  -1  -9  -7    4.99    1.25
  -1  -9  -7    1.96    1.05
  -1  -9  -7    4.21    1.23
  -1  -9  -7    4.39    0.95
  -1  -9  -7    3.94    1.07
  -1  -9  -8    8.65    1.46
  -1  -9  -8    5.33    1.41
  -1  -9  -8    9.97    1.29
  -1  -9  -8    8.21    1.38
   1   9   8    6.48    1.35
  -1  -9  -9    0.41    0.83
  -1  -9  -9   -0.31    0.74
  -1  -9  -9    0.16    0.69
  -1  -9  -9    0.18    0.60
   1   9   9    0.56    0.79
  -1  -9 -10    1.33    0.76
  -1  -9 -10    0.53    0.74
  -1  -9 -10    1.34    0.80
  -1  -9 -10    0.88    0.65
   1   9  10    0.74    0.82
  -1  -9 -11    4.99    1.02
  -1  -9 -11    6.85    1.16
  -1  -9 -11    5.50    0.97
  -1  -9 -11    4.49    1.18
   1   9  11    4.84    1.16
  -1  -9 -12    0.74    0.62
  -1  -9 -12    1.42    0.85
  -1  -9 -12    1.31    0.75
  -1  -9 -12    1.38    0.61
   1   9  12    0.95    0.77
  -1  -9 -13    3.52    0.78
  -1  -9 -13    1.97    0.83
  -1  -9 -13    3.89    0.87
  -1  -9 -13    3.58    0.74
   1   9  13    3.22    0.96
  -1  -9 -14    6.46    1.00
  -1  -9 -14    4.47    1.00
  -1  -9 -14    5.21    0.77
   1   9  14    3.98    0.98
  -1  -9 -15    0.52    0.52
  -1  -9 -15    1.13    0.65
  -1  -9 -15    1.12    0.49
   1   9  15    0.21    0.60
   1   9  16    1.89    0.67
  -1  -9 -16    1.81    0.68
  -1  -9 -16    3.46    0.65
  -1  -9 -17    4.96    0.76
   1   9  17    4.55    0.76
  -1  -9 -18    1.13    0.43
   1   9  18    0.90    0.39
  -1 -10  11    5.96    0.76
  -1 -10  11    7.33    0.76
   1  10 -11    8.30    0.80
  -1 -10  10   10.62    1.05
   1  10 -10   10.00    0.98
  -1 -10  10    8.70    1.01
  -1 -10  10    9.64    0.95
  -1 -10   9    1.67    0.62
  -1 -10   9    1.74    0.59
   1  10  -9    2.17    0.62
  -1 -10   8   11.00    1.27
  -1 -10   8   13.05    1.10
   1  10  -8   11.52    1.18
  -1 -10   8   11.25    1.11
  -1 -10   7    5.92    1.07
  -1 -10   7    6.86    0.91
   1  10  -7    6.50    1.00
  -1 -10   7    6.87    0.94
  -1 -10   6   19.96    1.85
  -1 -10   6   21.42    1.61
  -1 -10   6   22.17    1.56
   1  10  -6   21.60    1.70
  -1 -10   5   77.71    3.78
  -1 -10   5   80.04    3.21
   1  10  -5   78.28    3.27
  -1 -10   4   36.13    2.69
  -1 -10   4   40.04    2.36
   1  10  -4   38.22    2.32
   1  10  -3    1.20    0.72
  -1 -10   3    0.20    0.61
  -1 -10   3    1.53    0.90
  -1 -10   2   49.42    3.28
  -1 -10   2   49.03    2.74
  -1 -10   2   53.26    2.72
   1  10  -2   54.14    2.76
  -1 -10   1   63.21    3.10
  -1 -10   1   54.89    3.54
  -1 -10   1   58.02    3.07
   1  10  -1   61.17    2.96
  -1 -10   0   70.54    3.39
  -1 -10   0   63.66    3.85
   1  10   0   74.42    3.23
  -1 -10   0   63.84    3.25
  -1 -10  -1    3.49    1.08
  -1 -10  -1    4.49    1.41
   1  10   1    1.94    0.83
  -1 -10  -1    2.42    1.01
  -1 -10  -1    1.58    0.77
  -1 -10  -2    5.85    1.56
  -1 -10  -2    4.55    1.16
  -1 -10  -2    4.76    1.08
  -1 -10  -3   55.66    3.14
  -1 -10  -3   50.67    3.57
  -1 -10  -3   54.78    3.06
  -1 -10  -4    7.32    1.36
  -1 -10  -4    7.01    1.48
  -1 -10  -4    7.72    1.27
  -1 -10  -5    1.67    0.85
  -1 -10  -5    0.43    0.82
  -1 -10  -5    1.77    0.91
  -1 -10  -5    1.22    0.73
  -1 -10  -6    2.46    0.95
  -1 -10  -6    0.73    0.81
  -1 -10  -6    2.17    0.99
  -1 -10  -7    1.42    0.73
  -1 -10  -7    1.32    0.80
   1  10   7    0.54    0.77
  -1 -10  -7    0.36    0.83
  -1 -10  -8    2.60    0.86
   1  10   8    3.06    1.01
  -1 -10  -8    1.43    0.83
  -1 -10  -8    2.89    0.91
  -1 -10  -9    2.25    0.78
  -1 -10  -9    3.08    0.95
  -1 -10  -9    2.52    0.81
   1  10   9    2.81    0.95
  -1 -10  -9    4.19    0.94
  -1 -10 -10    1.45    0.72
  -1 -10 -10    1.84    0.84
  -1 -10 -10    1.93    0.74
  -1 -10 -10    3.22    0.82
   1  10  10    1.44    0.82
  -1 -10 -11   14.79    1.45
  -1 -10 -11   15.65    1.60
  -1 -10 -11   18.17    1.56
   1  10  11   15.51    1.59
  -1 -10 -12    2.97    0.75
  -1 -10 -12    1.94    0.75
  -1 -10 -12    3.09    0.72
   1  10  12    2.23    0.80
  -1 -10 -13    0.47    0.50
  -1 -10 -13    0.65    0.57
  -1 -10 -13    0.77    0.49
   1  10  13    0.38    0.58
  -1 -10 -14    5.59    0.87
  -1 -10 -14    4.96    0.76
   1  10  14    6.29    0.94
  -1 -10 -15    0.75    0.47
   1  10  15    1.03    0.52
  -1 -10 -15    0.15    0.36
  -1 -10 -16    1.31    0.44
   1  10  16    1.22    0.43
  -1 -11   9    0.63    0.37
  -1 -11   8    1.84    0.51
  -1 -11   7    2.83    0.63
   1  11  -7    4.49    0.59
  -1 -11   7    3.24    0.71
  -1 -11   6    4.16    0.83
   1  11  -6    6.36    0.74
  -1 -11   6    4.11    0.74
  -1 -11   5    4.85    0.81
  -1 -11   5    6.80    0.88
  -1 -11   5    5.44    0.74
   1  11  -5    6.12    0.76
  -1 -11   5    4.47    0.92
   1  11  -4    2.13    0.60
  -1 -11   4    1.52    0.74
  -1 -11   4    2.00    0.58
  -1 -11   4    2.05    0.65
  -1 -11   4    1.64    0.63
  -1 -11   3    2.18    0.80
  -1 -11   3    2.30    0.65
  -1 -11   3    2.62    0.77
  -1 -11   3    2.64    0.70
  -1 -11   2    8.07    1.26
  -1 -11   2    8.16    1.06
  -1 -11   2    8.74    1.08
  -1 -11   2    8.99    1.30
  -1 -11   1   31.66    2.37
  -1 -11   1   35.16    1.95
  -1 -11   1   33.64    2.00
  -1 -11   0    4.07    0.87
  -1 -11   0    3.26    1.08
  -1 -11   0    3.36    0.76
  -1 -11   0    3.79    0.84
  -1 -11  -1    0.35    0.61
  -1 -11  -1    0.51    0.79
  -1 -11  -1    0.29    0.57
  -1 -11  -2   20.09    1.66
  -1 -11  -2   19.15    1.64
  -1 -11  -2   20.39    2.13
  -1 -11  -3  145.79    4.57
  -1 -11  -3  152.37    4.99
  -1 -11  -3  143.21    4.41
  -1 -11  -4  107.02    3.87
  -1 -11  -4  110.07    4.11
  -1 -11  -5   29.66    2.05
   1  11   5   32.74    2.24
  -1 -11  -5   33.35    2.24
  -1 -11  -6    8.45    1.14
  -1 -11  -6    8.42    1.18
  -1 -11  -6    9.82    1.22
  -1 -11  -6   10.33    1.32
   1  11   6    8.09    1.24
  -1 -11  -7    1.40    0.68
  -1 -11  -7    2.60    0.81
  -1 -11  -7    1.76    0.66
   1  11   7    1.74    0.73
  -1 -11  -7    3.86    0.85
  -1 -11  -8    4.16    0.94
  -1 -11  -8    2.84    0.82
  -1 -11  -8    2.22    0.67
  -1 -11  -8    3.59    0.76
   1  11   8    2.68    0.73
  -1 -11  -9    1.42    0.62
   1  11   9    1.87    0.68
  -1 -11  -9    1.32    0.62
  -1 -11  -9    1.71    0.61
  -1 -11  -9    1.59    0.59
   1  11  10    0.39    0.54
  -1 -11 -10   -0.01    0.47
  -1 -11 -10   -0.42    0.53
  -1 -11 -10    0.08    0.46
  -1 -11 -11    3.99    0.70
  -1 -11 -11    2.91    0.66
  -1 -11 -11    3.77    0.63
  -1 -11 -11    2.45    0.65
   1  11  11    3.49    0.73
  -1 -11 -12    3.67    0.61
  -1 -11 -12    2.37    0.59
   1  11  12    2.70    0.64
  -1 -11 -12    2.82    0.56
  -1 -11 -13    2.29    0.51
   1  11  13    2.22    0.53
  -1 -11 -13    1.75    0.46
  -1 -12   4    2.62    0.56
  -1 -12   3    2.69    0.64
  -1 -12   3    2.28    0.58
  -1 -12   2    4.30    0.78
  -1 -12   2    5.67    0.81
  -1 -12   2    5.30    0.71
  -1 -12   1    0.46    0.53
  -1 -12   1    0.20    0.43
  -1 -12   1    1.16    0.52
  -1 -12   0    0.46    0.52
  -1 -12   0    0.26    0.48
  -1 -12   0   -0.08    0.50
  -1 -12  -1    3.98    0.66
  -1 -12  -1    3.25    0.84
  -1 -12  -1    3.26    0.67
  -1 -12  -1    2.94    0.70
  -1 -12  -2    3.28    0.65
  -1 -12  -2    3.13    0.69
   1  12   2    2.82    0.66
  -1 -12  -2    2.80    0.70
  -1 -12  -2    3.24    0.82
  -1 -12  -3    3.72    0.71
  -1 -12  -3    4.14    0.77
  -1 -12  -3    4.15    0.74
   1  12   3    3.70    0.75
  -1 -12  -3    3.51    0.76
  -1 -12  -4   23.21    1.45
  -1 -12  -4   20.39    1.44
  -1 -12  -4   21.53    1.44
  -1 -12  -4   21.67    1.45
  -1 -12  -4   26.98    1.26
   1  12   4   22.72    1.46
  -1 -12  -5   17.86    1.31
  -1 -12  -5   17.64    1.25
  -1 -12  -5   17.43    1.23
   1  12   5   17.33    1.26
  -1 -12  -5   18.07    1.09
  -1 -12  -5   15.89    1.21
  -1 -12  -6    6.37    0.82
  -1 -12  -6    5.29    0.72
  -1 -12  -6    5.26    0.70
  -1 -12  -6    5.74    0.68
  -1 -12  -6    7.91    0.85
   1  12   6    5.46    0.76
  -1 -12  -7    6.32    0.75
  -1 -12  -7    7.35    0.76
  -1 -12  -7    6.63    0.82
  -1 -12  -7    7.10    0.74
   1  12   7    6.65    0.79
  -1 -12  -7    7.00    0.75
  -1 -12  -8    7.93    0.83
  -1 -12  -8    7.97    0.77
  -1 -12  -8    7.12    0.71
   1  12   8    7.36    0.78
  -1 -12  -9    4.43    0.60
  -1 -12  -9    4.12    0.53
   2 -10  -5   11.39    0.91
   2 -10  -4    3.35    0.64
   2 -10  -4    1.37    0.46
   2 -10  -3    0.07    0.41
   2 -10  -3   -1.30    0.55
   2 -10  -2    3.75    0.66
   2 -10  -2    0.64    0.46
   2 -10  -1    2.54    0.60
   2 -10  -1   -0.45    0.54
   2 -10   0    9.50    0.80
   2 -10   0    8.92    0.83
   2 -10   1   21.33    1.19
   2 -10   1   21.43    1.18
   2 -10   2    6.15    0.68
   2 -10   3   10.26    0.81
   2  -9 -10    1.95    0.47
   2  -9  -9    9.84    0.92
   2  -9  -9    7.17    0.77
   2  -9  -8   20.13    1.40
   2  -9  -8   16.44    1.15
   2  -9  -8   20.81    1.20
   2  -9  -7   37.29    1.97
   2  -9  -7   33.49    1.65
   2  -9  -7   34.77    1.73
   2  -9  -6   24.19    1.72
   2  -9  -6   21.38    1.37
   2  -9  -6   23.38    1.55
   2  -9  -5   22.20    1.69
   2  -9  -5   20.06    1.33
   2  -9  -5   21.36    1.58
   2  -9  -4    0.57    0.64
   2  -9  -4    1.55    0.56
   2  -9  -4    1.43    0.68
   2  -9  -4   -0.04    0.56
   2  -9  -3   30.88    2.05
   2  -9  -3   30.44    1.74
   2  -9  -3   29.41    1.95
   2  -9  -2   18.34    1.54
   2  -9  -2   16.09    1.34
   2  -9  -2   17.91    1.62
   2  -9  -2   16.55    1.52
   2  -9  -1    1.47    0.70
   2  -9  -1    0.95    0.73
   2  -9  -1   -0.04    0.55
   2  -9   0   14.46    1.42
   2  -9   0   14.16    1.35
   2  -9   0   12.96    1.32
   2  -9   0   11.96    1.31
   2  -9   0   14.60    1.26
   2  -9   1   11.48    1.28
   2  -9   1   11.41    1.21
   2  -9   1   10.49    1.18
   2  -9   1   10.15    1.21
   2  -9   1   10.79    1.13
   2  -9   2    0.96    0.61
   2  -9   2    1.03    0.60
   2  -9   2    1.67    0.71
   2  -9   2    2.25    0.72
   2  -9   2    1.32    0.64
   2  -9   3    1.65    0.69
   2  -9   3    0.88    0.60
   2  -9   3    1.43    0.64
   2  -9   3    0.07    0.55
   2  -9   3    0.04    0.53
   2  -9   4    5.04    0.82
   2  -9   4    4.99    0.87
   2  -9   4    3.51    0.66
   2  -9   4    5.94    0.87
   2  -9   5    4.84    0.77
   2  -9   5    4.29    0.81
   2  -9   5    3.52    0.62
   2  -9   5    4.34    0.78
   2  -9   6   10.57    0.98
   2  -9   6    9.72    1.02
   2  -9   6   10.64    1.06
   2  -9   7    3.53    0.58
   2  -9   7    4.18    0.70
   2  -9   7    3.01    0.63
   2  -9   8    2.78    0.56
   2  -9   8    3.61    0.56
   2  -9   9    4.33    0.60
   2  -8 -13    1.50    0.47
   2  -8 -12    0.39    0.37
   2  -8 -12    0.47    0.43
   2  -8 -11    3.44    0.70
   2  -8 -11    3.66    0.69
   2  -8 -11    3.53    0.56
   2  -8 -10    1.25    0.63
   2  -8 -10    0.86    0.55
   2  -8 -10    0.68    0.44
   2  -8 -10    0.01    0.49
   2  -8  -9    0.48    0.54
   2  -8  -9    0.72    0.52
   2  -8  -9    0.34    0.45
   2  -8  -9    0.71    0.69
   2  -8  -8    0.40    0.69
   2  -8  -8    0.45    0.54
   2  -8  -8   -1.52    0.79
   2  -8  -7    9.50    1.36
   2  -8  -7    7.63    1.08
   2  -8  -7    9.53    1.20
   2  -8  -6    6.09    1.10
   2  -8  -6    6.01    1.13
   2  -8  -6    4.05    0.89
   2  -8  -6    4.78    0.89
   2  -8  -5   15.14    1.68
   2  -8  -5   13.72    1.37
   2  -8  -5   12.08    1.31
   2  -8  -5   13.48    1.56
   2  -8  -4   12.73    1.56
   2  -8  -4   11.35    1.56
   2  -8  -4   10.72    1.24
   2  -8  -4   11.06    1.27
   2  -8  -4   11.96    1.52
   2  -8  -3    0.28    0.73
   2  -8  -3    2.63    1.01
   2  -8  -3    0.54    0.66
   2  -8  -3    0.08    0.58
   2  -8  -3    0.20    0.76
   2  -8  -2   11.97    1.53
   2  -8  -2   11.91    1.29
   2  -8  -2   13.43    1.52
   2  -8  -2   11.95    1.55
   2  -8  -2   14.24    1.47
   2  -8  -2   11.79    1.59
   2  -8  -1    2.38    0.95
   2  -8  -1    3.98    1.07
   2  -8  -1    4.07    1.03
   2  -8  -1    3.68    1.05
   2  -8  -1    3.15    0.92
   2  -8   0   18.87    1.86
   2  -8   0   17.68    1.74
   2  -8   0   17.51    1.75
   2  -8   0   17.04    1.77
   2  -8   0   18.83    1.78
   2  -8   1    1.56    0.92
   2  -8   1    0.10    0.68
   2  -8   1    0.62    0.78
   2  -8   1    0.60    0.76
   2  -8   1    1.19    0.80
   2  -8   2    2.16    0.85
   2  -8   2    1.59    0.72
   2  -8   2    2.22    0.83
   2  -8   2    1.80    0.84
   2  -8   2    2.04    0.92
   2  -8   3    2.46    0.89
   2  -8   3    0.94    0.63
   2  -8   3    0.83    0.72
   2  -8   3    1.33    0.73
   2  -8   3    2.20    0.81
   2  -8   4    5.72    1.05
   2  -8   4    2.28    0.72
   2  -8   4    2.82    0.89
   2  -8   4    3.12    0.89
   2  -8   4    2.79    0.82
   2  -8   5    0.50    0.60
   2  -8   5    1.18    0.78
   2  -8   5    0.25    0.58
   2  -8   5    2.47    0.79
   2  -8   6    0.50    0.66
   2  -8   6    1.40    0.71
   2  -8   6    0.52    0.62
   2  -8   7    1.23    0.54
   2  -8   7    1.93    0.71
   2  -8   7    0.76    0.58
   2  -8   8    1.10    0.53
   2  -8   8    2.08    0.65
   2  -8   8    1.02    0.63
   2  -8   8    1.80    0.69
   2  -8   9    8.27    0.95
   2  -8   9    9.59    1.06
   2  -8   9    8.03    1.02
   2  -8  10    1.07    0.46
   2  -8  10    1.69    0.52
   2  -8  10    1.74    0.57
   2  -8  10    1.46    0.55
   2  -8  11    1.66    0.48
   2  -8  11    1.26    0.50
   2  -8  12    2.69    0.51
   2  -7 -15    0.20    0.31
   2  -7 -14    0.05    0.42
   2  -7 -14    0.71    0.41
   2  -7 -14    1.48    0.53
   2  -7 -13    0.95    0.56
   2  -7 -13    1.44    0.60
   2  -7 -13    0.83    0.45
   2  -7 -12    8.72    1.11
   2  -7 -12    8.39    1.07
   2  -7 -12    6.21    0.81
   2  -7 -11    3.00    0.82
   2  -7 -11    1.11    0.67
   2  -7 -11    1.29    0.68
   2  -7 -11    0.82    0.54
   2  -7 -10    4.22    0.99
   2  -7 -10    2.59    0.80
   2  -7 -10    2.02    0.77
   2  -7 -10    1.72    0.61
   2  -7  -9    0.65    0.74
   2  -7  -9    0.79    0.64
   2  -7  -9   -0.71    0.61
   2  -7  -9   -1.47    0.92
   2  -7  -9   -0.07    0.62
   2  -7  -8   20.43    1.95
   2  -7  -8   18.63    1.70
   2  -7  -8   16.39    1.65
   2  -7  -8   13.89    1.25
   2  -7  -8   23.30    1.88
   2  -7  -7   14.60    1.75
   2  -7  -7   13.32    1.50
   2  -7  -7   12.92    1.41
   2  -7  -7   11.06    1.43
   2  -7  -7   14.04    1.61
   2  -7  -7    9.01    1.09
   2  -7  -6    8.54    1.44
   2  -7  -6    8.11    1.45
   2  -7  -6    5.68    0.91
   2  -7  -6    5.10    1.05
   2  -7  -6    8.79    1.43
   2  -7  -6    5.89    1.16
   2  -7  -5    9.24    1.53
   2  -7  -5   10.28    1.54
   2  -7  -5    7.66    1.23
   2  -7  -5    7.10    1.21
   2  -7  -5   10.98    1.54
   2  -7  -4    1.14    0.89
   2  -7  -4    0.72    0.76
   2  -7  -4    0.14    0.69
   2  -7  -4    0.51    0.88
   2  -7  -4    1.95    0.88
   2  -7  -4    2.41    1.03
   2  -7  -3   16.94    2.03
   2  -7  -3   15.82    1.83
   2  -7  -3   12.57    1.52
   2  -7  -3   16.84    1.86
   2  -7  -3   17.68    1.95
   2  -7  -3   16.40    1.81
   2  -7  -2    2.32    1.08
   2  -7  -2    1.66    0.94
   2  -7  -2    1.63    0.84
   2  -7  -2    2.61    1.04
   2  -7  -2    2.20    1.07
   2  -7  -2    1.72    0.99
   2  -7  -1   25.56    2.19
   2  -7  -1   32.87    2.21
   2  -7  -1   27.42    2.00
   2  -7  -1   27.30    2.29
   2  -7  -1   25.74    2.27
   2  -7  -1   27.12    2.29
   2  -7  -1   26.66    2.44
   2  -7   0    6.37    1.20
   2  -7   0    9.48    1.46
   2  -7   0    8.23    1.44
   2  -7   0    8.99    1.47
   2  -7   0    8.20    1.49
   2  -7   1    8.92    1.59
   2  -7   1    9.88    1.46
   2  -7   1    9.89    1.54
   2  -7   1    9.87    1.60
   2  -7   1   11.94    1.65
   2  -7   2   12.98    1.74
   2  -7   2    9.96    1.38
   2  -7   2   17.29    1.55
   2  -7   2   11.74    1.66
   2  -7   2   13.37    1.69
   2  -7   2   10.83    1.49
   2  -7   3   17.23    1.49
   2  -7   3   12.42    1.66
   2  -7   3   15.53    1.80
   2  -7   3   13.99    1.68
   2  -7   3   13.69    1.64
   2  -7   3   12.27    1.60
   2  -7   4    0.55    0.79
   2  -7   4    0.76    0.80
   2  -7   4    2.29    0.89
   2  -7   4    1.09    0.80
   2  -7   4    0.20    0.70
   2  -7   4    0.33    0.78
   2  -7   5    0.95    0.82
   2  -7   5    2.79    0.87
   2  -7   5   -0.34    0.66
   2  -7   5    0.06    0.72
   2  -7   5    0.61    0.70
   2  -7   6    2.34    0.90
   2  -7   6    3.06    0.89
   2  -7   6    2.20    0.92
   2  -7   6    2.01    0.80
   2  -7   6    0.45    0.67
   2  -7   7   12.37    1.38
   2  -7   7   10.17    1.41
   2  -7   7    8.50    1.29
   2  -7   7    7.83    1.25
   2  -7   8   -0.09    0.58
   2  -7   8    0.53    0.62
   2  -7   8    0.37    0.64
   2  -7   8   -0.06    0.69
   2  -7   9    0.08    0.59
   2  -7   9    0.62    0.58
   2  -7   9   -0.11    0.56
   2  -7   9    0.07    0.62
   2  -7  10    0.54    0.64
   2  -7  10    0.14    0.50
   2  -7  10    1.24    0.67
   2  -7  10    0.56    0.59
   2  -7  11    2.71    0.74
   2  -7  11    2.70    0.72
   2  -7  11    2.72    0.68
   2  -7  11    2.14    0.69
   2  -7  12    7.44    0.96
   2  -7  12    8.25    1.02
   2  -7  12    6.43    0.90
   2  -7  13    5.13    0.78
   2  -7  13    5.44    0.77
   2  -7  13    4.92    0.73
   2  -7  14   11.25    0.90
   2  -7  14   12.03    0.87
   2  -6 -16    4.48    0.71
   2  -6 -16    4.30    0.59
   2  -6 -15    1.72    0.67
   2  -6 -15    1.53    0.54
   2  -6 -14    5.63    0.99
   2  -6 -14    6.18    0.90
   2  -6 -14    4.70    0.76
   2  -6 -13    0.28    0.53
   2  -6 -13    0.10    0.68
   2  -6 -13    0.59    0.54
   2  -6 -12    4.96    1.05
   2  -6 -12    4.12    0.81
   2  -6 -12    4.06    0.93
   2  -6 -11    3.64    1.03
   2  -6 -11    3.19    0.95
   2  -6 -11    0.98    0.72
   2  -6 -11    0.25    0.56
   2  -6 -10    4.77    1.19
   2  -6 -10    3.41    0.97
   2  -6 -10    2.39    0.92
   2  -6 -10    3.51    0.83
   2  -6  -9   46.62    2.93
   2  -6  -9   42.10    2.69
   2  -6  -9   32.90    2.44
   2  -6  -9   30.59    2.00
   2  -6  -9   43.35    2.57
   2  -6  -8    2.22    0.97
   2  -6  -8    0.43    0.65
   2  -6  -8    0.53    0.65
   2  -6  -8   -0.20    0.80
   2  -6  -8    0.06    0.72
   2  -6  -7    0.58    0.93
   2  -6  -7    1.87    0.93
   2  -6  -7   -0.31    0.83
   2  -6  -7    0.23    0.62
   2  -6  -7    2.08    0.97
   2  -6  -7   -0.03    0.85
   2  -6  -6    0.94    0.87
   2  -6  -6    2.05    1.18
   2  -6  -6   -0.23    1.01
   2  -6  -6    0.76    0.75
   2  -6  -6    0.30    0.61
   2  -6  -6    1.24    0.96
   2  -6  -5   -0.30    0.92
   2  -6  -5    1.43    1.02
   2  -6  -5   -1.09    1.14
   2  -6  -5   -0.29    0.80
   2  -6  -5   -0.33    0.75
   2  -6  -5    0.67    0.97
   2  -6  -5    2.71    0.92
   2  -6  -4   28.15    2.45
   2  -6  -4   28.21    1.87
   2  -6  -4   37.46    2.22
   2  -6  -4   38.59    2.14
   2  -6  -4   30.55    2.64
   2  -6  -4   31.41    2.58
   2  -6  -4   24.82    2.12
   2  -6  -4   35.13    2.66
   2  -6  -4   31.53    2.48
   2  -6  -3  104.54    4.64
   2  -6  -3  114.34    4.29
   2  -6  -3  139.65    4.38
   2  -6  -3   96.28    4.19
   2  -6  -3  110.07    4.76
   2  -6  -3  112.28    4.93
   2  -6  -3  114.00    4.71
   2  -6  -3  127.87    4.06
   2  -6  -3  110.77    4.97
   2  -6  -3  140.22    4.07
   2  -6  -2  273.32    8.13
   2  -6  -2  284.53    7.97
   2  -6  -2  295.36    7.14
   2  -6  -2  267.76    7.23
   2  -6  -2  294.75    8.11
   2  -6  -2  286.41    8.09
   2  -6  -2  294.53    7.95
   2  -6  -2  320.77    6.76
   2  -6  -2  342.86    6.71
   2  -6  -1  458.22   11.07
   2  -6  -1  472.61   10.83
   2  -6  -1  501.09    9.67
   2  -6  -1  505.92   10.05
   2  -6  -1  502.12   10.99
   2  -6  -1  453.96   10.75
   2  -6  -1  484.61   10.72
   2  -6  -1  495.36    9.05
   2  -6  -1  514.53    8.83
   2  -6   0    9.68    1.64
   2  -6   0    8.75    1.48
   2  -6   0   14.73    1.68
   2  -6   0   12.43    1.48
   2  -6   0    9.41    1.66
   2  -6   0   10.31    1.63
   2  -6   0   12.11    1.70
   2  -6   0   17.76    1.77
   2  -6   0   18.64    1.76
   2  -6   1  118.34    5.11
   2  -6   1  116.53    4.85
   2  -6   1  122.14    4.17
   2  -6   1  118.67    4.80
   2  -6   1  106.17    4.63
   2  -6   1  109.48    4.64
   2  -6   1  110.79    3.86
   2  -6   1  115.13    3.72
   2  -6   2   19.02    2.09
   2  -6   2   18.26    2.11
   2  -6   2   20.90    1.80
   2  -6   2   18.95    2.03
   2  -6   2   17.48    1.95
   2  -6   2   16.32    1.98
   2  -6   2   27.68    2.21
   2  -6   2   26.34    2.07
   2  -6   3   40.18    2.85
   2  -6   3   37.87    2.73
   2  -6   3   41.19    2.34
   2  -6   3   37.05    2.70
   2  -6   3   39.33    2.70
   2  -6   3   33.40    2.54
   2  -6   4    1.33    0.97
   2  -6   4    1.45    0.90
   2  -6   4    0.73    0.75
   2  -6   4    0.95    0.74
   2  -6   4    2.53    1.03
   2  -6   4    0.63    0.73
   2  -6   5    1.77    1.02
   2  -6   5    0.46    0.75
   2  -6   5   -0.56    0.83
   2  -6   5    0.29    0.71
   2  -6   5    0.98    0.89
   2  -6   5   -0.93    0.82
   2  -6   6    3.74    1.09
   2  -6   6    3.64    1.05
   2  -6   6    3.42    0.80
   2  -6   6    3.05    0.98
   2  -6   6    5.56    1.13
   2  -6   6    1.38    0.73
   2  -6   7    2.19    0.88
   2  -6   7    1.93    0.84
   2  -6   7    0.97    0.74
   2  -6   7    0.37    0.77
   2  -6   7    0.98    0.76
   2  -6   8    1.73    0.86
   2  -6   8    2.19    0.88
   2  -6   8    1.46    0.82
   2  -6   8    0.93    0.70
   2  -6   9    3.44    0.99
   2  -6   9    3.93    0.97
   2  -6   9    3.19    0.94
   2  -6   9    1.92    0.79
   2  -6  10   33.59    2.43
   2  -6  10   36.07    2.48
   2  -6  10   34.74    2.31
   2  -6  10   28.31    2.15
   2  -6  11   -0.17    0.66
   2  -6  11    0.02    0.57
   2  -6  11   -0.06    0.63
   2  -6  11    1.23    0.65
   2  -6  12    6.57    1.12
   2  -6  12    6.54    1.13
   2  -6  12    4.74    0.88
   2  -6  13    2.93    0.90
   2  -6  13    2.08    0.78
   2  -6  13    2.94    0.71
   2  -6  14    0.93    0.56
   2  -6  14    1.03    0.55
   2  -6  14    1.46    0.55
   2  -6  15   34.61    1.86
   2  -6  15   32.72    1.71
   2  -6  16   18.01    1.17
   2  -6  16   17.35    1.05
   2  -5 -17   18.17    1.08
   2  -5 -17   22.06    1.09
   2  -5 -16    0.47    0.51
   2  -5 -16   -0.12    0.52
   2  -5 -16    0.11    0.48
   2  -5 -15    1.81    0.60
   2  -5 -15    1.79    0.74
   2  -5 -15    3.13    0.74
   2  -5 -15    0.99    0.55
   2  -5 -14    7.41    0.92
   2  -5 -14    7.24    1.19
   2  -5 -14    8.95    1.16
   2  -5 -14    8.62    1.01
   2  -5 -14    5.93    0.94
   2  -5 -13    0.46    0.59
   2  -5 -13    1.26    0.80
   2  -5 -13    1.42    0.72
   2  -5 -13    1.60    0.71
   2  -5 -12   29.07    1.85
   2  -5 -12   30.45    2.37
   2  -5 -12   25.38    1.84
   2  -5 -12   29.75    2.18
   2  -5 -11   20.88    1.72
   2  -5 -11   26.92    2.34
   2  -5 -11   25.05    2.16
   2  -5 -11   20.05    1.71
   2  -5 -10    6.71    1.33
   2  -5 -10    5.05    1.04
   2  -5 -10    8.71    1.50
   2  -5 -10    4.27    1.01
   2  -5 -10    6.88    1.29
   2  -5  -9   12.54    1.73
   2  -5  -9    8.71    1.22
   2  -5  -9    9.50    1.45
   2  -5  -9    7.61    1.31
   2  -5  -9    5.94    1.09
   2  -5  -9   10.99    1.40
   2  -5  -8    1.86    1.07
   2  -5  -8    1.20    1.14
   2  -5  -8    0.87    0.77
   2  -5  -8    4.14    1.18
   2  -5  -8    1.81    0.86
   2  -5  -8    0.52    0.76
   2  -5  -8    0.44    0.70
   2  -5  -7    7.05    1.53
   2  -5  -7    6.66    1.55
   2  -5  -7    4.99    1.10
   2  -5  -7    5.47    1.09
   2  -5  -7    6.13    1.28
   2  -5  -7    5.37    1.29
   2  -5  -7    9.66    1.53
   2  -5  -6    1.88    1.03
   2  -5  -6    4.14    1.42
   2  -5  -6    6.48    1.52
   2  -5  -6    2.75    1.04
   2  -5  -6    3.97    1.04
   2  -5  -6    8.44    1.51
  -2   5   6    3.99    2.02
   2  -5  -6    3.80    0.89
   2  -5  -6    2.67    1.22
   2  -5  -5   10.86    1.59
   2  -5  -5   16.80    1.79
   2  -5  -5   11.55    1.42
   2  -5  -5    8.59    1.52
   2  -5  -5    8.34    1.35
   2  -5  -5   11.90    1.75
   2  -5  -5    9.94    1.16
   2  -5  -5   14.03    1.74
  -2   5   5   12.15    2.63
   2  -5  -5   10.32    1.68
   2  -5  -5   10.23    1.32
   2  -5  -5    7.66    1.04
   2  -5  -4    8.38    1.58
   2  -5  -4    7.19    1.41
   2  -5  -4   10.50    1.60
   2  -5  -4    9.14    1.37
   2  -5  -4    6.29    1.25
   2  -5  -4    7.79    1.59
   2  -5  -4    7.41    1.17
   2  -5  -4   11.96    1.71
   2  -5  -4    7.48    1.52
   2  -5  -4    7.00    1.06
   2  -5  -4    5.36    0.93
   2  -5  -3    3.92    1.45
   2  -5  -3    3.90    1.24
   2  -5  -3    6.79    1.44
   2  -5  -3    6.17    1.41
   2  -5  -3    4.20    1.23
   2  -5  -3    5.93    1.08
   2  -5  -3    3.84    1.31
   2  -5  -3    5.32    1.43
   2  -5  -3    4.37    1.37
   2  -5  -3    4.27    1.04
   2  -5  -3    1.68    0.83
   2  -5  -2    4.18    1.50
   2  -5  -2    4.17    1.24
   2  -5  -2    3.09    1.18
   2  -5  -2    6.24    1.37
   2  -5  -2    7.25    1.19
   2  -5  -2    3.89    1.33
   2  -5  -2    4.22    1.42
   2  -5  -2    7.82    1.34
   2  -5  -2    2.92    1.21
   2  -5  -2    6.21    1.24
   2  -5  -1  140.00    5.54
   2  -5  -1  146.90    5.34
   2  -5  -1  148.69    4.78
   2  -5  -1  153.24    4.70
   2  -5  -1  154.31    5.08
   2  -5  -1  147.19    5.39
   2  -5  -1  136.95    5.30
   2  -5  -1  147.60    4.45
   2  -5  -1  151.71    4.42
   2  -5  -1  138.30    5.28
   2  -5   0   96.01    4.58
   2  -5   0  103.45    4.37
   2  -5   0   97.94    3.84
   2  -5   0  108.14    3.90
   2  -5   0   94.98    4.36
   2  -5   0   95.58    4.35
   2  -5   0   95.81    4.30
   2  -5   0   99.87    3.61
   2  -5   0  103.70    3.62
   2  -5   1   49.84    3.38
   2  -5   1   54.91    2.85
   2  -5   1   48.08    3.08
   2  -5   1   50.59    2.78
   2  -5   1   50.45    4.17
   2  -5   1   48.11    3.15
   2  -5   1   53.22    2.75
   2  -5   1   43.83    3.00
   2  -5   1   56.65    4.66
  -2   5  -1   65.06    4.50
   2  -5   1   46.05    3.10
   2  -5   2  272.50    7.71
   2  -5   2  252.57    7.11
   2  -5   2  256.15    6.45
   2  -5   2  290.58    5.77
   2  -5   2  244.26    7.09
   2  -5   2  241.33    7.05
   2  -5   2  227.02    6.86
   2  -5   2  240.19    5.83
   2  -5   2  256.24    9.25
   2  -5   2  229.98    5.69
   2  -5   3   14.19    1.81
   2  -5   3   14.92    1.75
   2  -5   3   13.08    1.36
   2  -5   3   18.34    1.61
   2  -5   3   14.65    1.71
   2  -5   3   15.54    2.43
   2  -5   3   15.17    1.78
   2  -5   3   12.69    1.67
   2  -5   3   19.17    1.80
  -2   5  -3   19.51    2.57
   2  -5   3   19.07    1.73
   2  -5   4    0.69    1.03
   2  -5   4   -0.01    0.96
   2  -5   4   -0.23    0.69
  -2   5  -4   -0.11    1.25
   2  -5   4    1.13    0.88
   2  -5   4    6.16    1.17
   2  -5   4    1.53    1.03
   2  -5   4    7.72    1.49
   2  -5   4   -0.41    0.70
   2  -5   4    1.31    0.92
   2  -5   4    7.43    1.51
   2  -5   5    8.89    1.51
   2  -5   5    5.24    1.17
   2  -5   5    8.01    1.23
  -2   5  -5    7.14    1.90
   2  -5   5    8.15    1.27
   2  -5   5    6.31    1.73
   2  -5   5    5.02    1.12
   2  -5   5    7.21    1.31
   2  -5   5    4.29    1.17
   2  -5   6   49.23    3.18
   2  -5   6   57.92    2.84
   2  -5   6   59.62    3.36
   2  -5   6   42.31    2.40
   2  -5   6   65.40    3.31
   2  -5   6   42.61    2.81
   2  -5   6   45.30    2.99
  -2   5  -6   75.64    5.18
   2  -5   7   80.72    4.11
   2  -5   7   93.56    4.28
   2  -5   7   99.53    3.73
   2  -5   7   75.50    3.83
   2  -5   7   72.33    3.67
   2  -5   8   82.80    4.13
   2  -5   8   87.09    4.14
   2  -5   8   75.03    3.78
   2  -5   8   78.46    3.77
   2  -5   9    4.20    0.95
   2  -5   9    2.30    0.94
   2  -5   9    2.40    0.94
   2  -5   9    2.41    0.86
   2  -5   9    1.95    0.82
   2  -5  10    1.68    0.92
   2  -5  10    1.72    0.91
   2  -5  10    1.75    0.88
   2  -5  10    1.80    0.88
   2  -5  10    1.74    0.84
   2  -5  11    1.93    0.89
   2  -5  11    2.91    1.00
   2  -5  11    1.78    0.77
   2  -5  12   13.60    1.69
   2  -5  12   13.48    1.71
   2  -5  12   13.99    1.51
   2  -5  13    1.41    0.85
   2  -5  13    0.94    0.83
   2  -5  13    0.97    0.67
   2  -5  14    0.55    0.67
   2  -5  14    0.22    0.60
   2  -5  14    0.06    0.51
   2  -5  15    4.64    1.00
   2  -5  15    4.81    0.95
   2  -5  16    1.01    0.58
   2  -5  16    0.69    0.61
   2  -5  17    5.71    0.76
   2  -5  17    6.07    0.87
   2  -4 -18    0.45    0.40
   2  -4 -18    0.19    0.47
   2  -4 -18    0.89    0.41
   2  -4 -17    2.47    0.64
   2  -4 -17    2.32    0.57
   2  -4 -17    1.80    0.68
   2  -4 -17    1.82    0.53
   2  -4 -16   -0.05    0.55
   2  -4 -16   -0.22    0.55
   2  -4 -16    0.43    0.61
   2  -4 -16   -0.26    0.57
   2  -4 -15   -0.09    0.62
   2  -4 -15   -0.12    0.59
   2  -4 -15   -0.41    0.70
   2  -4 -15    1.04    0.62
   2  -4 -15    0.05    0.58
   2  -4 -14    5.21    1.02
   2  -4 -14    5.74    1.22
   2  -4 -14    6.83    1.19
   2  -4 -14    4.20    0.92
   2  -4 -13    5.71    1.08
   2  -4 -13    6.39    1.26
   2  -4 -13    6.14    1.01
   2  -4 -13    7.79    1.18
   2  -4 -12    2.33    0.90
   2  -4 -12    2.50    1.03
   2  -4 -12    2.83    0.96
   2  -4 -12    1.41    0.74
   2  -4 -11    3.84    1.00
   2  -4 -11    3.76    1.12
   2  -4 -11    3.46    1.03
   2  -4 -11    1.93    0.84
   2  -4 -10    0.82    0.81
   2  -4 -10    0.93    0.83
   2  -4 -10    0.54    0.76
   2  -4 -10    0.51    0.66
   2  -4  -9   19.22    2.04
   2  -4  -9    9.75    1.43
   2  -4  -9   14.84    1.81
   2  -4  -9   10.86    1.51
  -2   4   9   14.57    2.89
   2  -4  -9    8.78    1.27
   2  -4  -8    1.58    0.83
   2  -4  -8    1.74    1.14
   2  -4  -8    1.54    0.80
   2  -4  -8    2.46    1.02
   2  -4  -8    0.98    0.76
   2  -4  -8    2.66    1.22
   2  -4  -8    1.03    0.81
   2  -4  -8    3.87    1.15
  -2   4   8    2.22    1.63
   2  -4  -8    2.46    0.98
   2  -4  -7    2.50    0.90
   2  -4  -7    2.65    1.28
   2  -4  -7    3.75    1.27
   2  -4  -7    3.42    1.63
   2  -4  -7    1.79    0.87
   2  -4  -7    1.89    1.08
   2  -4  -7    2.03    0.94
   2  -4  -7    8.49    1.44
  -2   4   7    3.33    1.94
   2  -4  -7    4.26    1.15
   2  -4  -7    3.94    1.14
   2  -4  -6    2.74    0.94
   2  -4  -6    2.72    1.08
   2  -4  -6    2.97    1.12
   2  -4  -6    1.25    0.79
   2  -4  -6    4.03    1.39
   2  -4  -6    1.99    0.79
   2  -4  -6    2.11    0.85
   2  -4  -6    0.59    0.89
   2  -4  -6    3.31    1.13
  -2   4   6    2.30    1.47
   2  -4  -6    3.17    0.97
   2  -4  -5    0.85    0.89
   2  -4  -5    0.78    0.83
   2  -4  -5    1.43    0.93
   2  -4  -5    3.48    1.13
   2  -4  -5    0.71    0.78
   2  -4  -5    1.86    0.99
   2  -4  -5   -1.06    1.21
   2  -4  -5    1.15    1.04
   2  -4  -5    0.93    0.77
   2  -4  -5    0.38    1.16
   2  -4  -5    0.60    0.82
  -2   4   5   -0.27    1.04
   2  -4  -4    6.30    1.13
   2  -4  -4    4.73    1.21
   2  -4  -4    4.15    1.09
   2  -4  -4    5.34    1.19
   2  -4  -4    4.44    1.63
   2  -4  -4    4.78    0.98
   2  -4  -4    1.81    0.75
   2  -4  -4    5.22    1.34
   2  -4  -4    7.02    1.30
  -2   4   4    4.58    1.52
   2  -4  -4    4.73    1.27
   2  -4  -4    6.54    1.14
   2  -4  -4    5.14    1.00
   2  -4  -3    5.42    1.66
   2  -4  -3    2.52    1.27
   2  -4  -3    4.06    1.26
   2  -4  -3    3.48    1.31
   2  -4  -3    8.01    2.09
   2  -4  -3    4.46    1.64
   2  -4  -3    8.26    1.41
   2  -4  -3    7.47    1.30
   2  -4  -3    6.89    1.75
  -2   4   3    4.88    1.96
   2  -4  -3    5.87    1.46
   2  -4  -3    4.14    1.36
   2  -4  -3    3.69    1.31
   2  -4  -2   26.31    2.48
   2  -4  -2   26.04    2.29
   2  -4  -2   22.99    1.96
   2  -4  -2   31.62    2.27
   2  -4  -2   28.52    2.21
   2  -4  -2   25.94    2.41
   2  -4  -2   31.01    3.33
   2  -4  -2   27.95    2.40
  -2   4   2   27.90    2.99
   2  -4  -2   27.28    2.29
   2  -4  -2   27.89    2.08
   2  -4  -2   37.17    2.42
   2  -4  -1  284.37    7.78
   2  -4  -1  300.50    7.48
   2  -4  -1  269.92    6.67
   2  -4  -1  290.42    7.55
   2  -4  -1  282.34    7.46
   2  -4  -1  283.33    7.36
   2  -4  -1  298.83    6.53
   2  -4   0  107.27    4.55
   2  -4   0  109.60    4.38
   2  -4   0  103.42    3.82
   2  -4   0   99.71    4.28
   2  -4   0  105.37    4.36
   2  -4   0  109.02    3.71
   2  -4   0   97.49    4.20
   2  -4   0  112.40    3.72
   2  -4   1   17.70    1.98
   2  -4   1   13.23    1.47
   2  -4   1   16.63    1.78
   2  -4   1   17.91    1.67
   2  -4   1   18.21    1.66
   2  -4   1   14.86    1.73
   2  -4   1   12.30    1.98
   2  -4   1   15.19    1.85
   2  -4   1   15.50    1.77
   2  -4   1   16.86    2.34
  -2   4  -1   17.87    2.25
   2  -4   1   14.62    1.40
   2  -4   2    8.78    1.48
   2  -4   2    5.86    1.49
   2  -4   2    6.59    1.20
  -2   4  -2    7.50    1.49
   2  -4   2    7.39    1.19
   2  -4   2    8.75    1.22
   2  -4   2    6.42    1.19
   2  -4   2    6.29    1.25
   2  -4   2    6.32    1.07
   2  -4   2    5.56    1.06
   2  -4   2    5.60    0.97
   2  -4   3   -0.08    0.89
   2  -4   3    0.18    0.65
  -2   4  -3    1.02    0.97
   2  -4   3    0.67    0.75
   2  -4   3    0.04    0.92
   2  -4   3    0.25    0.74
   2  -4   3    0.62    0.76
   2  -4   3    0.03    0.82
   2  -4   3    1.69    1.04
   2  -4   3   -0.44    0.69
   2  -4   3    0.73    0.85
   2  -4   4   32.12    2.53
   2  -4   4   21.97    2.04
   2  -4   4   24.11    1.92
   2  -4   4   23.47    1.63
   2  -4   4   22.77    2.00
   2  -4   4   17.55    2.44
   2  -4   4   27.98    2.21
   2  -4   4   20.21    1.91
   2  -4   4   25.10    1.87
  -2   4  -4   22.26    2.67
   2  -4   4   23.45    1.82
   2  -4   5    1.76    1.24
   2  -4   5    1.19    0.91
  -2   4  -5    0.07    0.91
   2  -4   5    0.52    1.10
   2  -4   5    0.70    0.88
   2  -4   5    2.33    0.93
   2  -4   5    0.66    0.83
   2  -4   5    0.30    0.91
   2  -4   5    4.99    1.20
   2  -4   5    1.98    0.96
   2  -4   6   17.70    1.95
   2  -4   6   20.59    1.77
   2  -4   6   18.98    1.79
   2  -4   6   19.87    1.67
   2  -4   6   14.62    2.36
   2  -4   6   15.82    1.81
   2  -4   6   25.28    1.97
  -2   4  -6   21.10    2.68
   2  -4   6   27.20    1.97
   2  -4   7    8.41    1.47
   2  -4   7    7.70    1.48
   2  -4   7    7.44    1.25
  -2   4  -7    8.15    1.86
   2  -4   7    6.51    1.76
   2  -4   7   10.61    1.40
   2  -4   7    7.10    1.22
   2  -4   7    7.02    1.35
   2  -4   8    3.43    1.08
  -2   4  -8    6.70    1.65
   2  -4   8    3.71    1.15
   2  -4   8    6.59    1.28
   2  -4   8    4.42    1.04
   2  -4   8    5.47    1.71
   2  -4   8    4.75    1.10
   2  -4   8    4.17    1.09
   2  -4   9    2.91    1.12
   2  -4   9    2.07    1.07
   2  -4   9    2.03    0.91
  -2   4  -9    2.99    1.40
   2  -4   9    5.36    1.30
   2  -4   9    2.39    0.86
   2  -4   9    2.91    0.96
   2  -4  10   19.54    2.22
   2  -4  10   17.11    2.11
   2  -4  10   23.74    1.96
   2  -4  10   16.83    1.80
   2  -4  11    9.89    1.68
   2  -4  11   10.63    1.66
   2  -4  11   13.51    1.47
   2  -4  11    9.77    1.40
   2  -4  12    1.75    0.88
   2  -4  12    1.21    0.75
   2  -4  12    1.48    0.92
   2  -4  12    0.78    0.71
   2  -4  13   11.65    1.64
   2  -4  13   13.04    1.73
   2  -4  13   14.64    1.44
   2  -4  13   13.05    1.53
   2  -4  13   11.77    1.38
   2  -4  14    1.11    0.82
   2  -4  14    0.50    0.77
   2  -4  14    0.99    0.77
   2  -4  14    0.94    0.58
   2  -4  15    2.53    0.94
   2  -4  15    3.40    0.99
   2  -4  15    2.38    0.84
   2  -4  16    0.56    0.59
   2  -4  16    0.46    0.66
   2  -4  16   -0.30    0.67
  -2   4 -16    0.13    0.49
   2  -4  17   -0.37    0.52
   2  -4  17    0.38    0.54
  -2   4 -17    0.42    0.43
   2  -4  18    3.33    0.68
   2  -4  18    3.36    0.73
  -2   4 -18    5.40    0.63
   2  -4  19    2.21    0.50
   2  -4  19    2.34    0.55
   2  -3 -19    3.05    0.66
   2  -3 -19    5.12    0.66
   2  -3 -18    9.84    0.92
   2  -3 -18   11.77    0.87
   2  -3 -18   10.31    1.01
   2  -3 -17   12.57    1.43
   2  -3 -17   14.51    1.25
   2  -3 -17   13.87    1.09
   2  -3 -17   14.50    1.27
   2  -3 -16    2.06    0.78
   2  -3 -16    1.87    0.78
   2  -3 -16    1.17    0.80
   2  -3 -16    1.47    0.60
   2  -3 -15    1.63    0.82
   2  -3 -15    1.45    0.89
   2  -3 -15    1.69    0.72
   2  -3 -14   62.84    3.58
   2  -3 -14   60.21    2.79
   2  -3 -14   61.67    3.13
   2  -3 -13    0.03    0.76
   2  -3 -13    0.90    0.84
   2  -3 -13    1.03    0.77
   2  -3 -13    0.12    0.67
   2  -3 -12   15.20    1.97
   2  -3 -12   13.71    1.66
   2  -3 -12   17.14    1.72
   2  -3 -12   13.41    1.47
   2  -3 -12   15.12    1.50
   2  -3 -11    9.84    1.47
   2  -3 -11   10.58    1.65
   2  -3 -11   11.13    1.46
   2  -3 -11    8.54    1.23
   2  -3 -11    9.12    1.21
   2  -3 -10    9.65    1.48
   2  -3 -10   13.74    1.74
   2  -3 -10   11.85    1.52
   2  -3 -10    9.57    1.34
   2  -3 -10   17.47    2.74
  -2   3  10   16.49    2.32
   2  -3 -10   12.56    1.40
   2  -3 -10   12.20    1.38
   2  -3  -9    2.56    0.93
   2  -3  -9    3.33    1.08
   2  -3  -9    2.84    1.01
   2  -3  -9    4.01    1.13
   2  -3  -9    4.42    1.77
   2  -3  -9    2.28    0.90
  -2   3   9    3.60    1.41
   2  -3  -9    3.15    0.95
   2  -3  -8    5.35    1.08
   2  -3  -8    8.78    1.67
   2  -3  -8    6.00    1.22
   2  -3  -8    8.69    1.76
   2  -3  -8    6.82    1.90
   2  -3  -8    5.61    1.15
   2  -3  -8    3.64    1.00
  -2   3   8    5.03    1.37
   2  -3  -8    6.56    1.12
   2  -3  -7   20.19    2.06
   2  -3  -7   13.11    1.45
   2  -3  -7   16.52    1.72
   2  -3  -7   17.74    2.14
   2  -3  -7   17.39    1.69
   2  -3  -7   18.36    2.54
   2  -3  -7   18.18    1.60
  -2   3   7   17.64    2.07
   2  -3  -7   18.09    1.55
   2  -3  -6    0.89    0.91
   2  -3  -6    2.18    1.12
   2  -3  -6    1.60    1.10
   2  -3  -6    1.06    0.85
   2  -3  -6    1.48    1.22
   2  -3  -6    0.07    0.99
   2  -3  -6    1.37    0.80
   2  -3  -6    4.46    1.18
  -2   3   6    1.92    0.93
   2  -3  -6    1.42    0.81
   2  -3  -6    0.80    0.75
   2  -3  -5    1.54    0.85
   2  -3  -5    1.32    1.15
   2  -3  -4    3.94    1.62
   2  -3  -3  141.76    6.35
  -2   3   3  144.03    6.44
   2  -3  -2    9.27    1.90
  -2   3   2    7.30    1.65
   2  -3  -1   72.50    4.55
  -2   3   1   70.33    4.24
   2  -3   0   50.23    3.84
   2  -3   0   37.58    3.27
   2  -3   1    2.90    1.16
  -2   3  -1    2.10    1.06
   2  -3   1    1.86    1.20
   2  -3   2  180.94    7.24
  -2   3  -2  238.11    7.33
   2  -3   3   82.77    4.80
  -2   3  -3  103.61    4.88
  -2   3  -4    7.83    1.46
   2  -3   4    5.23    1.42
  -2   3  -5    3.50    1.25
   2  -3   5    2.46    1.23
   2  -3   6   22.34    2.10
   2  -3   6   23.94    1.91
   2  -3   6   21.87    1.58
   2  -3   6   26.19    1.87
  -2   3  -6   21.07    2.54
   2  -3   6   26.98    1.85
   2  -3   7    5.13    1.20
  -2   3  -7    4.02    1.26
   2  -3   7    5.98    1.15
   2  -3   7    5.93    1.05
   2  -3   7    4.68    1.49
   2  -3   7    6.78    1.20
   2  -3   7   14.24    1.72
   2  -3   7    5.96    1.22
   2  -3   7   11.71    1.45
   2  -3   8    2.13    1.07
  -2   3  -8    2.74    1.35
   2  -3   8    2.37    1.07
   2  -3   8    2.00    1.30
   2  -3   8    1.23    1.20
   2  -3   8    5.76    1.20
   2  -3   8    2.16    0.99
   2  -3   9   14.33    1.84
   2  -3   9   16.83    1.72
   2  -3   9   16.47    1.60
   2  -3   9   15.22    2.44
   2  -3   9   14.21    1.69
  -2   3  -9   17.74    2.46
   2  -3  10   25.02    2.40
   2  -3  10   26.21    2.13
   2  -3  10   24.61    3.15
   2  -3  10   25.98    1.93
   2  -3  10   25.65    2.13
  -2   3 -10   31.28    3.37
   2  -3  11    0.10    0.81
   2  -3  11    0.97    0.82
  -2   3 -11    2.45    1.35
   2  -3  11    1.39    0.90
   2  -3  11    0.04    0.69
   2  -3  12   13.08    1.89
   2  -3  12   14.14    1.96
   2  -3  12   16.81    1.73
   2  -3  12   18.10    1.84
   2  -3  12   16.89    1.70
   2  -3  13   70.99    3.92
   2  -3  13   82.10    3.46
   2  -3  13   81.48    3.81
   2  -3  14   28.53    2.44
   2  -3  14   29.47    2.60
   2  -3  14   36.10    2.22
   2  -3  14   33.73    2.44
   2  -3  15   11.69    1.58
   2  -3  15   10.61    1.61
   2  -3  15   14.00    1.36
   2  -3  15   12.42    1.57
   2  -3  16    1.77    0.84
   2  -3  16    0.34    0.76
   2  -3  16    0.20    0.69
   2  -3  17    1.46    0.82
   2  -3  17    2.71    0.89
   2  -3  17    1.96    0.88
   2  -3  18    0.14    0.50
   2  -3  18   -0.20    0.55
   2  -3  18    1.16    0.67
   2  -3  19    0.19    0.47
   2  -3  19    0.48    0.51
  -2   3 -19    1.37    0.50
   2  -3  20    1.45    0.45
   2  -3  20    1.41    0.47
   2  -2 -20    2.92    0.49
   2  -2 -19    2.91    0.62
   2  -2 -19    3.06    0.63
   2  -2 -19    1.60    0.62
   2  -2 -18    4.13    0.80
   2  -2 -18    4.87    0.85
   2  -2 -18    3.38    0.86
   2  -2 -17    0.36    0.63
   2  -2 -17    0.41    0.65
   2  -2 -17    0.59    0.72
   2  -2 -17    0.17    0.47
   2  -2 -16    3.27    0.91
   2  -2 -16    2.48    0.92
   2  -2 -16    3.97    1.12
   2  -2 -16    3.46    0.76
   2  -2 -15   48.11    3.12
   2  -2 -15   48.78    2.83
   2  -2 -15   47.42    2.37
   2  -2 -14    9.96    1.61
   2  -2 -14    9.83    1.51
   2  -2 -14   10.30    1.26
   2  -2 -14   11.18    1.31
   2  -2 -13   11.78    1.81
   2  -2 -13   12.33    1.65
   2  -2 -13   12.28    1.41
   2  -2 -13   15.55    1.47
   2  -2 -13   11.75    1.44
   2  -2 -12   12.67    1.79
   2  -2 -12   13.67    1.66
   2  -2 -12   18.23    1.77
   2  -2 -12   13.04    1.44
   2  -2 -12   16.56    1.54
   2  -2 -12   12.31    1.47
   2  -2 -11   44.14    3.09
   2  -2 -11   36.94    2.62
   2  -2 -11   56.57    4.66
   2  -2 -11   47.03    2.76
   2  -2 -11   36.27    2.31
  -2   2  11   50.42    3.91
   2  -2 -11   41.75    2.39
   2  -2 -11   36.35    2.36
   2  -2 -10    2.55    1.51
   2  -2 -10    1.85    0.94
   2  -2 -10    0.74    0.87
   2  -2 -10    4.37    1.22
   2  -2 -10    3.13    1.06
   2  -2 -10    1.79    0.82
  -2   2  10    1.96    1.17
   2  -2 -10    4.51    1.12
   2  -2  -9    0.96    0.91
   2  -2  -9    0.26    1.06
   2  -2  -9    0.46    0.87
   2  -2  -9    2.10    0.97
   2  -2  -9    0.60    0.85
   2  -2  -9    0.85    0.66
  -2   2   9    0.24    0.92
   2  -2  -9    1.01    0.93
   2  -2  -8    8.24    1.46
   2  -2  -8    8.96    2.03
   2  -2  -8   14.91    1.71
   2  -2  -8    8.37    1.27
  -2   2   8    8.45    1.69
   2  -2  -8   12.58    1.55
   2  -2  -8   11.54    1.55
   2  -2  -7    4.49    1.62
   2  -2  -7    5.24    1.25
   2  -2  -7    6.98    1.23
   2  -2  -7    3.42    1.02
  -2   2   7    3.95    1.32
   2  -2  -6   51.14    4.02
  -2   2   6   50.20    3.22
  -2   2   5   38.99    2.72
   2  -2  -5   40.12    3.45
   2  -2  -4   23.86    2.67
  -2   2   4   23.49    2.13
  -2   2   3   38.15    2.56
   2  -2  -3   38.63    3.29
  -2   2   2   24.90    2.01
   2  -2  -2   29.14    2.81
   2  -2  -1   39.92    3.28
  -2   2   1   33.02    2.20
  -2   2   0   63.26    3.09
   2  -2   0   68.18    4.37
  -2   2   0   69.19    3.37
   2  -2   1   23.90    2.61
  -2   2  -1   17.77    1.92
   2  -2   2    7.23    1.82
   2  -2   2    3.04    1.18
  -2   2  -2    4.62    1.17
   2  -2   3   32.02    2.82
  -2   2  -3   40.28    2.63
  -2   2  -4   27.64    2.32
   2  -2   4   23.25    2.46
   2  -2   5  132.58    5.99
  -2   2  -5  151.68    5.67
  -2   2  -6  205.91    6.84
   2  -2   6  173.39    7.05
  -2   2  -7    1.01    0.85
   2  -2   7    1.14    0.97
   2  -2   8   29.59    2.51
   2  -2   8   27.47    2.21
   2  -2   8   25.95    1.76
   2  -2   8   19.84    2.59
  -2   2  -8   24.06    2.64
   2  -2   9    5.23    1.34
   2  -2   9    6.26    1.33
   2  -2   9    5.61    1.59
   2  -2   9    6.75    1.22
   2  -2   9    8.83    1.41
  -2   2  -9    7.91    1.73
   2  -2  10    3.36    1.06
   2  -2  10    5.20    1.19
  -2   2 -10    6.35    1.67
   2  -2  10    7.37    1.32
   2  -2  10    3.38    1.39
   2  -2  10    6.41    1.19
   2  -2  11  223.76    7.09
   2  -2  11  232.58    6.52
   2  -2  11  209.30    5.38
   2  -2  11  195.41    8.62
   2  -2  11  249.56    6.50
  -2   2 -11  254.45    9.44
   2  -2  12  122.69    5.23
   2  -2  12  135.09    4.73
   2  -2  12  115.09    3.88
   2  -2  12  132.98    4.79
   2  -2  13   90.69    4.53
   2  -2  13  101.43    4.08
   2  -2  13  101.50    4.28
   2  -2  14   53.05    3.36
   2  -2  14   60.57    3.06
   2  -2  14   55.76    3.18
   2  -2  15   46.83    3.11
   2  -2  15   53.79    2.81
   2  -2  15   51.60    3.06
   2  -2  16    2.71    1.05
   2  -2  16    2.92    0.88
   2  -2  16    2.40    0.89
   2  -2  17    1.81    0.87
   2  -2  17    1.32    0.66
   2  -2  17    1.33    0.79
   2  -2  17    1.63    0.84
   2  -2  18    6.07    1.12
   2  -2  18    5.09    1.10
   2  -2  18    8.01    1.18
   2  -2  19    0.26    0.56
   2  -2  19   -0.05    0.54
   2  -2  19    0.58    0.68
   2  -2  20   -0.42    0.45
   2  -2  20    0.21    0.48
   2  -2  20    0.09    0.50
   2  -2  21    0.35    0.35
   2  -1 -20    0.70    0.42
   2  -1 -20    0.50    0.41
   2  -1 -19    1.43    0.56
   2  -1 -19    1.29    0.58
   2  -1 -18    0.43    0.58
   2  -1 -18    0.48    0.62
   2  -1 -18   -0.16    0.62
   2  -1 -17    1.48    0.66
   2  -1 -17    0.89    0.73
   2  -1 -17   -0.54    0.69
   2  -1 -17    0.58    0.72
   2  -1 -16   32.15    2.61
   2  -1 -16   36.27    2.47
   2  -1 -16   36.73    2.27
   2  -1 -16   39.15    2.10
   2  -1 -15   26.49    2.41
   2  -1 -15   25.20    2.20
   2  -1 -15   27.48    1.78
   2  -1 -15   29.00    1.89
   2  -1 -15   27.51    2.08
   2  -1 -15   26.89    1.93
   2  -1 -14   91.52    4.61
   2  -1 -14   95.56    4.23
   2  -1 -14  100.20    3.60
   2  -1 -14  103.00    3.73
   2  -1 -14   96.56    3.78
   2  -1 -13   67.92    3.95
   2  -1 -13   69.42    3.60
   2  -1 -13   65.83    3.22
   2  -1 -13   70.74    3.06
   2  -1 -13   69.15    3.16
   2  -1 -12   58.81    3.67
   2  -1 -12   56.85    3.26
   2  -1 -12   53.46    2.94
   2  -1 -12   59.61    2.83
   2  -1 -12   58.18    2.91
   2  -1 -11    3.32    1.08
   2  -1 -11    5.55    1.94
   2  -1 -11    5.05    1.24
   2  -1 -11    7.90    1.37
   2  -1 -11    3.97    0.95
  -2   1  11    4.31    1.51
   2  -1 -11    4.72    1.07
   2  -1 -11    4.76    1.17
   2  -1 -10    5.42    1.28
   2  -1 -10    6.74    1.58
   2  -1 -10    6.18    1.26
   2  -1 -10   11.61    1.60
  -2   1  10    4.92    1.62
   2  -1 -10    7.91    1.34
   2  -1 -10    6.54    1.97
   2  -1 -10    5.87    1.11
   2  -1  -9   39.90    2.61
   2  -1  -9   40.72    3.86
   2  -1  -9   43.01    2.35
   2  -1  -9   42.78    2.57
  -2   1   9   34.94    3.22
   2  -1  -9   39.81    2.52
   2  -1  -8   51.29    2.92
   2  -1  -8   46.09    4.03
   2  -1  -8   53.55    2.59
  -2   1   8   45.34    3.41
  -2   1   7    4.72    1.30
   2  -1  -7    3.92    1.55
   2  -1  -6   62.85    4.30
  -2   1   6   63.51    3.69
   2  -1  -5    3.58    1.36
  -2   1   5    2.56    1.03
  -2   1   4   21.65    2.08
   2  -1  -4   22.54    2.52
  -2   1   4   24.42    1.77
  -2   1   3  230.92    5.89
   2  -1  -3  209.96    7.57
  -2   1   3  217.33    6.47
   2  -1  -2  185.73    6.86
  -2   1   2  200.40    6.02
  -2   1   2  205.46    5.52
  -2   1   1   45.08    2.61
   2  -1  -1   41.35    3.21
   2  -1   0   37.50    3.02
   2  -1   0   40.75    3.36
  -2   1   0   36.58    2.55
   2  -1   1  105.71    5.10
   2  -1   1   93.98    4.66
   2  -1   2  106.52    5.21
   2  -1   2   89.30    4.65
   2  -1   3  749.27   14.91
  -2   1  -3  748.53   12.27
   2  -1   4   90.06    4.56
  -2   1  -4   99.16    3.93
   2  -1   5    4.36    1.31
  -2   1  -5    4.82    1.10
   2  -1   6    8.99    1.66
  -2   1  -6    8.96    1.67
   2  -1   7    7.57    1.59
  -2   1  -7    7.88    1.41
   2  -1   8   10.48    1.80
  -2   1  -8   10.67    1.74
   2  -1   9   11.72    1.84
   2  -1   9    9.53    1.99
  -2   1  -9   11.95    2.23
   2  -1  10    5.03    1.24
  -2   1 -10    6.49    1.47
   2  -1  10    6.38    1.10
   2  -1  10    4.72    1.44
   2  -1  10    6.05    1.19
   2  -1  11    0.89    0.88
  -2   1 -11    0.87    1.13
   2  -1  11    2.68    1.08
   2  -1  11    0.59    1.04
   2  -1  11    0.54    0.75
   2  -1  12   44.59    2.84
   2  -1  12   48.90    2.42
   2  -1  12   40.73    3.79
   2  -1  12   47.40    2.89
   2  -1  13    1.89    1.07
  -2   1 -13    4.07    1.66
   2  -1  13    1.33    1.02
   2  -1  14  297.31    7.67
   2  -1  14  320.91    8.10
   2  -1  15   53.93    2.97
   2  -1  15   56.69    3.28
   2  -1  16    6.16    1.11
   2  -1  16    5.47    1.18
   2  -1  17    9.35    1.25
   2  -1  17    9.06    1.36
   2  -1  18    0.34    0.64
   2  -1  18    0.40    0.57
   2  -1  18   -0.98    0.78
   2  -1  19    1.10    0.66
   2  -1  19    2.32    0.68
   2  -1  19    1.01    0.74
   2  -1  20    4.09    0.84
   2  -1  20    4.50    0.88
   2  -1  20    5.09    0.95
   2  -1  21    7.97    0.86
   2  -1  21    7.50    0.89
   2  -1  21    7.49    0.90
   2   0 -20    0.66    0.41
   2   0 -20    1.08    0.47
   2   0 -19    1.38    0.51
   2   0 -19    0.40    0.50
   2   0 -19    0.02    0.40
   2   0 -19    0.26    0.51
   2   0 -18    1.69    0.62
   2   0 -18    1.98    0.72
   2   0 -18    1.40    0.59
   2   0 -18    2.03    0.76
   2   0 -17    3.66    0.79
   2   0 -17    3.49    0.87
   2   0 -17    2.70    0.75
   2   0 -17    3.40    0.95
   2   0 -17    1.99    0.83
   2   0 -17    4.19    0.78
   2   0 -16    0.72    0.73
   2   0 -16    1.23    0.78
   2   0 -16    1.41    0.69
   2   0 -16    0.70    0.86
   2   0 -16    1.19    0.83
   2   0 -16    2.64    0.82
   2   0 -15    4.16    0.96
   2   0 -15    3.34    0.94
   2   0 -15    3.29    0.91
   2   0 -15    3.43    1.10
   2   0 -15    2.45    1.07
   2   0 -15    2.97    0.87
   2   0 -14   11.96    1.86
   2   0 -14   15.12    1.86
   2   0 -14   14.26    1.56
   2   0 -14   15.90    1.72
   2   0 -14   16.40    1.70
   2   0 -14   15.08    1.62
   2   0 -13  149.31    4.91
   2   0 -13  148.78    6.03
   2   0 -13  159.59    5.63
   2   0 -13  148.19    5.06
   2   0 -13  153.30    5.07
   2   0 -12   78.62    5.69
   2   0 -12   64.93    3.84
   2   0 -12   66.51    3.52
   2   0 -12   77.61    3.04
  -2   0  12   71.68    4.88
   2   0 -12   61.77    3.11
   2   0 -12   60.69    3.18
   2   0 -11   31.06    3.56
   2   0 -11   34.17    2.68
   2   0 -11   29.88    2.40
  -2   0  11   30.34    3.19
   2   0 -11   29.18    2.15
   2   0 -11   37.53    2.17
   2   0 -10   14.29    2.47
   2   0 -10   21.21    2.13
   2   0 -10   12.46    1.67
   2   0 -10   22.51    1.98
   2   0 -10   18.51    1.58
   2   0 -10   14.75    1.62
  -2   0  10   12.37    2.17
   2   0  -9    4.06    1.15
   2   0  -9    5.94    1.04
   2   0  -9    3.23    1.47
  -2   0   9    3.34    1.27
   2   0  -9    4.51    1.12
   2   0  -8    0.56    1.08
  -2   0   8    0.64    0.85
  -2   0   8    2.11    0.93
   2   0  -7   19.02    2.54
  -2   0   7   21.44    2.36
  -2   0   7   21.29    1.93
  -2   0   6   63.67    3.79
   2   0  -6   62.07    4.24
  -2   0   6   67.02    3.26
   2   0  -5  141.72    6.25
  -2   0   5  149.08    5.68
  -2   0   5  147.53    4.80
  -2   0   4   20.38    1.80
   2   0  -4   17.30    2.16
  -2   0   4   18.48    2.03
   2   0  -3   39.21    3.13
  -2   0   3   43.86    2.58
  -2   0   2   97.61    3.94
   2   0  -2   94.02    4.68
   2   0  -1   16.68    2.22
  -2   0   1   13.93    1.65
   2   0   0  102.10    4.59
  -2   0   0  108.81    4.34
   2   0   0  105.07    4.98
   2   0   1  154.04    5.81
   2   0   1  176.13    6.42
   2   0   2   60.00    3.59
   2   0   2   55.15    3.40
   2   0   3   71.54    3.96
   2   0   3   60.85    3.58
   2   0   4   11.55    1.71
  -2   0  -4   12.75    1.52
  -2   0  -5    1.37    0.67
   2   0   5    1.55    0.94
   2   0   6  101.54    4.81
  -2   0  -6  117.16    4.58
   2   0   7   11.48    1.73
  -2   0  -7   11.96    1.78
  -2   0  -8    2.23    1.05
   2   0   8    1.68    0.95
  -2   0  -9   18.64    2.29
   2   0   9   17.96    2.25
  -2   0 -10    2.23    1.04
   2   0  10    2.84    1.21
   2   0  10    2.49    0.97
  -2   0 -11    3.56    1.27
   2   0  11    7.19    1.18
   2   0  11    5.13    1.51
   2   0  11    4.37    1.04
  -2   0 -12   76.93    5.17
   2   0  12   62.44    4.52
   2   0  12   73.92    3.60
  -2   0 -13   15.46    2.59
   2   0  13   19.26    1.64
   2   0  13   12.70    2.17
   2   0  13   13.68    1.71
   2   0  14    9.19    1.51
   2   0  14    9.63    1.52
   2   0  15    2.88    1.05
   2   0  15    4.08    1.22
   2   0  16    9.60    1.41
   2   0  16   10.01    1.53
   2   0  17    1.58    0.81
   2   0  17    2.19    0.95
   2   0  18    0.46    0.63
   2   0  18    0.17    0.72
   2   0  19    1.54    0.63
   2   0  19    0.35    0.72
   2   0  20    2.03    0.78
   2   0  20    2.43    0.62
   2   0  20    2.05    0.77
   2   0  21    6.24    0.84
   2   0  21    6.21    0.91
   2   0  21    5.29    0.86
   2   0  22    0.07    0.33
   2   1 -20    0.08    0.36
   2   1 -20    0.19    0.41
   2   1 -19    0.32    0.43
   2   1 -19    0.18    0.45
   2   1 -19    0.55    0.49
   2   1 -19   -0.27    0.54
   2   1 -18    2.37    0.69
   2   1 -18    2.84    0.74
   2   1 -18    2.83    0.72
   2   1 -18    1.33    0.71
   2   1 -18    2.95    0.67
   2   1 -17    0.26    0.64
   2   1 -17    0.52    0.67
   2   1 -17    0.04    0.54
   2   1 -17    0.23    0.70
   2   1 -17    0.56    0.52
   2   1 -17    0.67    0.63
   2   1 -16    4.25    0.97
   2   1 -16    4.96    1.04
   2   1 -16    4.47    1.00
   2   1 -16    4.44    1.07
   2   1 -16    2.83    0.99
   2   1 -16    3.88    0.84
   2   1 -16    4.60    0.94
   2   1 -15    5.13    1.12
   2   1 -15    4.30    1.04
   2   1 -15    3.06    1.07
   2   1 -15    4.20    1.18
   2   1 -15    2.68    0.83
   2   1 -15    3.33    0.96
   2   1 -14    6.72    1.37
   2   1 -14    4.90    1.30
   2   1 -14    7.06    1.12
   2   1 -14    6.54    1.23
   2   1 -14    8.46    1.36
   2   1 -14    7.58    1.27
   2   1 -13   19.24    2.25
   2   1 -13   19.60    2.08
   2   1 -13   19.41    1.75
   2   1 -13   17.77    1.80
   2   1 -13   21.57    1.94
   2   1 -13   19.64    1.92
   2   1 -12    7.48    1.52
   2   1 -12    8.19    1.50
   2   1 -12    8.44    1.26
  -2  -1  12   10.30    2.05
   2   1 -12   10.79    2.46
   2   1 -12   10.25    1.50
   2   1 -12    9.58    1.47
   2   1 -12   10.06    1.44
   2   1 -11   37.71    3.93
   2   1 -11   39.84    2.95
   2   1 -11   34.90    2.62
   2   1 -11   36.69    2.30
  -2  -1  11   42.06    3.25
   2   1 -11   33.27    2.32
  -2  -1  11   38.37    3.49
   2   1 -11   46.02    2.75
   2   1 -10   34.35    3.66
   2   1 -10   50.75    3.23
   2   1 -10   36.86    2.67
   2   1 -10   46.36    2.52
  -2  -1  10   41.33    3.25
  -2  -1  10   33.90    3.29
   2   1 -10   37.73    2.46
   2   1  -9   61.41    4.65
   2   1  -9   75.11    3.57
  -2  -1   9   64.14    4.25
  -2  -1   9   72.66    4.01
   2   1  -9   70.49    3.18
   2   1  -8    1.61    1.15
  -2  -1   8    2.49    1.25
  -2  -1   8    1.93    0.99
   2   1  -7   21.11    2.69
  -2  -1   7   21.42    2.12
  -2  -1   7   21.89    2.44
   2   1  -6   28.77    2.87
  -2  -1   6   30.43    2.68
  -2  -1   6   30.25    2.35
   2   1  -5   39.26    3.30
  -2  -1   5   40.77    3.11
  -2  -1   5   41.88    2.69
   2   1  -4   80.49    4.47
  -2  -1   4   83.15    3.80
   2   1  -3   75.85    4.22
  -2  -1   3   77.15    3.61
   2   1  -2    2.00    1.02
  -2  -1   2    7.51    1.25
  -2  -1   1   21.15    2.14
   2   1  -1   20.18    2.41
   2   1   0   64.00    3.81
  -2  -1   0   64.92    3.55
  -2  -1  -1  240.53    7.01
   2   1   1  230.27    7.07
   2   1   2   66.55    3.69
   2   1   2   66.28    3.54
   2   1   3    2.42    1.06
   2   1   3    2.79    0.95
  -2  -1  -4    2.42    0.69
   2   1   4    2.80    1.05
   2   1   4    2.66    1.24
  -2  -1  -5   32.00    2.16
   2   1   5   29.73    2.47
  -2  -1  -6   31.60    2.35
   2   1   6   28.44    2.43
  -2  -1  -7   16.88    1.97
   2   1   7   15.92    1.94
  -2  -1  -8    6.01    1.34
   2   1   8    9.25    1.55
  -2  -1  -9   38.31    3.12
   2   1   9   38.65    3.04
  -2  -1 -10    1.20    0.87
   2   1  10    2.77    1.11
  -2  -1 -11    6.74    1.65
   2   1  11    4.37    1.47
   2   1  11    5.01    1.29
  -2  -1 -12   32.46    3.31
   2   1  12   35.11    3.21
   2   1  12   32.08    2.43
  -2  -1 -13    5.48    1.79
  -2  -1 -13    3.49    1.13
   2   1  13    3.67    1.20
  -2  -1 -14   19.39    2.99
  -2  -1 -14   16.07    1.85
   2   1  14   13.10    1.74
  -2  -1 -15   19.31    1.84
   2   1  15   15.93    1.88
  -2  -1 -16    4.62    1.02
   2   1  16    3.95    1.12
  -2  -1 -17   35.55    2.19
   2   1  17   32.57    2.43
   2   1  18    1.52    0.79
  -2  -1 -18    2.08    0.66
   2   1  18    1.18    0.83
   2   1  19    0.93    0.66
  -2  -1 -19    1.77    0.62
   2   1  19    0.69    0.72
   2   1  20    3.76    0.76
  -2  -1 -20    4.84    0.67
   2   1  20    3.64    0.88
   2   1  21    0.54    0.48
   2   1  21    0.59    0.44
   2   1  21    0.50    0.54
   2   1  22    0.31    0.36
   2   1  22    0.47    0.40
   2   1  22   -0.01    0.41
   2   2 -20    0.71    0.43
  -2  -2  20    0.23    0.35
   2   2 -19    2.53    0.58
   2   2 -19    3.14    0.59
   2   2 -19    2.48    0.58
   2   2 -19    2.35    0.63
   2   2 -19    3.05    0.55
   2   2 -18    0.66    0.57
   2   2 -18    1.45    0.64
   2   2 -18    0.89    0.54
   2   2 -18    0.31    0.56
   2   2 -18    0.80    0.53
   2   2 -17    2.40    0.76
   2   2 -17    2.50    0.75
   2   2 -17    1.63    0.68
   2   2 -17    1.82    0.77
   2   2 -17    2.87    0.77
   2   2 -16    0.01    0.65
   2   2 -16    0.10    0.58
   2   2 -16   -0.36    0.75
   2   2 -16    0.03    0.54
   2   2 -16    0.15    0.64
   2   2 -15    9.04    1.23
   2   2 -15    8.41    1.38
   2   2 -15    7.44    1.15
   2   2 -15    8.55    1.26
   2   2 -15    7.83    1.30
   2   2 -14    7.07    1.47
   2   2 -14    7.92    1.40
   2   2 -14    7.21    1.15
   2   2 -14    8.31    1.33
   2   2 -14    7.82    1.31
   2   2 -13    8.05    1.64
   2   2 -13   12.93    1.69
   2   2 -13    9.16    1.37
   2   2 -13   12.50    1.55
   2   2 -13   12.05    1.56
   2   2 -12    5.23    1.16
   2   2 -12    4.27    1.03
   2   2 -12    2.39    1.09
   2   2 -12    3.14    1.12
   2   2 -12    3.64    0.99
  -2  -2  12    4.31    1.43
   2   2 -11    1.75    0.94
   2   2 -11    1.83    0.88
   2   2 -11    0.55    0.90
   2   2 -11    2.99    1.07
   2   2 -11    1.82    0.83
   2   2 -11    2.63    1.60
  -2  -2  11    2.13    1.18
  -2  -2  11    1.93    1.15
   2   2 -10  125.71    6.88
   2   2 -10  151.11    5.50
   2   2 -10  134.17    4.93
   2   2 -10  128.01    4.46
  -2  -2  10  128.92    6.26
  -2  -2  10  141.02    6.22
   2   2 -10  130.70    4.55
   2   2 -10  161.37    5.17
   2   2  -9    5.27    1.11
   2   2  -9    5.79    1.38
   2   2  -9    5.18    1.19
   2   2  -9    5.28    1.12
   2   2  -9    2.76    1.35
  -2  -2   9    3.58    1.26
  -2  -2   9    4.42    1.34
  -2  -2   8   12.39    1.97
   2   2  -8   10.60    2.03
  -2  -2   8   11.46    1.73
   2   2  -8   14.11    1.49
   2   2  -7   14.54    2.24
  -2  -2   7   17.38    2.19
  -2  -2   7   16.25    1.98
  -2  -2   6   28.41    2.68
   2   2  -6   25.65    2.76
  -2  -2   6   28.50    2.45
   2   2  -5   93.62    4.94
  -2  -2   5   98.53    4.82
  -2  -2   5   95.78    4.26
   2   2  -4  292.60    8.78
   2   2  -4  318.26    8.68
  -2  -2   4  302.55    7.98
   2   2  -3    5.90    1.33
  -2  -2   3    5.15    1.22
   2   2  -3    5.40    1.39
   2   2  -2  121.90    5.21
   2   2  -2  128.53    5.30
  -2  -2   2  126.57    4.94
   2   2  -1  472.92   11.01
   2   2  -1  450.29   10.47
  -2  -2   1  464.37   10.32
   2   2   0  202.49    6.86
   2   2   0  190.44    6.33
  -2  -2  -1 1445.71   22.40
   2   2   1 1450.66   21.98
   2   2   2   35.45    2.75
  -2  -2  -2   24.98    2.58
   2   2   3   71.00    3.47
   2   2   3   64.94    3.79
   2   2   3   69.63    3.51
   2   2   4   42.71    3.32
   2   2   4   46.11    2.90
   2   2   4   47.03    2.99
  -2  -2  -5    4.24    1.11
   2   2   5    3.94    1.46
   2   2   5    2.70    1.04
  -2  -2  -6    5.07    1.13
   2   2   6    4.50    1.05
   2   2   6    5.52    1.34
  -2  -2  -7   26.39    2.37
   2   2   7   24.87    2.24
  -2  -2  -8    4.59    1.30
   2   2   8    4.47    1.17
  -2  -2  -9   31.95    2.87
   2   2   9   37.44    2.80
  -2  -2 -10    1.56    1.05
  -2  -2 -11   10.52    1.95
   2   2  11   10.71    1.46
  -2  -2 -12   33.09    3.50
   2   2  12   33.11    2.44
  -2  -2 -13    1.57    1.34
  -2  -2 -13    1.57    0.94
   2   2  13    1.40    0.94
  -2  -2 -14    6.79    2.09
  -2  -2 -14    4.59    1.25
   2   2  14    4.41    1.25
  -2  -2 -15   11.08    1.68
   2   2  15   14.40    1.86
  -2  -2 -16    6.75    1.22
   2   2  16    6.69    1.32
  -2  -2 -17    4.78    0.98
   2   2  17    4.79    0.96
   2   2  17    5.14    1.14
  -2  -2 -18   12.74    1.32
   2   2  18   12.04    1.35
   2   2  18   10.39    1.43
   2   2  19    1.59    0.76
  -2  -2 -19    0.94    0.57
   2   2  19    0.36    0.63
   2   2  20    6.67    0.95
  -2  -2 -20    8.25    0.89
   2   2  20    5.97    0.98
   2   2  21    0.63    0.49
  -2  -2 -21    1.26    0.44
   2   2  21    0.98    0.59
   2   3 -19    1.84    0.54
   2   3 -19    2.06    0.52
   2   3 -19    1.67    0.50
  -2  -3  19    1.31    0.51
   2   3 -19    2.30    0.50
   2   3 -18    3.11    0.72
   2   3 -18    3.53    0.64
   2   3 -18    3.05    0.69
   2   3 -18    3.21    0.75
   2   3 -18    3.11    0.66
   2   3 -17    4.98    0.84
   2   3 -17    3.61    0.87
   2   3 -17    4.33    0.88
   2   3 -17    4.42    0.83
   2   3 -16    2.01    0.76
   2   3 -16    1.71    0.73
   2   3 -16    1.18    0.79
   2   3 -16    1.75    0.74
   2   3 -15   11.59    1.46
   2   3 -15   13.15    1.40
   2   3 -15   10.97    1.45
   2   3 -14    2.41    0.96
   2   3 -14    2.28    0.90
   2   3 -14    2.80    1.03
   2   3 -14    1.97    0.77
   2   3 -13    6.57    1.31
   2   3 -13    5.49    1.13
   2   3 -13    9.91    1.39
   2   3 -13    7.63    1.35
   2   3 -12   31.57    2.69
   2   3 -12   26.85    2.34
   2   3 -12   46.86    2.74
   2   3 -12   39.95    2.80
   2   3 -11    7.70    1.43
   2   3 -11    5.80    1.19
   2   3 -11    7.82    2.02
  -2  -3  11   11.95    2.19
  -2  -3  11    8.49    1.80
   2   3 -11    9.58    1.40
   2   3 -11    8.39    1.35
   2   3 -10    6.33    1.27
   2   3 -10    5.29    1.38
   2   3 -10    3.50    1.13
   2   3 -10    5.42    1.89
  -2  -3  10    4.58    1.58
  -2  -3  10    5.81    1.77
   2   3 -10    6.02    1.27
   2   3  -9   11.88    1.65
   2   3  -9    8.48    1.31
   2   3  -9    7.30    1.85
  -2  -3   9    9.30    1.87
  -2  -3   9   10.24    1.88
   2   3  -9   11.10    1.41
   2   3  -9   10.76    1.48
   2   3  -8   13.91    1.86
   2   3  -8    8.13    1.33
   2   3  -8    8.69    1.98
  -2  -3   8   10.17    1.88
  -2  -3   8    9.63    1.85
   2   3  -8   11.58    1.52
   2   3  -7  140.14    6.57
  -2  -3   7  153.52    6.14
   2   3  -6   21.02    2.54
   2   3  -6   26.31    2.53
  -2  -3   6   26.93    2.62
  -2  -3   6   23.02    2.38
   2   3  -5   12.49    2.03
   2   3  -5   13.44    2.01
  -2  -3   5   12.44    1.81
   2   3  -4  105.47    5.11
   2   3  -4  120.92    5.37
  -2  -3   4  110.70    4.80
   2   3  -3   24.50    2.43
   2   3  -3   27.48    2.68
  -2  -3   3   25.00    2.35
   2   3  -2  277.61    8.60
   2   3  -2  275.94    7.99
  -2  -3   2  264.61    7.78
   2   3  -1 1131.19   19.90
   2   3  -1 1122.89   18.58
  -2  -3   1 1104.83   18.95
   2   3   0  161.26    6.45
   2   3   0  159.00    5.50
  -2  -3   0  150.23    5.82
   2   3   1  483.96   11.76
  -2  -3  -1  479.89   11.04
   2   3   1  508.61   10.29
   2   3   2  154.89    5.04
   2   3   2  151.22    6.17
  -2  -3  -2  135.52    5.56
   2   3   3   89.69    4.73
  -2  -3  -3   93.68    4.60
   2   3   4   23.53    2.87
  -2  -3  -4   23.99    2.71
   2   3   5  106.71    5.16
   2   3   5  119.88    4.38
  -2  -3  -6   17.47    1.96
   2   3   6   17.00    2.15
  -2  -3  -7   16.26    2.02
   2   3   7   12.16    1.87
  -2  -3  -8   40.13    3.33
   2   3   8   41.52    3.22
  -2  -3  -9    4.61    1.42
   2   3   9    5.93    1.42
  -2  -3 -10   93.98    5.44
   2   3  10  100.60    3.96
  -2  -3 -11    6.55    1.82
  -2  -3 -11    4.49    1.24
   2   3  11    5.37    1.24
  -2  -3 -12   45.75    4.22
  -2  -3 -12   45.69    2.84
   2   3  12   43.28    2.70
  -2  -3 -13    1.78    1.26
  -2  -3 -13    2.74    0.91
   2   3  13    2.61    1.00
  -2  -3 -14   10.04    1.51
   2   3  14   10.30    1.58
   2   3  14   12.97    1.70
  -2  -3 -15    4.94    1.27
   2   3  15    4.44    1.23
   2   3  15    5.27    1.24
  -2  -3 -16    6.55    1.32
   2   3  16    7.89    1.39
   2   3  16    7.38    1.36
  -2  -3 -17   21.21    1.86
   2   3  17   21.53    1.89
   2   3  17   21.26    1.83
  -2  -3 -18   17.51    1.56
   2   3  18   18.32    1.65
   2   3  18   16.54    1.64
  -2  -3 -19    2.00    0.66
   2   3  19    1.17    0.64
   2   3  19    1.31    0.70
   2   3  20    0.79    0.59
  -2  -3 -20    0.36    0.41
   2   3  20    0.76    0.51
   2   3  20   -0.22    0.58
   2   3  21    0.89    0.48
  -2  -3 -21    1.16    0.45
   2   3  21    1.34    0.57
   2   4 -19    3.90    0.57
   2   4 -18    0.13    0.49
   2   4 -18    0.47    0.46
   2   4 -18    1.06    0.51
   2   4 -18    0.88    0.49
  -2  -4  18    1.32    0.51
  -2  -4  18    0.74    0.48
   2   4 -17    4.94    0.86
   2   4 -17    6.44    0.89
  -2  -4  17    4.96    0.89
   2   4 -17    5.15    0.83
   2   4 -17    7.74    0.83
   2   4 -16    2.96    0.71
   2   4 -16    3.47    0.83
   2   4 -16    2.84    0.81
   2   4 -15    6.78    1.08
   2   4 -15    7.94    1.09
   2   4 -15    6.03    1.11
   2   4 -14    5.52    1.01
   2   4 -14    4.85    1.11
   2   4 -14    6.50    1.12
   2   4 -14    6.78    1.02
   2   4 -13    7.05    1.27
   2   4 -13    9.28    1.24
   2   4 -13    8.52    1.27
   2   4 -13    6.47    1.29
   2   4 -12   21.75    1.98
   2   4 -12   22.23    1.91
   2   4 -12   22.29    1.91
   2   4 -12   19.39    2.02
   2   4 -11   14.42    1.71
   2   4 -11   11.97    1.59
   2   4 -11   15.93    1.70
   2   4 -11   14.97    1.81
   2   4 -10   33.64    3.70
   2   4 -10   32.45    2.50
  -2  -4  10   42.44    3.61
  -2  -4  10   31.56    3.31
   2   4 -10   30.56    2.30
   2   4 -10   34.23    2.33
   2   4 -10   28.93    2.51
   2   4  -9   68.79    4.99
  -2  -4   9   85.23    5.00
  -2  -4   9   67.65    4.67
   2   4  -9   76.79    3.58
   2   4  -9   75.96    3.44
   2   4  -9   70.97    3.72
   2   4  -8    1.97    0.91
   2   4  -8    2.58    0.98
   2   4  -8    1.76    1.32
  -2  -4   8    2.44    1.19
  -2  -4   8    1.42    1.08
   2   4  -8    1.97    0.93
   2   4  -7   14.64    2.26
  -2  -4   7   19.70    2.40
  -2  -4   7   16.12    2.23
   2   4  -7   25.48    2.00
   2   4  -7   20.75    1.82
   2   4  -7   23.32    2.05
   2   4  -6   44.58    3.57
   2   4  -6   54.99    3.82
  -2  -4   6   46.23    3.44
   2   4  -6   56.22    2.75
  -2  -4   6   50.52    3.66
   2   4  -5    8.46    1.67
  -2  -4   5    8.32    1.57
   2   4  -5    9.40    1.75
  -2  -4   5    7.47    1.52
   2   4  -4   12.34    2.14
  -2  -4   4   13.28    2.03
   2   4  -3   56.71    3.59
   2   4  -3   61.25    4.21
  -2  -4   3   54.10    3.56
   2   4  -2   13.46    2.15
   2   4  -2   12.11    1.64
  -2  -4   2   11.57    1.80
   2   4  -1   59.63    4.10
   2   4  -1   63.19    3.37
  -2  -4   1   58.72    3.65
   2   4   0   79.44    4.74
  -2  -4   0   78.03    4.27
   2   4   0   78.07    4.31
   2   4   0   90.28    3.82
   2   4   1  412.50   11.15
  -2  -4  -1  391.75   10.08
   2   4   1  389.25    9.80
  -2  -4  -2  976.09   17.64
   2   4   2  979.01   16.88
   2   4   3  141.39    6.33
  -2  -4  -3  137.58    5.80
   2   4   4  130.84    6.06
  -2  -4  -4  131.06    5.63
   2   4   5   59.12    4.13
  -2  -4  -5   58.96    3.85
   2   4   6   40.81    3.34
  -2  -4  -6   41.40    3.31
   2   4   7   39.06    3.31
   2   4   8   61.84    4.09
  -2  -4  -9   62.90    3.23
   2   4   9   55.51    3.90
   2   4   9   60.91    3.02
  -2  -4 -10   72.07    3.50
   2   4  10   72.79    3.30
  -2  -4 -11    1.27    0.82
   2   4  11    2.35    1.12
   2   4  11    1.66    0.92
  -2  -4 -12    9.47    1.50
   2   4  12   10.31    1.45
  -2  -4 -13    9.87    1.54
   2   4  13   10.06    1.49
   2   4  13   12.31    1.73
  -2  -4 -14    1.94    0.89
   2   4  14    2.44    1.05
   2   4  14    1.60    0.90
  -2  -4 -15    8.68    1.42
   2   4  15    8.39    1.34
   2   4  15    8.84    1.44
  -2  -4 -16    9.30    1.37
   2   4  16   10.33    1.45
   2   4  16    8.99    1.28
  -2  -4 -17    5.38    1.10
   2   4  17    5.91    1.16
   2   4  17    6.24    1.10
  -2  -4 -18    4.95    0.98
   2   4  18    5.18    0.97
   2   4  18    4.70    0.94
   2   4  19    1.48    0.62
  -2  -4 -19    1.45    0.63
   2   4  19    0.63    0.58
  -2  -4 -20    0.77    0.48
   2   4  20    0.86    0.53
   2   4  20    0.35    0.56
   2   4  21    1.22    0.48
  -2  -4 -21    2.01    0.48
   2   5 -18    1.34    0.46
   2   5 -18    1.26    0.47
  -2  -5  18    0.96    0.42
   2   5 -18    1.72    0.48
  -2  -5  18    1.08    0.43
   2   5 -17    1.10    0.53
  -2  -5  17    1.03    0.50
   2   5 -17    1.02    0.53
  -2  -5  17    1.66    0.64
   2   5 -16    0.39    0.56
  -2  -5  16   -0.17    0.49
   2   5 -16    0.61    0.50
   2   5 -15    8.74    1.05
  -2  -5  15    5.84    1.03
   2   5 -15   10.33    1.06
   2   5 -15    7.05    1.14
   2   5 -14   16.66    1.51
  -2  -5  14   10.25    1.40
   2   5 -14   17.97    1.45
   2   5 -14   12.10    1.54
  -2  -5  13   15.55    1.73
   2   5 -13   20.22    1.75
   2   5 -13   22.74    1.74
   2   5 -13   18.39    1.87
  -2  -5  12    9.96    1.57
   2   5 -12   13.50    1.58
   2   5 -12   16.53    1.62
   2   5 -12   11.77    1.70
   2   5 -11   13.51    1.55
   2   5 -11   11.27    1.63
   2   5 -10    9.36    1.40
   2   5 -10   11.15    1.42
   2   5 -10    9.12    1.46
   2   5  -9    8.14    1.24
   2   5  -9    4.48    1.10
  -2  -5   9    7.52    1.83
   2   5  -9    6.30    1.21
   2   5  -8    3.19    0.98
   2   5  -8    2.09    0.94
  -2  -5   8    4.88    1.52
  -2  -5   8    2.49    1.45
   2   5  -8    2.30    0.92
  -2  -5   7   17.09    2.28
  -2  -5   7    9.65    1.47
  -2  -5   7   11.32    2.02
   2   5  -7   12.47    1.56
   2   5  -7   11.02    1.65
   2   5  -7   13.42    1.55
   2   5  -6   40.94    3.54
  -2  -5   6   31.53    2.37
  -2  -5   6   30.65    3.01
  -2  -5   6   36.84    3.15
   2   5  -6   35.33    2.41
   2   5  -6   34.56    2.52
   2   5  -6   34.94    2.22
   2   5  -5    1.72    0.87
   2   5  -5    0.87    0.89
   2   5  -5    1.74    1.22
  -2  -5   5    1.37    0.94
  -2  -5   5    1.06    1.04
   2   5  -5    1.74    0.88
  -2  -5   5    0.54    0.68
   2   5  -4    4.46    1.11
  -2  -5   4    2.89    0.95
   2   5  -4    3.23    1.54
   2   5  -4    3.37    1.04
  -2  -5   4    2.40    1.13
  -2  -5   3    6.17    1.41
   2   5  -3    7.00    1.75
   2   5  -2    0.80    1.17
  -2  -5   2    1.17    1.03
   2   5  -2    0.79    1.00
   2   5  -1   34.54    3.41
  -2  -5   1   31.86    2.84
   2   5  -1   31.07    3.17
   2   5   0   19.32    2.75
  -2  -5   0   13.67    2.12
   2   5   0   19.37    2.54
   2   5   1   35.55    3.40
  -2  -5  -1   34.60    2.93
   2   5   1   33.82    3.00
   2   5   2  132.34    6.43
  -2  -5  -2  136.04    5.75
   2   5   2  131.45    5.74
   2   5   3  111.86    5.94
  -2  -5  -3  128.30    5.60
   2   5   3  128.15    5.49
   2   5   4    4.18    1.59
  -2  -5  -4    5.49    1.39
   2   5   5   12.75    2.18
  -2  -5  -5   14.24    2.14
   2   5   6   18.35    2.52
  -2  -5  -6   21.08    2.43
   2   5   7   15.86    2.42
  -2  -5  -7   14.59    2.12
   2   5   7   16.50    1.78
   2   5   7   18.21    1.74
   2   5   8   14.63    2.26
  -2  -5  -8   17.07    2.34
   2   5   8   18.46    1.69
   2   5   8   14.40    1.58
  -2  -5  -9    8.76    1.62
  -2  -5  -9    7.02    1.39
   2   5   9    9.36    1.49
   2   5   9    7.35    1.78
  -2  -5  -9    9.53    2.84
   2   5   9    6.90    1.20
   2   5   9    5.15    1.18
  -2  -5 -10   21.97    2.25
  -2  -5 -10   16.61    1.81
  -2  -5 -10   17.09    2.43
   2   5  10   16.41    1.71
   2   5  10   19.15    2.07
  -2  -5 -11   16.07    1.89
  -2  -5 -11   13.08    1.66
   2   5  11   16.07    1.95
  -2  -5 -11   16.42    2.46
   2   5  11   13.39    1.59
  -2  -5 -12    3.07    1.17
  -2  -5 -12    2.66    0.97
   2   5  12    2.73    1.03
   2   5  12    2.85    0.95
  -2  -5 -13    0.63    0.84
  -2  -5 -13    0.82    0.83
   2   5  13    0.63    0.82
   2   5  13    0.99    0.89
  -2  -5 -14   22.97    2.19
  -2  -5 -14   18.93    1.98
   2   5  14   22.47    2.14
   2   5  14   18.54    1.83
  -2  -5 -15    0.47    0.76
  -2  -5 -15    0.15    0.69
   2   5  15    0.98    0.82
   2   5  15    1.17    0.78
  -2  -5 -16   14.71    1.62
  -2  -5 -16   11.65    1.52
   2   5  16   12.65    1.61
   2   5  16   13.33    1.44
  -2  -5 -17    4.03    0.86
  -2  -5 -17    2.65    0.85
   2   5  17    2.90    0.93
   2   5  17    3.10    0.81
  -2  -5 -18    0.66    0.54
  -2  -5 -18    0.24    0.53
   2   5  18    0.18    0.53
   2   5  18    0.60    0.56
  -2  -5 -19    1.53    0.59
   2   5  19    1.38    0.57
   2   5  19    0.44    0.53
   2   5  20    1.43    0.51
  -2  -5 -20    0.93    0.49
   2   5  21    0.98    0.43
  -2  -5 -21    1.12    0.39
  -2  -6  17   10.33    0.81
   2   6 -17   11.25    0.84
   2   6 -17   10.90    0.82
  -2  -6  16    8.52    0.96
  -2  -6  16    7.66    0.94
   2   6 -16    9.74    0.94
   2   6 -16    8.76    1.03
   2   6 -15    0.53    0.61
  -2  -6  15    0.18    0.53
   2   6 -15    0.25    0.46
   2   6 -14    0.83    0.64
  -2  -6  14    0.66    0.63
   2   6 -14    0.82    0.57
  -2  -6  13   17.38    1.74
   2   6 -13   21.39    1.94
   2   6 -13   23.06    1.79
   2   6 -12    4.38    1.11
  -2  -6  12    4.53    1.09
   2   6 -12    6.61    1.07
   2   6 -12    5.09    1.05
  -2  -6  11   22.65    2.10
   2   6 -11   23.43    2.01
   2   6 -11   28.16    1.93
   2   6 -11   24.49    2.22
   2   6 -10    7.27    1.29
   2   6 -10    7.66    1.43
   2   6 -10    8.82    1.24
  -2  -6  10    6.28    1.29
   2   6  -9    4.95    1.12
   2   6  -9    3.89    1.19
  -2  -6   9    4.23    1.12
   2   6  -9    3.51    1.09
  -2  -6   8   17.05    1.93
   2   6  -8   18.16    1.87
   2   6  -8   19.31    2.14
   2   6  -8   23.01    1.96
   2   6  -7    6.26    1.30
  -2  -6   7    8.33    1.95
  -2  -6   7    5.91    1.24
   2   6  -7    6.91    1.28
   2   6  -7    8.60    1.32
   2   6  -6    0.99    0.85
   2   6  -6   -0.14    0.73
  -2  -6   6    0.45    0.75
  -2  -6   6    1.06    1.17
   2   6  -6    1.75    0.88
   2   6  -5   20.16    2.91
  -2  -6   5   12.92    1.69
  -2  -6   5   18.71    2.52
   2   6  -5   13.82    1.68
   2   6  -5   12.33    1.78
   2   6  -5   18.02    1.71
   2   6  -4    2.70    0.99
   2   6  -4    2.49    0.98
   2   6  -4    1.96    1.46
  -2  -6   4    1.75    0.92
  -2  -6   4    2.78    1.26
  -2  -6   4    2.32    1.19
   2   6  -4    1.69    0.91
   2   6  -3    9.28    1.40
   2   6  -3    8.81    1.92
  -2  -6   3    8.99    1.39
  -2  -6   3    8.34    1.70
   2   6  -3   10.17    1.36
   2   6  -2   24.18    2.91
   2   6  -2   26.01    2.22
  -2  -6   2   26.38    2.16
  -2  -6   2   20.62    2.38
   2   6  -2   20.46    2.88
   2   6  -2   27.09    2.01
   2   6  -1    1.55    0.91
   2   6  -1    1.65    1.32
  -2  -6   1    1.33    0.83
  -2  -6   1    1.73    0.99
   2   6  -1    0.28    1.06
   2   6  -1    1.33    0.89
   2   6   0    1.81    0.95
   2   6   0    0.14    1.09
  -2  -6   0    2.07    1.16
   2   6   0    0.80    1.00
  -2  -6   0    0.97    0.82
   2   6   0    0.72    0.80
   2   6   1   32.50    3.44
  -2  -6  -1   43.82    2.58
  -2  -6  -1   34.48    2.96
   2   6   1   32.11    3.32
   2   6   1   35.84    2.58
   2   6   1   41.23    2.49
   2   6   2   11.29    2.32
  -2  -6  -2   15.08    1.73
  -2  -6  -2    8.96    1.74
   2   6   2   10.27    1.97
   2   6   2   10.68    1.64
   2   6   3   23.11    3.06
  -2  -6  -3   37.03    2.48
  -2  -6  -3   21.87    2.44
   2   6   3   27.49    2.91
   2   6   3   26.25    2.28
   2   6   3   34.34    2.47
   2   6   4   32.93    3.59
  -2  -6  -4   37.07    3.14
   2   6   4   38.46    2.67
   2   6   4   39.99    2.57
   2   6   5  107.75    6.20
  -2  -6  -5  128.48    5.75
   2   6   5  125.05    4.77
   2   6   5  111.96    4.28
   2   6   6   -1.46    1.33
  -2  -6  -6    0.04    0.91
  -2  -6  -6    2.30    1.00
   2   6   6    0.45    0.88
   2   6   6    0.96    0.92
   2   6   7   -0.29    1.25
  -2  -6  -7   -0.18    0.72
  -2  -6  -7    0.78    0.97
   2   6   7   -0.02    0.75
   2   6   7    0.08    0.69
   2   6   7   -0.29    0.83
   2   6   8    1.17    1.24
  -2  -6  -8    0.39    0.74
   2   6   8    0.00    0.78
   2   6   8    0.11    0.71
   2   6   8   -0.35    0.76
   2   6   8    0.03    0.84
   2   6   9   59.13    4.56
  -2  -6  -9   35.72    2.59
   2   6   9   44.16    2.93
  -2  -6  -9   56.38    2.93
   2   6   9   43.85    2.56
  -2  -6 -10   14.73    1.94
  -2  -6 -10   11.95    1.62
   2   6  10   15.49    1.88
   2   6  10   15.26    1.60
  -2  -6 -11    0.95    0.98
  -2  -6 -11    1.07    0.83
   2   6  11    1.34    0.94
   2   6  11    2.63    0.91
  -2  -6 -12    6.59    1.41
  -2  -6 -12    6.57    1.32
   2   6  12    7.41    1.38
   2   6  12    8.60    1.27
  -2  -6 -13    0.94    0.88
  -2  -6 -13    0.77    0.81
   2   6  13    1.62    0.93
   2   6  13    2.57    0.85
  -2  -6 -14    4.64    1.08
  -2  -6 -14    3.36    1.04
   2   6  14    4.65    0.98
   2   6  14    3.25    1.03
  -2  -6 -15    9.70    1.41
  -2  -6 -15    7.94    1.31
   2   6  15    8.79    1.41
   2   6  15    8.86    1.19
  -2  -6 -16   75.36    3.35
   2   6  16   72.04    2.75
   2   6  16   68.71    3.34
   2   6  17    0.67    0.67
  -2  -6 -17    0.86    0.64
  -2  -6 -17    0.33    0.61
   2   6  18    0.78    0.62
  -2  -6 -18    0.40    0.52
  -2  -6 -18    0.03    0.47
  -2  -6 -19    0.24    0.43
  -2  -6 -19    0.19    0.42
   2   6  19    0.16    0.47
  -2  -6 -20    0.43    0.37
   2   6  20   -0.03    0.36
   2   7 -16    4.44    0.56
  -2  -7  16    2.28    0.46
  -2  -7  15    6.61    0.79
  -2  -7  15    6.44    0.85
   2   7 -15    8.14    0.83
   2   7 -15    8.79    0.82
   2   7 -15    9.36    0.84
  -2  -7  14    6.93    0.95
  -2  -7  14    6.84    0.98
   2   7 -14    8.18    0.96
  -2  -7  13   19.65    1.64
   2   7 -13   23.52    1.68
   2   7 -12    1.49    0.77
  -2  -7  12    1.20    0.74
   2   7 -12    0.84    0.64
  -2  -7  11   27.68    2.20
   2   7 -11   34.81    2.31
   2   7 -11   32.25    2.43
   2   7 -10    3.93    1.05
  -2  -7  10    2.32    0.88
   2   7 -10    3.38    0.96
   2   7  -9    5.26    1.04
   2   7  -9    2.79    1.03
  -2  -7   9    2.98    0.98
   2   7  -9    3.75    1.01
  -2  -7   8   26.11    2.31
   2   7  -8   29.13    2.31
   2   7  -8   26.45    2.40
   2   7  -7    3.42    1.00
   2   7  -7    2.40    0.92
  -2  -7   7    2.32    0.98
  -2  -7   6   21.48    2.14
   2   7  -6   20.51    2.08
  -2  -7   5   27.60    2.32
   2   7  -5   25.72    2.31
   2   7  -5   31.99    2.20
   2   7  -4    7.83    2.22
  -2  -7   4    5.62    1.28
  -2  -7   4    8.53    1.93
   2   7  -4    8.06    1.32
   2   7  -4    4.93    1.24
   2   7  -3    2.89    0.97
   2   7  -3    1.04    1.75
  -2  -7   3    1.86    1.22
   2   7  -3    2.00    1.65
   2   7  -3    1.52    0.96
  -2  -7   3    2.24    0.95
   2   7  -2   27.39    3.39
  -2  -7   2   23.00    2.10
  -2  -7   2   28.28    2.90
   2   7  -2   25.75    3.44
   2   7  -2   20.91    2.04
   2   7  -2   26.24    2.08
   2   7  -1    5.06    1.97
  -2  -7   1    5.09    1.21
  -2  -7   1    4.93    1.64
   2   7  -1    5.16    1.86
   2   7  -1    6.87    1.41
   2   7  -1    3.87    1.29
   2   7   0  139.04    7.45
  -2  -7   0  135.85    4.98
  -2  -7   0  148.45    6.14
   2   7   0  147.25    7.62
   2   7   0  124.17    5.00
   2   7   0  149.65    4.85
  -2  -7  -1   33.83    2.88
   2   7   1   21.97    3.07
  -2  -7  -1   19.58    2.00
  -2  -7  -1   25.26    2.67
   2   7   1   22.71    3.08
   2   7   1   15.45    1.97
   2   7   1   27.74    2.27
   2   7   2   22.71    3.18
  -2  -7  -2   21.61    2.05
  -2  -7  -2   21.57    2.47
   2   7   2   24.47    3.12
   2   7   2   18.11    2.04
   2   7   2   25.82    2.18
  -2  -7  -3   96.32    4.63
   2   7   3   72.45    5.42
  -2  -7  -3   89.29    3.86
   2   7   3   97.99    5.79
   2   7   3   74.54    3.84
   2   7   3   83.71    3.74
  -2  -7  -4   39.41    3.14
   2   7   4   33.44    3.77
  -2  -7  -4   38.65    2.58
   2   7   4   32.79    2.56
   2   7   4   36.56    2.55
  -2  -7  -5   37.81    3.13
   2   7   5   44.79    4.23
   2   7   5   38.67    2.80
   2   7   5   35.68    2.52
   2   7   6   31.49    3.69
  -2  -7  -6   31.29    2.27
   2   7   6   25.47    2.35
   2   7   6   23.86    2.15
   2   7   7   31.07    3.75
  -2  -7  -7   25.22    2.09
   2   7   7   24.57    1.94
   2   7   7   18.42    2.08
   2   7   7   17.59    1.94
   2   7   8   80.09    3.38
  -2  -7  -8   83.63    3.69
   2   7   8   69.29    3.79
   2   7   8   74.06    3.92
  -2  -7  -9   34.67    2.59
   2   7   9   38.28    2.84
   2   7   9   44.46    2.49
  -2  -7  -9   45.04    2.70
  -2  -7 -10   17.48    2.06
  -2  -7 -10   15.93    1.85
   2   7  10   19.25    2.14
  -2  -7 -11    0.57    0.88
  -2  -7 -11    0.74    0.78
   2   7  11    0.81    0.83
   2   7  11    0.91    0.76
  -2  -7 -12   13.02    1.76
  -2  -7 -12   13.94    1.73
   2   7  12   14.71    1.90
  -2  -7 -13   90.85    4.08
  -2  -7 -13   82.82    3.77
   2   7  13   91.95    4.16
  -2  -7 -14   30.30    2.28
  -2  -7 -14   24.42    2.00
   2   7  14   27.88    2.26
   2   7  15    3.08    0.96
  -2  -7 -15    2.48    0.95
  -2  -7 -15    1.94    0.87
  -2  -7 -16   43.55    2.39
   2   7  16   40.39    2.43
  -2  -7 -17    2.68    0.71
  -2  -7 -17    2.71    0.74
   2   7  17    1.98    0.70
  -2  -7 -18   -0.15    0.43
  -2  -7 -18   -0.39    0.47
   2   7  18    0.17    0.46
  -2  -7 -19    1.46    0.45
   2   7  19    1.26    0.48
  -2  -8  14   21.77    1.14
   2   8 -14   23.31    1.11
   2   8 -14   24.46    1.25
  -2  -8  13    9.17    0.97
  -2  -8  13    8.97    0.93
   2   8 -13   10.99    1.04
  -2  -8  12    1.47    0.61
  -2  -8  12    1.40    0.67
   2   8 -12    1.38    0.61
  -2  -8  11   30.56    1.98
  -2  -8  11   28.02    1.91
   2   8 -11   32.08    2.05
  -2  -8  10   10.09    1.33
  -2  -8  10   10.16    1.34
   2   8 -10   10.30    1.27
  -2  -8   9    0.67    0.70
   2   8  -9   -0.35    0.69
  -2  -8   8    3.34    0.98
   2   8  -8    3.60    0.99
  -2  -8   7    0.97    0.78
   2   8  -7    0.45    0.72
  -2  -8   6    1.91    0.88
   2   8  -6    1.59    0.93
   2   8  -6    2.15    0.87
  -2  -8   5    0.64    0.71
   2   8  -5    0.78    0.74
   2   8  -5    0.80    0.86
  -2  -8   4    6.24    1.23
   2   8  -4    5.60    1.26
   2   8  -4    7.83    1.20
  -2  -8   3    6.42    1.23
   2   8  -3    5.94    1.30
   2   8  -3    7.84    1.25
  -2  -8   2    9.29    1.43
   2   8  -2    8.27    1.52
  -2  -8   1   18.74    2.10
  -2  -8   1   14.34    1.76
   2   8  -1   11.71    1.70
   2   8  -1   16.92    1.76
  -2  -8   0   30.04    2.64
  -2  -8   0   25.78    2.29
   2   8   0   23.39    2.35
   2   8   0   30.88    2.30
  -2  -8  -1   19.40    2.31
  -2  -8  -1   14.02    1.73
   2   8   1   11.23    1.72
   2   8   1   19.82    1.94
  -2  -8  -2   15.58    2.19
  -2  -8  -2    6.24    1.32
   2   8   2   14.65    1.76
   2   8   2    4.51    1.27
  -2  -8  -3   52.14    3.70
  -2  -8  -3   49.60    3.03
  -2  -8  -4   29.87    3.01
  -2  -8  -4   28.73    2.35
   2   8   4   23.68    2.43
  -2  -8  -5   36.44    3.26
  -2  -8  -5   47.10    2.86
   2   8   5   39.67    2.89
   2   8   5   44.32    2.84
  -2  -8  -6   24.78    2.09
   2   8   6   23.83    2.20
   2   8   6   20.59    2.02
  -2  -8  -7    0.57    0.75
   2   8   7    0.46    0.79
  -2  -8  -8    0.50    0.73
   2   8   8    0.39    0.74
  -2  -8  -8    0.39    0.72
  -2  -8  -9    2.68    0.91
   2   8   9    2.48    1.02
  -2  -8 -10    0.34    0.80
  -2  -8 -10   -0.34    0.70
   2   8  10    0.74    0.83
  -2  -8 -11    9.52    1.53
  -2  -8 -11    9.17    1.37
   2   8  11   10.71    1.55
  -2  -8 -12   22.51    1.87
  -2  -8 -12   21.61    2.03
  -2  -8 -12   19.45    1.82
   2   8  12   22.86    2.13
  -2  -8 -13    7.72    1.12
  -2  -8 -13    7.83    1.26
  -2  -8 -13    7.60    1.18
   2   8  13    7.78    1.30
   2   8  14    0.16    0.65
  -2  -8 -14    0.33    0.61
  -2  -8 -14    0.12    0.59
  -2  -8 -15    0.27    0.61
  -2  -8 -15    0.18    0.57
   2   8  15    1.03    0.71
  -2  -8 -16   58.36    2.52
  -2  -8 -16   49.72    2.25
   2   8  16   55.69    2.58
  -2  -8 -17   37.65    1.75
   2   8  17   37.69    1.91
  -2  -8 -18    8.83    0.77
   2   8  18    9.00    0.83
  -2  -9  12    8.83    0.77
  -2  -9  12    6.64    0.66
   2   9 -12    8.46    0.83
  -2  -9  11   37.98    1.78
   2   9 -11   37.97    1.88
  -2  -9  10   55.45    2.36
  -2  -9  10   47.75    2.08
   2   9 -10   52.52    2.40
  -2  -9   9   19.55    1.55
  -2  -9   9   17.81    1.35
   2   9  -9   19.31    1.59
  -2  -9   8    5.68    0.86
  -2  -9   8    5.04    0.99
   2   9  -8    5.52    0.99
  -2  -9   7    5.59    1.05
  -2  -9   7    6.25    0.99
   2   9  -7    5.77    1.10
  -2  -9   6    0.33    0.65
   2   9  -6    0.08    0.63
  -2  -9   5    1.47    0.77
   2   9  -5    1.95    0.84
   2   9  -4    0.96    0.81
  -2  -9   4    1.20    0.79
  -2  -9   3    4.23    1.05
   2   9  -3    4.69    1.12
   2   9  -3    5.87    1.04
  -2  -9   2    7.12    1.36
  -2  -9   2    5.68    1.18
   2   9  -2    4.06    1.06
   2   9  -2    6.09    1.10
  -2  -9   1    9.73    1.59
  -2  -9   1    9.99    1.41
   2   9  -1    9.34    1.49
   2   9  -1   10.62    1.35
  -2  -9   0   12.83    1.81
  -2  -9   0   12.22    1.59
   2   9   0   12.30    1.66
   2   9   0   13.56    1.58
  -2  -9  -1   40.95    3.07
  -2  -9  -1   38.25    2.65
   2   9   1   38.04    2.67
   2   9   1   39.30    2.45
  -2  -9  -2   13.28    1.94
  -2  -9  -2   10.89    1.57
   2   9   2   10.44    1.57
   2   9   2   13.79    1.71
  -2  -9  -3   13.62    1.98
  -2  -9  -3   16.07    1.74
   2   9   3   14.83    1.81
   2   9   3   16.50    1.74
  -2  -9  -4    1.80    0.81
  -2  -9  -4    1.07    0.90
   2   9   4    1.70    0.95
   2   9   4    2.75    1.00
  -2  -9  -5    2.94    0.97
   2   9   5    2.88    1.00
  -2  -9  -6    8.53    1.27
   2   9   6    1.18    0.83
  -2  -9  -7    1.00    0.75
   2   9   7    2.04    0.96
  -2  -9  -7    0.43    0.73
  -2  -9  -8    5.76    1.11
   2   9   8    6.50    1.24
  -2  -9  -9    3.73    1.10
  -2  -9  -9    4.70    1.00
   2   9   9    5.29    1.16
  -2  -9 -10    2.45    0.95
   2   9  10    1.94    0.90
  -2  -9 -10    1.88    0.86
  -2  -9 -10    1.94    0.77
  -2  -9 -11    0.68    0.71
  -2  -9 -11    0.82    0.70
  -2  -9 -11    0.87    0.62
   2   9  11    1.12    0.77
  -2  -9 -12    0.91    0.62
  -2  -9 -12    1.02    0.71
  -2  -9 -12    0.74    0.60
   2   9  12    0.86    0.69
  -2  -9 -13    1.36    0.56
  -2  -9 -13    1.21    0.65
  -2  -9 -13    0.70    0.51
   2   9  13    0.94    0.66
  -2  -9 -14    1.33    0.60
  -2  -9 -14    0.91    0.53
   2   9  14   -0.14    0.55
  -2  -9 -15    0.17    0.45
  -2  -9 -15    0.50    0.44
   2   9  15    0.18    0.50
  -2  -9 -16    1.37    0.49
  -2  -9 -16    0.54    0.37
   2   9  16    0.63    0.48
   2  10 -10   15.08    0.99
  -2 -10   9   25.31    1.35
   2  10  -9   25.20    1.43
  -2 -10   8   17.14    1.23
   2  10  -8   17.38    1.31
  -2 -10   7   28.74    1.70
   2  10  -7   28.52    1.76
  -2 -10   6   14.43    1.31
   2  10  -6   14.64    1.37
  -2 -10   5    2.88    0.78
   2  10  -5    2.91    0.93
  -2 -10   4   12.79    1.42
   2  10  -4   11.26    1.31
  -2 -10   3    4.91    0.98
   2  10  -3    3.79    0.91
  -2 -10   2    1.18    0.66
  -2 -10   2    0.45    0.73
  -2 -10   2    0.41    0.62
   2  10  -2    0.50    0.68
  -2 -10   1    2.07    0.76
  -2 -10   1    1.10    0.73
  -2 -10   1    0.97    0.68
   2  10  -1    1.18    0.73
  -2 -10   0    0.39    0.84
  -2 -10   0    0.45    0.68
  -2 -10   0    0.04    0.60
   2  10   0    0.27    0.60
  -2 -10  -1    9.47    1.29
  -2 -10  -1    7.88    1.39
  -2 -10  -1    7.64    1.21
   2  10   1    8.95    1.31
  -2 -10  -2   17.72    1.96
  -2 -10  -2   18.80    1.76
  -2 -10  -2   18.19    1.74
   2  10   2   18.66    1.78
  -2 -10  -3    9.01    1.50
  -2 -10  -3    9.03    1.37
  -2 -10  -3    8.65    1.28
   2  10   3    8.35    1.26
  -2 -10  -4    6.99    1.25
  -2 -10  -4    6.10    1.12
   2  10   4    5.63    1.05
  -2 -10  -5    3.60    1.00
  -2 -10  -5    3.19    0.87
   2  10   5    3.38    0.90
  -2 -10  -6    6.23    1.17
  -2 -10  -6    5.34    0.96
   2  10   6    6.71    1.25
  -2 -10  -6    5.45    1.02
  -2 -10  -7    3.63    1.00
  -2 -10  -7    2.77    0.79
   2  10   7    3.57    0.94
  -2 -10  -8    1.66    0.82
  -2 -10  -8    0.49    0.65
  -2 -10  -8    0.65    0.59
   2  10   8    0.55    0.66
  -2 -10  -9    2.10    0.82
  -2 -10  -9    1.60    0.74
  -2 -10  -9    2.05    0.63
   2  10   9    2.66    0.83
  -2 -10 -10    2.43    0.73
  -2 -10 -10    1.59    0.72
  -2 -10 -10    1.89    0.62
   2  10  10    1.98    0.76
  -2 -10 -11    2.25    0.67
  -2 -10 -11    2.90    0.75
  -2 -10 -11    2.65    0.64
   2  10  11    2.41    0.70
  -2 -10 -12    0.05    0.43
  -2 -10 -12    0.66    0.56
  -2 -10 -12    1.02    0.47
   2  10  12    1.06    0.61
  -2 -10 -13    1.85    0.49
  -2 -10 -13    0.81    0.49
  -2 -10 -13    0.69    0.41
   2  10  13    1.05    0.57
   2  10  14   -0.20    0.41
  -2 -10 -14    0.13    0.40
  -2 -10 -14    0.36    0.36
  -2 -11   6    1.13    0.43
  -2 -11   6    1.08    0.47
   2  11  -6    1.01    0.44
  -2 -11   5    1.65    0.49
   2  11  -5    2.14    0.55
  -2 -11   4   16.60    1.22
   2  11  -4   17.69    1.24
  -2 -11   3   23.15    1.48
   2  11  -3   24.34    1.51
  -2 -11   2    8.51    1.00
   2  11  -2    7.30    0.92
  -2 -11   1    4.90    0.82
   2  11  -1    4.68    0.79
  -2 -11   0    9.57    1.00
  -2 -11   0   12.80    1.18
  -2 -11   0    9.37    1.09
   2  11   0    9.49    1.06
  -2 -11  -1    6.13    0.92
  -2 -11  -1    5.61    0.94
   2  11   1    6.04    0.93
  -2 -11  -2   12.35    1.21
  -2 -11  -2   11.77    1.21
   2  11   2   13.47    1.24
  -2 -11  -3   13.58    1.30
  -2 -11  -3   15.47    1.33
  -2 -11  -3   14.70    1.35
   2  11   3   15.43    1.31
  -2 -11  -4   29.25    1.84
  -2 -11  -4   32.58    1.75
   2  11   4   33.95    2.10
  -2 -11  -4   30.19    1.86
  -2 -11  -5    5.12    0.93
  -2 -11  -5    4.98    0.78
   2  11   5    5.49    0.98
  -2 -11  -6    1.44    0.66
  -2 -11  -6    1.47    0.67
  -2 -11  -6    1.14    0.47
   2  11   6    1.39    0.67
  -2 -11  -7    1.86    0.67
   2  11   7    1.72    0.64
  -2 -11  -7    1.63    0.66
  -2 -11  -7    1.69    0.52
  -2 -11  -8    2.01    0.67
  -2 -11  -8    2.30    0.71
  -2 -11  -8    2.70    0.56
   2  11   8    1.97    0.62
  -2 -11  -9    3.81    0.71
  -2 -11  -9    4.69    0.79
  -2 -11  -9    6.05    0.68
   2  11   9    5.69    0.84
  -2 -11  -9    7.23    0.77
  -2 -11 -10    0.78    0.46
  -2 -11 -10    1.27    0.53
  -2 -11 -10    1.68    0.43
   2  11  10    1.76    0.57
  -2 -11 -11    1.30    0.45
  -2 -11 -11    1.07    0.44
   2  11  11    1.00    0.45
   2  12  -1    5.75    0.66
   2  12   0   22.88    1.24
  -2 -12   0   20.77    1.17
   2  12   1   39.80    1.66
  -2 -12  -1   32.94    1.54
   2  12   2    5.24    0.74
  -2 -12  -2    6.15    0.79
  -2 -12  -3    8.18    0.76
  -2 -12  -3    8.07    0.86
   2  12   3    8.24    0.83
  -2 -12  -3    8.33    0.85
  -2 -12  -4   18.24    1.07
  -2 -12  -4   18.82    1.21
   2  12   4   21.88    1.24
  -2 -12  -4   19.11    1.17
  -2 -12  -5    3.17    0.55
  -2 -12  -5    3.16    0.59
   2  12   5    3.11    0.56
  -2 -12  -5    3.68    0.61
  -2 -12  -6    0.53    0.37
  -2 -12  -6    0.52    0.40
   3  -8  -3    2.25    0.52
   3  -8  -2    1.90    0.54
   3  -8  -1    3.23    0.60
   3  -8  -1    1.82    0.56
   3  -8   0    3.14    0.60
   3  -8   0    3.85    0.63
   3  -8   1   13.35    0.97
   3  -8   1   14.64    0.98
   3  -8   2   13.41    0.92
   3  -8   2   11.10    0.89
   3  -7  -8    2.16    0.50
   3  -7  -7    6.13    0.71
   3  -7  -7   14.38    1.02
   3  -7  -6   18.37    1.18
   3  -7  -6   22.48    1.35
   3  -7  -5   11.64    0.96
   3  -7  -5   13.57    1.20
   3  -7  -4   18.82    1.38
   3  -7  -4   17.11    1.16
   3  -7  -4   15.61    1.36
   3  -7  -3    1.71    0.55
   3  -7  -3    2.19    0.74
   3  -7  -2    7.48    1.04
   3  -7  -2    5.82    0.97
   3  -7  -1   11.02    1.19
   3  -7  -1    9.86    1.18
   3  -7   0    1.81    0.69
   3  -7   0    0.42    0.54
   3  -7   0    0.23    0.58
   3  -7   1    3.49    0.78
   3  -7   1    3.52    0.84
   3  -7   2    0.34    0.54
   3  -7   2    0.46    0.59
   3  -7   2   -0.18    0.54
   3  -7   3    0.61    0.51
   3  -7   3   -0.28    0.54
   3  -7   3    0.63    0.62
   3  -7   4    0.13    0.46
   3  -7   4    0.37    0.50
   3  -7   5    0.82    0.49
   3  -7   5    0.07    0.47
   3  -7   5    1.14    0.56
   3  -7   6    2.44    0.59
   3  -7   6    2.38    0.60
   3  -7   6    2.85    0.65
   3  -7   7    9.47    0.88
   3  -7   7    9.95    0.84
   3  -7   8    0.82    0.38
   3  -6 -11    2.57    0.51
   3  -6 -11    2.19    0.42
   3  -6 -10    5.91    0.75
   3  -6 -10    4.85    0.57
   3  -6  -9   -0.40    0.55
   3  -6  -9   -1.01    0.49
   3  -6  -8    0.49    0.52
   3  -6  -8   -0.19    0.43
   3  -6  -7    0.72    0.57
   3  -6  -7   -0.10    0.50
   3  -6  -6   14.81    1.38
   3  -6  -6    6.18    0.94
   3  -6  -6    6.26    0.73
   3  -6  -6    8.82    1.18
   3  -6  -6   13.90    1.00
   3  -6  -5   18.44    1.58
   3  -6  -5   11.31    1.22
   3  -6  -5   12.81    1.05
   3  -6  -5   12.76    1.47
   3  -6  -5   19.23    1.20
   3  -6  -5   21.50    1.17
   3  -6  -4   21.93    1.94
   3  -6  -4   20.37    1.76
   3  -6  -4   13.85    1.34
   3  -6  -4   19.06    1.22
   3  -6  -4   17.67    1.70
   3  -6  -4   24.36    1.41
   3  -6  -4   23.87    1.29
   3  -6  -3   10.74    1.53
   3  -6  -3   11.92    1.38
   3  -6  -3   10.03    1.36
   3  -6  -3    6.29    0.98
   3  -6  -3    7.93    1.23
   3  -6  -3   15.68    1.26
   3  -6  -3   16.63    1.21
   3  -6  -2    5.86    1.34
   3  -6  -2    6.79    1.20
   3  -6  -2    2.35    0.71
   3  -6  -2    1.89    0.89
   3  -6  -2   11.35    1.20
   3  -6  -2    3.53    0.96
   3  -6  -2   11.99    1.20
   3  -6  -1   52.97    3.06
   3  -6  -1   60.94    2.86
   3  -6  -1   49.24    2.77
   3  -6  -1   58.33    2.50
   3  -6  -1   47.37    2.78
   3  -6  -1   59.89    2.36
   3  -6  -1   57.95    2.23
   3  -6   0    6.81    1.40
   3  -6   0    3.28    0.95
   3  -6   0    6.97    1.18
   3  -6   0    2.12    0.84
   3  -6   0    1.34    0.74
   3  -6   1   29.33    2.03
   3  -6   1   30.08    1.88
   3  -6   1   24.24    1.97
   3  -6   1   23.24    1.95
   3  -6   2    0.34    0.64
   3  -6   2    2.74    0.84
   3  -6   2   -0.87    0.83
   3  -6   2   -0.21    0.73
   3  -6   2    2.29    0.95
   3  -6   3   -0.31    0.65
   3  -6   3    2.38    0.81
   3  -6   3   -0.95    0.80
   3  -6   3   -0.15    0.68
   3  -6   3    1.71    0.84
   3  -6   4   -0.38    0.68
   3  -6   4    1.47    0.71
   3  -6   4   -0.63    0.78
   3  -6   4    0.32    0.68
   3  -6   4    1.00    0.70
   3  -6   5    3.00    0.77
   3  -6   5    3.76    0.78
   3  -6   5    1.87    0.67
   3  -6   5    4.38    0.90
   3  -6   5    2.87    0.84
   3  -6   6   -0.63    0.68
   3  -6   6    1.25    0.59
   3  -6   6   -0.85    0.68
   3  -6   6    0.24    0.54
   3  -6   7   -0.56    0.63
   3  -6   7   -0.91    0.59
   3  -6   7    0.37    0.50
   3  -6   8   -1.29    0.67
   3  -6   8    0.57    0.54
   3  -6   8   -0.45    0.51
   3  -6   9   -0.15    0.52
   3  -6   9    0.73    0.51
   3  -6  10   10.52    0.99
   3  -6  10   12.55    0.97
   3  -6  11    0.00    0.39
   3  -5 -13    1.53    0.40
   3  -5 -12    2.80    0.60
   3  -5 -12    2.57    0.54
   3  -5 -11   11.02    0.85
   3  -5 -11    8.70    0.96
   3  -5 -11    9.11    0.89
   3  -5 -10    1.47    0.54
   3  -5 -10    0.67    0.56
   3  -5 -10    1.40    0.55
   3  -5  -9    8.98    0.94
   3  -5  -9    7.04    1.05
   3  -5  -9    7.29    0.92
   3  -5  -8    1.55    0.66
   3  -5  -8    0.10    0.67
   3  -5  -8    2.09    0.68
   3  -5  -8    2.97    0.67
   3  -5  -8    1.22    0.53
   3  -5  -7    6.88    0.98
   3  -5  -7    3.92    0.92
   3  -5  -7    6.98    1.01
   3  -5  -7   10.14    1.36
   3  -5  -7    8.90    0.92
   3  -5  -7    5.83    0.79
   3  -5  -6    7.42    1.07
   3  -5  -6    4.43    0.94
   3  -5  -6    6.27    1.02
   3  -5  -6    6.24    1.22
   3  -5  -6    6.47    0.91
   3  -5  -6    5.05    0.81
   3  -5  -5   25.44    2.25
   3  -5  -5   21.78    1.66
   3  -5  -5   24.23    2.00
   3  -5  -5   14.74    1.63
   3  -5  -5   19.67    1.56
   3  -5  -5   19.84    1.95
   3  -5  -5   22.47    1.55
   3  -5  -5   19.62    1.40
   3  -5  -4   36.10    2.66
   3  -5  -4   33.39    2.25
   3  -5  -4   33.76    2.04
   3  -5  -4   33.47    2.36
   3  -5  -4   29.61    1.86
   3  -5  -4   30.78    2.41
   3  -5  -4   33.47    1.86
   3  -5  -4   30.86    1.80
   3  -5  -3   15.08    1.88
   3  -5  -3   14.61    1.63
   3  -5  -3   11.90    1.60
   3  -5  -3    8.62    1.26
   3  -5  -3    9.57    1.11
   3  -5  -3    9.65    1.52
   3  -5  -3   16.27    1.46
   3  -5  -3   11.46    1.21
   3  -5  -2   12.13    1.76
   3  -5  -2   12.83    1.54
   3  -5  -2   13.03    1.58
   3  -5  -2    9.65    1.51
   3  -5  -2    6.68    1.11
   3  -5  -2    9.49    1.07
   3  -5  -2    7.94    1.39
   3  -5  -2   13.13    1.44
   3  -5  -2   11.34    1.25
   3  -5  -1    2.80    1.17
   3  -5  -1    0.22    0.65
   3  -5  -1    3.39    1.08
   3  -5  -1   -0.64    0.85
   3  -5  -1    0.19    0.67
   3  -5  -1   -0.53    0.81
   3  -5  -1   -0.30    1.03
   3  -5  -1    4.52    1.17
   3  -5  -1    2.26    0.86
   3  -5   0    2.94    1.26
   3  -5   0    0.30    0.70
   3  -5   0    2.33    0.97
   3  -5   0    0.06    0.70
   3  -5   0   -0.71    0.97
   3  -5   0   -1.24    1.16
   3  -5   0    5.49    1.23
   3  -5   0    3.48    1.11
   3  -5   0    3.93    1.01
   3  -5   1   27.29    2.48
   3  -5   1   26.50    2.07
   3  -5   1   24.43    1.87
   3  -5   1   20.67    2.02
   3  -5   1   21.49    2.04
   3  -5   1   24.41    2.22
   3  -5   1   25.89    1.86
   3  -5   1   27.46    1.88
   3  -5   2   13.94    1.57
   3  -5   2   14.73    1.51
   3  -5   2   16.86    1.31
   3  -5   2    9.99    1.44
   3  -5   2   11.07    1.52
   3  -5   2   13.29    1.70
   3  -5   2   17.80    1.63
   3  -5   2   18.01    1.61
   3  -5   3    2.03    0.74
   3  -5   3    3.58    0.91
   3  -5   3    5.82    0.96
   3  -5   3    1.57    0.75
   3  -5   3    2.62    0.97
   3  -5   3   11.62    1.54
   3  -5   3    3.48    0.99
   3  -5   3   11.79    1.48
   3  -5   4    0.87    0.65
   3  -5   4    0.51    0.67
   3  -5   4    3.22    0.88
   3  -5   4    0.19    0.87
   3  -5   4    0.62    0.76
   3  -5   4    2.15    0.94
   3  -5   5    6.63    1.14
   3  -5   5    5.88    1.01
   3  -5   5    2.66    0.85
   3  -5   5    6.05    1.12
   3  -5   5    5.26    1.11
   3  -5   6    1.46    0.77
   3  -5   6   -0.25    0.68
   3  -5   6    0.03    0.75
   3  -5   6    2.19    0.85
   3  -5   6    0.87    0.70
   3  -5   7    6.71    1.14
   3  -5   7    5.85    0.93
   3  -5   7    4.55    0.91
   3  -5   7    4.92    1.03
   3  -5   8   15.84    1.57
   3  -5   8   15.47    1.31
   3  -5   8   13.33    1.28
   3  -5   8   12.28    1.34
   3  -5   9    0.27    0.59
   3  -5   9   -0.50    0.57
   3  -5   9    0.73    0.58
   3  -5  10    0.35    0.52
   3  -5  10    0.02    0.48
   3  -5  10    0.71    0.59
   3  -5  11    0.54    0.54
   3  -5  11    0.46    0.44
   3  -5  11    0.46    0.50
   3  -5  12    2.42    0.60
   3  -5  13    4.55    0.67
   3  -4 -14    0.31    0.36
   3  -4 -13    3.33    0.58
   3  -4 -13    4.93    0.71
   3  -4 -13    3.85    0.67
   3  -4 -12    4.30    0.70
   3  -4 -12    4.37    0.78
   3  -4 -12    4.32    0.75
   3  -4 -11    0.81    0.55
   3  -4 -11    0.09    0.65
   3  -4 -11    1.39    0.64
   3  -4 -11   -0.89    0.57
   3  -4 -10    0.46    0.63
   3  -4 -10   -1.07    0.79
   3  -4 -10   -0.60    0.57
   3  -4 -10    1.37    0.63
   3  -4 -10   -0.97    0.63
   3  -4  -9    3.54    0.87
   3  -4  -9    1.41    0.74
   3  -4  -9    3.62    0.80
   3  -4  -9    2.78    0.64
   3  -4  -9    0.98    0.61
   3  -4  -8    9.30    1.19
   3  -4  -8    6.02    1.07
   3  -4  -8    7.59    1.08
   3  -4  -8    7.06    0.91
   3  -4  -8    4.53    0.76
   3  -4  -7    1.88    0.82
   3  -4  -7   -0.62    0.85
   3  -4  -7    1.09    0.69
   3  -4  -7    3.60    1.17
   3  -4  -7   -0.82    0.76
   3  -4  -7   -2.59    0.94
   3  -4  -6    0.61    0.72
   3  -4  -6   -0.12    0.75
   3  -4  -6    0.87    0.70
   3  -4  -6    0.80    0.91
   3  -4  -6   -1.03    0.81
   3  -4  -5    8.87    1.61
   3  -4  -5    4.59    1.10
   3  -4  -5    7.67    1.51
   3  -4  -5    4.31    1.06
   3  -4  -5    4.16    0.99
   3  -4  -5    5.16    1.30
   3  -4  -5    2.68    0.75
   3  -4  -5    1.89    0.74
   3  -4  -4    8.63    1.63
   3  -4  -4    6.36    1.24
   3  -4  -4    7.53    1.37
   3  -4  -4    5.98    1.21
   3  -4  -4    4.64    1.11
   3  -4  -4    5.94    1.38
   3  -4  -4    5.11    1.06
   3  -4  -4    4.07    1.19
   3  -4  -4    2.35    0.84
   3  -4  -4    0.11    0.96
   3  -4  -3    4.51    1.50
   3  -4  -3    2.81    0.93
   3  -4  -3    5.91    1.36
   3  -4  -3    6.56    1.35
   3  -4  -3    0.70    0.89
   3  -4  -3    3.78    1.11
   3  -4  -3    2.49    1.12
   3  -4  -3    1.89    1.10
   3  -4  -3    3.56    1.12
   3  -4  -3    1.42    0.86
   3  -4  -2   60.51    3.67
   3  -4  -2   64.26    3.29
   3  -4  -2   60.54    3.11
   3  -4  -2   66.96    3.30
   3  -4  -2   58.17    3.49
   3  -4  -2   49.58    3.06
   3  -4  -2   54.76    2.85
   3  -4  -2   55.21    3.53
   3  -4  -2   67.34    3.08
   3  -4  -2   66.40    3.07
   3  -4  -1  279.12    8.29
   3  -4  -1  295.72    7.09
   3  -4  -1  295.60    7.10
   3  -4  -1  287.73    7.94
   3  -4  -1  283.74    7.32
   3  -4  -1  286.68    6.72
   3  -4  -1  285.35    8.02
   3  -4  -1  290.80    6.71
   3  -4  -1  285.50    6.71
   3  -4   0  339.26    9.07
   3  -4   0  383.65    8.61
   3  -4   0  330.62    7.68
   3  -4   0  368.82    6.73
   3  -4   0  343.46    7.95
   3  -4   0  328.20    8.62
   3  -4   0  352.28    7.37
   3  -4   0  308.10    8.50
   3  -4   0  331.51    8.55
   3  -4   0  322.45    7.24
   3  -4   0  316.88    7.22
   3  -4   1    4.01    1.52
   3  -4   1   -0.83    0.80
   3  -4   1    0.41    0.86
   3  -4   1    7.92    1.31
   3  -4   1    0.51    0.80
   3  -4   1    2.01    0.91
   3  -4   1   -0.95    0.90
   3  -4   1   -0.48    0.94
   3  -4   1    9.00    1.58
   3  -4   1    3.00    1.28
   3  -4   1    7.34    1.44
   3  -4   2   15.76    1.69
   3  -4   2   11.84    1.38
   3  -4   2   14.64    1.34
   3  -4   2   12.41    1.60
   3  -4   2   12.00    1.70
   3  -4   2   15.81    1.87
   3  -4   2   16.81    1.66
   3  -4   2   15.45    1.53
   3  -4   3    9.18    1.46
   3  -4   3    5.84    1.14
   3  -4   3    8.57    1.15
   3  -4   3    4.83    1.21
   3  -4   3    5.19    1.27
   3  -4   3    8.98    1.48
   3  -4   3   13.95    1.58
   3  -4   3   11.26    1.48
   3  -4   4   35.71    2.54
   3  -4   4   32.76    2.21
   3  -4   4   32.64    1.95
   3  -4   4   27.56    2.29
   3  -4   4   33.15    2.51
   3  -4   4   33.67    2.57
   3  -4   4   40.23    2.31
   3  -4   4   34.05    2.17
   3  -4   5    9.15    1.38
   3  -4   5    6.47    1.08
   3  -4   5   11.83    1.32
   3  -4   5    5.72    1.13
   3  -4   5    8.85    1.43
   3  -4   5    8.91    1.48
   3  -4   5   18.40    1.80
   3  -4   5   18.39    1.74
   3  -4   6   10.68    1.47
   3  -4   6    9.98    1.32
   3  -4   6   13.54    1.38
   3  -4   6    7.68    1.22
   3  -4   6   12.65    1.56
   3  -4   6    9.85    1.44
   3  -4   7    2.74    0.93
   3  -4   7    3.10    0.85
   3  -4   7    4.96    1.05
   3  -4   7    1.58    0.73
   3  -4   7    3.43    1.00
   3  -4   8    0.01    0.59
   3  -4   8    0.62    0.62
   3  -4   8    2.46    0.92
   3  -4   8   -0.26    0.68
   3  -4   8    0.93    0.70
   3  -4   9    2.18    0.86
   3  -4   9    3.02    0.82
   3  -4   9    1.68    0.69
   3  -4  10    1.00    0.65
   3  -4  10    2.11    0.69
   3  -4  10    1.79    0.70
   3  -4  11   16.29    1.54
   3  -4  11   16.66    1.33
   3  -4  11   18.55    1.42
   3  -4  12    0.55    0.58
   3  -4  12   -0.70    0.55
   3  -4  13    4.15    0.79
   3  -4  13    3.35    0.58
   3  -4  14    1.36    0.52
   3  -4  15    1.03    0.44
   3  -3 -15    1.11    0.43
   3  -3 -15    0.11    0.41
   3  -3 -14    3.23    0.62
   3  -3 -14    3.99    0.63
   3  -3 -13    3.58    0.74
   3  -3 -13    6.11    0.86
   3  -3 -13    4.75    0.77
   3  -3 -13    6.36    0.71
   3  -3 -12    2.88    0.74
   3  -3 -12    3.37    0.79
   3  -3 -12    3.59    0.77
   3  -3 -12    2.02    0.53
   3  -3 -12    4.19    0.69
   3  -3 -11    4.79    0.89
   3  -3 -11    6.16    1.05
   3  -3 -11    5.91    0.92
   3  -3 -11    4.01    0.73
   3  -3 -11    6.22    0.88
   3  -3 -10    5.00    0.95
   3  -3 -10    4.02    0.99
   3  -3 -10    5.90    0.98
   3  -3 -10    6.44    0.91
   3  -3 -10    6.65    0.94
   3  -3  -9    8.30    1.21
   3  -3  -9    6.96    1.29
   3  -3  -9    8.17    1.13
   3  -3  -9   11.31    1.23
   3  -3  -9    9.54    1.19
   3  -3  -8    7.45    1.24
   3  -3  -8    5.63    1.18
   3  -3  -8    7.86    1.15
   3  -3  -8    9.55    1.20
   3  -3  -8    7.74    1.12
   3  -3  -7    1.25    0.82
   3  -3  -7    1.23    0.85
   3  -3  -7   -1.07    1.04
   3  -3  -7    0.21    0.65
   3  -3  -7    2.33    0.90
   3  -3  -6    0.17    0.77
   3  -3  -6   -1.51    1.02
   3  -3  -6    0.14    0.68
   3  -3  -6    2.05    1.13
   3  -3  -6    1.26    0.82
   3  -3  -6    1.09    0.87
   3  -3  -5    5.92    1.24
   3  -3  -5    1.79    0.93
   3  -3  -5    5.64    1.45
   3  -3  -5   -0.38    0.94
   3  -3  -5    1.42    0.82
   3  -3  -5    2.73    1.28
   3  -3  -5    2.74    0.92
   3  -3  -5    1.11    0.91
   3  -3  -4   16.73    2.12
   3  -3  -4   15.34    1.62
   3  -3  -4   11.84    1.56
   3  -3  -4   14.23    1.87
   3  -3  -4    7.46    1.35
   3  -3  -4   10.98    1.40
   3  -3  -4   11.06    1.78
   3  -3  -4    8.01    1.19
   3  -3  -4   11.50    1.46
   3  -3  -3   12.23    1.94
   3  -3  -3   10.22    1.44
   3  -3  -3    9.46    1.37
   3  -3  -3    8.56    1.43
   3  -3  -3    8.40    1.64
   3  -3  -3    3.20    0.95
   3  -3  -3    8.12    1.32
   3  -3  -3    5.90    1.55
   3  -3  -3    2.82    0.83
   3  -3  -3    8.42    1.39
   3  -3  -2    6.80    1.78
   3  -3  -2    3.35    1.05
   3  -3  -2    2.83    1.00
   3  -3  -2    5.31    1.41
   3  -3  -2    8.11    1.22
   3  -3  -2    0.87    0.78
   3  -3  -2    5.24    1.20
   3  -3  -2    2.37    1.16
   3  -3  -2    0.35    0.93
   3  -3  -2    2.22    1.12
   3  -3  -2    3.51    1.09
   3  -3  -1   14.75    2.31
   3  -3  -1   13.46    1.60
   3  -3  -1   12.55    1.56
   3  -3  -1   14.61    1.82
   3  -3  -1   12.21    1.82
   3  -3  -1   10.07    1.53
   3  -3  -1   17.20    1.58
   3  -3  -1   10.24    1.40
   3  -3  -1   10.02    1.77
   3  -3  -1   11.21    1.47
   3  -3  -1    9.04    1.40
   3  -3   0   72.26    4.29
   3  -3   0   73.36    3.42
   3  -3   0   73.70    3.45
   3  -3   0   72.63    3.96
   3  -3   0   67.50    3.53
   3  -3   0   77.52    3.07
   3  -3   0   69.64    3.15
   3  -3   0   66.76    3.89
   3  -3   0   69.56    3.92
   3  -3   0   68.28    3.24
   3  -3   0   65.47    3.15
   3  -3   1   24.79    2.70
   3  -3   1   21.31    2.04
   3  -3   1   20.33    1.86
   3  -3   1   25.60    2.27
   3  -3   1   18.57    1.95
   3  -3   1   21.31    2.22
   3  -3   1   22.47    1.75
   3  -3   1   20.29    1.82
   3  -3   1   18.30    2.23
   3  -3   1   21.46    2.32
   3  -3   1   20.16    1.90
   3  -3   1   20.78    1.85
   3  -3   2   15.37    1.73
   3  -3   2   10.11    1.37
   3  -3   2   12.61    1.57
   3  -3   2    9.49    1.24
   3  -3   2   11.12    1.34
   3  -3   2    7.87    1.42
   3  -3   2    9.87    1.61
   3  -3   2   12.87    1.80
   3  -3   2   12.75    1.54
   3  -3   2   10.35    1.36
   3  -3   3   32.79    2.45
   3  -3   3   29.13    2.21
   3  -3   3   25.97    1.81
   3  -3   3   24.69    2.23
   3  -3   3   33.27    2.09
   3  -3   3   26.65    2.40
   3  -3   3   28.99    2.50
   3  -3   3   28.29    2.10
   3  -3   3   27.63    1.99
   3  -3   4   19.39    1.96
   3  -3   4   19.93    1.90
   3  -3   4   17.37    1.52
   3  -3   4   14.72    1.79
   3  -3   4   18.58    2.06
   3  -3   4   17.19    1.92
   3  -3   4   22.78    1.86
   3  -3   4   20.88    1.78
   3  -3   5   10.86    1.54
   3  -3   5    9.77    1.40
   3  -3   5    8.19    1.17
   3  -3   5    5.23    1.16
   3  -3   5    9.83    1.57
   3  -3   5    9.13    1.49
   3  -3   5   17.39    1.69
   3  -3   5   16.17    1.62
   3  -3   6   -0.13    0.66
   3  -3   6   -0.05    0.74
   3  -3   6    1.47    0.86
   3  -3   6   -0.80    1.00
   3  -3   6    2.12    1.10
   3  -3   6    7.78    1.32
   3  -3   6    1.24    0.85
   3  -3   6    9.69    1.47
   3  -3   7    7.77    1.32
   3  -3   7    8.71    1.36
   3  -3   7   10.34    1.36
   3  -3   7    5.72    1.11
   3  -3   7   11.10    1.64
   3  -3   7    8.16    1.36
   3  -3   8   69.00    3.56
   3  -3   8   65.44    3.25
   3  -3   8   65.62    2.74
   3  -3   9   43.26    2.77
   3  -3   9   41.31    2.53
   3  -3   9   39.53    2.21
   3  -3   9   39.68    2.45
   3  -3  10    7.44    1.25
   3  -3  10    8.08    1.17
   3  -3  10   11.21    1.33
   3  -3  10    8.60    1.14
   3  -3  11    3.21    0.90
   3  -3  11    3.59    0.91
   3  -3  12    0.39    0.59
   3  -3  12    0.61    0.61
   3  -3  13    7.84    1.11
   3  -3  13    8.82    1.04
   3  -3  14    4.97    0.89
   3  -3  14    6.04    0.90
   3  -3  15    2.97    0.67
   3  -3  15    3.75    0.64
   3  -3  16    1.16    0.46
   3  -2 -16    0.65    0.39
   3  -2 -15    2.03    0.53
   3  -2 -15    1.35    0.54
   3  -2 -15    0.10    0.43
   3  -2 -14    1.26    0.52
   3  -2 -14    0.96    0.49
   3  -2 -14    0.24    0.51
   3  -2 -14    1.35    0.53
   3  -2 -14    0.31    0.43
   3  -2 -13    3.41    0.70
   3  -2 -13    4.87    0.76
   3  -2 -13    3.29    0.79
   3  -2 -13    4.45    0.81
   3  -2 -13    6.16    0.92
   3  -2 -13    5.02    0.74
   3  -2 -12   13.40    1.36
   3  -2 -12   17.93    1.53
   3  -2 -12   16.17    1.33
   3  -2 -12   16.14    1.26
   3  -2 -12   16.91    1.30
   3  -2 -12   14.69    1.24
   3  -2 -11    0.02    0.63
   3  -2 -11    0.61    0.60
   3  -2 -11   -0.73    0.78
   3  -2 -11    0.01    0.65
   3  -2 -11    0.04    0.59
   3  -2 -11    0.00    0.62
   3  -2 -10    0.02    0.66
   3  -2 -10    1.26    0.64
   3  -2 -10   -0.38    0.83
   3  -2 -10   -0.79    0.87
   3  -2 -10    0.43    0.67
   3  -2 -10    0.78    0.67
   3  -2  -9    1.59    0.90
   3  -2  -9    1.33    0.81
   3  -2  -9    1.42    0.83
   3  -2  -9    3.38    0.92
   3  -2  -9    2.54    0.85
   3  -2  -8    1.05    0.85
   3  -2  -8   -0.88    0.88
   3  -2  -8   -1.08    0.98
   3  -2  -8    1.15    0.75
   3  -2  -8    0.26    0.74
   3  -2  -7   -0.28    0.83
   3  -2  -7   -0.62    0.89
   3  -2  -7   -0.97    1.10
   3  -2  -7    1.05    0.79
   3  -2  -7    0.69    0.78
   3  -2  -6    0.18    0.79
   3  -2  -6   -0.22    0.85
   3  -2  -6    8.34    1.91
   3  -2  -6   -1.56    1.11
   3  -2  -6    0.39    0.78
   3  -2  -6    6.24    1.49
   3  -2  -6    1.50    0.95
   3  -2  -5    4.96    1.08
   3  -2  -5   11.84    1.48
   3  -2  -5    5.34    1.16
   3  -2  -5   10.83    2.06
   3  -2  -5    6.24    1.16
   3  -2  -5    3.90    0.97
   3  -2  -5   11.72    1.76
   3  -2  -5    6.83    1.25
   3  -2  -4    1.85    0.91
   3  -2  -4    4.98    1.12
   3  -2  -4    1.82    0.94
   3  -2  -4    4.64    1.65
   3  -2  -4    0.92    0.74
   3  -2  -4   -0.01    1.06
   3  -2  -4    2.56    1.28
   3  -2  -4    2.58    0.97
   3  -2  -4    2.30    0.96
   3  -2  -3    5.88    1.23
   3  -2  -3    5.59    1.19
   3  -2  -3    5.39    1.23
   3  -2  -3    8.18    1.65
   3  -2  -3    6.59    1.10
   3  -2  -3    2.88    0.98
   3  -2  -3    7.61    1.68
   3  -2  -3    5.84    1.25
   3  -2  -3    4.79    1.13
   3  -2  -2    5.62    1.08
   3  -2  -2    6.18    1.32
   3  -2  -2   11.34    2.58
   3  -2  -2    7.29    1.65
   3  -2  -2    7.01    1.09
   3  -2  -2    3.57    1.06
   3  -2  -2    6.67    1.20
   3  -2  -2    5.58    1.52
   3  -2  -2    7.17    1.31
   3  -2  -2    6.23    1.30
   3  -2  -1   27.28    2.06
   3  -2  -1   28.83    2.28
   3  -2  -1   29.54    2.55
   3  -2  -1   26.16    2.23
   3  -2  -1   32.45    2.06
   3  -2  -1   26.32    2.02
   3  -2  -1   30.95    2.66
   3  -2  -1   30.97    2.21
   3  -2  -1   29.38    2.19
   3  -2   0   37.42    2.51
   3  -2   0   45.68    2.77
   3  -2   0   40.93    2.96
   3  -2   0   39.28    2.74
   3  -2   0   45.97    2.48
   3  -2   0   38.90    2.40
   3  -2   0   40.56    3.10
   3  -2   0   36.52    2.37
   3  -2   0   40.51    2.59
   3  -2   1   29.86    2.32
   3  -2   1   29.37    2.45
   3  -2   1   26.79    2.54
   3  -2   1   31.00    2.54
   3  -2   1   35.47    2.29
   3  -2   1   27.95    2.19
   3  -2   1   23.81    2.80
   3  -2   1   27.37    2.62
   3  -2   1   24.56    2.19
   3  -2   1   21.66    2.06
   3  -2   2    4.40    1.28
   3  -2   2    8.35    1.57
   3  -2   2    4.80    1.35
   3  -2   2    7.88    1.41
   3  -2   2    3.16    1.13
   3  -2   2    3.86    1.28
   3  -2   2    5.36    1.39
   3  -2   2    5.45    1.36
   3  -2   2    4.03    1.20
   3  -2   2    1.96    0.97
   3  -2   3    4.77    1.25
   3  -2   3    5.68    1.28
   3  -2   3    4.61    1.44
   3  -2   3    7.27    1.38
   3  -2   3    6.06    1.22
   3  -2   3    4.13    1.21
   3  -2   3    7.92    1.61
   3  -2   3    5.47    1.44
   3  -2   3    6.17    1.24
   3  -2   3    3.22    1.06
   3  -2   4   25.30    2.17
   3  -2   4   18.95    1.89
   3  -2   4   17.32    1.92
   3  -2   4   16.53    1.59
   3  -2   4   25.77    1.95
   3  -2   4   23.65    2.27
   3  -2   4   21.57    2.14
   3  -2   4   20.36    1.80
   3  -2   4   15.84    1.69
   3  -2   5    5.49    1.13
   3  -2   5    4.40    1.05
   3  -2   5    2.23    0.82
   3  -2   5    9.63    1.39
   3  -2   5    3.88    1.03
   3  -2   5    7.51    1.60
   3  -2   5    6.85    1.30
   3  -2   5    5.11    1.28
   3  -2   5    5.15    1.17
   3  -2   6    3.63    1.01
   3  -2   6    3.67    1.07
   3  -2   6    1.70    0.87
   3  -2   6    4.48    1.15
   3  -2   6    9.82    1.59
   3  -2   6   12.78    1.54
   3  -2   6    3.88    1.17
   3  -2   6    8.60    1.39
   3  -2   7    9.54    1.44
   3  -2   7    9.19    1.47
   3  -2   7    7.77    1.16
   3  -2   7   19.20    2.01
   3  -2   7   12.24    1.60
   3  -2   7   16.99    1.68
   3  -2   7   18.73    1.70
   3  -2   8    0.10    0.67
   3  -2   8    0.46    0.76
   3  -2   8    1.83    0.94
   3  -2   8    2.38    0.89
   3  -2   9    9.05    1.47
   3  -2   9    9.98    1.43
   3  -2  10    5.29    1.14
   3  -2  10    5.60    1.17
   3  -2  11   -0.12    0.62
   3  -2  11   -0.60    0.79
   3  -2  12    0.04    0.60
   3  -2  12    0.48    0.70
   3  -2  13    1.43    0.69
   3  -2  13    1.38    0.72
   3  -2  14    7.76    1.11
   3  -2  14    6.84    0.97
   3  -2  14    8.17    1.01
   3  -2  14    9.73    1.10
   3  -2  15    5.02    0.88
   3  -2  15    6.20    0.88
   3  -2  15    5.90    0.85
   3  -2  15    7.92    0.97
   3  -2  16    1.51    0.54
   3  -2  16    2.66    0.60
   3  -2  16    2.17    0.58
   3  -2  17    0.01    0.37
   3  -1 -16    4.75    0.65
   3  -1 -16    7.50    0.71
   3  -1 -15    2.25    0.53
   3  -1 -15    2.70    0.61
   3  -1 -15    2.22    0.65
   3  -1 -14    0.27    0.54
   3  -1 -14    1.12    0.60
   3  -1 -14    1.34    0.67
   3  -1 -14   -0.46    0.57
   3  -1 -14    1.50    0.61
   3  -1 -13   32.95    2.04
   3  -1 -13   41.31    1.96
   3  -1 -13   35.67    1.83
   3  -1 -13   39.86    2.00
   3  -1 -13   35.67    1.91
   3  -1 -12    2.46    0.79
   3  -1 -12    2.44    0.73
   3  -1 -12    1.95    0.86
   3  -1 -12    4.79    0.98
   3  -1 -12    2.96    0.80
   3  -1 -12    2.72    0.80
   3  -1 -11    0.61    0.67
   3  -1 -11    0.40    0.67
   3  -1 -11   -1.17    0.86
   3  -1 -11    0.47    0.72
   3  -1 -11    0.41    0.66
   3  -1 -11    0.35    0.68
   3  -1 -10    8.64    1.35
   3  -1 -10   12.51    1.55
   3  -1 -10   10.57    1.30
   3  -1 -10    9.75    1.30
   3  -1 -10   10.40    1.23
   3  -1 -10    8.72    1.22
   3  -1  -9    6.82    1.19
   3  -1  -9    5.36    1.17
   3  -1  -9    9.05    1.41
   3  -1  -9    7.53    1.22
   3  -1  -9    6.58    1.14
   3  -1  -9    7.89    1.12
   3  -1  -8    6.56    1.12
   3  -1  -8    7.56    1.32
   3  -1  -8    9.01    1.43
   3  -1  -8    7.80    1.29
   3  -1  -8    9.06    1.31
   3  -1  -8    9.29    1.24
   3  -1  -7    0.93    0.85
   3  -1  -7    4.42    1.02
   3  -1  -7    2.09    0.95
   3  -1  -7    1.02    0.89
   3  -1  -7    3.00    1.01
   3  -1  -7    2.46    0.94
   3  -1  -6    2.40    0.86
   3  -1  -6    2.87    0.95
   3  -1  -6    3.32    0.83
   3  -1  -6    3.02    1.02
   3  -1  -6    3.75    1.03
   3  -1  -6    3.71    0.96
   3  -1  -5   -0.72    0.94
   3  -1  -5   -0.60    0.91
   3  -1  -5   -0.43    0.85
   3  -1  -5   -0.67    0.97
   3  -1  -5    1.16    0.85
   3  -1  -5   -0.25    0.87
   3  -1  -4    3.28    0.94
   3  -1  -4    6.98    1.22
   3  -1  -4    3.62    1.11
   3  -1  -4    6.98    2.07
   3  -1  -4   10.35    2.04
   3  -1  -4    2.11    0.77
   3  -1  -4    1.69    0.93
   3  -1  -4    4.91    1.16
   3  -1  -4   12.34    1.85
   3  -1  -4    3.18    0.98
   3  -1  -3    3.32    1.06
   3  -1  -3    4.27    1.04
   3  -1  -3    4.87    1.17
   3  -1  -3    9.83    1.79
   3  -1  -3    4.12    1.06
   3  -1  -3    4.35    1.87
   3  -1  -3    2.64    0.95
   3  -1  -3    5.35    1.21
   3  -1  -3   10.50    1.85
   3  -1  -3    4.13    1.12
   3  -1  -2   78.82    3.29
   3  -1  -2   80.61    5.54
   3  -1  -2   65.87    3.30
   3  -1  -2   69.88    3.89
   3  -1  -2   66.24    3.50
   3  -1  -2   74.29    3.12
   3  -1  -2   66.82    3.23
   3  -1  -2   80.40    4.09
   3  -1  -2   65.94    3.22
   3  -1  -2   66.28    3.22
   3  -1  -1    5.47    0.97
   3  -1  -1    9.61    1.47
   3  -1  -1    9.13    1.79
   3  -1  -1    9.98    1.40
   3  -1  -1    6.21    1.37
   3  -1  -1    6.79    1.19
   3  -1  -1   11.44    1.92
   3  -1  -1    9.82    1.51
   3  -1  -1   10.35    2.40
   3  -1  -1    9.90    1.47
   3  -1   0   66.16    3.12
   3  -1   0   60.22    3.18
   3  -1   0   65.61    3.57
   3  -1   0   59.54    3.23
   3  -1   0   73.53    5.40
   3  -1   0   65.09    3.00
   3  -1   0   55.91    2.86
   3  -1   0   65.59    3.77
   3  -1   0   62.37    3.08
   3  -1   0   59.94    3.01
   3  -1   1   48.05    2.82
   3  -1   1   51.67    2.92
   3  -1   1   48.30    3.15
   3  -1   1   50.07    2.98
   3  -1   1   56.26    2.90
   3  -1   1   43.88    2.60
   3  -1   1   57.64    5.02
   3  -1   1   49.40    3.49
   3  -1   1   49.55    2.88
   3  -1   1   46.75    2.86
   3  -1   2    2.95    1.11
   3  -1   2    4.14    1.26
   3  -1   2    7.16    1.46
   3  -1   2    3.98    1.18
   3  -1   2    2.24    1.04
   3  -1   2    1.95    1.07
   3  -1   2    8.00    1.81
   3  -1   2    2.09    1.12
   3  -1   2    4.22    1.34
   3  -1   3  195.39    5.66
   3  -1   3  183.88    5.43
   3  -1   3  205.24    5.99
   3  -1   3  188.28    6.05
   3  -1   3  197.55    5.37
   3  -1   3  189.27    5.28
   3  -1   3  182.44    6.21
   3  -1   3  203.54    6.25
   3  -1   3  180.79    5.22
   3  -1   3  175.16    5.16
   3  -1   4   87.04    3.75
   3  -1   4   95.76    4.07
   3  -1   4   93.67    3.60
   3  -1   4   96.14    3.64
   3  -1   4   86.03    5.79
   3  -1   4   99.56    4.25
   3  -1   4   94.87    4.17
   3  -1   4   87.62    3.46
   3  -1   4   80.41    3.36
   3  -1   5    1.74    1.00
   3  -1   5    5.28    1.26
   3  -1   5    6.44    1.31
   3  -1   5    2.11    1.15
   3  -1   5    2.62    1.72
   3  -1   5    8.49    1.82
   3  -1   5    3.34    1.21
   3  -1   5    3.92    1.13
   3  -1   5    1.73    0.96
   3  -1   6   14.97    1.90
   3  -1   6   11.83    1.58
   3  -1   6   19.14    1.94
   3  -1   6   11.64    1.87
   3  -1   6   17.65    1.81
   3  -1   6   15.14    1.65
   3  -1   7    7.59    1.39
   3  -1   7    6.15    1.26
   3  -1   7    2.83    0.96
   3  -1   7   13.64    1.55
   3  -1   7   11.68    1.50
   3  -1   8    2.65    0.91
   3  -1   8    0.96    0.81
   3  -1   8    0.17    0.89
   3  -1   8   12.92    1.58
   3  -1   8   10.67    1.50
   3  -1   9   15.02    1.81
   3  -1   9   11.70    1.65
   3  -1   9   11.60    1.41
   3  -1   9   14.41    1.54
   3  -1  10   49.31    3.01
   3  -1  10   38.10    2.61
   3  -1  10   40.33    2.28
   3  -1  10   46.16    2.56
   3  -1  11   16.54    1.77
   3  -1  11   12.62    1.56
   3  -1  11   19.39    1.61
   3  -1  11   17.26    1.63
   3  -1  12    2.64    0.95
   3  -1  12    2.22    1.00
   3  -1  12    3.53    0.95
   3  -1  13   11.48    1.42
   3  -1  13   13.21    1.49
   3  -1  13   12.41    1.47
   3  -1  13   14.23    1.42
   3  -1  14   49.61    2.63
   3  -1  14   50.28    2.68
   3  -1  14   51.53    2.61
   3  -1  14   56.43    2.72
   3  -1  15    7.64    1.08
   3  -1  15    8.13    1.11
   3  -1  15    7.79    1.10
   3  -1  15    8.36    1.11
   3  -1  16    6.62    0.94
   3  -1  16    6.94    0.93
   3  -1  16    6.47    0.91
   3  -1  16    6.86    0.93
   3  -1  17    0.62    0.48
   3  -1  17    1.02    0.50
   3  -1  17    0.51    0.45
   3  -1  17    1.14    0.56
   3  -1  18    0.69    0.39
   3   0 -16    1.11    0.44
   3   0 -16    1.61    0.51
   3   0 -16    0.56    0.44
   3   0 -15    4.22    0.71
   3   0 -15    4.61    0.85
   3   0 -15    5.05    0.73
   3   0 -15    5.58    0.83
   3   0 -14   17.86    1.47
   3   0 -14   17.20    1.26
   3   0 -14   19.30    1.43
   3   0 -14   16.74    1.32
   3   0 -13   11.82    1.34
   3   0 -13   15.18    1.17
   3   0 -13   12.00    1.19
   3   0 -13   12.84    1.31
   3   0 -13   13.59    1.32
   3   0 -12    0.40    0.74
   3   0 -12    0.03    0.64
   3   0 -12    0.74    0.75
   3   0 -12    0.60    0.61
   3   0 -12    1.28    0.79
   3   0 -11    6.32    1.13
   3   0 -11    6.75    1.20
   3   0 -11   10.52    1.44
   3   0 -11    8.04    1.11
   3   0 -11    7.36    1.15
   3   0 -11    7.25    1.13
   3   0 -10    5.07    1.10
   3   0 -10    6.06    1.24
   3   0 -10    9.37    1.39
   3   0 -10    7.57    1.20
   3   0 -10    6.19    1.15
   3   0 -10    7.87    1.17
   3   0  -9    0.51    0.87
   3   0  -9    1.00    0.84
   3   0  -9    0.65    0.93
   3   0  -9    1.10    0.92
   3   0  -9    0.90    0.76
   3   0  -9   -0.36    0.83
   3   0  -8    7.22    1.31
   3   0  -8    7.04    1.30
   3   0  -8    7.85    1.41
   3   0  -8    8.74    1.22
   3   0  -8    8.07    1.27
   3   0  -8    4.99    1.12
   3   0  -8    7.40    1.21
   3   0  -7    4.56    1.19
   3   0  -7    5.17    1.13
   3   0  -7    4.49    1.18
   3   0  -7    4.71    1.21
   3   0  -7    5.61    1.10
   3   0  -7    5.48    1.14
   3   0  -7    2.50    0.93
   3   0  -6    2.05    1.03
   3   0  -6    1.52    0.87
   3   0  -6   -0.63    0.96
   3   0  -6    2.41    1.00
   3   0  -6    0.38    0.86
   3   0  -6    2.12    0.93
   3   0  -6   -0.06    0.91
   3   0  -5   24.10    2.07
   3   0  -5   28.43    2.33
   3   0  -5   27.56    2.02
   3   0  -5   25.53    2.08
  -3   0   5   34.74    3.40
   3   0  -5   29.85    3.63
   3   0  -5   23.77    1.97
   3   0  -5   27.62    2.02
   3   0  -5   23.09    2.05
   3   0  -4    7.98    1.27
   3   0  -4    9.87    1.38
   3   0  -4   11.20    1.43
   3   0  -4   10.67    1.47
   3   0  -4   12.59    1.54
  -3   0   4   15.81    2.34
   3   0  -4    7.12    1.26
   3   0  -4   10.37    2.23
   3   0  -3    1.44    0.94
   3   0  -3    3.95    1.72
   3   0  -3    2.41    0.98
   3   0  -3   15.10    2.15
   3   0  -3    4.86    1.20
   3   0  -3    2.08    1.00
   3   0  -3    5.11    1.17
   3   0  -3   15.77    2.30
  -3   0   3    3.69    1.41
   3   0  -3    1.77    0.86
   3   0  -2   38.15    3.89
   3   0  -2   33.89    2.29
   3   0  -2   42.72    2.97
   3   0  -2   36.33    2.53
   3   0  -2   36.92    2.27
   3   0  -2   28.51    2.08
   3   0  -2   48.39    3.23
  -3   0   2   40.26    3.46
   3   0  -2   32.31    2.24
   3   0  -2   31.09    2.20
   3   0  -1   -0.42    0.78
   3   0  -1   -1.03    1.02
   3   0  -1    0.35    0.91
   3   0  -1    7.72    1.68
   3   0  -1    0.35    0.81
   3   0  -1    2.11    1.04
   3   0  -1   -2.02    1.07
   3   0  -1    7.02    1.92
  -3   0   1    0.07    1.10
   3   0  -1    1.05    0.84
   3   0  -1    0.05    1.14
   3   0   0    2.90    1.06
   3   0   0    5.82    1.24
   3   0   0    4.93    1.17
   3   0   0    7.36    1.61
   3   0   0    3.01    0.98
   3   0   0    3.95    1.27
   3   0   0    3.98    1.69
   3   0   0    0.89    0.89
   3   0   0   10.05    1.97
  -3   0   0    4.03    1.42
   3   0   0    2.97    1.09
   3   0   1   17.86    1.76
   3   0   1   15.99    1.74
   3   0   1   23.35    2.18
   3   0   1   13.99    2.52
   3   0   1   17.64    2.03
   3   0   1   11.71    1.49
   3   0   1   12.27    1.52
   3   0   1   19.87    2.52
  -3   0  -1   18.24    2.40
   3   0   1   16.18    1.73
   3   0   1   13.96    1.64
   3   0   2    8.03    1.20
   3   0   2    9.25    1.33
   3   0   2   12.85    1.70
   3   0   2    9.46    1.47
   3   0   2    6.69    1.17
   3   0   2    8.65    1.30
   3   0   2   10.51    2.23
  -3   0  -2   10.55    1.96
   3   0   2    8.91    1.37
   3   0   2    9.83    1.42
   3   0   3   16.62    1.64
   3   0   3   16.67    1.82
   3   0   3   22.18    2.16
   3   0   3   19.42    1.95
   3   0   3   16.05    1.64
   3   0   3   16.84    1.67
   3   0   3   26.52    2.54
  -3   0  -3   19.28    2.53
   3   0   3   13.03    1.42
   3   0   3   14.89    1.53
   3   0   4    1.84    0.90
   3   0   4    4.50    1.40
   3   0   4    4.62    1.46
   3   0   4    2.19    1.03
   3   0   4    5.10    1.23
  -3   0  -4    3.48    1.51
   3   0   4    1.32    0.85
   3   0   4    0.45    0.87
   3   0   5    6.92    1.27
   3   0   5    9.25    1.43
   3   0   5   10.69    1.50
   3   0   5    6.51    1.86
  -3   0  -5    7.33    2.11
   3   0   5    6.19    1.16
   3   0   5    4.21    1.00
   3   0   6   45.88    2.89
   3   0   6   47.55    2.70
   3   0   6   49.92    2.77
   3   0   6   47.96    4.27
  -3   0  -6   57.35    4.54
   3   0   6   53.25    2.87
   3   0   6   57.22    2.66
   3   0   6   48.33    2.50
   3   0   7   23.45    2.10
   3   0   7   22.50    1.93
   3   0   7   24.69    3.14
   3   0   7   23.16    1.93
   3   0   7   25.91    1.89
   3   0   8    2.04    1.05
   3   0   8    0.86    0.74
   3   0   9   34.16    2.53
   3   0   9   29.30    1.99
   3   0   9   37.00    2.43
   3   0  10   32.24    2.53
   3   0  10   31.67    2.00
   3   0  10   32.84    2.32
   3   0  11    8.23    1.37
   3   0  11    6.25    1.39
   3   0  11    9.11    1.34
   3   0  11    6.31    1.24
   3   0  12  105.51    4.17
   3   0  12  100.64    3.30
   3   0  12  104.04    4.08
   3   0  13   81.99    3.63
   3   0  13   75.22    3.51
   3   0  13   85.07    2.92
   3   0  13   91.99    3.68
   3   0  14   76.60    3.32
   3   0  14   75.57    3.37
   3   0  15   22.81    1.72
   3   0  15   21.80    1.71
   3   0  15   25.23    1.81
   3   0  16    3.48    0.77
   3   0  16    4.39    0.87
   3   0  16    4.73    0.91
   3   0  17    0.83    0.57
   3   0  17    0.32    0.50
   3   0  17    1.26    0.59
   3   0  17    0.02    0.55
   3   0  18    1.30    0.46
   3   0  18    1.05    0.48
   3   0  18    0.45    0.44
   3   0  18    1.51    0.56
   3   1 -16   -0.08    0.43
   3   1 -16    0.59    0.49
   3   1 -16   -0.10    0.47
  -3  -1  16    0.00    0.36
   3   1 -16    0.33    0.42
   3   1 -15    8.51    0.95
   3   1 -15    8.58    0.89
   3   1 -15    9.45    0.98
   3   1 -15    8.79    0.93
   3   1 -14   21.01    1.57
   3   1 -14   20.74    1.44
   3   1 -14   21.82    1.53
   3   1 -14   22.04    1.54
   3   1 -13   53.46    2.62
   3   1 -13   55.46    2.50
   3   1 -13   56.10    2.58
   3   1 -13   52.75    2.51
   3   1 -12   17.37    1.63
   3   1 -12   20.37    1.65
   3   1 -12   18.33    1.62
   3   1 -12   19.24    1.65
   3   1 -11    1.22    0.86
   3   1 -11    1.06    0.77
   3   1 -11    1.59    0.89
   3   1 -11    2.31    0.94
   3   1 -11   -0.19    0.69
   3   1 -11    1.17    0.88
   3   1 -10    1.44    0.86
   3   1 -10    2.99    0.93
   3   1 -10    3.18    1.06
   3   1 -10    5.09    1.23
   3   1 -10    3.11    0.87
   3   1 -10    1.72    0.73
   3   1 -10    2.31    0.93
   3   1  -9    0.70    0.81
   3   1  -9    0.30    0.75
   3   1  -9    0.17    0.80
   3   1  -9    3.08    1.12
   3   1  -9    0.54    0.79
   3   1  -9   -1.19    0.88
   3   1  -9    1.09    0.86
   3   1  -8   20.51    1.94
   3   1  -8   25.81    2.21
   3   1  -8   20.99    1.78
   3   1  -8   21.56    1.79
   3   1  -8   18.27    1.84
   3   1  -8   17.67    1.75
   3   1  -8   18.56    1.83
   3   1  -7   31.10    2.43
   3   1  -7   32.45    2.25
   3   1  -7   33.45    2.22
   3   1  -7   28.80    2.29
   3   1  -7   30.72    2.22
   3   1  -7   29.64    2.23
   3   1  -6    1.04    0.90
   3   1  -6    0.31    0.71
   3   1  -6    1.65    0.98
   3   1  -6    2.35    1.04
   3   1  -6    0.79    0.89
   3   1  -6    1.39    0.82
   3   1  -6    1.12    0.91
   3   1  -5    1.80    1.01
   3   1  -5    0.58    0.73
   3   1  -5    0.13    0.85
   3   1  -5    2.02    1.14
   3   1  -5    1.23    0.90
   3   1  -5   -0.20    0.81
  -3  -1   5    1.62    1.21
   3   1  -5    1.97    1.02
   3   1  -4    1.44    1.06
   3   1  -4    1.11    0.81
   3   1  -4   -0.02    0.86
   3   1  -4    2.65    1.13
   3   1  -4    0.15    0.80
   3   1  -4    0.61    1.22
   3   1  -4   -1.43    1.04
  -3  -1   4    0.35    1.06
  -3  -1   4    1.67    1.25
   3   1  -4    1.03    0.90
   3   1  -3    0.86    0.89
   3   1  -3    0.01    0.81
   3   1  -3   -0.56    0.93
   3   1  -3    1.36    1.01
   3   1  -3    0.56    0.92
   3   1  -3   -1.75    1.11
  -3  -1   3   -0.42    0.97
  -3  -1   3    3.28    2.05
   3   1  -3   -1.69    1.14
   3   1  -3   -0.38    1.20
   3   1  -2   32.40    2.23
   3   1  -2   29.09    2.36
   3   1  -2   28.89    2.16
   3   1  -2   26.64    1.95
  -3  -1   2   29.83    3.21
  -3  -1   2   35.50    3.09
   3   1  -2   24.67    2.01
   3   1  -2   30.49    3.51
   3   1  -2   40.10    2.34
   3   1  -2   25.28    1.99
   3   1  -1   39.55    3.83
   3   1  -1   43.09    2.54
   3   1  -1   35.70    2.59
   3   1  -1   38.17    2.44
   3   1  -1   33.23    2.19
  -3  -1   1   41.35    3.38
   3   1  -1   37.77    2.36
   3   1  -1   35.21    2.30
   3   1   0    5.32    1.87
   3   1   0    3.28    1.13
   3   1   0    3.60    1.23
   3   1   0    7.15    1.51
   3   1   0    4.74    1.31
   3   1   0    2.72    1.13
  -3  -1   0    3.02    1.52
   3   1   0    3.49    1.17
   3   1   1   68.02    3.04
   3   1   1   56.34    4.45
   3   1   1   74.73    3.58
   3   1   1   59.60    3.17
   3   1   1   51.09    2.79
   3   1   1   49.22    2.70
  -3  -1  -1   56.97    4.08
   3   1   1   57.66    2.81
   3   1   1   62.19    2.89
   3   1   2   20.06    1.85
   3   1   2   13.73    1.77
   3   1   2   19.07    1.92
   3   1   2   16.68    1.78
   3   1   2   16.70    2.77
   3   1   2   13.92    1.66
  -3  -1  -2   15.47    2.59
   3   1   2   18.90    1.79
   3   1   2   16.18    1.74
   3   1   3   52.62    2.76
   3   1   3   56.93    2.84
   3   1   3   68.89    3.35
   3   1   3   50.41    3.00
   3   1   3   43.68    2.59
   3   1   3   42.76    2.58
  -3  -1  -3   48.86    4.05
   3   1   3   53.20    2.83
   3   1   3   57.24    2.74
   3   1   3   54.51    2.71
   3   1   4  154.08    4.95
   3   1   4  142.84    4.63
   3   1   4  136.34    4.56
  -3  -1  -4  141.18    6.83
   3   1   4  161.77    4.93
   3   1   4  158.58    4.51
   3   1   5   34.11    2.40
   3   1   5   30.89    2.25
   3   1   5   34.40    2.35
  -3  -1  -5   33.73    3.46
   3   1   5   35.45    2.40
   3   1   5   35.30    2.10
   3   1   6    4.03    1.08
   3   1   6    2.94    0.99
   3   1   6    6.49    1.97
  -3  -1  -6    3.68    1.59
   3   1   6    2.71    0.94
   3   1   7    5.09    1.17
   3   1   7    4.62    1.11
   3   1   7    6.00    1.79
  -3  -1  -7    3.13    1.49
   3   1   7    2.88    0.93
   3   1   8    0.74    0.81
   3   1   8    2.27    1.04
   3   1   8    0.48    0.79
   3   1   9    3.38    1.06
   3   1   9    0.23    0.91
   3   1   9    2.49    1.01
   3   1  10   13.74    1.70
   3   1  10   12.79    1.32
   3   1  10   13.38    1.64
   3   1  11    9.19    1.44
   3   1  11    9.36    1.19
   3   1  11    9.23    1.41
   3   1  12    2.41    0.98
   3   1  12    4.94    1.03
   3   1  12    2.47    0.91
   3   1  13   17.42    1.41
   3   1  13   14.31    1.64
   3   1  14    3.66    0.90
   3   1  14    4.48    1.09
   3   1  14    6.13    1.19
   3   1  15   67.66    2.90
   3   1  15   63.46    3.01
   3   1  16   10.32    1.13
   3   1  16    9.68    1.25
   3   1  16   10.92    1.28
   3   1  17    4.50    0.73
   3   1  17    2.89    0.73
   3   1  17    2.66    0.75
   3   1  18    5.77    0.79
   3   1  18    5.66    0.86
   3   1  19    6.06    0.70
   3   1  19    4.51    0.60
   3   1  19    5.07    0.71
   3   2 -16    1.21    0.48
   3   2 -16    1.91    0.54
   3   2 -16    1.12    0.45
  -3  -2  16    2.14    0.50
   3   2 -16    1.19    0.45
   3   2 -15    0.97    0.55
   3   2 -15    1.03    0.57
   3   2 -15    1.00    0.54
  -3  -2  15    0.86    0.49
   3   2 -15    0.47    0.50
   3   2 -14    0.13    0.59
   3   2 -14    0.79    0.62
   3   2 -14    1.04    0.68
   3   2 -13   26.59    1.82
   3   2 -13   28.31    1.87
   3   2 -13   27.10    1.88
   3   2 -13   26.59    1.84
   3   2 -12   66.84    3.03
   3   2 -12   67.78    2.98
   3   2 -12   69.13    3.06
   3   2 -12   62.21    2.92
   3   2 -11   33.94    2.23
   3   2 -11   35.71    2.12
   3   2 -11   30.80    2.20
   3   2 -11   32.16    2.20
   3   2 -11   30.44    2.12
   3   2 -10   10.12    1.39
   3   2 -10   10.81    1.34
   3   2 -10    9.05    1.39
   3   2 -10   10.54    1.41
   3   2 -10   10.00    1.38
   3   2  -9    4.44    1.08
   3   2  -9    3.56    1.04
   3   2  -9    4.82    1.09
   3   2  -9    5.29    1.32
   3   2  -9    3.44    0.94
   3   2  -9    3.17    0.91
   3   2  -9    2.91    0.98
   3   2  -8   12.44    1.55
   3   2  -8   15.50    1.85
   3   2  -8   11.34    1.43
   3   2  -8   12.06    1.32
   3   2  -8   10.68    1.51
   3   2  -8   11.52    1.53
   3   2  -8   10.06    1.46
   3   2  -7   10.28    1.51
   3   2  -7    8.65    1.30
   3   2  -7    8.95    1.22
   3   2  -7   10.43    1.51
   3   2  -7    8.76    1.39
   3   2  -7    8.43    1.43
   3   2  -6   21.35    1.91
   3   2  -6   17.47    1.77
   3   2  -6   19.99    1.68
   3   2  -6   16.41    1.78
   3   2  -6   18.51    1.77
   3   2  -6   15.90    1.74
   3   2  -5    6.36    1.27
   3   2  -5    6.28    1.11
   3   2  -5    9.45    1.34
   3   2  -5   11.20    1.69
   3   2  -5    7.54    1.28
   3   2  -5    5.91    1.05
   3   2  -5   12.21    2.46
  -3  -2   5    8.62    2.06
  -3  -2   5   10.28    1.91
   3   2  -5    6.85    1.26
   3   2  -4   12.47    1.50
   3   2  -4   16.74    1.86
   3   2  -4   10.49    1.44
   3   2  -4   10.85    1.29
  -3  -2   4   11.05    2.24
   3   2  -4   15.25    2.59
  -3  -2   4   17.75    2.32
   3   2  -4   11.93    1.58
   3   2  -4   11.20    1.42
   3   2  -4   12.53    1.59
   3   2  -3    4.61    1.19
   3   2  -3    3.69    1.07
   3   2  -3    2.59    0.99
   3   2  -3    7.75    1.59
   3   2  -3    3.97    1.10
   3   2  -3    1.69    0.80
  -3  -2   3    4.19    1.63
   3   2  -3    2.93    1.63
  -3  -2   3    5.47    1.64
   3   2  -3    5.46    1.25
   3   2  -2   70.05    3.53
   3   2  -2   61.11    3.12
   3   2  -2   65.76    3.04
  -3  -2   2   71.22    4.49
   3   2  -2   66.60    3.16
   3   2  -2   68.63    4.95
   3   2  -2   72.73    3.23
   3   2  -2   69.86    3.21
   3   2  -1   74.53    5.12
   3   2  -1   77.49    3.83
   3   2  -1   73.02    3.45
   3   2  -1   74.55    3.32
  -3  -2   1   73.32    4.70
   3   2  -1   77.81    3.44
   3   2  -1   74.82    3.36
   3   2   0   37.60    3.66
   3   2   0   37.56    2.62
   3   2   0   36.36    2.46
   3   2   0   33.19    2.28
  -3  -2   0   35.28    3.46
   3   2   0   37.23    2.33
   3   2   0   41.41    2.44
   3   2   1   92.80    5.47
   3   2   1   87.83    3.89
   3   2   1   82.78    3.54
   3   2   1   78.79    3.37
  -3  -2  -1   84.31    5.10
   3   2   1  101.05    3.64
   3   2   1   99.88    3.67
   3   2   2   36.39    3.60
   3   2   2   36.12    2.39
   3   2   2   30.54    2.19
  -3  -2  -2   31.33    3.32
   3   2   3   71.35    3.28
   3   2   3   66.74    3.06
  -3  -2  -3   72.22    4.83
   3   2   4    6.22    1.37
   3   2   4    2.71    1.07
   3   2   4    4.33    1.30
  -3  -2  -4    1.60    1.44
   3   2   4    2.53    1.11
   3   2   5    1.71    0.96
   3   2   5    0.72    0.85
  -3  -2  -5   -0.04    1.11
   3   2   5    1.06    0.84
   3   2   6    2.39    0.95
   3   2   6    1.62    0.89
  -3  -2  -6    1.71    1.23
   3   2   6    1.85    0.91
   3   2   7    4.80    1.11
   3   2   7    4.13    1.06
  -3  -2  -7    3.56    1.40
   3   2   7    3.23    1.02
   3   2   8    0.15    0.75
   3   2   8    1.06    0.90
  -3  -2  -8    1.13    1.31
   3   2   8    0.46    0.77
   3   2   9    2.48    0.97
   3   2   9    2.68    0.87
   3   2   9    2.96    1.05
   3   2  10   13.77    1.64
   3   2  10   12.70    1.28
   3   2  10   13.30    1.65
   3   2  11    1.22    0.85
   3   2  11    1.28    0.76
   3   2  11    1.03    0.88
   3   2  12   -0.02    0.72
   3   2  12    0.48    0.78
   3   2  13    6.17    1.24
   3   2  13    8.37    1.35
   3   2  14    5.29    1.11
   3   2  14    7.46    1.21
   3   2  15    3.47    0.94
   3   2  15    3.23    0.94
   3   2  16    3.07    0.87
   3   2  16    3.43    0.96
   3   2  17    1.69    0.69
   3   2  17    1.93    0.73
   3   2  18    1.46    0.58
   3   2  18    1.35    0.60
   3   2  19   -0.08    0.39
   3   2  19   -0.46    0.46
   3   3 -16    1.22    0.45
   3   3 -16    1.46    0.47
  -3  -3  16    1.30    0.42
   3   3 -16    0.43    0.37
   3   3 -15    3.31    0.69
   3   3 -15    2.75    0.63
   3   3 -15    1.23    0.48
  -3  -3  15    1.99    0.57
   3   3 -15    2.67    0.62
   3   3 -14    0.33    0.56
   3   3 -14    0.61    0.55
   3   3 -14    0.31    0.48
  -3  -3  14    0.66    0.56
   3   3 -14    0.84    0.62
   3   3 -13    3.00    0.80
   3   3 -13    3.20    0.82
   3   3 -13    4.00    0.82
   3   3 -13    3.70    0.76
  -3  -3  13    2.67    0.74
   3   3 -13    4.52    0.91
   3   3 -12    1.83    0.85
   3   3 -12    3.27    0.92
   3   3 -12    1.76    0.72
   3   3 -12    2.39    0.80
  -3  -3  12    1.66    0.76
   3   3 -12    2.00    0.86
   3   3 -11   12.70    1.38
   3   3 -11   15.79    1.53
   3   3 -11   14.21    1.52
   3   3 -11   14.41    1.60
   3   3 -11   12.79    1.50
   3   3 -10   15.78    1.57
   3   3 -10   15.57    1.61
   3   3 -10   14.83    1.58
   3   3 -10   16.58    1.70
   3   3 -10   14.29    1.59
   3   3  -9   14.63    1.53
   3   3  -9   13.35    1.68
   3   3  -9   18.06    1.78
   3   3  -9   13.61    1.62
   3   3  -8   36.27    2.30
   3   3  -8   30.35    2.26
   3   3  -8   31.64    2.30
   3   3  -8   30.10    2.20
   3   3  -7    6.25    1.25
   3   3  -7    5.99    1.27
   3   3  -7    9.02    1.40
  -3  -3   7    6.34    1.25
   3   3  -7    6.75    1.31
   3   3  -6   10.83    1.42
  -3  -3   6   10.20    1.43
   3   3  -6    7.31    1.42
   3   3  -6    8.50    1.45
   3   3  -6    7.63    1.42
   3   3  -5    6.23    1.22
   3   3  -5    9.73    1.27
   3   3  -5   13.65    2.56
  -3  -3   5   10.69    1.98
   3   3  -5    5.68    1.21
   3   3  -5    8.11    1.36
   3   3  -4   40.57    2.69
   3   3  -4   54.48    2.68
  -3  -3   4   50.63    4.37
   3   3  -4   62.50    4.83
  -3  -3   4   58.03    4.12
   3   3  -4   41.97    2.66
   3   3  -4   45.32    2.76
   3   3  -4   46.49    2.68
   3   3  -3  104.98    4.24
   3   3  -3  131.34    4.25
  -3  -3   3  126.04    6.06
   3   3  -3  145.85    7.02
   3   3  -3  118.55    4.27
   3   3  -3  116.36    4.37
   3   3  -3  122.33    4.28
   3   3  -2   33.52    2.37
   3   3  -2   42.22    2.38
  -3  -3   2   39.68    3.49
   3   3  -2   38.22    2.39
   3   3  -2   44.47    3.89
   3   3  -2   37.43    2.41
   3   3  -2   41.26    2.45
   3   3  -1   17.35    1.87
   3   3  -1   20.56    1.85
  -3  -3   1   20.36    2.62
   3   3  -1   24.25    1.98
   3   3  -1   20.51    1.83
   3   3  -1   20.53    1.84
   3   3  -1   23.49    2.89
   3   3   0   25.21    2.93
   3   3   0   23.02    2.02
   3   3   0   23.21    1.97
  -3  -3   0   23.73    2.88
   3   3   0   26.27    2.09
   3   3   1   12.05    1.66
   3   3   1   13.81    1.60
  -3  -3  -1   13.27    2.33
   3   3   1   15.53    1.77
   3   3   2   89.76    3.62
   3   3   2   89.87    3.57
  -3  -3  -2   89.30    5.43
   3   3   3   28.22    2.12
   3   3   3   28.66    2.19
  -3  -3  -3   26.17    3.04
   3   3   3   34.55    2.30
   3   3   4    1.61    1.01
  -3  -3  -4    0.85    1.38
   3   3   4    2.27    1.13
   3   3   5    9.49    1.33
  -3  -3  -5    7.11    1.99
   3   3   5    7.71    1.38
   3   3   6    9.10    1.26
  -3  -3  -6   10.19    2.18
   3   3   6    7.68    1.32
   3   3   7    3.99    1.06
   3   3   7    3.67    1.01
  -3  -3  -7    2.57    1.39
   3   3   7    1.97    0.90
   3   3   8   11.48    1.53
   3   3   8   14.80    1.53
  -3  -3  -8   13.03    2.54
   3   3   8   12.13    1.59
   3   3   9    0.94    0.76
   3   3   9    3.07    0.97
   3   3   9    1.25    0.88
   3   3  10   10.06    1.42
   3   3  10    8.67    1.45
   3   3  11    1.06    0.77
   3   3  11    1.25    0.83
   3   3  12    3.91    1.01
   3   3  12    3.53    1.00
   3   3  13    3.87    1.01
   3   3  13    4.83    1.10
   3   3  14    3.44    1.01
   3   3  14    4.55    1.10
   3   3  15    4.13    0.95
   3   3  15    4.49    0.97
   3   3  16    1.39    0.73
   3   3  16    2.71    0.84
   3   3  17    5.49    0.90
   3   3  17    6.80    0.98
   3   3  18   13.54    1.14
   3   3  18   14.88    1.23
   3   3  19    0.82    0.43
   3   3  19   -0.05    0.41
   3   4 -15    1.83    0.53
   3   4 -15    1.61    0.51
  -3  -4  15    1.97    0.52
   3   4 -15    2.24    0.56
   3   4 -14    2.11    0.65
   3   4 -14    3.30    0.70
   3   4 -14    3.10    0.59
  -3  -4  14    1.99    0.62
   3   4 -14    2.03    0.63
   3   4 -13    3.90    0.82
   3   4 -13    5.08    0.84
  -3  -4  13    3.97    0.80
   3   4 -13    4.84    0.88
   3   4 -13    5.62    0.92
   3   4 -12   15.04    1.35
  -3  -4  12   12.40    1.34
   3   4 -12   13.88    1.37
   3   4 -12   15.09    1.41
   3   4 -12   13.55    1.36
  -3  -4  11    7.56    1.23
   3   4 -11    8.22    1.26
   3   4 -11    8.04    1.23
   3   4 -11    6.22    1.13
   3   4 -10    4.73    1.12
   3   4 -10    5.67    1.14
  -3  -4  10    4.96    1.02
   3   4 -10    5.09    1.05
  -3  -4   9   30.54    2.22
   3   4  -9   27.91    2.07
   3   4  -9   30.85    2.20
   3   4  -9   27.49    2.03
   3   4  -8    2.92    0.94
   3   4  -8    4.18    1.12
  -3  -4   8    2.29    0.88
   3   4  -8    2.98    1.01
   3   4  -7    7.05    1.26
  -3  -4   7    6.11    1.25
   3   4  -7    7.92    1.35
   3   4  -7    9.12    1.45
  -3  -4   6   43.08    2.64
   3   4  -6   37.03    2.36
   3   4  -6   38.85    2.58
   3   4  -6   36.76    2.38
   3   4  -5    2.97    1.02
   3   4  -5    3.14    1.07
  -3  -4   5    2.81    0.96
   3   4  -5    2.18    0.96
   3   4  -4   77.44    3.39
   3   4  -4   78.77    3.64
   3   4  -4   85.05    3.51
  -3  -4   3  194.99    7.73
   3   4  -3  186.66    5.35
   3   4  -3  175.63    5.55
   3   4  -3  205.26    5.48
   3   4  -2   29.89    2.32
   3   4  -2   41.24    2.37
  -3  -4   2   35.65    3.39
   3   4  -2   38.90    2.34
   3   4  -2   32.31    2.34
   3   4  -1   23.35    2.20
   3   4  -1   30.04    2.24
  -3  -4   1   25.38    3.10
   3   4  -1   27.35    2.26
   3   4   0  123.26    4.53
   3   4   0  137.75    4.45
  -3  -4   0  123.65    6.39
   3   4   0  129.10    4.63
   3   4   1   32.51    3.75
   3   4   1   23.94    2.24
  -3  -4  -1   26.36    3.25
   3   4   1   29.23    2.34
   3   4   1   27.23    2.28
   3   4   2  201.80    8.98
   3   4   2  202.68    5.76
  -3  -4  -2  209.23    8.48
   3   4   2  208.36    5.89
   3   4   3   12.81    1.78
  -3  -4  -3    8.02    2.53
   3   4   3   13.13    1.86
   3   4   3   15.45    1.91
   3   4   4    8.56    1.40
  -3  -4  -4    9.31    1.98
   3   4   4    7.52    1.32
   3   4   4    7.49    1.27
   3   4   5   26.62    1.97
  -3  -4  -5   25.20    3.16
   3   4   5   18.63    1.98
   3   4   5   24.29    2.08
   3   4   6    4.45    1.01
  -3  -4  -6    6.32    1.91
   3   4   6    8.83    1.52
   3   4   6    5.69    1.24
  -3  -4  -7    2.83    0.97
  -3  -4  -7    3.96    1.63
   3   4   7    2.42    1.02
   3   4   7    1.79    0.99
   3   4   8    3.64    0.99
  -3  -4  -8    4.62    1.13
   3   4   8    2.33    1.00
   3   4   8    4.91    1.10
   3   4   9    3.66    0.98
  -3  -4  -9    3.58    1.07
   3   4   9    3.81    1.14
   3   4  10   13.17    1.56
  -3  -4 -10   16.95    1.72
   3   4  10   13.13    1.68
   3   4  11    0.77    0.77
  -3  -4 -11    1.07    0.86
   3   4  11    1.18    0.85
   3   4  12    1.53    0.83
  -3  -4 -12    0.68    0.69
   3   4  12    1.14    0.83
   3   4  13    6.40    1.16
  -3  -4 -13    9.65    1.24
   3   4  13    7.56    1.25
   3   4  14    1.21    0.76
  -3  -4 -14    1.37    0.61
   3   4  14    1.26    0.76
   3   4  15    1.05    0.71
  -3  -4 -15    1.02    0.53
   3   4  15    0.65    0.64
   3   4  16    2.04    0.75
  -3  -4 -16    2.35    0.65
   3   4  16    3.06    0.82
   3   4  17    0.39    0.49
  -3  -4 -17    1.23    0.46
   3   4  17    1.45    0.63
   3   4  18    2.58    0.58
   3   4  18    4.04    0.70
   3   4  19    2.07    0.49
   3   4  19    1.72    0.48
   3   5 -15    1.50    0.42
   3   5 -14    2.92    0.59
   3   5 -14    2.16    0.53
   3   5 -14    2.47    0.52
  -3  -5  14    1.83    0.52
   3   5 -14    2.46    0.58
   3   5 -13    1.31    0.57
   3   5 -13    0.67    0.53
   3   5 -13    0.13    0.51
  -3  -5  13    0.59    0.47
   3   5 -13    0.83    0.55
   3   5 -12    1.17    0.63
   3   5 -12    0.22    0.53
   3   5 -12    0.50    0.62
  -3  -5  12    0.18    0.51
   3   5 -12    0.29    0.59
   3   5 -11    1.27    0.73
   3   5 -11    0.58    0.64
  -3  -5  11    0.48    0.61
   3   5 -11    0.92    0.71
   3   5 -10    0.45    0.70
   3   5 -10    0.82    0.69
  -3  -5  10    0.22    0.59
   3   5 -10    0.58    0.68
   3   5  -9    0.91    0.80
   3   5  -9    1.58    0.78
  -3  -5   9    0.53    0.68
   3   5  -9    0.91    0.74
   3   5  -8    2.06    0.89
   3   5  -8    1.42    0.79
  -3  -5   8    1.85    0.76
   3   5  -8    1.82    0.84
   3   5  -7    7.57    1.28
   3   5  -7    7.33    1.16
  -3  -5   7    6.24    1.17
   3   5  -7    6.42    1.16
  -3  -5   6   20.60    1.91
   3   5  -6   20.33    1.76
   3   5  -6   22.52    1.96
   3   5  -6   20.73    1.72
   3   5  -5    1.82    0.97
   3   5  -5    1.84    0.87
  -3  -5   5    1.06    0.80
   3   5  -5    2.09    1.00
   3   5  -5    2.49    0.84
  -3  -5   4   10.93    1.51
   3   5  -4   10.61    1.44
   3   5  -4   12.06    1.50
   3   5  -4   11.14    1.57
  -3  -5   3   52.62    2.89
   3   5  -3   49.70    2.84
   3   5  -3   43.12    2.71
  -3  -5   2   15.31    1.59
   3   5  -2   12.94    1.58
   3   5  -2   11.52    1.56
   3   5  -1   36.83    2.54
   3   5  -1   41.98    2.72
   3   5  -1   37.45    2.59
   3   5   0  141.18    7.61
   3   5   0  121.41    4.49
  -3  -5   0  145.62    6.89
   3   5   0  129.70    4.81
   3   5   0  124.83    4.58
   3   5   1  129.81    7.31
   3   5   1  116.06    4.32
  -3  -5  -1  130.25    6.60
   3   5   1  114.54    4.54
   3   5   1  112.80    4.40
   3   5   2  305.65   11.43
   3   5   2  298.38    7.07
   3   5   2  287.15    7.58
   3   5   2  278.52    7.23
   3   5   3  114.24    6.93
   3   5   3  113.53    4.02
  -3  -5  -3  116.18    6.44
   3   5   3  103.48    4.26
   3   5   4    3.51    1.11
   3   5   4    3.34    1.92
  -3  -5  -4    1.01    1.51
   3   5   4    1.35    0.92
   3   5   4    2.91    1.21
   3   5   5    5.65    1.27
   3   5   5    4.18    1.10
   3   5   6   23.36    2.13
   3   5   6   24.91    2.13
  -3  -5  -7    6.81    1.35
   3   5   7    8.02    1.37
   3   5   7    7.66    1.31
  -3  -5  -8    1.14    0.88
   3   5   8    0.53    0.77
   3   5   8   -0.15    0.79
  -3  -5  -9    4.17    1.18
   3   5   9    4.43    1.07
   3   5  10    3.99    0.95
  -3  -5 -10    3.96    1.03
   3   5  10    4.33    1.09
   3   5  11    7.99    1.25
  -3  -5 -11    8.27    1.29
   3   5  11    8.27    1.30
   3   5  12    2.54    0.83
  -3  -5 -12    1.81    0.78
   3   5  12    1.74    0.82
   3   5  13    4.38    0.93
  -3  -5 -13    4.79    0.94
   3   5  13    3.78    0.93
   3   5  14    1.13    0.67
  -3  -5 -14    0.67    0.56
   3   5  14   -0.02    0.57
   3   5  15    1.71    0.66
  -3  -5 -15    1.65    0.65
   3   5  15    1.42    0.66
   3   5  16    1.47    0.59
  -3  -5 -16    2.10    0.59
   3   5  16    1.19    0.60
   3   5  17    1.03    0.52
  -3  -5 -17    1.25    0.47
   3   5  17    1.65    0.55
   3   5  18    7.60    0.74
   3   5  18    8.28    0.78
   3   6 -13    8.43    0.81
  -3  -6  13    6.71    0.78
   3   6 -13    8.00    0.77
   3   6 -13    9.29    0.80
   3   6 -13    8.93    0.72
   3   6 -12    1.27    0.57
   3   6 -12    1.92    0.58
   3   6 -12    1.20    0.61
  -3  -6  12    1.12    0.55
   3   6 -12    1.34    0.56
  -3  -6  11   13.24    1.29
   3   6 -11   15.19    1.25
   3   6 -11   17.86    1.35
   3   6 -11   16.01    1.17
   3   6 -10    1.65    0.74
   3   6 -10    0.59    0.61
  -3  -6  10    1.39    0.64
   3   6 -10    0.27    0.58
   3   6  -9    5.62    1.01
   3   6  -9    4.47    0.83
  -3  -6   9    5.26    1.02
   3   6  -9    5.72    0.95
   3   6  -9    6.91    0.98
  -3  -6   8    8.51    1.25
   3   6  -8    7.61    1.08
   3   6  -8    8.44    1.10
   3   6  -8    8.48    1.21
   3   6  -8    8.55    1.06
   3   6  -7    5.57    1.08
  -3  -6   7    4.71    1.02
   3   6  -7    5.13    0.99
   3   6  -7    4.93    1.00
  -3  -6   6   13.38    1.58
   3   6  -6   13.29    1.40
   3   6  -6   12.94    1.50
   3   6  -6   17.03    1.74
  -3  -6   5   14.88    1.71
   3   6  -5   15.90    1.49
   3   6  -5   15.83    1.73
   3   6  -5   17.95    1.82
   3   6  -4    5.18    1.15
  -3  -6   4    4.52    1.06
   3   6  -4    5.39    1.14
   3   6  -3    0.93    0.90
  -3  -6   3    2.43    0.90
   3   6  -3    1.59    0.90
   3   6  -2    5.02    1.15
  -3  -6   2    5.93    1.16
   3   6  -2    5.49    1.18
   3   6  -1    1.39    0.94
   3   6  -1   -0.08    0.85
  -3  -6   1    0.76    0.80
   3   6  -1    1.65    0.96
   3   6   0    6.93    1.28
  -3  -6   0    9.89    1.42
   3   6   0    7.80    1.39
   3   6   0    9.20    1.63
   3   6   1    8.55    1.41
   3   6   1    7.59    1.48
   3   6   1   10.96    1.69
   3   6   2   94.48    4.23
   3   6   2   95.34    4.06
   3   6   3  121.96    4.85
   3   6   3  121.65    4.71
   3   6   4   41.68    2.86
   3   6   4   42.83    2.80
   3   6   5   16.51    1.91
   3   6   5   17.59    1.87
   3   6   6   21.94    2.03
   3   6   6   20.59    1.98
   3   6   7   11.56    1.57
   3   6   7   12.80    1.60
  -3  -6  -8    3.07    0.96
   3   6   8    3.11    0.97
   3   6   8    2.75    1.02
  -3  -6  -9    3.20    0.92
   3   6   9    3.44    0.96
  -3  -6 -10    9.34    1.32
   3   6  10    8.03    1.29
  -3  -6 -11   16.17    1.67
   3   6  11   15.20    1.59
  -3  -6 -12    8.94    1.24
   3   6  12    8.98    1.24
   3   6  13    5.87    0.91
  -3  -6 -13    5.99    1.04
   3   6  13    5.44    0.97
   3   6  14    6.55    0.89
  -3  -6 -14    6.14    0.95
   3   6  14    5.89    0.95
   3   6  15    1.91    0.61
  -3  -6 -15    2.05    0.63
   3   6  15    2.49    0.68
   3   6  16    8.73    0.85
  -3  -6 -16    9.21    0.90
   3   6  16    9.55    0.94
   3   6  17    2.39    0.50
  -3  -6 -17    2.26    0.50
   3   6  17    1.70    0.48
   3   7 -12    3.92    0.61
  -3  -7  12    2.89    0.53
  -3  -7  12    3.03    0.56
   3   7 -11    3.00    0.67
  -3  -7  11    2.25    0.61
   3   7 -11    3.22    0.60
   3   7 -11    3.31    0.61
   3   7 -10    4.83    0.78
  -3  -7  10    3.73    0.75
   3   7 -10    5.04    0.72
   3   7 -10    5.23    0.75
   3   7  -9    5.05    0.86
  -3  -7   9    4.30    0.86
   3   7  -9    5.24    0.79
   3   7  -9    5.03    0.83
   3   7  -8    4.98    0.92
  -3  -7   8    4.21    0.91
   3   7  -8    3.56    0.74
   3   7  -8    4.18    0.86
   3   7  -7    0.50    0.69
  -3  -7   7    0.15    0.59
   3   7  -7    1.18    0.68
   3   7  -7    0.59    0.60
   3   7  -6    4.86    0.99
  -3  -7   6    4.48    0.93
   3   7  -6    4.28    0.93
   3   7  -5    5.77    1.08
  -3  -7   5    5.56    1.07
   3   7  -5    5.19    1.04
   3   7  -4    0.35    0.75
  -3  -7   4   -0.45    0.67
   3   7  -4    0.28    0.66
   3   7  -3    0.94    0.86
  -3  -7   3    0.56    0.67
   3   7  -3    0.47    0.77
   3   7  -2    2.72    0.93
  -3  -7   2    3.94    0.97
   3   7  -2    3.66    1.07
   3   7  -2    4.80    1.18
   3   7  -1    1.54    0.84
  -3  -7   1    2.44    0.90
   3   7  -1    2.68    1.02
   3   7  -1    2.82    1.08
   3   7   0   28.23    1.99
  -3  -7   0   28.16    2.05
   3   7   0   24.68    2.17
   3   7   0   26.66    2.13
   3   7   1   13.27    1.45
  -3  -7  -1   13.11    1.51
   3   7   1   10.00    1.56
   3   7   1   15.37    1.80
  -3  -7  -2    4.60    1.01
   3   7   2    4.50    1.28
   3   7   3   49.94    3.19
   3   7   3   57.62    3.19
   3   7   4   49.88    3.19
   3   7   4   56.47    3.12
   3   7   5    3.72    1.23
   3   7   5    3.95    1.14
   3   7   6    0.89    0.77
   3   7   6    1.77    0.97
  -3  -7  -7   16.20    1.75
   3   7   7   14.82    1.57
   3   7   7   12.71    1.55
  -3  -7  -8    2.68    0.95
   3   7   8    3.21    0.91
   3   7   8    2.25    0.95
  -3  -7  -9    0.60    0.67
   3   7   9    0.48    0.62
  -3  -7 -10   -0.04    0.59
   3   7  10    0.11    0.59
  -3  -7 -11    5.91    1.05
   3   7  11    4.61    0.92
  -3  -7 -12    4.10    0.91
   3   7  12    2.94    0.75
  -3  -7 -13    0.84    0.61
   3   7  13    1.44    0.59
  -3  -7 -14    0.63    0.49
   3   7  14    0.18    0.48
  -3  -7 -15    4.75    0.72
   3   7  15    6.37    0.73
  -3  -7 -16    2.83    0.54
   3   8 -11    8.12    0.68
   3   8 -10   10.90    0.88
  -3  -8  10    8.96    0.86
   3   8  -9    0.67    0.51
  -3  -8   9    0.81    0.47
   3   8  -9    1.00    0.47
   3   8  -9    0.53    0.47
   3   8  -8    2.71    0.70
  -3  -8   8    1.24    0.56
   3   8  -8    1.38    0.55
   3   8  -8    1.39    0.59
  -3  -8   7    5.32    0.89
   3   8  -7    4.07    0.79
   3   8  -7    4.91    0.84
  -3  -8   6    5.10    0.91
   3   8  -6    4.79    0.90
   3   8  -6    4.49    0.84
  -3  -8   5    0.94    0.63
   3   8  -5    0.85    0.65
   3   8  -5    1.30    0.75
   3   8  -4    3.68    0.84
  -3  -8   4    4.27    0.90
   3   8  -4    3.46    0.90
   3   8  -4    3.89    0.89
   3   8  -3   -0.24    0.67
  -3  -8   3    0.26    0.62
   3   8  -3    0.46    0.61
   3   8  -3    0.31    0.66
   3   8  -2    5.09    1.01
  -3  -8   2    3.94    0.91
   3   8  -2    2.85    0.92
   3   8  -2    3.64    0.96
  -3  -8   1    0.00    0.62
   3   8  -1    0.45    0.72
   3   8  -1    0.69    0.76
  -3  -8   0    1.17    0.71
   3   8   0    0.28    0.69
   3   8   0    0.64    0.80
  -3  -8  -1    4.37    0.96
   3   8   1    3.67    1.07
   3   8   1    3.81    1.11
  -3  -8  -2   22.02    1.73
   3   8   2   17.18    1.85
   3   8   2   18.45    1.81
  -3  -8  -3    8.28    1.14
   3   8   3    4.73    1.18
   3   8   3    6.39    1.27
  -3  -8  -4    0.65    0.59
   3   8   4    0.38    0.85
   3   8   4    1.57    0.96
   3   8   5   19.82    1.77
   3   8   5   18.27    1.99
   3   8   5   16.99    1.78
   3   8   6   42.84    2.37
   3   8   6   34.17    2.35
  -3  -8  -7    8.87    1.34
   3   8   7   10.54    1.23
  -3  -8  -8    4.20    0.99
   3   8   8    5.15    0.92
  -3  -8  -9    1.43    0.79
   3   8   9    1.85    0.74
  -3  -8 -10   18.48    1.60
   3   8  10   19.68    1.44
  -3  -8 -11   10.97    1.21
   3   8  11   12.68    1.13
  -3  -8 -12    1.50    0.62
   3   8  12    1.54    0.55
  -3  -8 -13   -0.34    0.45
   3   8  13    0.26    0.43
  -3  -8 -14    1.30    0.52
  -3  -8 -15    2.52    0.50
  -3  -9   8    0.64    0.38
   3   9  -8    1.21    0.42
   3   9  -7    7.87    0.74
  -3  -9   7    6.39    0.77
   3   9  -7    7.29    0.81
   3   9  -6    1.69    0.55
  -3  -9   6    1.25    0.52
   3   9  -6    1.16    0.53
   3   9  -6    1.67    0.55
   3   9  -5    2.77    0.61
  -3  -9   5    2.03    0.58
   3   9  -5    1.37    0.55
   3   9  -5    2.24    0.63
   3   9  -4    3.10    0.66
  -3  -9   4    2.99    0.69
   3   9  -4    2.90    0.75
   3   9  -4    2.98    0.73
   3   9  -3    1.78    0.58
  -3  -9   3    1.76    0.63
   3   9  -3    1.67    0.68
   3   9  -3    1.99    0.70
  -3  -9   2    0.44    0.55
   3   9  -2    0.72    0.64
   3   9  -2    0.31    0.59
  -3  -9   1    4.21    0.81
   3   9  -1    2.79    0.84
   3   9  -1    3.65    0.85
  -3  -9   0    2.02    0.68
   3   9   0    1.53    0.77
   3   9   0    1.25    0.75
   3   9   1   17.31    1.64
   3   9   1   16.38    1.49
  -3  -9  -2    9.38    1.10
   3   9   2    8.04    1.31
   3   9   2   10.17    1.35
  -3  -9  -3    1.94    0.67
   3   9   3    1.95    0.86
   3   9   3    1.75    0.69
   3   9   3    2.95    0.96
  -3  -9  -4   12.65    1.21
   3   9   4    8.50    1.03
   3   9   4    9.91    1.35
   3   9   4   10.12    1.28
  -3  -9  -5    0.86    0.56
   3   9   5    1.67    0.66
  -3  -9  -6    2.35    0.78
   3   9   6    3.63    0.71
  -3  -9  -7    1.21    0.66
   3   9   7    1.68    0.60
  -3  -9  -8    3.59    0.81
   3   9   8    4.88    0.80
  -3  -9  -9   15.67    1.37
   3   9   9   19.65    1.22
  -3  -9 -10   16.45    1.32
  -3  -9 -11   12.50    1.09
  -3  -9 -11   12.94    1.11
  -3  -9 -12    2.98    0.57
  -3  -9 -12    2.44    0.58
  -3  -9 -13    2.18    0.48
  -3 -10   5    1.22    0.40
   3  10  -5    1.87    0.47
  -3 -10   4    0.67    0.39
   3  10  -4    1.31    0.50
  -3 -10   3    0.11    0.37
   3  10  -3   -0.12    0.40
  -3 -10   2    1.14    0.49
   3  10  -2    1.28    0.55
  -3 -10   1    3.74    0.67
   3  10  -1    3.45    0.73
  -3 -10   0    5.28    0.75
  -3 -10   0    5.21    0.76
   3  10   0    4.68    0.82
   3  10   0    3.89    0.62
  -3 -10  -1    6.47    0.87
  -3 -10  -1    6.81    0.82
   3  10   1    6.61    0.74
   3  10   1    6.14    0.94
  -3 -10  -2    5.73    0.89
  -3 -10  -2    6.27    0.83
   3  10   2    5.78    0.73
   3  10   2    4.76    0.86
  -3 -10  -3    3.36    0.66
   3  10   3    2.99    0.56
  -3 -10  -4    4.70    0.81
   3  10   4    5.77    0.67
  -3 -10  -5    2.80    0.67
  -3 -10  -5    0.63    0.49
  -3 -10  -6    9.23    1.07
  -3 -10  -6   10.21    1.05
  -3 -10  -7    9.43    1.06
  -3 -10  -7    9.87    0.99
  -3 -10  -8    4.22    0.77
  -3 -10  -8    3.69    0.65
  -3 -10  -9    1.43    0.54
  -3 -10  -9    1.66    0.49
  -3 -10 -10    1.28    0.46
  -3 -10 -10    1.40    0.45
  -3 -10 -11    0.12    0.30
  -3 -11  -2   15.76    0.95
  -3 -11  -3    1.92    0.48
  -3 -11  -4    2.60    0.45
   4  -4  -4   17.48    0.89
   4  -4  -4   20.74    0.91
   4  -4  -3   26.35    1.13
   4  -4  -3   24.98    1.06
   4  -4  -2   20.13    1.05
   4  -4  -2   20.45    1.03
   4  -4  -1   17.38    1.07
   4  -4   3    5.02    0.68
   4  -4   4    3.36    0.60
   4  -4   5    1.25    0.45
   4  -4   6    1.24    0.41
   4  -3  -7    2.49    0.48
   4  -3  -7    3.75    0.49
   4  -3  -7    2.76    0.43
   4  -3  -6    1.41    0.56
   4  -3  -6    0.93    0.46
   4  -3  -6    1.40    0.45
   4  -3  -6    0.53    0.37
   4  -3  -5    2.00    0.63
   4  -3  -5    1.23    0.51
   4  -3  -5    2.10    0.53
   4  -3  -4   17.11    1.28
   4  -3  -4   18.09    1.15
   4  -3  -4   20.48    1.16
   4  -3  -4   19.20    1.10
   4  -3  -3   34.56    1.79
   4  -3  -3   41.86    1.73
   4  -3  -3   39.05    1.61
   4  -3  -3   36.38    1.54
   4  -3  -2   19.38    1.39
   4  -3  -2   21.20    1.26
   4  -3  -2   19.53    1.24
   4  -3  -2   20.68    1.24
   4  -3  -1    6.92    0.86
   4  -3  -1    7.94    0.92
   4  -3  -1    5.54    0.84
   4  -3   0    9.69    1.03
   4  -3   0    9.63    0.79
   4  -3   0    9.07    0.95
   4  -3   0    8.43    0.96
   4  -3   0   10.02    0.98
   4  -3   1    7.40    0.96
   4  -3   1    6.73    0.74
   4  -3   1    9.38    1.06
   4  -3   2   24.35    1.43
   4  -3   2   22.74    1.17
   4  -3   2   27.88    1.45
   4  -3   2   26.51    1.42
   4  -3   3    2.59    0.66
   4  -3   3    4.33    0.68
   4  -3   4    0.91    0.54
   4  -3   4    3.64    0.65
   4  -3   5    0.63    0.50
   4  -3   5    3.86    0.72
   4  -3   6    8.23    0.85
   4  -3   7    2.09    0.54
   4  -3   8    3.37    0.57
   4  -3   9    8.88    0.72
   4  -2  -9    1.26    0.43
   4  -2  -8    2.40    0.51
   4  -2  -8    3.20    0.58
   4  -2  -8    2.88    0.49
   4  -2  -8    1.96    0.45
   4  -2  -7    1.39    0.52
   4  -2  -7    2.10    0.63
   4  -2  -7    1.33    0.49
   4  -2  -7    0.05    0.43
   4  -2  -7   -0.81    0.48
   4  -2  -6    2.57    0.66
   4  -2  -6    2.64    0.76
   4  -2  -6    1.89    0.59
   4  -2  -6    0.97    0.47
   4  -2  -6    0.09    0.49
   4  -2  -5    1.33    0.73
   4  -2  -5    1.11    0.58
   4  -2  -5   -0.53    0.51
   4  -2  -5   -0.87    0.54
   4  -2  -4    1.45    0.75
   4  -2  -4    1.33    0.61
   4  -2  -4    0.09    0.50
   4  -2  -3    3.24    0.85
   4  -2  -3    4.79    0.86
   4  -2  -3    2.33    0.66
   4  -2  -2    3.24    0.96
   4  -2  -2    2.36    0.61
   4  -2  -2    3.76    0.89
   4  -2  -2    4.48    0.93
   4  -2  -2    2.11    0.73
   4  -2  -1   34.78    1.77
   4  -2  -1   34.89    1.60
   4  -2  -1   31.09    1.80
   4  -2  -1   33.17    1.78
   4  -2  -1   31.40    1.75
   4  -2   0  134.36    3.56
   4  -2   0  129.38    3.19
   4  -2   0  128.09    3.56
   4  -2   0  121.21    3.41
   4  -2   0  119.48    3.40
   4  -2   1  120.37    3.41
   4  -2   1  112.37    3.01
   4  -2   1  117.26    3.34
   4  -2   1  112.49    3.21
   4  -2   1  109.17    3.20
   4  -2   2   18.15    1.38
   4  -2   2   19.11    1.43
   4  -2   3    0.30    0.59
   4  -2   3    1.55    0.64
   4  -2   3    6.38    0.91
   4  -2   3    7.05    0.99
   4  -2   4    9.47    1.06
   4  -2   4    9.11    1.07
   4  -2   5    7.88    0.98
   4  -2   5    9.52    0.98
   4  -2   6   18.17    1.34
   4  -2   6   19.59    1.27
   4  -2   7   12.57    1.08
   4  -2   7   16.19    1.13
   4  -2   8    3.44    0.65
   4  -2   8    5.54    0.76
   4  -2   9    0.69    0.44
   4  -2  10   -0.35    0.43
   4  -2  11   -0.65    0.40
   4  -1 -10   -0.74    0.38
   4  -1  -9    2.67    0.53
   4  -1  -9    3.66    0.58
   4  -1  -9    1.58    0.45
   4  -1  -9    1.08    0.42
   4  -1  -8    5.83    0.75
   4  -1  -8    7.55    0.83
   4  -1  -8    5.65    0.68
   4  -1  -7    3.87    0.69
   4  -1  -7    4.61    0.76
   4  -1  -7    1.36    0.51
   4  -1  -7    1.36    0.49
   4  -1  -6    1.09    0.59
   4  -1  -6    1.92    0.77
   4  -1  -6    1.01    0.60
   4  -1  -5    2.31    0.73
   4  -1  -5    1.83    0.83
   4  -1  -5    1.60    0.67
   4  -1  -4    1.98    0.73
   4  -1  -4    0.03    0.50
   4  -1  -4    1.60    0.88
   4  -1  -4    1.86    0.72
   4  -1  -3    6.20    1.03
   4  -1  -3    5.49    1.13
   4  -1  -3    5.48    0.76
   4  -1  -3    5.57    0.94
   4  -1  -2    1.38    0.60
   4  -1  -2    2.22    0.98
   4  -1  -2    3.28    0.89
   4  -1  -1    8.80    1.04
   4  -1  -1    5.49    0.93
   4  -1  -1    8.78    1.20
   4  -1  -1    3.82    0.85
   4  -1  -1    2.18    0.74
   4  -1   0   26.59    1.66
   4  -1   0   32.29    1.92
   4  -1   0   28.75    1.77
   4  -1   0   27.63    1.72
   4  -1   1   50.58    2.22
   4  -1   1   42.60    2.05
   4  -1   1   48.72    2.34
   4  -1   1   45.39    2.13
   4  -1   1   42.76    2.09
   4  -1   2   20.54    1.53
   4  -1   2   18.27    1.42
   4  -1   2   23.52    1.68
   4  -1   2   24.41    1.55
   4  -1   2   21.57    1.48
   4  -1   3    0.26    0.56
   4  -1   3    0.25    0.66
   4  -1   3    5.86    0.97
   4  -1   3    5.56    0.92
   4  -1   4   -0.08    0.63
   4  -1   4   -0.12    0.67
   4  -1   4    6.32    0.92
   4  -1   4    7.66    0.98
   4  -1   5    9.06    1.08
   4  -1   5   21.24    1.32
   4  -1   5   21.83    1.42
   4  -1   6    2.52    0.75
   4  -1   6    3.63    0.78
   4  -1   7    2.54    0.73
   4  -1   8    0.28    0.59
   4  -1   8    6.88    0.88
   4  -1   9   14.89    1.20
   4  -1   9   19.57    1.22
   4  -1  10    7.96    0.88
   4  -1  10   10.93    0.92
   4  -1  11    2.16    0.56
   4  -1  12    5.23    0.64
   4   0 -10    1.03    0.42
   4   0 -10    0.60    0.39
   4   0  -9    0.58    0.42
   4   0  -9    0.40    0.43
   4   0  -8    1.26    0.52
   4   0  -8    0.28    0.46
   4   0  -8    1.48    0.54
   4   0  -7    0.81    0.51
   4   0  -7    0.91    0.58
   4   0  -7   -0.07    0.52
   4   0  -7    0.31    0.50
   4   0  -6    1.33    0.65
   4   0  -6    0.69    0.52
   4   0  -6    0.52    0.59
   4   0  -6   -0.38    0.60
   4   0  -6    0.77    0.63
   4   0  -5    0.75    0.59
   4   0  -5    0.98    0.55
   4   0  -5    1.42    0.72
   4   0  -5    2.31    0.74
   4   0  -4    3.28    0.82
   4   0  -4    3.01    0.70
   4   0  -4    3.39    0.87
   4   0  -4    3.63    0.84
   4   0  -3    2.70    0.83
   4   0  -3    2.20    0.69
   4   0  -3    2.95    0.86
   4   0  -2    3.21    0.88
   4   0  -2    2.19    0.73
   4   0  -2    3.44    0.93
   4   0  -1    1.36    0.73
   4   0  -1    3.68    0.98
   4   0   0    9.45    1.11
   4   0   0    9.98    1.10
   4   0   1    1.47    0.64
   4   0   1    2.70    0.85
   4   0   1    4.04    1.04
   4   0   1    0.25    0.63
   4   0   1   -0.20    0.69
   4   0   2   -0.32    0.55
   4   0   2    1.31    0.71
   4   0   2    0.59    0.68
   4   0   3   -0.35    0.63
   4   0   3    1.46    0.71
   4   0   3    1.28    0.68
   4   0   4   -1.37    0.69
   4   0   4   -1.18    0.88
   4   0   4    6.11    0.96
   4   0   4    4.20    0.84
   4   0   5    9.23    1.07
   4   0   5    7.26    0.97
   4   0   5   18.23    1.26
   4   0   5   17.77    1.30
   4   0   6    0.78    0.55
   4   0   6    0.76    0.67
   4   0   7    3.05    0.83
   4   0   7    0.90    0.62
   4   0   8   15.04    1.33
   4   0   8   12.92    1.15
   4   0   9    1.38    0.66
   4   0   9    3.65    0.78
   4   0  10   13.71    1.18
   4   0  10   16.60    1.13
   4   0  11    5.21    0.75
   4   0  11    8.52    0.82
   4   0  12    0.73    0.47
   4   0  13    0.84    0.43
   4   1 -11    0.61    0.36
   4   1 -11    2.21    0.44
   4   1 -10    2.07    0.49
   4   1 -10    1.97    0.49
   4   1  -9    5.69    0.67
   4   1  -9    4.65    0.68
   4   1  -9    3.57    0.62
   4   1  -8    3.10    0.61
   4   1  -8    3.83    0.59
   4   1  -8    4.64    0.73
   4   1  -8    2.99    0.68
   4   1  -8    3.00    0.65
   4   1  -7    4.67    0.78
   4   1  -7    4.92    0.74
   4   1  -7    5.62    0.72
   4   1  -7    7.11    0.92
   4   1  -7    5.17    0.79
   4   1  -6    1.39    0.61
   4   1  -6    1.40    0.57
   4   1  -6    2.81    0.77
   4   1  -6    1.99    0.67
   4   1  -6    1.73    0.67
   4   1  -5    1.46    0.65
   4   1  -5   -0.55    0.59
   4   1  -5    2.67    0.78
   4   1  -5    1.62    0.72
   4   1  -5    1.44    0.69
   4   1  -4    0.72    0.64
   4   1  -4   -0.46    0.62
   4   1  -4    3.11    0.89
   4   1  -4    2.66    0.82
   4   1  -4    1.76    0.74
   4   1  -3    3.69    0.84
   4   1  -3    0.98    0.71
   4   1  -3    4.80    1.00
   4   1  -3    3.67    0.94
   4   1  -3    4.18    0.90
   4   1  -2   12.39    1.30
   4   1  -2    9.12    1.17
   4   1  -2   12.84    1.39
   4   1  -2   10.73    1.22
   4   1  -1   24.96    1.74
   4   1  -1   28.53    1.95
   4   1  -1   22.19    1.55
   4   1  -1   18.82    1.44
   4   1   0    1.39    0.71
   4   1   0   -0.35    0.69
   4   1   1   28.07    1.87
   4   1   1   29.35    2.04
   4   1   1   25.22    1.62
   4   1   1   25.08    1.62
   4   1   2   31.66    1.98
   4   1   2   31.03    1.72
   4   1   2   28.23    1.68
   4   1   3    6.86    1.22
   4   1   3    7.12    0.96
   4   1   3    6.16    0.95
   4   1   4   55.57    2.40
   4   1   4   48.67    2.37
   4   1   4   52.73    2.09
   4   1   5   20.73    1.52
   4   1   5   16.64    1.47
   4   1   6    4.82    0.90
   4   1   6    0.21    0.74
   4   1   7   15.07    1.33
   4   1   7   10.83    1.11
   4   1   8    3.73    0.82
   4   1   8    2.13    0.67
   4   1   9    1.10    0.62
   4   1   9    2.25    0.68
   4   1  10   18.15    1.36
   4   1  10   21.47    1.28
   4   1  11   36.40    1.79
   4   1  11   41.17    1.56
   4   1  12   10.93    0.95
   4   1  13    1.43    0.46
   4   1  14    1.87    0.45
   4   2 -10    5.06    0.65
   4   2 -10    5.74    0.65
   4   2 -10    4.34    0.61
   4   2  -9    1.59    0.53
   4   2  -9    1.18    0.52
   4   2  -9    1.44    0.48
   4   2  -9    0.98    0.50
   4   2  -8    0.03    0.46
   4   2  -8    0.66    0.49
   4   2  -8   -0.23    0.48
   4   2  -8    0.26    0.49
   4   2  -7    1.71    0.62
   4   2  -7    1.35    0.57
   4   2  -7    2.68    0.61
   4   2  -7    1.40    0.57
   4   2  -7    3.34    0.72
   4   2  -7    2.09    0.65
   4   2  -6    2.91    0.72
   4   2  -6    2.06    0.66
   4   2  -6    2.10    0.61
   4   2  -6    0.28    0.55
   4   2  -6    2.22    0.78
   4   2  -6    2.23    0.71
   4   2  -5    0.59    0.61
   4   2  -5    0.74    0.54
   4   2  -5    1.24    0.59
   4   2  -5    2.32    0.79
   4   2  -5    1.31    0.68
   4   2  -4    3.77    0.75
   4   2  -4    5.16    1.01
   4   2  -4    4.31    0.83
   4   2  -4    3.46    0.78
   4   2  -3    3.87    0.93
   4   2  -3    3.03    0.79
   4   2  -3    2.65    0.78
   4   2  -2    3.74    1.02
   4   2  -2    3.23    0.86
   4   2  -2    2.56    0.81
   4   2  -1    3.86    0.86
   4   2  -1    3.43    0.76
   4   2  -1    4.27    0.77
   4   2   0   -0.21    0.73
   4   2   1    1.21    0.78
   4   2   1   -0.93    0.69
   4   2   1   -1.20    0.75
   4   2   2    1.30    0.84
   4   2   3   13.64    1.37
   4   2   4   10.31    1.24
   4   2   4   12.48    1.23
   4   2   5    2.07    0.81
   4   2   5    1.55    0.66
   4   2   6   -0.20    0.70
   4   2   6    0.14    0.51
   4   2   7    5.28    0.84
   4   2   7    4.13    0.78
   4   2   8    1.00    0.57
   4   2   8    1.10    0.60
   4   2   9    0.84    0.58
   4   2   9    0.18    0.52
   4   2   9    0.75    0.55
   4   2  10   17.98    1.32
   4   2  10   21.78    1.20
   4   2  10   19.53    1.36
   4   2  11   13.74    1.10
   4   2  11   14.44    1.14
   4   2  12    0.72    0.47
   4   2  12    1.61    0.56
   4   2  13   18.47    1.09
   4   2  13   21.14    1.17
   4   2  14   27.91    1.17
   4   3 -10    2.74    0.48
   4   3 -10    2.26    0.50
   4   3 -10    2.08    0.48
   4   3  -9    1.33    0.47
   4   3  -9    1.82    0.54
   4   3  -9    0.04    0.41
   4   3  -9    0.88    0.47
   4   3  -8    0.72    0.48
   4   3  -8    0.89    0.53
   4   3  -8    0.73    0.52
   4   3  -8    1.54    0.55
   4   3  -7    5.61    0.82
   4   3  -7    7.20    0.88
   4   3  -7    6.72    0.89
   4   3  -7    5.69    0.77
   4   3  -6    7.12    0.93
   4   3  -6    7.49    0.94
   4   3  -6    8.42    0.97
   4   3  -6    7.26    0.87
   4   3  -5    0.93    0.57
   4   3  -5    0.54    0.61
   4   3  -5    0.72    0.63
   4   3  -5    0.65    0.59
   4   3  -4    1.80    0.72
   4   3  -4    0.56    0.63
   4   3  -4    2.42    0.70
   4   3  -4    2.78    0.73
   4   3  -3    6.25    0.95
   4   3  -3    7.22    0.96
   4   3  -3    7.44    0.96
   4   3  -2    3.43    0.77
   4   3  -2    3.70    0.79
   4   3  -2    2.50    0.73
   4   3  -1    6.49    0.91
   4   3  -1    7.20    1.03
   4   3   0    9.52    1.24
   4   3   0   10.96    1.17
   4   3   1    2.41    0.92
   4   3   1    3.17    0.87
   4   3   2   26.45    1.87
   4   3   2   29.02    1.84
   4   3   3    2.40    0.88
   4   3   3    3.00    0.98
   4   3   4   13.65    1.34
   4   3   4   14.00    1.36
   4   3   5   13.41    1.35
   4   3   5   14.32    1.37
   4   3   6   12.20    1.20
   4   3   6   11.04    1.22
   4   3   7   -0.27    0.71
   4   3   7    3.28    0.79
   4   3   8   -0.07    0.64
   4   3   8    2.78    0.74
   4   3   9    1.79    0.59
   4   3   9    0.90    0.51
   4   3   9    1.27    0.61
   4   3  10    1.00    0.49
   4   3  10    0.93    0.61
   4   3  11    5.63    0.74
   4   3  11    5.13    0.81
   4   3  12    3.86    0.61
   4   3  12    3.71    0.66
   4   3  13    1.55    0.45
   4   3  13    1.29    0.49
   4   3  14    0.26    0.36
   4   4  -9    4.80    0.58
   4   4  -9    5.31    0.63
   4   4  -9    4.92    0.65
   4   4  -8    8.32    0.81
   4   4  -8    7.28    0.75
   4   4  -8    7.42    0.82
   4   4  -8    9.11    0.74
   4   4  -7    4.18    0.62
   4   4  -7    4.11    0.73
   4   4  -7    4.55    0.75
   4   4  -7    4.27    0.69
   4   4  -6   14.11    1.19
   4   4  -6   14.64    1.07
   4   4  -6   14.55    1.23
   4   4  -6   15.79    1.03
   4   4  -5   14.83    1.26
   4   4  -5   15.41    1.11
   4   4  -5   14.60    1.28
   4   4  -5   17.85    1.12
   4   4  -4    1.85    0.71
   4   4  -4    3.90    0.89
   4   4  -4    4.23    0.73
   4   4  -4    2.42    0.62
   4   4  -3    1.04    0.73
   4   4  -3   -0.22    0.49
   4   4  -3   -0.09    0.59
   4   4  -2    1.22    0.77
   4   4  -2    1.07    0.55
   4   4  -2    1.16    0.69
   4   4  -1   10.27    1.25
   4   4  -1   11.29    1.21
   4   4  -1   13.65    1.35
   4   4   0   19.15    1.57
   4   4   0   19.88    1.56
   4   4   1    8.29    1.22
   4   4   1    9.03    1.19
   4   4   2   26.58    1.82
   4   4   2   26.34    1.84
   4   4   3    2.87    0.88
   4   4   3    2.37    0.97
   4   4   4   17.87    1.41
   4   4   4   16.91    1.48
   4   4   5    1.59    0.68
   4   4   5    0.93    0.64
   4   4   6    0.90    0.62
   4   4   6   -0.24    0.60
   4   4   7   -0.09    0.55
   4   4   8    0.00    0.53
   4   4   9    0.18    0.53
   4   4  10    3.06    0.72
   4   4  11    1.51    0.59
   4   4  12    0.55    0.45
   4   4  13    0.21    0.39
   4   4  14    1.58    0.44
   4   5  -9    1.12    0.44
   4   5  -8    1.63    0.49
   4   5  -8    0.91    0.49
   4   5  -7    8.26    0.84
   4   5  -7    7.92    0.86
   4   5  -6    9.22    0.94
   4   5  -6    9.72    1.02
   4   5  -5   17.21    1.28
   4   5  -5   19.13    1.40
   4   5  -4    7.91    1.01
   4   5  -4    5.25    0.89
   4   5  -3   18.35    1.43
   4   5  -3   17.69    1.43
   4   5  -2   41.68    2.08
   4   5  -2   42.87    2.20
   4   5  -1   11.35    1.27
   4   5  -1   11.00    1.18
   4   5  -1   15.03    1.41
   4   5   0    1.50    0.69
   4   5   0    1.89    0.71
   4   5   0    3.81    0.89
   4   5   1    5.64    0.94
   4   5   1    6.92    1.04
   4   5   1    9.17    1.15
   4   5   2   15.43    1.36
   4   5   2   14.41    1.44
   4   5   2   18.89    1.54
   4   5   3   29.65    1.72
   4   5   3   26.79    1.89
   4   5   4    4.44    0.89
   4   5   4    3.79    0.99
   4   5   4    5.99    1.01
   4   5   5    0.70    0.61
   4   5   5    1.03    0.65
   4   5   6    5.47    0.77
   4   5   6    3.75    0.81
   4   5   7    4.10    0.81
   4   5   8    0.38    0.54
   4   5   9    2.31    0.67
   4   5  10    0.53    0.51
   4   5  11    1.21    0.53
   4   5  12    1.00    0.48
   4   5  13    3.05    0.53
   4   6  -7    0.72    0.42
   4   6  -7    0.31    0.41
   4   6  -6    7.98    0.79
   4   6  -6    7.03    0.80
   4   6  -5   17.30    1.13
   4   6  -5   18.49    1.27
   4   6  -4    1.84    0.63
   4   6  -4    1.85    0.66
   4   6  -3   15.69    1.21
   4   6  -3   13.94    1.25
   4   6  -2   41.67    1.88
   4   6  -2   43.77    2.12
   4   6  -1   20.45    1.37
   4   6  -1   18.75    1.39
   4   6  -1   21.99    1.59
   4   6   0   -0.05    0.58
   4   6   0    0.99    0.60
   4   6   1    5.01    0.78
   4   6   1    5.97    0.93
   4   6   1    4.34    0.93
   4   6   2    4.25    0.77
   4   6   2    5.11    0.97
   4   6   2    3.71    0.85
   4   6   3   20.81    1.26
   4   6   3   19.41    1.52
   4   6   3   22.57    1.59
   4   6   4   11.49    1.00
   4   6   4    9.49    1.21
   4   6   4   12.96    1.32
   4   6   5    3.48    0.88
   4   6   5    5.25    0.88
   4   6   6    0.53    0.56
   4   6   7    2.50    0.64
   4   6   8    0.44    0.48
   4   6   9    0.44    0.48
   4   6  10    0.83    0.48
   4   6  11    2.97    0.57
   4   6  12    0.25    0.36
   4   7  -5    3.66    0.52
   4   7  -5    4.23    0.55
   4   7  -5    3.92    0.61
   4   7  -4   -0.33    0.44
   4   7  -4    0.37    0.39
   4   7  -4    0.98    0.49
   4   7  -3    2.36    0.54
   4   7  -3    1.89    0.50
   4   7  -3    2.49    0.60
   4   7  -2    3.71    0.60
   4   7  -2    3.82    0.65
   4   7  -2    4.79    0.77
   4   7  -1   -0.53    0.51
   4   7  -1   -0.29    0.46
   4   7   0    1.75    0.54
   4   7   0    2.22    0.59
   4   7   0    1.58    0.61
   4   7   1   14.03    0.94
   4   7   1   11.83    1.13
   4   7   1   11.63    1.12
   4   7   2   43.47    2.03
   4   7   2   40.12    1.95
   4   7   3   83.89    2.84
   4   7   3   74.54    2.66
   4   7   4   47.19    2.10
   4   7   4   40.29    1.93
   4   7   5    6.13    0.87
   4   7   6    0.91    0.53
   4   7   7    3.18    0.66
   4   7   8    3.14    0.62
   4   7   9    1.34    0.46
   4   7  10    0.30    0.34
   4   8  -3    1.41    0.37
   4   8  -2    2.16    0.44
   4   8  -2    1.79    0.48
   4   8  -1    0.29    0.37
   4   8  -1   -0.19    0.42
   4   8   0    0.44    0.38
   4   8   0    0.38    0.45
   4   8   1    0.39    0.41
   4   8   1    2.10    0.58
   4   8   2   10.19    0.91
   4   8   2    8.55    0.88
   4   8   3   30.37    1.45
   4   8   4   35.42    1.57
   4   8   5   16.13    1.06
   4   8   6    4.98    0.67
   4   8   7    5.27    0.61
   4   8   8    1.55    0.42
   0   0   0    0.00    0.00


TITL L_reint in P-1
REM P-1 (#2 in standard setting)
CELL 1.54184   3.789505  10.013347  18.824486  84.2157  84.8171  79.3307
ZERR    1.00   0.000154   0.000507   0.000944   0.0042   0.0037   0.0039
LATT  1
SFAC C H N O Cu
UNIT 20.00 20.00 5.00 5.00 1.00
TREF
HKLF 4
END
_computing_structure_solution     'SHELXT 2018/2 (Sheldrick, 2018)'
;
_shelx_hkl_checksum              44898
_shelx_fab_file
;
    1    0    0     -8.26      0.00
    2    0    0      0.95      0.00
    3    0    0     -0.47      0.00
    4    0    0      0.07      0.00
   -4    1    0     -0.05      0.00
   -3    1    0     -0.36      0.00
   -2    1    0      0.81      0.00
   -1    1    0     -4.44      0.00
    0    1    0     21.54      0.00
    1    1    0     -4.78      0.00
    2    1    0      0.96      0.00
    3    1    0     -0.21      0.00
    4    1    0      0.19      0.00
   -4    2    0      0.06      0.00
   -3    2    0     -0.26      0.00
   -2    2    0      0.63      0.00
   -1    2    0      0.32      0.00
    0    2    0      1.91      0.00
    1    2    0      2.77      0.00
    2    2    0     -0.13      0.00
    3    2    0      0.34      0.00
    4    2    0     -0.08      0.00
   -4    3    0     -0.15      0.00
   -3    3    0     -0.35      0.00
   -2    3    0     -0.15      0.00
   -1    3    0      1.68      0.00
    0    3    0     -2.71      0.00
    1    3    0      5.04      0.00
    2    3    0     -1.44      0.00
    3    3    0      0.80      0.00
    4    3    0     -0.20      0.00
   -3    4    0     -0.19      0.00
   -2    4    0     -0.86      0.00
   -1    4    0      0.63      0.00
    0    4    0      1.96      0.00
    1    4    0      1.99      0.00
    2    4    0     -1.18      0.00
    3    4    0      0.86      0.00
    4    4    0      0.02      0.00
   -3    5    0      0.20      0.00
   -2    5    0     -0.68      0.00
   -1    5    0     -0.51      0.00
    0    5    0      3.10      0.00
    1    5    0     -0.09      0.00
    2    5    0     -0.11      0.00
    3    5    0      0.48      0.00
    4    5    0      0.13      0.00
   -3    6    0      0.30      0.00
   -2    6    0     -0.23      0.00
   -1    6    0     -0.25      0.00
    0    6    0      0.58      0.00
    1    6    0     -0.43      0.00
    2    6    0      0.12      0.00
    3    6    0     -0.02      0.00
    4    6    0      0.16      0.00
   -3    7    0      0.20      0.00
   -2    7    0     -0.20      0.00
   -1    7    0      0.53      0.00
    0    7    0     -1.31      0.00
    1    7    0     -0.61      0.00
    2    7    0     -0.12      0.00
    3    7    0     -0.21      0.00
    4    7    0      0.26      0.00
   -3    8    0      0.18      0.00
   -2    8    0     -0.21      0.00
   -1    8    0      0.06      0.00
    0    8    0     -1.13      0.00
    1    8    0     -0.23      0.00
    2    8    0     -0.09      0.00
    3    8    0     -0.03      0.00
    4    8    0      0.22      0.00
   -2    9    0      0.01      0.00
   -1    9    0     -0.89      0.00
    0    9    0     -0.07      0.00
    1    9    0     -0.01      0.00
    2    9    0     -0.03      0.00
    3    9    0      0.10      0.00
   -2   10    0      0.12      0.00
   -1   10    0     -0.71      0.00
    0   10    0      0.02      0.00
    1   10    0     -0.45      0.00
    2   10    0      0.04      0.00
    3   10    0     -0.03      0.00
   -1   11    0     -0.02      0.00
    0   11    0     -0.48      0.00
    1   11    0     -0.37      0.00
    2   11    0      0.10      0.00
    0   12    0     -0.35      0.00
    1   12    0      0.06      0.00
    2   12    0     -0.03      0.00
   -2  -12    1      0.00      0.00
   -1  -12    1     -0.02      0.00
    0  -12    1     -0.24      0.00
   -2  -11    1      0.06      0.00
   -1  -11    1     -0.41      0.00
    0  -11    1     -0.17      0.00
    1  -11    1     -0.27      0.00
   -3  -10    1      0.04      0.00
   -2  -10    1     -0.04      0.00
   -1  -10    1     -0.18      0.00
    0  -10    1      0.22      0.00
    1  -10    1     -0.80      0.00
    2  -10    1      0.08      0.00
   -3   -9    1      0.09      0.00
   -2   -9    1     -0.07      0.00
   -1   -9    1      0.25      0.00
    0   -9    1     -0.27      0.00
    1   -9    1     -0.49      0.00
    2   -9    1     -0.04      0.00
   -4   -8    1      0.15      0.00
   -3   -8    1     -0.11      0.00
   -2   -8    1     -0.06      0.00
   -1   -8    1     -0.23      0.00
    0   -8    1     -1.06      0.00
    1   -8    1      0.45      0.00
    2   -8    1     -0.13      0.00
    3   -8    1      0.12      0.00
   -4   -7    1      0.13      0.00
   -3   -7    1     -0.23      0.00
   -2   -7    1      0.03      0.00
   -1   -7    1     -0.51      0.00
    0   -7    1     -0.23      0.00
    1   -7    1      0.46      0.00
    2   -7    1     -0.10      0.00
    3   -7    1      0.14      0.00
   -4   -6    1      0.10      0.00
   -3   -6    1      0.02      0.00
   -2   -6    1      0.15      0.00
   -1   -6    1     -0.06      0.00
    0   -6    1      2.10      0.00
    1   -6    1     -0.22      0.00
    2   -6    1     -0.30      0.00
    3   -6    1      0.22      0.00
   -4   -5    1      0.09      0.00
   -3   -5    1      0.47      0.00
   -2   -5    1     -0.32      0.00
   -1   -5    1      0.60      0.00
    0   -5    1      3.58      0.00
    1   -5    1      0.16      0.00
    2   -5    1     -0.64      0.00
    3   -5    1      0.02      0.00
   -4   -4    1     -0.05      0.00
   -3   -4    1      0.69      0.00
   -2   -4    1     -1.15      0.00
   -1   -4    1      2.56      0.00
    0   -4    1      1.46      0.00
    1   -4    1      1.31      0.00
    2   -4    1     -0.32      0.00
    3   -4    1     -0.34      0.00
   -4   -3    1     -0.16      0.00
   -3   -3    1      0.45      0.00
   -2   -3    1     -0.83      0.00
   -1   -3    1      3.78      0.00
    0   -3    1     -0.33      0.00
    1   -3    1      1.28      0.00
    2   -3    1      0.57      0.00
    3   -3    1     -0.33      0.00
    4   -3    1      0.00      0.00
   -4   -2    1      0.05      0.00
   -3   -2    1     -0.06      0.00
   -2   -2    1      0.53      0.00
   -1   -2    1     -0.69      0.00
    0   -2    1      9.56      0.00
    1   -2    1     -1.20      0.00
    2   -2    1      0.99      0.00
    3   -2    1     -0.18      0.00
    4   -2    1      0.14      0.00
   -4   -1    1      0.15      0.00
   -3   -1    1     -0.46      0.00
   -2   -1    1      1.17      0.00
   -1   -1    1     -7.44      0.00
    0   -1    1     27.40      0.00
    1   -1    1     -5.31      0.00
    2   -1    1      0.81      0.00
    3   -1    1     -0.32      0.00
    4   -1    1      0.00      0.00
   -4    0    1     -0.11      0.00
   -3    0    1     -0.52      0.00
   -2    0    1      0.82      0.00
   -1    0    1     -7.60      0.00
    1    0    1     -6.29      0.00
    2    0    1      0.77      0.00
    3    0    1     -0.34      0.00
    4    0    1      0.09      0.00
   -4    1    1     -0.18      0.00
   -3    1    1     -0.34      0.00
   -2    1    1      0.44      0.00
   -1    1    1     -1.84      0.00
    0    1    1      9.34      0.00
    1    1    1     -0.61      0.00
    2    1    1      0.49      0.00
    3    1    1      0.10      0.00
    4    1    1      0.03      0.00
   -4    2    1     -0.08      0.00
   -3    2    1     -0.24      0.00
   -2    2    1     -0.06      0.00
   -1    2    1      2.05      0.00
    0    2    1     -6.31      0.00
    1    2    1      5.66      0.00
    2    2    1     -0.77      0.00
    3    2    1      0.64      0.00
    4    2    1     -0.27      0.00
   -4    3    1     -0.29      0.00
   -3    3    1     -0.23      0.00
   -2    3    1     -0.90      0.00
   -1    3    1      1.65      0.00
    0    3    1     -4.30      0.00
    1    3    1      5.02      0.00
    2    3    1     -1.66      0.00
    3    3    1      0.90      0.00
    4    3    1     -0.20      0.00
   -4    4    1     -0.45      0.00
   -3    4    1      0.02      0.00
   -2    4    1     -1.12      0.00
   -1    4    1     -0.15      0.00
    0    4    1      1.71      0.00
    1    4    1      0.86      0.00
    2    4    1     -0.86      0.00
    3    4    1      0.79      0.00
    4    4    1      0.09      0.00
   -3    5    1      0.33      0.00
   -2    5    1     -0.50      0.00
   -1    5    1     -0.83      0.00
    0    5    1      1.38      0.00
    1    5    1     -0.70      0.00
    2    5    1      0.12      0.00
    3    5    1      0.37      0.00
    4    5    1      0.14      0.00
   -3    6    1      0.32      0.00
   -2    6    1     -0.15      0.00
   -1    6    1     -0.06      0.00
    0    6    1     -1.32      0.00
    1    6    1     -0.57      0.00
    2    6    1      0.01      0.00
    3    6    1     -0.07      0.00
    4    6    1      0.20      0.00
   -3    7    1      0.22      0.00
   -2    7    1     -0.28      0.00
   -1    7    1      0.45      0.00
    0    7    1     -2.05      0.00
    1    7    1     -0.56      0.00
    2    7    1     -0.20      0.00
    3    7    1     -0.16      0.00
    4    7    1      0.32      0.00
   -3    8    1      0.20      0.00
   -2    8    1     -0.17      0.00
   -1    8    1     -0.43      0.00
    0    8    1     -0.92      0.00
    1    8    1     -0.24      0.00
    2    8    1     -0.03      0.00
    3    8    1      0.05      0.00
    4    8    1      0.21      0.00
   -2    9    1      0.11      0.00
   -1    9    1     -1.08      0.00
    0    9    1      0.05      0.00
    1    9    1     -0.26      0.00
    2    9    1      0.03      0.00
    3    9    1      0.09      0.00
   -2   10    1      0.14      0.00
   -1   10    1     -0.41      0.00
    0   10    1     -0.27      0.00
    1   10    1     -0.55      0.00
    2   10    1      0.09      0.00
    3   10    1     -0.08      0.00
   -1   11    1      0.21      0.00
    0   11    1     -0.70      0.00
    1   11    1     -0.22      0.00
    2   11    1      0.11      0.00
    0   12    1     -0.35      0.00
    1   12    1      0.08      0.00
    2   12    1     -0.05      0.00
   -1  -12    2     -0.09      0.00
    0  -12    2     -0.10      0.00
   -2  -11    2      0.00      0.00
   -1  -11    2     -0.32      0.00
    0  -11    2      0.09      0.00
    1  -11    2     -0.43      0.00
   -3  -10    2      0.09      0.00
   -2  -10    2     -0.09      0.00
   -1  -10    2      0.17      0.00
    0  -10    2      0.25      0.00
    1  -10    2     -0.65      0.00
    2  -10    2      0.06      0.00
   -3   -9    2      0.05      0.00
   -2   -9    2     -0.05      0.00
   -1   -9    2      0.41      0.00
    0   -9    2     -0.46      0.00
    1   -9    2     -0.06      0.00
    2   -9    2     -0.02      0.00
   -4   -8    2      0.04      0.00
   -3   -8    2     -0.15      0.00
   -2   -8    2      0.04      0.00
   -1   -8    2     -0.22      0.00
    0   -8    2     -0.73      0.00
    1   -8    2      0.61      0.00
    2   -8    2      0.00      0.00
    3   -8    2      0.04      0.00
   -4   -7    2      0.02      0.00
   -3   -7    2     -0.19      0.00
   -2   -7    2      0.14      0.00
   -1   -7    2     -0.25      0.00
    0   -7    2      0.79      0.00
    1   -7    2      0.33      0.00
    2   -7    2     -0.03      0.00
    3   -7    2      0.07      0.00
   -4   -6    2      0.04      0.00
   -3   -6    2      0.04      0.00
   -2   -6    2      0.10      0.00
   -1   -6    2      0.41      0.00
    0   -6    2      2.73      0.00
    1   -6    2      0.02      0.00
    2   -6    2     -0.33      0.00
    3   -6    2      0.10      0.00
   -4   -5    2      0.04      0.00
   -3   -5    2      0.34      0.00
   -2   -5    2     -0.41      0.00
   -1   -5    2      1.12      0.00
    0   -5    2      2.77      0.00
    1   -5    2      0.84      0.00
    2   -5    2     -0.36      0.00
    3   -5    2     -0.14      0.00
   -4   -4    2     -0.10      0.00
   -3   -4    2      0.37      0.00
   -2   -4    2     -0.82      0.00
   -1   -4    2      2.43      0.00
    0   -4    2      0.54      0.00
    1   -4    2      1.57      0.00
    2   -4    2      0.34      0.00
    3   -4    2     -0.36      0.00
   -4   -3    2     -0.12      0.00
   -3   -3    2      0.04      0.00
   -2   -3    2     -0.18      0.00
   -1   -3    2      1.88      0.00
    0   -3    2      1.97      0.00
    1   -3    2      0.62      0.00
    2   -3    2      1.05      0.00
    3   -3    2     -0.18      0.00
    4   -3    2      0.10      0.00
   -4   -2    2      0.05      0.00
   -3   -2    2     -0.38      0.00
   -2   -2    2      0.87      0.00
   -1   -2    2     -3.30      0.00
    0   -2    2     13.75      0.00
    1   -2    2     -1.94      0.00
    2   -2    2      0.99      0.00
    3   -2    2     -0.07      0.00
    4   -2    2      0.11      0.00
   -4   -1    2     -0.03      0.00
   -3   -1    2     -0.56      0.00
   -2   -1    2      0.96      0.00
   -1   -1    2     -7.59      0.00
    0   -1    2     24.98      0.00
    1   -1    2     -4.33      0.00
    2   -1    2      0.57      0.00
    3   -1    2     -0.26      0.00
    4   -1    2     -0.05      0.00
   -4    0    2     -0.32      0.00
   -3    0    2     -0.46      0.00
   -2    0    2      0.34      0.00
   -1    0    2     -4.62      0.00
    0    0    2     16.47      0.00
    1    0    2     -2.81      0.00
    2    0    2      0.46      0.00
    3    0    2     -0.17      0.00
    4    0    2     -0.03      0.00
   -4    1    2     -0.31      0.00
   -3    1    2     -0.23      0.00
   -2    1    2     -0.22      0.00
   -1    1    2      1.37      0.00
    0    1    2     -4.31      0.00
    1    1    2      3.19      0.00
    2    1    2      0.06      0.00
    3    1    2      0.33      0.00
    4    1    2     -0.23      0.00
   -4    2    2     -0.20      0.00
   -3    2    2     -0.11      0.00
   -2    2    2     -0.88      0.00
   -1    2    2      3.18      0.00
    0    2    2    -12.01      0.00
    1    2    2      6.75      0.00
    2    2    2     -1.08      0.00
    3    2    2      0.69      0.00
    4    2    2     -0.41      0.00
   -4    3    2     -0.36      0.00
   -3    3    2     -0.04      0.00
   -2    3    2     -1.41      0.00
   -1    3    2      1.15      0.00
    0    3    2     -4.62      0.00
    1    3    2      3.66      0.00
    2    3    2     -1.41      0.00
    3    3    2      0.71      0.00
    4    3    2     -0.11      0.00
   -4    4    2     -0.40      0.00
   -3    4    2      0.18      0.00
   -2    4    2     -1.01      0.00
   -1    4    2     -0.70      0.00
    0    4    2      0.71      0.00
    1    4    2     -0.40      0.00
    2    4    2     -0.33      0.00
    3    4    2      0.54      0.00
    4    4    2      0.14      0.00
   -3    5    2      0.35      0.00
   -2    5    2     -0.19      0.00
   -1    5    2     -0.69      0.00
    0    5    2     -0.93      0.00
    1    5    2     -1.01      0.00
    2    5    2      0.29      0.00
    3    5    2      0.21      0.00
    4    5    2      0.10      0.00
   -3    6    2      0.28      0.00
   -2    6    2     -0.10      0.00
   -1    6    2      0.25      0.00
    0    6    2     -2.87      0.00
    1    6    2     -0.53      0.00
    2    6    2     -0.06      0.00
    3    6    2     -0.10      0.00
    4    6    2      0.20      0.00
   -3    7    2      0.20      0.00
   -2    7    2     -0.30      0.00
   -1    7    2      0.22      0.00
    0    7    2     -2.18      0.00
    1    7    2     -0.46      0.00
    2    7    2     -0.14      0.00
    3    7    2     -0.09      0.00
    4    7    2      0.30      0.00
   -3    8    2      0.19      0.00
   -2    8    2     -0.04      0.00
   -1    8    2     -0.85      0.00
    0    8    2     -0.52      0.00
    1    8    2     -0.27      0.00
    2    8    2      0.06      0.00
    3    8    2      0.10      0.00
    4    8    2      0.12      0.00
   -2    9    2      0.22      0.00
   -1    9    2     -0.97      0.00
    0    9    2      0.08      0.00
    1    9    2     -0.40      0.00
    2    9    2      0.06      0.00
    3    9    2      0.07      0.00
   -2   10    2      0.13      0.00
   -1   10    2      0.00      0.00
    0   10    2     -0.52      0.00
    1   10    2     -0.47      0.00
    2   10    2      0.12      0.00
    3   10    2     -0.09      0.00
   -1   11    2      0.31      0.00
    0   11    2     -0.71      0.00
    1   11    2     -0.06      0.00
    2   11    2      0.10      0.00
    3   11    2     -0.07      0.00
    0   12    2     -0.22      0.00
    1   12    2      0.04      0.00
    2   12    2     -0.05      0.00
   -1  -12    3     -0.11      0.00
    0  -12    3     -0.01      0.00
   -2  -11    3     -0.05      0.00
   -1  -11    3     -0.12      0.00
    0  -11    3      0.22      0.00
    1  -11    3     -0.43      0.00
   -3  -10    3      0.10      0.00
   -2  -10    3     -0.08      0.00
   -1  -10    3      0.46      0.00
    0  -10    3      0.12      0.00
    1  -10    3     -0.36      0.00
    2  -10    3      0.06      0.00
   -3   -9    3      0.00      0.00
   -2   -9    3      0.03      0.00
   -1   -9    3      0.44      0.00
    0   -9    3     -0.58      0.00
    1   -9    3      0.25      0.00
    2   -9    3      0.04      0.00
   -4   -8    3     -0.06      0.00
   -3   -8    3     -0.14      0.00
   -2   -8    3      0.12      0.00
   -1   -8    3     -0.16      0.00
    0   -8    3     -0.25      0.00
    1   -8    3      0.55      0.00
    2   -8    3      0.10      0.00
   -4   -7    3     -0.05      0.00
   -3   -7    3     -0.12      0.00
   -2   -7    3      0.14      0.00
   -1   -7    3      0.09      0.00
    0   -7    3      1.46      0.00
    1   -7    3      0.21      0.00
    2   -7    3     -0.03      0.00
    3   -7    3      0.02      0.00
   -4   -6    3      0.01      0.00
   -3   -6    3      0.03      0.00
   -2   -6    3      0.00      0.00
   -1   -6    3      0.78      0.00
    0   -6    3      2.39      0.00
    1   -6    3      0.28      0.00
    2   -6    3     -0.29      0.00
    3   -6    3      0.02      0.00
   -4   -5    3     -0.01      0.00
   -3   -5    3      0.15      0.00
   -2   -5    3     -0.38      0.00
   -1   -5    3      1.28      0.00
    0   -5    3      1.19      0.00
    1   -5    3      1.16      0.00
    2   -5    3      0.07      0.00
    3   -5    3     -0.20      0.00
   -4   -4    3     -0.12      0.00
   -3   -4    3      0.05      0.00
   -2   -4    3     -0.42      0.00
   -1   -4    3      1.79      0.00
    0   -4    3     -0.36      0.00
    1   -4    3      1.29      0.00
    2   -4    3      0.89      0.00
    3   -4    3     -0.25      0.00
    4   -4    3     -0.21      0.00
   -4   -3    3     -0.11      0.00
   -3   -3    3     -0.26      0.00
   -2   -3    3      0.24      0.00
   -1   -3    3      0.08      0.00
    0   -3    3      3.38      0.00
    1   -3    3     -0.08      0.00
    2   -3    3      1.19      0.00
    3   -3    3      0.01      0.00
    4   -3    3      0.14      0.00
   -4   -2    3     -0.04      0.00
   -3   -2    3     -0.50      0.00
   -2   -2    3      0.79      0.00
   -1   -2    3     -4.34      0.00
    0   -2    3     13.40      0.00
    1   -2    3     -1.89      0.00
    2   -2    3      0.73      0.00
    3   -2    3      0.02      0.00
    4   -2    3      0.01      0.00
   -4   -1    3     -0.23      0.00
   -3   -1    3     -0.49      0.00
   -2   -1    3      0.45      0.00
   -1   -1    3     -5.61      0.00
    0   -1    3     16.15      0.00
    1   -1    3     -2.40      0.00
    2   -1    3      0.28      0.00
    3   -1    3     -0.20      0.00
    4   -1    3     -0.16      0.00
   -4    0    3     -0.44      0.00
   -3    0    3     -0.29      0.00
   -2    0    3     -0.34      0.00
   -1    0    3     -0.84      0.00
    0    0    3      1.66      0.00
    1    0    3      0.40      0.00
    2    0    3      0.24      0.00
    3    0    3     -0.02      0.00
    4    0    3     -0.21      0.00
   -4    1    3     -0.32      0.00
   -3    1    3     -0.06      0.00
   -2    1    3     -0.97      0.00
   -1    1    3      3.74      0.00
    0    1    3    -14.30      0.00
    1    1    3      5.09      0.00
    2    1    3     -0.16      0.00
    3    1    3      0.41      0.00
    4    1    3     -0.43      0.00
   -4    2    3     -0.22      0.00
   -3    2    3      0.05      0.00
   -2    2    3     -1.50      0.00
   -1    2    3      3.19      0.00
    0    2    3    -13.46      0.00
    1    2    3      5.78      0.00
    2    2    3     -1.01      0.00
    3    2    3      0.49      0.00
    4    2    3     -0.37      0.00
   -4    3    3     -0.32      0.00
   -3    3    3      0.09      0.00
   -2    3    3     -1.49      0.00
   -1    3    3      0.37      0.00
    0    3    3     -3.82      0.00
    1    3    3      1.60      0.00
    2    3    3     -0.86      0.00
    3    3    3      0.35      0.00
    4    3    3      0.06      0.00
   -4    4    3     -0.29      0.00
   -3    4    3      0.22      0.00
   -2    4    3     -0.59      0.00
   -1    4    3     -0.86      0.00
    0    4    3     -0.64      0.00
    1    4    3     -1.37      0.00
    2    4    3      0.19      0.00
    3    4    3      0.25      0.00
    4    4    3      0.14      0.00
   -3    5    3      0.28      0.00
   -2    5    3      0.11      0.00
   -1    5    3     -0.24      0.00
    0    5    3     -2.87      0.00
    1    5    3     -1.05      0.00
    2    5    3      0.39      0.00
    3    5    3      0.07      0.00
    4    5    3      0.02      0.00
   -3    6    3      0.21      0.00
   -2    6    3     -0.09      0.00
   -1    6    3      0.48      0.00
    0    6    3     -3.46      0.00
    1    6    3     -0.44      0.00
    2    6    3     -0.02      0.00
    3    6    3     -0.12      0.00
    4    6    3      0.16      0.00
   -3    7    3      0.18      0.00
   -2    7    3     -0.24      0.00
   -1    7    3     -0.08      0.00
    0    7    3     -1.67      0.00
    1    7    3     -0.36      0.00
    2    7    3      0.03      0.00
    3    7    3     -0.06      0.00
    4    7    3      0.20      0.00
   -3    8    3      0.14      0.00
   -2    8    3      0.14      0.00
   -1    8    3     -1.01      0.00
    0    8    3     -0.03      0.00
    1    8    3     -0.26      0.00
    2    8    3      0.14      0.00
    3    8    3      0.12      0.00
    4    8    3      0.00      0.00
   -2    9    3      0.28      0.00
   -1    9    3     -0.58      0.00
    0    9    3      0.04      0.00
    1    9    3     -0.38      0.00
    2    9    3      0.07      0.00
    3    9    3      0.07      0.00
   -2   10    3      0.10      0.00
   -1   10    3      0.36      0.00
    0   10    3     -0.62      0.00
    1   10    3     -0.28      0.00
    2   10    3      0.15      0.00
    3   10    3     -0.06      0.00
   -1   11    3      0.28      0.00
    0   11    3     -0.51      0.00
    1   11    3      0.03      0.00
    2   11    3      0.08      0.00
    3   11    3     -0.02      0.00
    0   12    3     -0.03      0.00
    1   12    3     -0.03      0.00
    2   12    3     -0.06      0.00
   -1  -12    4     -0.08      0.00
   -2  -11    4     -0.05      0.00
   -1  -11    4      0.09      0.00
    0  -11    4      0.19      0.00
    1  -11    4     -0.30      0.00
   -3  -10    4      0.06      0.00
   -2  -10    4      0.00      0.00
   -1  -10    4      0.60      0.00
    0  -10    4     -0.09      0.00
    1  -10    4     -0.05      0.00
   -3   -9    4     -0.03      0.00
   -2   -9    4      0.12      0.00
   -1   -9    4      0.38      0.00
    0   -9    4     -0.56      0.00
    1   -9    4      0.37      0.00
    2   -9    4      0.07      0.00
   -3   -8    4     -0.07      0.00
   -2   -8    4      0.13      0.00
   -1   -8    4     -0.05      0.00
    0   -8    4      0.23      0.00
    1   -8    4      0.39      0.00
    2   -8    4      0.11      0.00
   -4   -7    4     -0.07      0.00
   -3   -7    4     -0.04      0.00
   -2   -7    4      0.07      0.00
   -1   -7    4      0.36      0.00
    0   -7    4      1.60      0.00
    1   -7    4      0.13      0.00
    2   -7    4     -0.11      0.00
    3   -7    4      0.00      0.00
   -4   -6    4     -0.02      0.00
   -3   -6    4     -0.01      0.00
   -2   -6    4     -0.09      0.00
   -1   -6    4      0.89      0.00
    0   -6    4      1.37      0.00
    1   -6    4      0.39      0.00
    2   -6    4     -0.17      0.00
    3   -6    4     -0.04      0.00
   -4   -5    4     -0.05      0.00
   -3   -5    4      0.00      0.00
   -2   -5    4     -0.26      0.00
   -1   -5    4      1.09      0.00
    0   -5    4     -0.46      0.00
    1   -5    4      0.98      0.00
    2   -5    4      0.52      0.00
    3   -5    4     -0.19      0.00
   -4   -4    4     -0.14      0.00
   -3   -4    4     -0.13      0.00
   -2   -4    4     -0.11      0.00
   -1   -4    4      0.89      0.00
    0   -4    4     -0.86      0.00
    1   -4    4      0.58      0.00
    2   -4    4      1.17      0.00
    3   -4    4     -0.10      0.00
    4   -4    4     -0.06      0.00
   -4   -3    4     -0.13      0.00
   -3   -3    4     -0.35      0.00
   -2   -3    4      0.36      0.00
   -1   -3    4     -1.23      0.00
    0   -3    4      3.69      0.00
    1   -3    4     -0.70      0.00
    2   -3    4      0.98      0.00
    3   -3    4      0.16      0.00
    4   -3    4      0.16      0.00
   -4   -2    4     -0.13      0.00
   -3   -2    4     -0.43      0.00
   -2   -2    4      0.47      0.00
   -1   -2    4     -4.06      0.00
    0   -2    4      9.60      0.00
    1   -2    4     -1.47      0.00
    2   -2    4      0.34      0.00
    3   -2    4      0.06      0.00
    4   -2    4     -0.07      0.00
   -4   -1    4     -0.30      0.00
   -3   -1    4     -0.30      0.00
   -2   -1    4     -0.14      0.00
   -1   -1    4     -2.82      0.00
    0   -1    4      5.24      0.00
    1   -1    4     -0.69      0.00
    2   -1    4      0.06      0.00
    3   -1    4     -0.14      0.00
    4   -1    4     -0.22      0.00
   -4    0    4     -0.37      0.00
   -3    0    4     -0.08      0.00
   -2    0    4     -0.96      0.00
   -1    0    4      2.11      0.00
    0    0    4     -9.75      0.00
    1    0    4      2.13      0.00
    2    0    4      0.12      0.00
    3    0    4      0.10      0.00
    4    0    4     -0.31      0.00
   -4    1    4     -0.20      0.00
   -3    1    4      0.11      0.00
   -2    1    4     -1.49      0.00
   -1    1    4      4.39      0.00
    0    1    4    -17.85      0.00
    1    1    4      4.82      0.00
    2    1    4     -0.23      0.00
    3    1    4      0.34      0.00
    4    1    4     -0.44      0.00
   -4    2    4     -0.12      0.00
   -3    2    4      0.16      0.00
   -2    2    4     -1.66      0.00
   -1    2    4      2.14      0.00
    0    2    4    -11.00      0.00
    1    2    4      3.56      0.00
    2    2    4     -0.76      0.00
    3    2    4      0.17      0.00
    4    2    4     -0.15      0.00
   -4    3    4     -0.20      0.00
   -3    3    4      0.13      0.00
   -2    3    4     -1.10      0.00
   -1    3    4     -0.44      0.00
    0    3    4     -2.38      0.00
    1    3    4     -0.31      0.00
    2    3    4     -0.30      0.00
    3    3    4      0.01      0.00
    4    3    4      0.23      0.00
   -4    4    4     -0.18      0.00
   -3    4    4      0.17      0.00
   -2    4    4     -0.04      0.00
   -1    4    4     -0.72      0.00
    0    4    4     -1.66      0.00
    1    4    4     -1.85      0.00
    2    4    4      0.55      0.00
    3    4    4      0.06      0.00
    4    4    4      0.09      0.00
   -3    5    4      0.20      0.00
   -2    5    4      0.31      0.00
   -1    5    4      0.21      0.00
    0    5    4     -3.63      0.00
    1    5    4     -0.96      0.00
    2    5    4      0.47      0.00
    3    5    4     -0.01      0.00
    4    5    4     -0.06      0.00
   -3    6    4      0.16      0.00
   -2    6    4     -0.10      0.00
   -1    6    4      0.49      0.00
    0    6    4     -2.91      0.00
    1    6    4     -0.36      0.00
    2    6    4      0.12      0.00
    3    6    4     -0.14      0.00
    4    6    4      0.10      0.00
   -3    7    4      0.13      0.00
   -2    7    4     -0.08      0.00
   -1    7    4     -0.37      0.00
    0    7    4     -0.73      0.00
    1    7    4     -0.24      0.00
    2    7    4      0.19      0.00
    3    7    4     -0.05      0.00
    4    7    4      0.08      0.00
   -2    8    4      0.31      0.00
   -1    8    4     -0.88      0.00
    0    8    4      0.41      0.00
    1    8    4     -0.18      0.00
    2    8    4      0.13      0.00
    3    8    4      0.11      0.00
    4    8    4     -0.09      0.00
   -2    9    4      0.28      0.00
   -1    9    4     -0.07      0.00
    0    9    4      0.00      0.00
    1    9    4     -0.24      0.00
    2    9    4      0.07      0.00
    3    9    4      0.06      0.00
   -2   10    4      0.05      0.00
   -1   10    4      0.58      0.00
    0   10    4     -0.53      0.00
    1   10    4     -0.07      0.00
    2   10    4      0.17      0.00
    3   10    4     -0.03      0.00
   -1   11    4      0.17      0.00
    0   11    4     -0.21      0.00
    1   11    4      0.07      0.00
    2   11    4      0.03      0.00
    3   11    4      0.03      0.00
    0   12    4      0.14      0.00
    1   12    4     -0.06      0.00
    2   12    4     -0.09      0.00
   -2  -11    5      0.00      0.00
   -1  -11    5      0.22      0.00
    0  -11    5      0.09      0.00
    1  -11    5     -0.11      0.00
   -3  -10    5      0.02      0.00
   -2  -10    5      0.11      0.00
   -1  -10    5      0.58      0.00
    0  -10    5     -0.27      0.00
    1  -10    5      0.16      0.00
   -3   -9    5     -0.03      0.00
   -2   -9    5      0.15      0.00
   -1   -9    5      0.29      0.00
    0   -9    5     -0.43      0.00
    1   -9    5      0.37      0.00
    2   -9    5      0.04      0.00
   -3   -8    5      0.00      0.00
   -2   -8    5      0.07      0.00
   -1   -8    5      0.06      0.00
    0   -8    5      0.56      0.00
    1   -8    5      0.24      0.00
    2   -8    5      0.01      0.00
   -4   -7    5     -0.05      0.00
   -3   -7    5      0.00      0.00
   -2   -7    5     -0.02      0.00
   -1   -7    5      0.46      0.00
    0   -7    5      1.30      0.00
    1   -7    5      0.06      0.00
    2   -7    5     -0.20      0.00
    3   -7    5     -0.02      0.00
   -4   -6    5     -0.04      0.00
   -3   -6    5     -0.03      0.00
   -2   -6    5     -0.10      0.00
   -1   -6    5      0.75      0.00
    0   -6    5      0.17      0.00
    1   -6    5      0.27      0.00
    2   -6    5      0.02      0.00
    3   -6    5     -0.08      0.00
   -4   -5    5     -0.07      0.00
   -3   -5    5     -0.06      0.00
   -2   -5    5     -0.12      0.00
   -1   -5    5      0.66      0.00
    0   -5    5     -1.52      0.00
    1   -5    5      0.44      0.00
    2   -5    5      0.82      0.00
    3   -5    5     -0.15      0.00
   -4   -4    5     -0.13      0.00
   -3   -4    5     -0.16      0.00
   -2   -4    5      0.07      0.00
   -1   -4    5     -0.07      0.00
    0   -4    5     -0.74      0.00
    1   -4    5     -0.25      0.00
    2   -4    5      1.09      0.00
    3   -4    5      0.02      0.00
    4   -4    5      0.11      0.00
   -4   -3    5     -0.13      0.00
   -3   -3    5     -0.29      0.00
   -2   -3    5      0.32      0.00
   -1   -3    5     -2.04      0.00
    0   -3    5      3.26      0.00
    1   -3    5     -1.18      0.00
    2   -3    5      0.51      0.00
    3   -3    5      0.22      0.00
    4   -3    5      0.17      0.00
   -4   -2    5     -0.14      0.00
   -3   -2    5     -0.25      0.00
   -2   -2    5      0.14      0.00
   -1   -2    5     -3.14      0.00
    0   -2    5      4.59      0.00
    1   -2    5     -1.09      0.00
    2   -2    5     -0.04      0.00
    3   -2    5      0.06      0.00
    4   -2    5     -0.09      0.00
   -4   -1    5     -0.20      0.00
   -3   -1    5     -0.08      0.00
   -2   -1    5     -0.60      0.00
   -1   -1    5     -0.46      0.00
    0   -1    5     -3.56      0.00
    1   -1    5      0.23      0.00
    2   -1    5     -0.09      0.00
    3   -1    5     -0.07      0.00
    4   -1    5     -0.19      0.00
   -4    0    5     -0.16      0.00
   -3    0    5      0.10      0.00
   -2    0    5     -1.32      0.00
   -1    0    5      3.35      0.00
    0    0    5    -14.82      0.00
    1    0    5      2.32      0.00
    2    0    5      0.00      0.00
    3    0    5      0.15      0.00
    4    0    5     -0.27      0.00
   -4    1    5     -0.01      0.00
   -3    1    5      0.21      0.00
   -2    1    5     -1.59      0.00
   -1    1    5      3.41      0.00
    0    1    5    -15.38      0.00
    1    1    5      3.28      0.00
    2    1    5     -0.32      0.00
    3    1    5      0.19      0.00
    4    1    5     -0.25      0.00
   -4    2    5      0.00      0.00
   -3    2    5      0.18      0.00
   -2    2    5     -1.31      0.00
   -1    2    5      0.54      0.00
    0    2    5     -6.35      0.00
    1    2    5      1.28      0.00
    2    2    5     -0.55      0.00
    3    2    5     -0.11      0.00
    4    2    5      0.14      0.00
   -4    3    5     -0.10      0.00
   -3    3    5      0.10      0.00
   -2    3    5     -0.42      0.00
   -1    3    5     -1.06      0.00
    0    3    5     -0.74      0.00
    1    3    5     -1.51      0.00
    2    3    5      0.10      0.00
    3    3    5     -0.17      0.00
    4    3    5      0.31      0.00
   -3    4    5      0.12      0.00
   -2    4    5      0.44      0.00
   -1    4    5     -0.46      0.00
    0    4    5     -1.84      0.00
    1    4    5     -1.92      0.00
    2    4    5      0.75      0.00
    3    4    5     -0.01      0.00
    4    4    5      0.00      0.00
   -3    5    5      0.14      0.00
   -2    5    5      0.37      0.00
   -1    5    5      0.44      0.00
    0    5    5     -3.05      0.00
    1    5    5     -0.86      0.00
    2    5    5      0.53      0.00
    3    5    5     -0.05      0.00
    4    5    5     -0.11      0.00
   -3    6    5      0.11      0.00
   -2    6    5     -0.07      0.00
   -1    6    5      0.29      0.00
    0    6    5     -1.57      0.00
    1    6    5     -0.26      0.00
    2    6    5      0.25      0.00
    3    6    5     -0.16      0.00
    4    6    5      0.05      0.00
   -3    7    5      0.06      0.00
   -2    7    5      0.13      0.00
   -1    7    5     -0.55      0.00
    0    7    5      0.30      0.00
    1    7    5     -0.06      0.00
    2    7    5      0.22      0.00
    3    7    5     -0.05      0.00
    4    7    5     -0.01      0.00
   -2    8    5      0.42      0.00
   -1    8    5     -0.54      0.00
    0    8    5      0.71      0.00
    1    8    5     -0.04      0.00
    2    8    5      0.07      0.00
    3    8    5      0.09      0.00
    4    8    5     -0.11      0.00
   -2    9    5      0.20      0.00
   -1    9    5      0.39      0.00
    0    9    5     -0.01      0.00
    1    9    5     -0.07      0.00
    2    9    5      0.10      0.00
    3    9    5      0.05      0.00
   -2   10    5      0.00      0.00
   -1   10    5      0.63      0.00
    0   10    5     -0.34      0.00
    1   10    5      0.09      0.00
    2   10    5      0.16      0.00
    3   10    5     -0.01      0.00
   -1   11    5      0.08      0.00
    0   11    5      0.05      0.00
    1   11    5      0.10      0.00
    2   11    5     -0.06      0.00
    0   12    5      0.22      0.00
    1   12    5     -0.02      0.00
    2   12    5     -0.11      0.00
   -2  -11    6      0.06      0.00
   -1  -11    6      0.26      0.00
    0  -11    6     -0.03      0.00
   -2  -10    6      0.15      0.00
   -1  -10    6      0.47      0.00
    0  -10    6     -0.36      0.00
    1  -10    6      0.26      0.00
   -3   -9    6     -0.02      0.00
   -2   -9    6      0.10      0.00
   -1   -9    6      0.20      0.00
    0   -9    6     -0.23      0.00
    1   -9    6      0.29      0.00
    2   -9    6     -0.05      0.00
   -3   -8    6      0.03      0.00
   -2   -8    6     -0.01      0.00
   -1   -8    6      0.10      0.00
    0   -8    6      0.68      0.00
    1   -8    6      0.13      0.00
    2   -8    6     -0.12      0.00
   -3   -7    6      0.00      0.00
   -2   -7    6     -0.04      0.00
   -1   -7    6      0.37      0.00
    0   -7    6      0.76      0.00
    1   -7    6     -0.02      0.00
    2   -7    6     -0.24      0.00
    3   -7    6     -0.06      0.00
   -4   -6    6     -0.05      0.00
   -3   -6    6     -0.04      0.00
   -2   -6    6     -0.04      0.00
   -1   -6    6      0.44      0.00
    0   -6    6     -0.73      0.00
    1   -6    6     -0.01      0.00
    2   -6    6      0.20      0.00
    3   -6    6     -0.12      0.00
   -4   -5    6     -0.07      0.00
   -3   -5    6     -0.04      0.00
   -2   -5    6      0.01      0.00
   -1   -5    6      0.11      0.00
    0   -5    6     -1.71      0.00
    1   -5    6     -0.18      0.00
    2   -5    6      0.87      0.00
    3   -5    6     -0.11      0.00
   -4   -4    6     -0.10      0.00
   -3   -4    6     -0.11      0.00
   -2   -4    6      0.19      0.00
   -1   -4    6     -0.96      0.00
    0   -4    6     -0.04      0.00
    1   -4    6     -0.92      0.00
    2   -4    6      0.68      0.00
    3   -4    6      0.09      0.00
    4   -4    6      0.22      0.00
   -4   -3    6     -0.08      0.00
   -3   -3    6     -0.16      0.00
   -2   -3    6      0.28      0.00
   -1   -3    6     -2.45      0.00
    0   -3    6      2.56      0.00
    1   -3    6     -1.42      0.00
    2   -3    6     -0.04      0.00
    3   -3    6      0.22      0.00
    4   -3    6      0.16      0.00
   -4   -2    6     -0.04      0.00
   -3   -2    6     -0.05      0.00
   -2   -2    6     -0.09      0.00
   -1   -2    6     -2.08      0.00
    0   -2    6      0.31      0.00
    1   -2    6     -0.80      0.00
    2   -2    6     -0.34      0.00
    3   -2    6      0.05      0.00
    4   -2    6     -0.05      0.00
   -4   -1    6     -0.01      0.00
   -3   -1    6      0.10      0.00
   -2   -1    6     -0.86      0.00
   -1   -1    6      0.96      0.00
    0   -1    6     -8.20      0.00
    1   -1    6      0.57      0.00
    2   -1    6     -0.22      0.00
    3   -1    6     -0.02      0.00
    4   -1    6     -0.09      0.00
   -4    0    6      0.06      0.00
   -3    0    6      0.20      0.00
   -2    0    6     -1.34      0.00
   -1    0    6      3.07      0.00
    0    0    6    -13.91      0.00
    1    0    6      1.78      0.00
    2    0    6     -0.21      0.00
    3    0    6      0.16      0.00
    4    0    6     -0.12      0.00
   -4    1    6      0.12      0.00
   -3    1    6      0.23      0.00
   -2    1    6     -1.21      0.00
   -1    1    6      1.56      0.00
    0    1    6     -9.47      0.00
    1    1    6      1.64      0.00
    2    1    6     -0.49      0.00
    3    1    6      0.06      0.00
    4    1    6      0.01      0.00
   -4    2    6      0.05      0.00
   -3    2    6      0.15      0.00
   -2    2    6     -0.61      0.00
   -1    2    6     -0.95      0.00
    0    2    6     -1.49      0.00
    1    2    6     -0.26      0.00
    2    2    6     -0.40      0.00
    3    2    6     -0.23      0.00
    4    2    6      0.34      0.00
   -4    3    6     -0.07      0.00
   -3    3    6      0.07      0.00
   -2    3    6      0.25      0.00
   -1    3    6     -1.33      0.00
    0    3    6      0.75      0.00
    1    3    6     -1.96      0.00
    2    3    6      0.38      0.00
    3    3    6     -0.18      0.00
    4    3    6      0.27      0.00
   -3    4    6      0.08      0.00
   -2    4    6      0.71      0.00
   -1    4    6     -0.23      0.00
    0    4    6     -1.17      0.00
    1    4    6     -1.77      0.00
    2    4    6      0.84      0.00
    3    4    6      0.01      0.00
    4    4    6     -0.09      0.00
   -3    5    6      0.08      0.00
   -2    5    6      0.35      0.00
   -1    5    6      0.41      0.00
    0    5    6     -1.60      0.00
    1    5    6     -0.70      0.00
    2    5    6      0.52      0.00
    3    5    6     -0.06      0.00
    4    5    6     -0.10      0.00
   -3    6    6      0.02      0.00
   -2    6    6      0.06      0.00
   -1    6    6     -0.02      0.00
    0    6    6     -0.05      0.00
    1    6    6     -0.03      0.00
    2    6    6      0.24      0.00
    3    6    6     -0.17      0.00
    4    6    6      0.02      0.00
   -3    7    6     -0.02      0.00
   -2    7    6      0.34      0.00
   -1    7    6     -0.58      0.00
    0    7    6      1.09      0.00
    1    7    6      0.18      0.00
    2    7    6      0.11      0.00
    3    7    6     -0.06      0.00
    4    7    6     -0.04      0.00
   -2    8    6      0.41      0.00
   -1    8    6     -0.14      0.00
    0    8    6      0.81      0.00
    1    8    6      0.09      0.00
    2    8    6      0.02      0.00
    3    8    6      0.05      0.00
    4    8    6     -0.06      0.00
   -2    9    6      0.07      0.00
   -1    9    6      0.67      0.00
    0    9    6     -0.01      0.00
    1    9    6      0.06      0.00
    2    9    6      0.15      0.00
    3    9    6      0.01      0.00
   -1   10    6      0.55      0.00
    0   10    6     -0.14      0.00
    1   10    6      0.19      0.00
    2   10    6      0.10      0.00
    3   10    6     -0.02      0.00
   -1   11    6      0.03      0.00
    0   11    6      0.21      0.00
    1   11    6      0.14      0.00
    2   11    6     -0.16      0.00
    0   12    6      0.20      0.00
    1   12    6      0.07      0.00
    2   12    6     -0.12      0.00
   -1  -11    7      0.22      0.00
    0  -11    7     -0.10      0.00
   -2  -10    7      0.13      0.00
   -1  -10    7      0.30      0.00
    0  -10    7     -0.33      0.00
    1  -10    7      0.26      0.00
   -3   -9    7     -0.02      0.00
   -2   -9    7      0.02      0.00
   -1   -9    7      0.08      0.00
    0   -9    7     -0.01      0.00
    1   -9    7      0.19      0.00
    2   -9    7     -0.15      0.00
   -3   -8    7      0.01      0.00
   -2   -8    7     -0.04      0.00
   -1   -8    7      0.03      0.00
    0   -8    7      0.63      0.00
    1   -8    7      0.05      0.00
    2   -8    7     -0.20      0.00
   -3   -7    7     -0.03      0.00
   -2   -7    7      0.01      0.00
   -1   -7    7      0.14      0.00
    0   -7    7      0.22      0.00
    1   -7    7     -0.13      0.00
    2   -7    7     -0.19      0.00
    3   -7    7     -0.11      0.00
   -4   -6    7     -0.05      0.00
   -3   -6    7     -0.03      0.00
   -2   -6    7      0.05      0.00
   -1   -6    7      0.09      0.00
    0   -6    7     -1.09      0.00
    1   -6    7     -0.30      0.00
    2   -6    7      0.32      0.00
    3   -6    7     -0.15      0.00
   -4   -5    7     -0.03      0.00
   -3   -5    7      0.00      0.00
   -2   -5    7      0.13      0.00
   -1   -5    7     -0.43      0.00
    0   -5    7     -1.12      0.00
    1   -5    7     -0.61      0.00
    2   -5    7      0.68      0.00
    3   -5    7     -0.08      0.00
   -4   -4    7     -0.04      0.00
   -3   -4    7     -0.05      0.00
   -2   -4    7      0.28      0.00
   -1   -4    7     -1.62      0.00
    0   -4    7      0.93      0.00
    1   -4    7     -1.19      0.00
    2   -4    7      0.13      0.00
    3   -4    7      0.11      0.00
   -4   -3    7      0.00      0.00
   -3   -3    7     -0.05      0.00
   -2   -3    7      0.25      0.00
   -1   -3    7     -2.41      0.00
    0   -3    7      1.80      0.00
    1   -3    7     -1.29      0.00
    2   -3    7     -0.51      0.00
    3   -3    7      0.19      0.00
    4   -3    7      0.12      0.00
   -4   -2    7      0.10      0.00
   -3   -2    7      0.09      0.00
   -2   -2    7     -0.26      0.00
   -1   -2    7     -1.00      0.00
    0   -2    7     -2.43      0.00
    1   -2    7     -0.34      0.00
    2   -2    7     -0.51      0.00
    3   -2    7      0.04      0.00
    4   -2    7     -0.01      0.00
   -4   -1    7      0.16      0.00
   -3   -1    7      0.19      0.00
   -2   -1    7     -0.92      0.00
   -1   -1    7      1.59      0.00
    0   -1    7     -8.90      0.00
    1   -1    7      0.85      0.00
    2   -1    7     -0.35      0.00
    3   -1    7      0.01      0.00
    4   -1    7      0.00      0.00
   -4    0    7      0.16      0.00
   -3    0    7      0.21      0.00
   -2    0    7     -1.03      0.00
   -1    0    7      1.95      0.00
    0    0    7     -9.44      0.00
    1    0    7      1.27      0.00
    2    0    7     -0.45      0.00
    3    0    7      0.13      0.00
    4    0    7      0.03      0.00
   -4    1    7      0.11      0.00
   -3    1    7      0.19      0.00
   -2    1    7     -0.55      0.00
   -1    1    7     -0.29      0.00
    0    1    7     -3.04      0.00
    1    1    7      0.52      0.00
    2    1    7     -0.60      0.00
    3    1    7     -0.01      0.00
    4    1    7      0.20      0.00
   -4    2    7      0.01      0.00
   -3    2    7      0.11      0.00
   -2    2    7      0.11      0.00
   -1    2    7     -1.85      0.00
    0    2    7      2.18      0.00
    1    2    7     -0.99      0.00
    2    2    7     -0.19      0.00
    3    2    7     -0.21      0.00
    4    2    7      0.36      0.00
   -4    3    7     -0.08      0.00
   -3    3    7      0.03      0.00
   -2    3    7      0.69      0.00
   -1    3    7     -1.21      0.00
    0    3    7      1.83      0.00
    1    3    7     -1.92      0.00
    2    3    7      0.61      0.00
    3    3    7     -0.10      0.00
    4    3    7      0.14      0.00
   -3    4    7      0.02      0.00
   -2    4    7      0.77      0.00
   -1    4    7     -0.04      0.00
    0    4    7     -0.12      0.00
    1    4    7     -1.45      0.00
    2    4    7      0.81      0.00
    3    4    7      0.05      0.00
    4    4    7     -0.12      0.00
   -3    5    7     -0.02      0.00
   -2    5    7      0.35      0.00
   -1    5    7      0.20      0.00
    0    5    7     -0.06      0.00
    1    5    7     -0.37      0.00
    2    5    7      0.37      0.00
    3    5    7     -0.05      0.00
    4    5    7     -0.06      0.00
   -3    6    7     -0.08      0.00
   -2    6    7      0.24      0.00
   -1    6    7     -0.31      0.00
    0    6    7      1.10      0.00
    1    6    7      0.33      0.00
    2    6    7      0.06      0.00
    3    6    7     -0.15      0.00
    4    6    7      0.03      0.00
   -3    7    7     -0.08      0.00
   -2    7    7      0.46      0.00
   -1    7    7     -0.49      0.00
    0    7    7      1.46      0.00
    1    7    7      0.37      0.00
    2    7    7     -0.05      0.00
    3    7    7     -0.08      0.00
    4    7    7     -0.01      0.00
   -2    8    7      0.29      0.00
   -1    8    7      0.20      0.00
    0    8    7      0.71      0.00
    1    8    7      0.13      0.00
    2    8    7      0.02      0.00
    3    8    7      0.00      0.00
    4    8    7      0.00      0.00
   -2    9    7     -0.08      0.00
   -1    9    7      0.75      0.00
    0    9    7     -0.03      0.00
    1    9    7      0.13      0.00
    2    9    7      0.17      0.00
    3    9    7     -0.02      0.00
   -1   10    7      0.38      0.00
    0   10    7      0.00      0.00
    1   10    7      0.24      0.00
    2   10    7     -0.01      0.00
    3   10    7     -0.03      0.00
   -1   11    7      0.01      0.00
    0   11    7      0.25      0.00
    1   11    7      0.17      0.00
    2   11    7     -0.21      0.00
    0   12    7      0.15      0.00
    1   12    7      0.12      0.00
   -1  -11    8      0.14      0.00
    0  -11    8     -0.12      0.00
   -2  -10    8      0.06      0.00
   -1  -10    8      0.11      0.00
    0  -10    8     -0.20      0.00
    1  -10    8      0.19      0.00
   -3   -9    8     -0.05      0.00
   -2   -9    8     -0.03      0.00
   -1   -9    8     -0.06      0.00
    0   -9    8      0.18      0.00
    1   -9    8      0.07      0.00
    2   -9    8     -0.18      0.00
   -3   -8    8     -0.04      0.00
   -2   -8    8      0.00      0.00
   -1   -8    8     -0.12      0.00
    0   -8    8      0.49      0.00
    1   -8    8     -0.06      0.00
    2   -8    8     -0.18      0.00
   -3   -7    8     -0.05      0.00
   -2   -7    8      0.09      0.00
   -1   -7    8     -0.11      0.00
    0   -7    8     -0.12      0.00
    1   -7    8     -0.25      0.00
    2   -7    8     -0.09      0.00
    3   -7    8     -0.14      0.00
   -3   -6    8     -0.01      0.00
   -2   -6    8      0.12      0.00
   -1   -6    8     -0.20      0.00
    0   -6    8     -0.91      0.00
    1   -6    8     -0.47      0.00
    2   -6    8      0.32      0.00
    3   -6    8     -0.13      0.00
   -4   -5    8      0.01      0.00
   -3   -5    8      0.02      0.00
   -2   -5    8      0.20      0.00
   -1   -5    8     -0.80      0.00
    0   -5    8     -0.14      0.00
    1   -5    8     -0.72      0.00
    2   -5    8      0.33      0.00
    3   -5    8     -0.04      0.00
   -4   -4    8      0.02      0.00
   -3   -4    8     -0.02      0.00
   -2   -4    8      0.32      0.00
   -1   -4    8     -1.83      0.00
    0   -4    8      1.65      0.00
    1   -4    8     -1.01      0.00
    2   -4    8     -0.36      0.00
    3   -4    8      0.11      0.00
   -4   -3    8      0.08      0.00
   -3   -3    8      0.03      0.00
   -2   -3    8      0.15      0.00
   -1   -3    8     -1.80      0.00
    0   -3    8      0.90      0.00
    1   -3    8     -0.71      0.00
    2   -3    8     -0.73      0.00
    3   -3    8      0.15      0.00
    4   -3    8      0.04      0.00
   -4   -2    8      0.19      0.00
   -3   -2    8      0.17      0.00
   -2   -2    8     -0.42      0.00
   -1   -2    8      0.11      0.00
    0   -2    8     -3.75      0.00
    1   -2    8      0.43      0.00
    2   -2    8     -0.49      0.00
    3   -2    8      0.02      0.00
    4   -2    8     -0.02      0.00
   -4   -1    8      0.20      0.00
   -3   -1    8      0.20      0.00
   -2   -1    8     -0.81      0.00
   -1   -1    8      1.70      0.00
    0   -1    8     -7.12      0.00
    1   -1    8      1.25      0.00
    2   -1    8     -0.36      0.00
    3   -1    8     -0.01      0.00
    4   -1    8      0.04      0.00
   -4    0    8      0.11      0.00
   -3    0    8      0.16      0.00
   -2    0    8     -0.51      0.00
   -1    0    8      0.65      0.00
    0    0    8     -4.08      0.00
    1    0    8      0.94      0.00
    2    0    8     -0.53      0.00
    3    0    8      0.07      0.00
    4    0    8      0.10      0.00
   -4    1    8      0.01      0.00
   -3    1    8      0.14      0.00
   -2    1    8      0.12      0.00
   -1    1    8     -1.53      0.00
    0    1    8      1.90      0.00
    1    1    8     -0.11      0.00
    2    1    8     -0.46      0.00
    3    1    8     -0.04      0.00
    4    1    8      0.22      0.00
   -4    2    8     -0.06      0.00
   -3    2    8      0.07      0.00
   -2    2    8      0.58      0.00
   -1    2    8     -1.96      0.00
    0    2    8      4.06      0.00
    1    2    8     -1.20      0.00
    2    2    8      0.16      0.00
    3    2    8     -0.15      0.00
    4    2    8      0.23      0.00
   -3    3    8     -0.03      0.00
   -2    3    8      0.82      0.00
   -1    3    8     -0.75      0.00
    0    3    8      2.22      0.00
    1    3    8     -1.62      0.00
    2    3    8      0.77      0.00
    3    3    8     -0.01      0.00
    4    3    8      0.01      0.00
   -3    4    8     -0.08      0.00
   -2    4    8      0.70      0.00
   -1    4    8      0.12      0.00
    0    4    8      0.67      0.00
    1    4    8     -0.98      0.00
    2    4    8      0.63      0.00
    3    4    8      0.09      0.00
    4    4    8     -0.11      0.00
   -3    5    8     -0.15      0.00
   -2    5    8      0.37      0.00
   -1    5    8     -0.02      0.00
    0    5    8      0.96      0.00
    1    5    8      0.14      0.00
    2    5    8      0.09      0.00
    3    5    8     -0.02      0.00
    4    5    8      0.00      0.00
   -3    6    8     -0.16      0.00
   -2    6    8      0.36      0.00
   -1    6    8     -0.46      0.00
    0    6    8      1.62      0.00
    1    6    8      0.67      0.00
    2    6    8     -0.18      0.00
    3    6    8     -0.13      0.00
    4    6    8      0.04      0.00
   -3    7    8     -0.08      0.00
   -2    7    8      0.42      0.00
   -1    7    8     -0.32      0.00
    0    7    8      1.36      0.00
    1    7    8      0.40      0.00
    2    7    8     -0.15      0.00
    3    7    8     -0.09      0.00
    4    7    8      0.04      0.00
   -2    8    8      0.08      0.00
   -1    8    8      0.40      0.00
    0    8    8      0.44      0.00
    1    8    8      0.08      0.00
    2    8    8      0.06      0.00
    3    8    8     -0.02      0.00
    4    8    8      0.05      0.00
   -2    9    8     -0.19      0.00
   -1    9    8      0.63      0.00
    0    9    8     -0.07      0.00
    1    9    8      0.15      0.00
    2    9    8      0.12      0.00
    3    9    8     -0.04      0.00
   -1   10    8      0.17      0.00
    0   10    8      0.08      0.00
    1   10    8      0.23      0.00
    2   10    8     -0.13      0.00
    3   10    8     -0.04      0.00
   -1   11    8     -0.03      0.00
    0   11    8      0.23      0.00
    1   11    8      0.16      0.00
    2   11    8     -0.18      0.00
    1   12    8      0.10      0.00
   -1  -11    9      0.04      0.00
   -2  -10    9      0.00      0.00
   -1  -10    9     -0.08      0.00
    0  -10    9     -0.03      0.00
    1  -10    9      0.08      0.00
   -2   -9    9     -0.03      0.00
   -1   -9    9     -0.22      0.00
    0   -9    9      0.30      0.00
    1   -9    9     -0.08      0.00
    2   -9    9     -0.14      0.00
   -3   -8    9     -0.07      0.00
   -2   -8    9      0.05      0.00
   -1   -8    9     -0.29      0.00
    0   -8    9      0.34      0.00
    1   -8    9     -0.16      0.00
    2   -8    9     -0.09      0.00
   -3   -7    9     -0.06      0.00
   -2   -7    9      0.12      0.00
   -1   -7    9     -0.30      0.00
    0   -7    9     -0.20      0.00
    1   -7    9     -0.32      0.00
    2   -7    9      0.00      0.00
   -3   -6    9      0.00      0.00
   -2   -6    9      0.12      0.00
   -1   -6    9     -0.36      0.00
    0   -6    9     -0.40      0.00
    1   -6    9     -0.47      0.00
    2   -6    9      0.23      0.00
    3   -6    9     -0.09      0.00
   -4   -5    9      0.04      0.00
   -3   -5    9      0.01      0.00
   -2   -5    9      0.18      0.00
   -1   -5    9     -0.89      0.00
    0   -5    9      0.71      0.00
    1   -5    9     -0.52      0.00
    2   -5    9      0.00      0.00
    3   -5    9      0.00      0.00
   -4   -4    9      0.04      0.00
   -3   -4    9     -0.01      0.00
   -2   -4    9      0.23      0.00
   -1   -4    9     -1.50      0.00
    0   -4    9      1.74      0.00
    1   -4    9     -0.47      0.00
    2   -4    9     -0.61      0.00
    3   -4    9      0.10      0.00
   -4   -3    9      0.11      0.00
   -3   -3    9      0.08      0.00
   -2   -3    9     -0.04      0.00
   -1   -3    9     -0.77      0.00
    0   -3    9     -0.20      0.00
    1   -3    9      0.16      0.00
    2   -3    9     -0.66      0.00
    3   -3    9      0.12      0.00
    4   -3    9     -0.06      0.00
   -4   -2    9      0.18      0.00
   -3   -2    9      0.20      0.00
   -2   -2    9     -0.51      0.00
   -1   -2    9      1.06      0.00
    0   -2    9     -4.04      0.00
    1   -2    9      1.23      0.00
    2   -2    9     -0.26      0.00
    3   -2    9     -0.02      0.00
    4   -2    9     -0.07      0.00
   -4   -1    9      0.12      0.00
   -3   -1    9      0.16      0.00
   -2   -1    9     -0.54      0.00
   -1   -1    9      1.44      0.00
    0   -1    9     -4.32      0.00
    1   -1    9      1.48      0.00
    2   -1    9     -0.19      0.00
    3   -1    9     -0.07      0.00
    4   -1    9      0.01      0.00
   -4    0    9     -0.02      0.00
   -3    0    9      0.11      0.00
   -2    0    9      0.04      0.00
   -1    0    9     -0.43      0.00
    0    0    9      0.41      0.00
    1    0    9      0.54      0.00
    2    0    9     -0.33      0.00
    3    0    9     -0.01      0.00
    4    0    9      0.07      0.00
   -4    1    9     -0.09      0.00
   -3    1    9      0.09      0.00
   -2    1    9      0.55      0.00
   -1    1    9     -1.97      0.00
    0    1    9      4.55      0.00
    1    1    9     -0.54      0.00
    2    1    9     -0.08      0.00
    3    1    9     -0.05      0.00
    4    1    9      0.12      0.00
   -4    2    9     -0.08      0.00
   -3    2    9      0.00      0.00
   -2    2    9      0.70      0.00
   -1    2    9     -1.40      0.00
    0    2    9      4.18      0.00
    1    2    9     -1.16      0.00
    2    2    9      0.53      0.00
    3    2    9     -0.09      0.00
    4    2    9      0.06      0.00
   -3    3    9     -0.14      0.00
   -2    3    9      0.73      0.00
   -1    3    9     -0.11      0.00
    0    3    9      1.84      0.00
    1    3    9     -1.17      0.00
    2    3    9      0.78      0.00
    3    3    9      0.04      0.00
    4    3    9     -0.06      0.00
   -3    4    9     -0.21      0.00
   -2    4    9      0.58      0.00
   -1    4    9      0.26      0.00
    0    4    9      0.90      0.00
    1    4    9     -0.38      0.00
    2    4    9      0.34      0.00
    3    4    9      0.12      0.00
    4    4    9     -0.05      0.00
   -3    5    9     -0.22      0.00
   -2    5    9      0.36      0.00
   -1    5    9     -0.15      0.00
    0    5    9      1.29      0.00
    1    5    9      0.62      0.00
    2    5    9     -0.20      0.00
    3    5    9      0.00      0.00
    4    5    9      0.03      0.00
   -3    6    9     -0.16      0.00
   -2    6    9      0.35      0.00
   -1    6    9     -0.45      0.00
    0    6    9      1.50      0.00
    1    6    9      0.78      0.00
    2    6    9     -0.33      0.00
    3    6    9     -0.10      0.00
    4    6    9      0.06      0.00
   -2    7    9      0.24      0.00
   -1    7    9     -0.11      0.00
    0    7    9      0.90      0.00
    1    7    9      0.25      0.00
    2    7    9     -0.15      0.00
    3    7    9     -0.07      0.00
    4    7    9      0.08      0.00
   -2    8    9     -0.13      0.00
   -1    8    9      0.45      0.00
    0    8    9      0.10      0.00
    1    8    9     -0.01      0.00
    2    8    9      0.08      0.00
    3    8    9     -0.01      0.00
   -2    9    9     -0.24      0.00
   -1    9    9      0.39      0.00
    0    9    9     -0.11      0.00
    1    9    9      0.13      0.00
    2    9    9      0.02      0.00
    3    9    9     -0.03      0.00
   -1   10    9     -0.05      0.00
    0   10    9      0.12      0.00
    1   10    9      0.16      0.00
    2   10    9     -0.17      0.00
    3   10    9     -0.04      0.00
    0   11    9      0.20      0.00
    1   11    9      0.07      0.00
    2   11    9     -0.08      0.00
    1   12    9      0.02      0.00
   -2  -10   10     -0.02      0.00
   -1  -10   10     -0.22      0.00
    0  -10   10      0.12      0.00
    1  -10   10     -0.05      0.00
   -2   -9   10     -0.01      0.00
   -1   -9   10     -0.30      0.00
    0   -9   10      0.31      0.00
    1   -9   10     -0.21      0.00
   -3   -8   10     -0.06      0.00
   -2   -8   10      0.07      0.00
   -1   -8   10     -0.36      0.00
    0   -8   10      0.19      0.00
    1   -8   10     -0.22      0.00
    2   -8   10      0.01      0.00
   -3   -7   10     -0.03      0.00
   -2   -7   10      0.08      0.00
   -1   -7   10     -0.37      0.00
    0   -7   10     -0.11      0.00
    1   -7   10     -0.30      0.00
    2   -7   10      0.04      0.00
   -3   -6   10      0.01      0.00
   -2   -6   10      0.05      0.00
   -1   -6   10     -0.36      0.00
    0   -6   10      0.12      0.00
    1   -6   10     -0.34      0.00
    2   -6   10      0.11      0.00
    3   -6   10     -0.04      0.00
   -3   -5   10      0.01      0.00
   -2   -5   10      0.08      0.00
   -1   -5   10     -0.68      0.00
    0   -5   10      1.08      0.00
    1   -5   10     -0.16      0.00
    2   -5   10     -0.21      0.00
    3   -5   10      0.02      0.00
   -3   -4   10      0.02      0.00
   -2   -4   10      0.05      0.00
   -1   -4   10     -0.80      0.00
    0   -4   10      1.13      0.00
    1   -4   10      0.20      0.00
    2   -4   10     -0.60      0.00
    3   -4   10      0.10      0.00
   -4   -3   10      0.08      0.00
   -3   -3   10      0.13      0.00
   -2   -3   10     -0.22      0.00
   -1   -3   10      0.27      0.00
    0   -3   10     -1.28      0.00
    1   -3   10      0.94      0.00
    2   -3   10     -0.36      0.00
    3   -3   10      0.09      0.00
   -4   -2   10      0.09      0.00
   -3   -2   10      0.20      0.00
   -2   -2   10     -0.47      0.00
   -1   -2   10      1.51      0.00
    0   -2   10     -3.54      0.00
    1   -2   10      1.62      0.00
    2   -2   10      0.10      0.00
    3   -2   10     -0.07      0.00
    4   -2   10     -0.13      0.00
   -4   -1   10     -0.02      0.00
   -3   -1   10      0.12      0.00
   -2   -1   10     -0.16      0.00
   -1   -1   10      0.82      0.00
    0   -1   10     -1.47      0.00
    1   -1   10      1.18      0.00
    2   -1   10      0.11      0.00
    3   -1   10     -0.16      0.00
    4   -1   10     -0.03      0.00
   -4    0   10     -0.12      0.00
   -3    0   10      0.06      0.00
   -2    0   10      0.45      0.00
   -1    0   10     -1.15      0.00
    0    0   10      3.22      0.00
    1    0   10     -0.07      0.00
    2    0   10      0.01      0.00
    3    0   10     -0.09      0.00
    4    0   10      0.02      0.00
   -4    1   10     -0.10      0.00
   -3    1   10      0.04      0.00
   -2    1   10      0.67      0.00
   -1    1   10     -1.71      0.00
    0    1   10      4.98      0.00
    1    1   10     -0.84      0.00
    2    1   10      0.32      0.00
    3    1   10     -0.07      0.00
    4    1   10      0.00      0.00
   -3    2   10     -0.10      0.00
   -2    2   10      0.58      0.00
   -1    2   10     -0.50      0.00
    0    2   10      2.97      0.00
    1    2   10     -0.94      0.00
    2    2   10      0.72      0.00
    3    2   10     -0.06      0.00
    4    2   10     -0.04      0.00
   -3    3   10     -0.24      0.00
   -2    3   10      0.55      0.00
   -1    3   10      0.47      0.00
    0    3   10      0.90      0.00
    1    3   10     -0.64      0.00
    2    3   10      0.59      0.00
    3    3   10      0.06      0.00
    4    3   10     -0.04      0.00
   -3    4   10     -0.25      0.00
   -2    4   10      0.42      0.00
   -1    4   10      0.33      0.00
    0    4   10      0.64      0.00
    1    4   10      0.17      0.00
    2    4   10      0.03      0.00
    3    4   10      0.12      0.00
    4    4   10      0.01      0.00
   -3    5   10     -0.19      0.00
   -2    5   10      0.24      0.00
   -1    5   10     -0.17      0.00
    0    5   10      1.05      0.00
    1    5   10      0.85      0.00
    2    5   10     -0.36      0.00
    3    5   10      0.01      0.00
    4    5   10      0.05      0.00
   -3    6   10     -0.08      0.00
   -2    6   10      0.19      0.00
   -1    6   10     -0.29      0.00
    0    6   10      0.93      0.00
    1    6   10      0.61      0.00
    2    6   10     -0.34      0.00
    3    6   10     -0.07      0.00
    4    6   10      0.08      0.00
   -2    7   10      0.00      0.00
   -1    7   10      0.08      0.00
    0    7   10      0.28      0.00
    1    7   10      0.03      0.00
    2    7   10     -0.09      0.00
    3    7   10     -0.02      0.00
    4    7   10      0.09      0.00
   -2    8   10     -0.28      0.00
   -1    8   10      0.39      0.00
    0    8   10     -0.19      0.00
    1    8   10     -0.06      0.00
    2    8   10      0.05      0.00
    3    8   10      0.03      0.00
   -2    9   10     -0.22      0.00
   -1    9   10      0.11      0.00
    0    9   10     -0.11      0.00
    1    9   10      0.09      0.00
    2    9   10     -0.07      0.00
    3    9   10     -0.01      0.00
   -1   10   10     -0.22      0.00
    0   10   10      0.14      0.00
    1   10   10      0.05      0.00
    2   10   10     -0.11      0.00
    3   10   10     -0.05      0.00
    0   11   10      0.17      0.00
    1   11   10     -0.04      0.00
    2   11   10      0.03      0.00
   -1  -10   11     -0.26      0.00
    0  -10   11      0.17      0.00
   -2   -9   11     -0.01      0.00
   -1   -9   11     -0.27      0.00
    0   -9   11      0.20      0.00
    1   -9   11     -0.26      0.00
   -3   -8   11     -0.02      0.00
   -2   -8   11      0.02      0.00
   -1   -8   11     -0.32      0.00
    0   -8   11      0.05      0.00
    1   -8   11     -0.18      0.00
    2   -8   11      0.06      0.00
   -3   -7   11      0.00      0.00
   -2   -7   11      0.00      0.00
   -1   -7   11     -0.32      0.00
    0   -7   11      0.03      0.00
    1   -7   11     -0.20      0.00
    2   -7   11      0.03      0.00
   -3   -6   11      0.03      0.00
   -2   -6   11     -0.05      0.00
   -1   -6   11     -0.22      0.00
    0   -6   11      0.41      0.00
    1   -6   11     -0.15      0.00
    2   -6   11      0.00      0.00
    3   -6   11     -0.02      0.00
   -3   -5   11      0.05      0.00
   -2   -5   11     -0.07      0.00
   -1   -5   11     -0.28      0.00
    0   -5   11      0.88      0.00
    1   -5   11      0.22      0.00
    2   -5   11     -0.27      0.00
    3   -5   11      0.03      0.00
   -3   -4   11      0.07      0.00
   -2   -4   11     -0.13      0.00
   -1   -4   11     -0.08      0.00
    0   -4   11      0.16      0.00
    1   -4   11      0.73      0.00
    2   -4   11     -0.42      0.00
    3   -4   11      0.10      0.00
   -3   -3   11      0.17      0.00
   -2   -3   11     -0.29      0.00
   -1   -3   11      0.85      0.00
    0   -3   11     -1.94      0.00
    1   -3   11      1.26      0.00
    2   -3   11     -0.02      0.00
    3   -3   11      0.07      0.00
   -3   -2   11      0.18      0.00
   -2   -2   11     -0.27      0.00
   -1   -2   11      1.29      0.00
    0   -2   11     -2.39      0.00
    1   -2   11      1.33      0.00
    2   -2   11      0.42      0.00
    3   -2   11     -0.13      0.00
    4   -2   11     -0.13      0.00
   -4   -1   11     -0.09      0.00
   -3   -1   11      0.07      0.00
   -2   -1   11      0.19      0.00
   -1   -1   11      0.02      0.00
    0   -1   11      0.84      0.00
    1   -1   11      0.40      0.00
    2   -1   11      0.36      0.00
    3   -1   11     -0.24      0.00
    4   -1   11     -0.02      0.00
   -3    0   11      0.01      0.00
   -2    0   11      0.63      0.00
   -1    0   11     -1.43      0.00
    0    0   11      4.21      0.00
    1    0   11     -0.69      0.00
    2    0   11      0.25      0.00
    3    0   11     -0.16      0.00
    4    0   11      0.01      0.00
   -3    1   11     -0.04      0.00
   -2    1   11      0.56      0.00
   -1    1   11     -1.03      0.00
    0    1   11      3.75      0.00
    1    1   11     -0.88      0.00
    2    1   11      0.49      0.00
    3    1   11     -0.09      0.00
    4    1   11     -0.03      0.00
   -3    2   11     -0.19      0.00
   -2    2   11      0.38      0.00
   -1    2   11      0.34      0.00
    0    2   11      1.12      0.00
    1    2   11     -0.57      0.00
    2    2   11      0.62      0.00
    3    2   11     -0.04      0.00
    4    2   11     -0.03      0.00
   -3    3   11     -0.27      0.00
   -2    3   11      0.36      0.00
   -1    3   11      0.81      0.00
    0    3   11     -0.14      0.00
    1    3   11     -0.15      0.00
    2    3   11      0.29      0.00
    3    3   11      0.06      0.00
    4    3   11      0.02      0.00
   -3    4   11     -0.18      0.00
   -2    4   11      0.21      0.00
   -1    4   11      0.34      0.00
    0    4   11      0.19      0.00
    1    4   11      0.48      0.00
    2    4   11     -0.16      0.00
    3    4   11      0.08      0.00
    4    4   11      0.05      0.00
   -3    5   11     -0.06      0.00
   -2    5   11      0.04      0.00
   -1    5   11     -0.08      0.00
    0    5   11      0.50      0.00
    1    5   11      0.76      0.00
    2    5   11     -0.36      0.00
    3    5   11      0.00      0.00
    4    5   11      0.05      0.00
   -3    6   11      0.02      0.00
   -2    6   11     -0.02      0.00
   -1    6   11     -0.07      0.00
    0    6   11      0.19      0.00
    1    6   11      0.30      0.00
    2    6   11     -0.26      0.00
    3    6   11     -0.02      0.00
    4    6   11      0.08      0.00
   -2    7   11     -0.20      0.00
   -1    7   11      0.22      0.00
    0    7   11     -0.28      0.00
    1    7   11     -0.13      0.00
    2    7   11     -0.05      0.00
    3    7   11      0.06      0.00
   -2    8   11     -0.35      0.00
   -1    8   11      0.26      0.00
    0    8   11     -0.35      0.00
    1    8   11     -0.06      0.00
    2    8   11      0.00      0.00
    3    8   11      0.07      0.00
   -1    9   11     -0.09      0.00
    0    9   11     -0.09      0.00
    1    9   11      0.05      0.00
    2    9   11     -0.08      0.00
    3    9   11     -0.02      0.00
   -1   10   11     -0.28      0.00
    0   10   11      0.11      0.00
    1   10   11     -0.05      0.00
    2   10   11      0.00      0.00
    3   10   11     -0.07      0.00
    0   11   11      0.12      0.00
    1   11   11     -0.10      0.00
    2   11   11      0.08      0.00
    0  -10   12      0.10      0.00
   -2   -9   12     -0.04      0.00
   -1   -9   12     -0.13      0.00
    0   -9   12      0.02      0.00
    1   -9   12     -0.20      0.00
   -2   -8   12     -0.04      0.00
   -1   -8   12     -0.21      0.00
    0   -8   12     -0.04      0.00
    1   -8   12     -0.06      0.00
    2   -8   12      0.07      0.00
   -3   -7   12      0.02      0.00
   -2   -7   12     -0.07      0.00
   -1   -7   12     -0.21      0.00
    0   -7   12      0.13      0.00
    1   -7   12     -0.08      0.00
    2   -7   12     -0.01      0.00
   -3   -6   12      0.07      0.00
   -2   -6   12     -0.13      0.00
   -1   -6   12      0.01      0.00
    0   -6   12      0.40      0.00
    1   -6   12      0.04      0.00
    2   -6   12     -0.07      0.00
   -3   -5   12      0.11      0.00
   -2   -5   12     -0.19      0.00
   -1   -5   12      0.12      0.00
    0   -5   12      0.31      0.00
    1   -5   12      0.51      0.00
    2   -5   12     -0.25      0.00
    3   -5   12      0.03      0.00
   -3   -4   12      0.13      0.00
   -2   -4   12     -0.23      0.00
   -1   -4   12      0.33      0.00
    0   -4   12     -0.71      0.00
    1   -4   12      0.93      0.00
    2   -4   12     -0.23      0.00
    3   -4   12      0.10      0.00
   -3   -3   12      0.20      0.00
   -2   -3   12     -0.22      0.00
   -1   -3   12      0.83      0.00
    0   -3   12     -1.93      0.00
    1   -3   12      1.02      0.00
    2   -3   12      0.22      0.00
    3   -3   12      0.04      0.00
   -3   -2   12      0.16      0.00
   -2   -2   12     -0.02      0.00
   -1   -2   12      0.62      0.00
    0   -2   12     -0.94      0.00
    1   -2   12      0.56      0.00
    2   -2   12      0.56      0.00
    3   -2   12     -0.20      0.00
   -3   -1   12      0.01      0.00
   -2   -1   12      0.41      0.00
   -1   -1   12     -0.66      0.00
    0   -1   12      2.20      0.00
    1   -1   12     -0.39      0.00
    2   -1   12      0.39      0.00
    3   -1   12     -0.31      0.00
    4   -1   12      0.06      0.00
   -3    0   12     -0.05      0.00
   -2    0   12      0.60      0.00
   -1    0   12     -1.30      0.00
    0    0   12      3.66      0.00
    1    0   12     -0.93      0.00
    2    0   12      0.23      0.00
    3    0   12     -0.20      0.00
    4    0   12      0.06      0.00
   -3    1   12     -0.10      0.00
   -2    1   12      0.36      0.00
   -1    1   12     -0.28      0.00
    0    1   12      1.73      0.00
    1    1   12     -0.61      0.00
    2    1   12      0.35      0.00
    3    1   12     -0.09      0.00
    4    1   12      0.01      0.00
   -3    2   12     -0.21      0.00
   -2    2   12      0.18      0.00
   -1    2   12      0.86      0.00
    0    2   12     -0.56      0.00
    1    2   12     -0.17      0.00
    2    2   12      0.34      0.00
    3    2   12     -0.02      0.00
    4    2   12      0.03      0.00
   -3    3   12     -0.17      0.00
   -2    3   12      0.15      0.00
   -1    3   12      0.84      0.00
    0    3   12     -0.85      0.00
    1    3   12      0.15      0.00
    2    3   12      0.05      0.00
    3    3   12      0.04      0.00
    4    3   12      0.08      0.00
   -3    4   12     -0.01      0.00
   -2    4   12     -0.02      0.00
   -1    4   12      0.30      0.00
    0    4   12     -0.22      0.00
    1    4   12      0.50      0.00
    2    4   12     -0.19      0.00
    3    4   12      0.03      0.00
    4    4   12      0.07      0.00
   -3    5   12      0.07      0.00
   -2    5   12     -0.15      0.00
   -1    5   12      0.05      0.00
    0    5   12     -0.14      0.00
    1    5   12      0.46      0.00
    2    5   12     -0.26      0.00
    3    5   12     -0.01      0.00
    4    5   12      0.06      0.00
   -2    6   12     -0.17      0.00
   -1    6   12      0.13      0.00
    0    6   12     -0.47      0.00
    1    6   12      0.02      0.00
    2    6   12     -0.17      0.00
    3    6   12      0.06      0.00
    4    6   12      0.07      0.00
   -2    7   12     -0.30      0.00
   -1    7   12      0.26      0.00
    0    7   12     -0.58      0.00
    1    7   12     -0.17      0.00
    2    7   12     -0.02      0.00
    3    7   12      0.12      0.00
   -2    8   12     -0.35      0.00
   -1    8   12      0.13      0.00
    0    8   12     -0.35      0.00
    1    8   12     -0.03      0.00
    2    8   12     -0.01      0.00
    3    8   12      0.06      0.00
   -1    9   12     -0.19      0.00
    0    9   12     -0.08      0.00
    1    9   12      0.00      0.00
    2    9   12     -0.02      0.00
    3    9   12     -0.05      0.00
   -1   10   12     -0.23      0.00
    0   10   12      0.06      0.00
    1   10   12     -0.10      0.00
    2   10   12      0.09      0.00
    0   11   12      0.06      0.00
    1   11   12     -0.10      0.00
   -1   -9   13      0.03      0.00
    0   -9   13     -0.12      0.00
    1   -9   13     -0.08      0.00
   -2   -8   13     -0.06      0.00
   -1   -8   13     -0.10      0.00
    0   -8   13     -0.08      0.00
    1   -8   13      0.07      0.00
   -2   -7   13     -0.07      0.00
   -1   -7   13     -0.08      0.00
    0   -7   13      0.15      0.00
    1   -7   13      0.03      0.00
    2   -7   13     -0.04      0.00
   -3   -6   13      0.11      0.00
   -2   -6   13     -0.15      0.00
   -1   -6   13      0.23      0.00
    0   -6   13      0.16      0.00
    1   -6   13      0.19      0.00
    2   -6   13     -0.11      0.00
   -3   -5   13      0.16      0.00
   -2   -5   13     -0.25      0.00
   -1   -5   13      0.38      0.00
    0   -5   13     -0.32      0.00
    1   -5   13      0.64      0.00
    2   -5   13     -0.21      0.00
    3   -5   13      0.04      0.00
   -3   -4   13      0.17      0.00
   -2   -4   13     -0.21      0.00
   -1   -4   13      0.38      0.00
    0   -4   13     -1.16      0.00
    1   -4   13      0.80      0.00
    2   -4   13     -0.12      0.00
    3   -4   13      0.08      0.00
   -3   -3   13      0.19      0.00
   -2   -3   13     -0.07      0.00
   -1   -3   13      0.42      0.00
    0   -3   13     -1.33      0.00
    1   -3   13      0.46      0.00
    2   -3   13      0.29      0.00
    3   -3   13     -0.02      0.00
   -3   -2   13      0.10      0.00
   -2   -2   13      0.16      0.00
   -1   -2   13     -0.07      0.00
    0   -2   13      0.32      0.00
    1   -2   13     -0.18      0.00
    2   -2   13      0.47      0.00
    3   -2   13     -0.26      0.00
   -3   -1   13     -0.05      0.00
   -2   -1   13      0.45      0.00
   -1   -1   13     -0.97      0.00
    0   -1   13      2.44      0.00
    1   -1   13     -0.75      0.00
    2   -1   13      0.19      0.00
    3   -1   13     -0.35      0.00
   -3    0   13     -0.10      0.00
   -2    0   13      0.45      0.00
   -1    0   13     -0.89      0.00
    0    0   13      2.16      0.00
    1    0   13     -0.70      0.00
    2    0   13      0.00      0.00
    3    0   13     -0.20      0.00
    4    0   13      0.11      0.00
   -3    1   13     -0.12      0.00
   -2    1   13      0.16      0.00
   -1    1   13      0.28      0.00
    0    1   13     -0.19      0.00
    1    1   13     -0.19      0.00
    2    1   13      0.09      0.00
    3    1   13     -0.05      0.00
    4    1   13      0.06      0.00
   -3    2   13     -0.14      0.00
   -2    2   13      0.01      0.00
   -1    2   13      0.98      0.00
    0    2   13     -1.55      0.00
    1    2   13      0.11      0.00
    2    2   13      0.08      0.00
    3    2   13      0.02      0.00
    4    2   13      0.07      0.00
   -3    3   13     -0.02      0.00
   -2    3   13     -0.05      0.00
   -1    3   13      0.67      0.00
    0    3   13     -1.09      0.00
    1    3   13      0.23      0.00
    2    3   13     -0.04      0.00
    3    3   13      0.02      0.00
    4    3   13      0.08      0.00
   -3    4   13      0.13      0.00
   -2    4   13     -0.20      0.00
   -1    4   13      0.25      0.00
    0    4   13     -0.53      0.00
    1    4   13      0.34      0.00
    2    4   13     -0.12      0.00
    3    4   13     -0.03      0.00
    4    4   13      0.07      0.00
   -3    5   13      0.12      0.00
   -2    5   13     -0.22      0.00
   -1    5   13      0.15      0.00
    0    5   13     -0.66      0.00
    1    5   13      0.18      0.00
    2    5   13     -0.16      0.00
    3    5   13      0.01      0.00
    4    5   13      0.06      0.00
   -2    6   13     -0.20      0.00
   -1    6   13      0.21      0.00
    0    6   13     -0.80      0.00
    1    6   13     -0.12      0.00
    2    6   13     -0.10      0.00
    3    6   13      0.11      0.00
   -2    7   13     -0.32      0.00
   -1    7   13      0.22      0.00
    0    7   13     -0.55      0.00
    1    7   13     -0.14      0.00
    2    7   13      0.02      0.00
    3    7   13      0.10      0.00
   -2    8   13     -0.30      0.00
   -1    8   13      0.03      0.00
    0    8   13     -0.23      0.00
    1    8   13     -0.02      0.00
    2    8   13      0.05      0.00
    3    8   13     -0.01      0.00
   -1    9   13     -0.17      0.00
    0    9   13     -0.07      0.00
    1    9   13     -0.04      0.00
    2    9   13      0.08      0.00
    3    9   13     -0.09      0.00
    0   10   13      0.01      0.00
    1   10   13     -0.11      0.00
    2   10   13      0.13      0.00
    1   11   13     -0.08      0.00
   -1   -9   14      0.10      0.00
    0   -9   14     -0.15      0.00
   -2   -8   14     -0.01      0.00
   -1   -8   14     -0.04      0.00
    0   -8   14     -0.04      0.00
    1   -8   14      0.15      0.00
   -2   -7   14     -0.02      0.00
   -1   -7   14      0.04      0.00
    0   -7   14      0.09      0.00
    1   -7   14      0.10      0.00
    2   -7   14     -0.08      0.00
   -2   -6   14     -0.14      0.00
   -1   -6   14      0.40      0.00
    0   -6   14     -0.18      0.00
    1   -6   14      0.29      0.00
    2   -6   14     -0.14      0.00
   -3   -5   14      0.17      0.00
   -2   -5   14     -0.23      0.00
   -1   -5   14      0.46      0.00
    0   -5   14     -0.77      0.00
    1   -5   14      0.62      0.00
    2   -5   14     -0.19      0.00
   -3   -4   14      0.15      0.00
   -2   -4   14     -0.12      0.00
   -1   -4   14      0.22      0.00
    0   -4   14     -1.10      0.00
    1   -4   14      0.47      0.00
    2   -4   14     -0.06      0.00
    3   -4   14      0.03      0.00
   -3   -3   14      0.14      0.00
   -2   -3   14      0.06      0.00
   -1   -3   14      0.01      0.00
    0   -3   14     -0.50      0.00
    1   -3   14     -0.09      0.00
    2   -3   14      0.25      0.00
    3   -3   14     -0.09      0.00
   -3   -2   14      0.02      0.00
   -2   -2   14      0.22      0.00
   -1   -2   14     -0.45      0.00
    0   -2   14      1.01      0.00
    1   -2   14     -0.53      0.00
    2   -2   14      0.28      0.00
    3   -2   14     -0.30      0.00
   -3   -1   14     -0.11      0.00
   -2   -1   14      0.38      0.00
   -1   -1   14     -0.90      0.00
    0   -1   14      1.79      0.00
    1   -1   14     -0.59      0.00
    2   -1   14     -0.05      0.00
    3   -1   14     -0.34      0.00
   -3    0   14     -0.11      0.00
   -2    0   14      0.28      0.00
   -1    0   14     -0.43      0.00
    0    0   14      0.50      0.00
    1    0   14     -0.25      0.00
    2    0   14     -0.19      0.00
    3    0   14     -0.15      0.00
   -3    1   14     -0.08      0.00
   -2    1   14     -0.01      0.00
   -1    1   14      0.55      0.00
    0    1   14     -1.39      0.00
    1    1   14      0.11      0.00
    2    1   14     -0.07      0.00
    3    1   14      0.04      0.00
    4    1   14      0.06      0.00
   -3    2   14     -0.05      0.00
   -2    2   14     -0.14      0.00
   -1    2   14      0.83      0.00
    0    2   14     -1.75      0.00
    1    2   14      0.19      0.00
    2    2   14     -0.03      0.00
    3    2   14      0.07      0.00
    4    2   14      0.05      0.00
   -3    3   14      0.09      0.00
   -2    3   14     -0.19      0.00
   -1    3   14      0.44      0.00
    0    3   14     -1.02      0.00
    1    3   14      0.19      0.00
    2    3   14     -0.03      0.00
    3    3   14     -0.01      0.00
    4    3   14      0.05      0.00
   -3    4   14      0.16      0.00
   -2    4   14     -0.24      0.00
   -1    4   14      0.19      0.00
    0    4   14     -0.75      0.00
    1    4   14      0.16      0.00
    2    4   14     -0.05      0.00
    3    4   14     -0.06      0.00
    4    4   14      0.07      0.00
   -2    5   14     -0.16      0.00
   -1    5   14      0.17      0.00
    0    5   14     -0.90      0.00
    1    5   14      0.00      0.00
    2    5   14     -0.11      0.00
    3    5   14      0.03      0.00
   -2    6   14     -0.15      0.00
   -1    6   14      0.18      0.00
    0    6   14     -0.70      0.00
    1    6   14     -0.15      0.00
    2    6   14     -0.03      0.00
    3    6   14      0.09      0.00
   -2    7   14     -0.28      0.00
   -1    7   14      0.12      0.00
    0    7   14     -0.27      0.00
    1    7   14     -0.13      0.00
    2    7   14      0.11      0.00
    3    7   14      0.00      0.00
   -1    8   14     -0.03      0.00
    0    8   14     -0.08      0.00
    1    8   14     -0.05      0.00
    2    8   14      0.13      0.00
    3    8   14     -0.09      0.00
   -1    9   14     -0.12      0.00
    0    9   14     -0.04      0.00
    1    9   14     -0.06      0.00
    2    9   14      0.14      0.00
    0   10   14      0.01      0.00
    1   10   14     -0.11      0.00
    2   10   14      0.11      0.00
   -1   -8   15     -0.03      0.00
    0   -8   15      0.02      0.00
    1   -8   15      0.16      0.00
   -2   -7   15      0.03      0.00
   -1   -7   15      0.14      0.00
    0   -7   15     -0.01      0.00
    1   -7   15      0.13      0.00
   -2   -6   15     -0.10      0.00
   -1   -6   15      0.49      0.00
    0   -6   15     -0.43      0.00
    1   -6   15      0.31      0.00
    2   -6   15     -0.15      0.00
   -3   -5   15      0.13      0.00
   -2   -5   15     -0.16      0.00
   -1   -5   15      0.42      0.00
    0   -5   15     -0.88      0.00
    1   -5   15      0.44      0.00
    2   -5   15     -0.13      0.00
   -3   -4   15      0.09      0.00
   -2   -4   15     -0.01      0.00
   -1   -4   15      0.06      0.00
    0   -4   15     -0.69      0.00
    1   -4   15      0.09      0.00
    2   -4   15      0.01      0.00
    3   -4   15     -0.04      0.00
   -3   -3   15      0.06      0.00
   -2   -3   15      0.13      0.00
   -1   -3   15     -0.20      0.00
    0   -3   15      0.22      0.00
    1   -3   15     -0.39      0.00
    2   -3   15      0.22      0.00
    3   -3   15     -0.13      0.00
   -3   -2   15     -0.06      0.00
   -2   -2   15      0.21      0.00
   -1   -2   15     -0.50      0.00
    0   -2   15      1.08      0.00
    1   -2   15     -0.48      0.00
    2   -2   15      0.15      0.00
    3   -2   15     -0.27      0.00
   -3   -1   15     -0.14      0.00
   -2   -1   15      0.28      0.00
   -1   -1   15     -0.63      0.00
    0   -1   15      0.78      0.00
    1   -1   15     -0.22      0.00
    2   -1   15     -0.14      0.00
    3   -1   15     -0.26      0.00
   -3    0   15     -0.08      0.00
   -2    0   15      0.13      0.00
   -1    0   15     -0.08      0.00
    0    0   15     -0.67      0.00
    1    0   15      0.06      0.00
    2    0   15     -0.19      0.00
    3    0   15     -0.04      0.00
   -3    1   15     -0.03      0.00
   -2    1   15     -0.16      0.00
   -1    1   15      0.59      0.00
    0    1   15     -1.70      0.00
    1    1   15      0.18      0.00
    2    1   15     -0.08      0.00
    3    1   15      0.15      0.00
   -3    2   15      0.01      0.00
   -2    2   15     -0.24      0.00
   -1    2   15      0.58      0.00
    0    2   15     -1.43      0.00
    1    2   15      0.18      0.00
    2    2   15     -0.04      0.00
    3    2   15      0.13      0.00
   -3    3   15      0.10      0.00
   -2    3   15     -0.20      0.00
   -1    3   15      0.24      0.00
    0    3   15     -0.85      0.00
    1    3   15      0.15      0.00
    2    3   15      0.00      0.00
    3    3   15     -0.03      0.00
   -2    4   15     -0.14      0.00
   -1    4   15      0.11      0.00
    0    4   15     -0.82      0.00
    1    4   15      0.05      0.00
    2    4   15     -0.02      0.00
    3    4   15     -0.07      0.00
   -2    5   15     -0.04      0.00
   -1    5   15      0.09      0.00
    0    5   15     -0.76      0.00
    1    5   15     -0.09      0.00
    2    5   15     -0.06      0.00
    3    5   15      0.02      0.00
   -2    6   15     -0.09      0.00
   -1    6   15      0.06      0.00
    0    6   15     -0.29      0.00
    1    6   15     -0.16      0.00
    2    6   15      0.06      0.00
    3    6   15      0.00      0.00
   -2    7   15     -0.20      0.00
   -1    7   15      0.00      0.00
    0    7   15      0.07      0.00
    1    7   15     -0.15      0.00
    2    7   15      0.19      0.00
    3    7   15     -0.10      0.00
   -1    8   15     -0.08      0.00
    0    8   15      0.06      0.00
    1    8   15     -0.08      0.00
    2    8   15      0.17      0.00
    3    8   15     -0.11      0.00
   -1    9   15     -0.07      0.00
    0    9   15      0.02      0.00
    1    9   15     -0.08      0.00
    2    9   15      0.13      0.00
    0   10   15      0.06      0.00
    1   10   15     -0.13      0.00
   -1   -8   16     -0.03      0.00
    0   -8   16      0.06      0.00
   -2   -7   16      0.06      0.00
   -1   -7   16      0.19      0.00
    0   -7   16     -0.08      0.00
    1   -7   16      0.12      0.00
   -2   -6   16     -0.05      0.00
   -1   -6   16      0.48      0.00
    0   -6   16     -0.50      0.00
    1   -6   16      0.22      0.00
    2   -6   16     -0.11      0.00
   -2   -5   16     -0.06      0.00
   -1   -5   16      0.32      0.00
    0   -5   16     -0.68      0.00
    1   -5   16      0.17      0.00
    2   -5   16     -0.01      0.00
   -2   -4   16      0.09      0.00
   -1   -4   16     -0.04      0.00
    0   -4   16     -0.12      0.00
    1   -4   16     -0.20      0.00
    2   -4   16      0.14      0.00
   -3   -3   16     -0.02      0.00
   -2   -3   16      0.16      0.00
   -1   -3   16     -0.24      0.00
    0   -3   16      0.66      0.00
    1   -3   16     -0.43      0.00
    2   -3   16      0.26      0.00
    3   -3   16     -0.10      0.00
   -3   -2   16     -0.12      0.00
   -2   -2   16      0.19      0.00
   -1   -2   16     -0.40      0.00
    0   -2   16      0.75      0.00
    1   -2   16     -0.25      0.00
    2   -2   16      0.14      0.00
    3   -2   16     -0.17      0.00
   -3   -1   16     -0.13      0.00
   -2   -1   16      0.21      0.00
   -1   -1   16     -0.36      0.00
    0   -1   16     -0.09      0.00
    1   -1   16      0.02      0.00
    2   -1   16     -0.05      0.00
    3   -1   16     -0.13      0.00
   -3    0   16     -0.04      0.00
   -2    0   16      0.00      0.00
   -1    0   16      0.13      0.00
    0    0   16     -1.13      0.00
    1    0   16      0.11      0.00
    2    0   16     -0.05      0.00
    3    0   16      0.09      0.00
   -3    1   16     -0.01      0.00
   -2    1   16     -0.26      0.00
   -1    1   16      0.50      0.00
    0    1   16     -1.41      0.00
    1    1   16      0.13      0.00
    2    1   16     -0.02      0.00
    3    1   16      0.25      0.00
   -3    2   16      0.01      0.00
   -2    2   16     -0.25      0.00
   -1    2   16      0.34      0.00
    0    2   16     -0.98      0.00
    1    2   16      0.19      0.00
    2    2   16     -0.04      0.00
    3    2   16      0.15      0.00
   -2    3   16     -0.10      0.00
   -1    3   16      0.07      0.00
    0    3   16     -0.68      0.00
    1    3   16      0.14      0.00
    2    3   16      0.01      0.00
    3    3   16     -0.05      0.00
   -2    4   16      0.00      0.00
   -1    4   16      0.00      0.00
    0    4   16     -0.65      0.00
    1    4   16     -0.03      0.00
    2    4   16      0.00      0.00
    3    4   16     -0.08      0.00
   -2    5   16      0.04      0.00
   -1    5   16     -0.04      0.00
    0    5   16     -0.32      0.00
    1    5   16     -0.14      0.00
    2    5   16     -0.01      0.00
    3    5   16     -0.02      0.00
   -2    6   16     -0.06      0.00
   -1    6   16     -0.08      0.00
    0    6   16      0.19      0.00
    1    6   16     -0.18      0.00
    2    6   16      0.12      0.00
    3    6   16     -0.09      0.00
   -1    7   16     -0.12      0.00
    0    7   16      0.30      0.00
    1    7   16     -0.16      0.00
    2    7   16      0.20      0.00
    3    7   16     -0.15      0.00
   -1    8   16     -0.13      0.00
    0    8   16      0.13      0.00
    1    8   16     -0.08      0.00
    2    8   16      0.13      0.00
    0    9   16      0.10      0.00
    1    9   16     -0.10      0.00
    2    9   16      0.07      0.00
    1   10   16     -0.16      0.00
   -1   -7   17      0.18      0.00
    0   -7   17     -0.10      0.00
    1   -7   17      0.06      0.00
   -2   -6   17      0.02      0.00
   -1   -6   17      0.37      0.00
    0   -6   17     -0.38      0.00
    1   -6   17      0.05      0.00
   -2   -5   17      0.05      0.00
   -1   -5   17      0.18      0.00
    0   -5   17     -0.27      0.00
    1   -5   17     -0.11      0.00
    2   -5   17      0.13      0.00
   -2   -4   17      0.16      0.00
   -1   -4   17     -0.12      0.00
    0   -4   17      0.41      0.00
    1   -4   17     -0.33      0.00
    2   -4   17      0.26      0.00
   -2   -3   17      0.17      0.00
   -1   -3   17     -0.25      0.00
    0   -3   17      0.80      0.00
    1   -3   17     -0.32      0.00
    2   -3   17      0.30      0.00
   -2   -2   17      0.17      0.00
   -1   -2   17     -0.31      0.00
    0   -2   17      0.30      0.00
    1   -2   17     -0.09      0.00
    2   -2   17      0.19      0.00
    3   -2   17     -0.04      0.00
   -2   -1   17      0.14      0.00
   -1   -1   17     -0.16      0.00
    0   -1   17     -0.56      0.00
    1   -1   17      0.05      0.00
    2   -1   17      0.09      0.00
    3   -1   17      0.00      0.00
   -2    0   17     -0.10      0.00
   -1    0   17      0.24      0.00
    0    0   17     -1.04      0.00
    1    0   17      0.03      0.00
    2    0   17      0.07      0.00
    3    0   17      0.20      0.00
   -2    1   17     -0.28      0.00
   -1    1   17      0.37      0.00
    0    1   17     -0.93      0.00
    1    1   17      0.14      0.00
    2    1   17     -0.01      0.00
    3    1   17      0.30      0.00
   -2    2   17     -0.15      0.00
   -1    2   17      0.13      0.00
    0    2   17     -0.61      0.00
    1    2   17      0.24      0.00
    2    2   17     -0.06      0.00
    3    2   17      0.13      0.00
   -2    3   17      0.02      0.00
   -1    3   17     -0.06      0.00
    0    3   17     -0.47      0.00
    1    3   17      0.08      0.00
    2    3   17      0.01      0.00
    3    3   17     -0.07      0.00
   -2    4   17      0.07      0.00
   -1    4   17     -0.10      0.00
    0    4   17     -0.28      0.00
    1    4   17     -0.12      0.00
    2    4   17      0.02      0.00
    3    4   17     -0.09      0.00
   -2    5   17      0.03      0.00
   -1    5   17     -0.14      0.00
    0    5   17      0.17      0.00
    1    5   17     -0.16      0.00
    2    5   17      0.03      0.00
    3    5   17     -0.06      0.00
   -1    6   17     -0.18      0.00
    0    6   17      0.48      0.00
    1    6   17     -0.17      0.00
    2    6   17      0.12      0.00
    3    6   17     -0.14      0.00
   -1    7   17     -0.19      0.00
    0    7   17      0.34      0.00
    1    7   17     -0.13      0.00
    2    7   17      0.12      0.00
   -1    8   17     -0.15      0.00
    0    8   17      0.15      0.00
    1    8   17     -0.04      0.00
    2    8   17      0.04      0.00
    0    9   17      0.14      0.00
    1    9   17     -0.10      0.00
    0   -7   18     -0.06      0.00
   -1   -6   18      0.21      0.00
    0   -6   18     -0.15      0.00
    1   -6   18     -0.14      0.00
   -2   -5   18      0.12      0.00
   -1   -5   18      0.02      0.00
    0   -5   18      0.16      0.00
    1   -5   18     -0.27      0.00
   -2   -4   18      0.17      0.00
   -1   -4   18     -0.19      0.00
    0   -4   18      0.73      0.00
    1   -4   18     -0.31      0.00
    2   -4   18      0.29      0.00
   -2   -3   18      0.14      0.00
   -1   -3   18     -0.27      0.00
    0   -3   18      0.67      0.00
    1   -3   18     -0.18      0.00
    2   -3   18      0.25      0.00
   -2   -2   18      0.14      0.00
   -1   -2   18     -0.24      0.00
    0   -2   18     -0.10      0.00
    1   -2   18     -0.02      0.00
    2   -2   18      0.17      0.00
   -2   -1   18      0.08      0.00
   -1   -1   18      0.01      0.00
    0   -1   18     -0.70      0.00
    1   -1   18      0.01      0.00
    2   -1   18      0.13      0.00
    3   -1   18      0.08      0.00
   -2    0   18     -0.15      0.00
   -1    0   18      0.28      0.00
    0    0   18     -0.74      0.00
    1    0   18      0.03      0.00
    2    0   18      0.07      0.00
    3    0   18      0.22      0.00
   -2    1   18     -0.21      0.00
   -1    1   18      0.22      0.00
    0    1   18     -0.52      0.00
    1    1   18      0.22      0.00
    2    1   18     -0.08      0.00
    3    1   18      0.26      0.00
   -2    2   18     -0.02      0.00
   -1    2   18     -0.02      0.00
    0    2   18     -0.34      0.00
    1    2   18      0.24      0.00
    2    2   18     -0.08      0.00
    3    2   18      0.07      0.00
   -2    3   18      0.09      0.00
   -1    3   18     -0.13      0.00
    0    3   18     -0.18      0.00
    1    3   18     -0.04      0.00
    2    3   18      0.04      0.00
    3    3   18     -0.09      0.00
   -2    4   18      0.05      0.00
   -1    4   18     -0.14      0.00
    0    4   18      0.12      0.00
    1    4   18     -0.19      0.00
    2    4   18      0.04      0.00
    3    4   18     -0.08      0.00
   -1    5   18     -0.17      0.00
    0    5   18      0.47      0.00
    1    5   18     -0.14      0.00
    2    5   18      0.01      0.00
    3    5   18     -0.08      0.00
   -1    6   18     -0.21      0.00
    0    6   18      0.50      0.00
    1    6   18     -0.12      0.00
    2    6   18      0.04      0.00
   -1    7   18     -0.21      0.00
    0    7   18      0.25      0.00
    1    7   18     -0.05      0.00
    2    7   18      0.01      0.00
    0    8   18      0.13      0.00
    1    8   18      0.01      0.00
    2    8   18     -0.04      0.00
    1    9   18     -0.09      0.00
    0   -6   19      0.06      0.00
   -1   -5   19     -0.10      0.00
    0   -5   19      0.43      0.00
    1   -5   19     -0.27      0.00
   -2   -4   19      0.10      0.00
   -1   -4   19     -0.23      0.00
    0   -4   19      0.75      0.00
    1   -4   19     -0.16      0.00
    2   -4   19      0.19      0.00
   -2   -3   19      0.07      0.00
   -1   -3   19     -0.25      0.00
    0   -3   19      0.33      0.00
    1   -3   19     -0.04      0.00
    2   -3   19      0.10      0.00
   -2   -2   19      0.09      0.00
   -1   -2   19     -0.11      0.00
    0   -2   19     -0.42      0.00
    1   -2   19      0.02      0.00
    2   -2   19      0.06      0.00
   -2   -1   19      0.03      0.00
   -1   -1   19      0.15      0.00
    0   -1   19     -0.66      0.00
    1   -1   19      0.03      0.00
    2   -1   19      0.07      0.00
   -2    0   19     -0.13      0.00
   -1    0   19      0.26      0.00
    0    0   19     -0.45      0.00
    1    0   19      0.12      0.00
    2    0   19     -0.01      0.00
   -2    1   19     -0.11      0.00
   -1    1   19      0.07      0.00
    0    1   19     -0.24      0.00
    1    1   19      0.26      0.00
    2    1   19     -0.13      0.00
    3    1   19      0.14      0.00
   -2    2   19      0.05      0.00
   -1    2   19     -0.11      0.00
    0    2   19     -0.09      0.00
    1    2   19      0.12      0.00
    2    2   19     -0.05      0.00
    3    2   19     -0.01      0.00
   -2    3   19      0.07      0.00
   -1    3   19     -0.12      0.00
    0    3   19      0.11      0.00
    1    3   19     -0.18      0.00
    2    3   19      0.08      0.00
    3    3   19     -0.09      0.00
   -1    4   19     -0.11      0.00
    0    4   19      0.37      0.00
    1    4   19     -0.19      0.00
    2    4   19      0.02      0.00
    3    4   19     -0.06      0.00
   -1    5   19     -0.15      0.00
    0    5   19      0.49      0.00
    1    5   19     -0.06      0.00
    2    5   19     -0.05      0.00
   -1    6   19     -0.19      0.00
    0    6   19      0.33      0.00
    1    6   19     -0.04      0.00
    2    6   19     -0.04      0.00
    0    7   19      0.12      0.00
    1    7   19      0.02      0.00
    2    7   19     -0.05      0.00
    0    8   19      0.08      0.00
    1    8   19      0.04      0.00
   -1   -5   20     -0.12      0.00
    0   -5   20      0.47      0.00
   -1   -4   20     -0.18      0.00
    0   -4   20      0.50      0.00
    1   -4   20      0.00      0.00
   -1   -3   20     -0.14      0.00
    0   -3   20     -0.09      0.00
    1   -3   20      0.06      0.00
    2   -3   20     -0.08      0.00
   -2   -2   20      0.05      0.00
   -1   -2   20      0.05      0.00
    0   -2   20     -0.63      0.00
    1   -2   20      0.08      0.00
    2   -2   20     -0.06      0.00
   -2   -1   20      0.01      0.00
   -1   -1   20      0.23      0.00
    0   -1   20     -0.54      0.00
    1   -1   20      0.10      0.00
    2   -1   20      0.01      0.00
   -2    0   20     -0.09      0.00
   -1    0   20      0.17      0.00
    0    0   20     -0.21      0.00
    1    0   20      0.18      0.00
    2    0   20     -0.05      0.00
   -2    1   20     -0.04      0.00
   -1    1   20     -0.04      0.00
    0    1   20     -0.02      0.00
    1    1   20      0.19      0.00
    2    1   20     -0.10      0.00
   -2    2   20      0.05      0.00
   -1    2   20     -0.10      0.00
    0    2   20      0.11      0.00
    1    2   20     -0.06      0.00
    2    2   20      0.02      0.00
   -1    3   20     -0.05      0.00
    0    3   20      0.28      0.00
    1    3   20     -0.25      0.00
    2    3   20      0.09      0.00
   -1    4   20     -0.06      0.00
    0    4   20      0.38      0.00
    1    4   20     -0.11      0.00
    2    4   20     -0.03      0.00
   -1    5   20     -0.11      0.00
    0    5   20      0.32      0.00
    1    5   20      0.01      0.00
    2    5   20     -0.09      0.00
    0    6   20      0.14      0.00
    1    6   20      0.00      0.00
    2    6   20     -0.06      0.00
    0    7   20      0.04      0.00
    1    7   20      0.06      0.00
    0   -4   21      0.14      0.00
   -1   -3   21      0.00      0.00
    0   -3   21     -0.41      0.00
    1   -3   21      0.10      0.00
   -1   -2   21      0.16      0.00
    0   -2   21     -0.64      0.00
    1   -2   21      0.12      0.00
    2   -2   21     -0.09      0.00
   -1   -1   21      0.21      0.00
    0   -1   21     -0.34      0.00
    1   -1   21      0.12      0.00
    2   -1   21      0.02      0.00
   -1    0   21      0.06      0.00
    0    0   21     -0.01      0.00
    1    0   21      0.12      0.00
    2    0   21     -0.02      0.00
   -1    1   21     -0.07      0.00
    0    1   21      0.13      0.00
    1    1   21      0.03      0.00
    2    1   21     -0.03      0.00
   -1    2   21     -0.03      0.00
    0    2   21      0.23      0.00
    1    2   21     -0.18      0.00
    2    2   21      0.06      0.00
   -1    3   21      0.02      0.00
    0    3   21      0.28      0.00
    1    3   21     -0.21      0.00
    2    3   21      0.06      0.00
   -1    4   21     -0.03      0.00
    0    4   21      0.23      0.00
    1    4   21     -0.02      0.00
    2    4   21     -0.06      0.00
    0    5   21      0.13      0.00
    1    5   21      0.02      0.00
    2    5   21     -0.07      0.00
    0    6   21      0.04      0.00
    1    6   21      0.00      0.00
    0   -3   22     -0.52      0.00
   -1   -2   22      0.16      0.00
    0   -2   22     -0.48      0.00
    1   -2   22      0.09      0.00
   -1   -1   22      0.12      0.00
    0   -1   22     -0.10      0.00
    1   -1   22      0.05      0.00
   -1    0   22     -0.01      0.00
    0    0   22      0.14      0.00
    1    0   22     -0.02      0.00
    2    0   22      0.05      0.00
   -1    1   22     -0.03      0.00
    0    1   22      0.20      0.00
    1    1   22     -0.09      0.00
    2    1   22      0.02      0.00
   -1    2   22      0.04      0.00
    0    2   22      0.22      0.00
    1    2   22     -0.19      0.00
   -1    3   22      0.04      0.00
    0    3   22      0.16      0.00
    1    3   22     -0.12      0.00
    0    4   22      0.08      0.00
    1    4   22      0.01      0.00
    0    5   22      0.04      0.00
    1    5   22     -0.02      0.00
    0   -1   23      0.08      0.00
    0    0   23      0.19      0.00
    1    0   23     -0.11      0.00
    0    1   23      0.17      0.00
    1    1   23     -0.11      0.00
    0    2   23      0.12      0.00
    1    2   23     -0.12      0.00
    0    3   23      0.03      0.00
    1    3   23     -0.05      0.00
   -4    4    0     -0.44      0.00
    3   11    0     -0.10      0.00
   -3  -11    1     -0.06      0.00
    4   -4    1     -0.39      0.00
    0    0    1     29.11      0.00
    3   11    1     -0.11      0.00
   -2  -12    2      0.01      0.00
    4   -4    2     -0.32      0.00
    3   -8    3     -0.02      0.00
    0  -12    4      0.01      0.00
    2  -10    4      0.08      0.00
    3   -8    4     -0.03      0.00
   -3    8    4      0.07      0.00
   -1  -12    5     -0.04      0.00
   -4    4    5     -0.10      0.00
    3   11    5      0.05      0.00
    1  -11    6      0.04      0.00
   -3  -10    6     -0.01      0.00
   -4   -7    6     -0.04      0.00
   -2   10    6     -0.06      0.00
    3   11    6      0.04      0.00
   -2  -11    7      0.08      0.00
    4   -4    7      0.24      0.00
    2   12    7     -0.08      0.00
   -4   -6    8     -0.04      0.00
   -4    3    8     -0.09      0.00
    0   12    8      0.11      0.00
    0  -11    9     -0.09      0.00
   -3   -9    9     -0.09      0.00
    3   -7    9     -0.13      0.00
   -3    7    9     -0.04      0.00
    4    8    9      0.05      0.00
   -1   11    9     -0.09      0.00
   -4   -4   10      0.03      0.00
    4   -3   10     -0.14      0.00
    1   12   10     -0.05      0.00
   -4   -3   11      0.02      0.00
   -4   -2   11      0.00      0.00
   -4    0   11     -0.11      0.00
    4    7   11      0.07      0.00
   -2    9   11     -0.17      0.00
   -1  -10   12     -0.18      0.00
    3   -6   12     -0.02      0.00
    2   11   12      0.06      0.00
   -2   -9   13     -0.05      0.00
   -3   -7   13      0.03      0.00
    4   -1   13      0.14      0.00
    4    6   13      0.03      0.00
   -1   10   13     -0.13      0.00
    0   11   13      0.02      0.00
   -3   -6   14      0.14      0.00
    3   -5   14      0.04      0.00
    4    0   14      0.12      0.00
    4    5   14      0.05      0.00
    3    9   14     -0.08      0.00
    1   11   14     -0.06      0.00
    4    3   15      0.03      0.00
    2   10   15      0.08      0.00
   -3   -4   16      0.01      0.00
    3    8   16     -0.06      0.00
    3   -3   17     -0.01      0.00
   -3   -2   17     -0.12      0.00
   -3   -1   17     -0.10      0.00
   -3    0   17     -0.02      0.00
   -3    1   17     -0.02      0.00
   -2    6   17     -0.04      0.00
    3    7   17     -0.11      0.00
    2    9   17      0.01      0.00
   -1   -7   18      0.12      0.00
    2   -5   18      0.23      0.00
    3   -2   18      0.07      0.00
   -2    5   18     -0.02      0.00
    3    6   18     -0.11      0.00
   -1   -6   19      0.05      0.00
    1   -6   19     -0.25      0.00
    3    0   19      0.16      0.00
   -2    4   19     -0.02      0.00
    3    5   19     -0.06      0.00
   -1    7   19     -0.16      0.00
    2    8   19     -0.07      0.00
    1   -5   20     -0.14      0.00
   -2   -3   20     -0.01      0.00
   -1    6   20     -0.13      0.00
    2    7   20     -0.05      0.00
   -1   -4   21     -0.06      0.00
    1   -4   21      0.10      0.00
   -1    5   21     -0.07      0.00
    2    6   21     -0.01      0.00
    1    7   21      0.04      0.00
    1   -3   22      0.07      0.00
    2    2   22      0.05      0.00
    2    3   22      0.02      0.00
    2    4   22     -0.04      0.00
    1    6   22     -0.03      0.00
    0   -2   23     -0.22      0.00
    1   -1   23     -0.07      0.00
    0    4   23      0.00      0.00
    1    4   23     -0.01      0.00
    0    0    0      0.00      0.00
# SQUEEZE RESULTS (Version =  91117)
# Note: Data are Listed for all Voids in the P1 Unit Cell
# i.e. Centre of Gravity, Solvent Accessible Volume,
# Recovered number of Electrons in the Void and
# Details about the Squeezed Material
loop_
  _platon_squeeze_void_nr
  _platon_squeeze_void_average_x
  _platon_squeeze_void_average_y
  _platon_squeeze_void_average_z
  _platon_squeeze_void_volume
  _platon_squeeze_void_count_electrons
  _platon_squeeze_void_content
   1 -0.021  0.000  0.000       106        34 ' '
# Missing Reflections Below sin(th)/lambda = 0.25
loop_
  _platon_missing_refln_index_h
  _platon_missing_refln_index_k
  _platon_missing_refln_index_l
  _platon_missing_refln_theta
    0    0    1     2.365
_platon_squeeze_void_probe_radius                  1.20
_platon_squeeze_details
)
TITL L   P -1         R = 0.14
CELL    3.7895   10.0133   18.8245     84.22     84.82     79.33
SPGR P-1
# Solvent Accessible Volume =       106
# Electrons Found in S.A.V. =        34
# Note: Atoms in Void are Labelled as Cxxx and Qxxx for all Others
C101 0.518 0.130 0.077 !       2.35 eA-3
C102 0.924 0.069 0.068 !       1.28 eA-3
)
;
_shelx_fab_checksum              4180
_olex2_date_sample_data_collection 2019-02-05
_olex2_date_sample_submission    2019-01-29
_olex2_diffrn_ambient_temperature_device 'Oxford Cryosystems Cryostream 700+'
_olex2_exptl_crystal_mounting_method
'The crystal was mounted on a MITIGEN holder in Paratone oil'
_olex2_submission_original_sample_id MC-Exp132
_olex2_submission_special_instructions 'No special instructions were received'
_oxdiff_exptl_absorpt_empirical_details
;
Empirical correction (ABSPACK) includes:
- Absorption correction using spherical harmonics
- Frame scaling
;
_oxdiff_exptl_absorpt_empirical_full_max 1.395
_oxdiff_exptl_absorpt_empirical_full_min 0.602
loop_
_space_group_symop_operation_xyz
'x, y, z'
'-x, -y, -z'
loop_
_atom_site_label
_atom_site_type_symbol
_atom_site_fract_x
_atom_site_fract_y
_atom_site_fract_z
_atom_site_U_iso_or_equiv
_atom_site_adp_type
_atom_site_occupancy
_atom_site_site_symmetry_order
_atom_site_calc_flag
_atom_site_refinement_flags_posn
_atom_site_refinement_flags_adp
_atom_site_refinement_flags_occupancy
_atom_site_disorder_assembly
_atom_site_disorder_group
N1 N 0.2616(11) 0.4825(4) 0.09756(16) 0.0831(10) Uani 1 1 d . . . . .
N2 N 1.057(3) -0.1850(8) 0.6620(11) 0.052(3) Uani 0.41(2) 1 d D U P A 1
C1 C 0.0148(6) 0.5261(2) 0.42462(12) 0.0336(5) Uani 1 1 d . . . . .
C2 C 0.2107(6) 0.4059(2) 0.45696(12) 0.0346(5) Uani 1 1 d . . . . .
H2 H 0.354797 0.341846 0.427605 0.041 Uiso 1 1 calc R . . . .
C3 C 0.1986(6) 0.3788(2) 0.53068(13) 0.0340(5) Uani 1 1 d . . . . .
C4 C 0.0339(6) 0.5507(2) 0.34600(13) 0.0366(5) Uani 1 1 d . . . . .
C5 C 0.0476(7) 0.5678(2) 0.28597(15) 0.0444(6) Uani 1 1 d . . . . .
C6 C 0.0730(8) 0.5860(3) 0.20867(14) 0.0453(6) Uani 1 1 d . . . . .
C7 C 0.2228(10) 0.4764(3) 0.16807(17) 0.0603(8) Uani 1 1 d . . . . .
H7 H 0.302707 0.390775 0.193473 0.072 Uiso 1 1 calc R . . . .
C8 C 0.1487(14) 0.6045(5) 0.06279(19) 0.0879(13) Uani 1 1 d . . . . .
H8 H 0.178790 0.612346 0.011982 0.105 Uiso 1 1 calc R . . . .
C9 C -0.0107(12) 0.7207(4) 0.09705(18) 0.0761(11) Uani 1 1 d . . . . .
H9 H -0.092199 0.804622 0.070215 0.091 Uiso 1 1 calc R . . . .
C10 C -0.0459(9) 0.7103(3) 0.17021(16) 0.0567(8) Uani 1 1 d . . . . .
H10 H -0.151592 0.787796 0.194897 0.068 Uiso 1 1 calc R . . . .
C11 C 0.4014(6) 0.2554(2) 0.56273(12) 0.0350(5) Uani 1 1 d . . . . .
C12 C 0.5690(6) 0.1544(2) 0.59165(12) 0.0361(5) Uani 1 1 d D . . . .
C13 C 0.725(7) 0.0408(15) 0.6380(8) 0.025(3) Uani 0.41(2) 1 d D U P A 1
C14 C 0.882(5) -0.0858(14) 0.6146(8) 0.039(3) Uani 0.41(2) 1 d D U P A 1
H14 H 0.868940 -0.103790 0.566390 0.047 Uiso 0.41(2) 1 calc R . P A 1
C15 C 1.073(3) -0.1465(15) 0.7307(9) 0.049(3) Uani 0.41(2) 1 d D U P A 1
H15 H 1.179493 -0.214980 0.764860 0.059 Uiso 0.41(2) 1 calc R . P A 1
C16 C 0.953(3) -0.0223(16) 0.7530(6) 0.046(3) Uani 0.41(2) 1 d D U P A 1
H16 H 0.986419 -0.000484 0.799616 0.056 Uiso 0.41(2) 1 calc R . P A 1
C17 C 0.786(6) 0.0672(15) 0.7060(7) 0.037(2) Uani 0.41(2) 1 d D U P A 1
H17 H 0.699663 0.156905 0.719705 0.044 Uiso 0.41(2) 1 calc R . P A 1
N2A N 1.0939(16) -0.1951(5) 0.6281(5) 0.0414(15) Uani 0.59(2) 1 d D U P A 2
C13A C 0.785(5) 0.0389(11) 0.6283(5) 0.029(3) Uani 0.59(2) 1 d D U P A 2
C14A C 0.915(3) -0.0807(9) 0.5955(5) 0.0298(16) Uani 0.59(2) 1 d D U P A 2
H14A H 0.873214 -0.081294 0.546515 0.036 Uiso 0.59(2) 1 calc R . P A 2
C15A C 1.1313(19) -0.1921(9) 0.6998(6) 0.040(2) Uani 0.59(2) 1 d D U P A 2
H15A H 1.255996 -0.271584 0.724789 0.049 Uiso 0.59(2) 1 calc R . P A 2
C16A C 0.9962(18) -0.0790(13) 0.7380(4) 0.047(2) Uani 0.59(2) 1 d D U P A 2
H16A H 1.026235 -0.080600 0.787693 0.057 Uiso 0.59(2) 1 calc R . P A 2
C17A C 0.821(5) 0.0328(12) 0.7014(6) 0.048(2) Uani 0.59(2) 1 d D U P A 2
H17A H 0.718557 0.110078 0.726508 0.058 Uiso 0.59(2) 1 calc R . P A 2
loop_
_atom_site_aniso_label
_atom_site_aniso_U_11
_atom_site_aniso_U_22
_atom_site_aniso_U_33
_atom_site_aniso_U_23
_atom_site_aniso_U_13
_atom_site_aniso_U_12
N1 0.098(3) 0.090(2) 0.0547(16) -0.0151(15) -0.0003(16) 0.001(2)
N2 0.055(4) 0.021(3) 0.076(9) -0.002(4) -0.004(5) 0.000(2)
C1 0.0335(11) 0.0252(10) 0.0406(11) -0.0005(8) -0.0026(9) -0.0025(8)
C2 0.0324(11) 0.0226(9) 0.0466(12) -0.0016(8) -0.0029(9) -0.0004(8)
C3 0.0312(11) 0.0206(9) 0.0490(12) 0.0005(8) -0.0050(9) -0.0026(8)
C4 0.0297(11) 0.0214(9) 0.0571(14) -0.0014(9) -0.0067(9) 0.0001(8)
C5 0.0364(13) 0.0321(11) 0.0626(16) -0.0036(10) -0.0009(11) -0.0022(9)
C6 0.0439(14) 0.0466(14) 0.0441(12) -0.0010(10) -0.0041(10) -0.0054(11)
C7 0.0629(19) 0.0583(17) 0.0557(16) -0.0083(13) -0.0016(14) -0.0001(15)
C8 0.097(3) 0.121(4) 0.0443(16) -0.014(2) 0.0046(18) -0.017(3)
C9 0.090(3) 0.080(2) 0.0528(17) 0.0176(16) -0.0149(17) -0.009(2)
C10 0.0638(19) 0.0501(15) 0.0505(15) 0.0015(12) -0.0062(13) 0.0023(13)
C11 0.0328(11) 0.0251(10) 0.0461(12) 0.0002(8) -0.0026(9) -0.0039(8)
C12 0.0364(12) 0.0242(10) 0.0463(12) -0.0002(8) -0.0017(9) -0.0036(9)
C13 0.012(6) 0.023(4) 0.036(5) 0.001(3) 0.010(4) 0.002(3)
C14 0.044(5) 0.029(4) 0.041(6) -0.002(4) 0.010(5) -0.006(3)
C15 0.039(5) 0.050(6) 0.054(6) 0.001(5) -0.001(4) -0.003(4)
C16 0.060(5) 0.039(5) 0.036(4) 0.001(3) -0.010(3) 0.002(4)
C17 0.039(5) 0.033(5) 0.032(4) -0.007(3) -0.004(3) 0.012(5)
N2A 0.043(2) 0.0287(19) 0.049(4) -0.0038(19) -0.007(2) 0.0039(16)
C13A 0.020(6) 0.029(3) 0.035(3) 0.002(2) 0.006(4) -0.001(2)
C14A 0.030(3) 0.024(2) 0.033(3) 0.000(2) 0.000(3) 0.0016(19)
C15A 0.040(3) 0.032(3) 0.045(4) 0.010(3) -0.006(3) 0.000(2)
C16A 0.050(4) 0.050(5) 0.035(3) -0.004(3) -0.004(2) 0.007(4)
C17A 0.051(4) 0.036(4) 0.051(4) -0.014(3) 0.004(3) 0.012(4)
loop_
_atom_type_symbol
_atom_type_description
_atom_type_scat_dispersion_real
_atom_type_scat_dispersion_imag
_atom_type_scat_source
C C 0.0181 0.0091 'International Tables Vol C Tables 4.2.6.8 and 6.1.1.4'
H H 0.0000 0.0000 'International Tables Vol C Tables 4.2.6.8 and 6.1.1.4'
N N 0.0311 0.0180 'International Tables Vol C Tables 4.2.6.8 and 6.1.1.4'
O O 0.0492 0.0322 'International Tables Vol C Tables 4.2.6.8 and 6.1.1.4'
loop_
_exptl_crystal_face_index_h
_exptl_crystal_face_index_k
_exptl_crystal_face_index_l
_exptl_crystal_face_perp_dist
0 6 4 0.0427
0 -6 -4 0.0427
2 1 3 0.1764
-2 -2 -3 0.2225
0 0 -12 0.0197
0 0 12 0.0197
loop_
_geom_angle_atom_site_label_1
_geom_angle_atom_site_label_2
_geom_angle_atom_site_label_3
_geom_angle
_geom_angle_site_symmetry_1
_geom_angle_site_symmetry_3
_geom_angle_publ_flag
C7 N1 C8 116.3(3) . . ?
C14 N2 C15 115.7(9) . . ?
C2 C1 C3 118.6(2) . 2_566 ?
C2 C1 C4 119.76(19) . . ?
C3 C1 C4 121.68(19) 2_566 . ?
C1 C2 H2 119.2 . . ?
C3 C2 C1 121.5(2) . . ?
C3 C2 H2 119.2 . . ?
C1 C3 C11 119.4(2) 2_566 . ?
C2 C3 C1 119.9(2) . 2_566 ?
C2 C3 C11 120.7(2) . . ?
C5 C4 C1 179.1(2) . . ?
C4 C5 C6 178.3(3) . . ?
C7 C6 C5 120.6(2) . . ?
C10 C6 C5 123.1(2) . . ?
C10 C6 C7 116.3(3) . . ?
N1 C7 C6 125.3(3) . . ?
N1 C7 H7 117.3 . . ?
C6 C7 H7 117.3 . . ?
N1 C8 H8 118.1 . . ?
N1 C8 C9 123.8(3) . . ?
C9 C8 H8 118.1 . . ?
C8 C9 H9 120.9 . . ?
C10 C9 C8 118.1(3) . . ?
C10 C9 H9 120.9 . . ?
C6 C10 H10 120.0 . . ?
C9 C10 C6 120.1(3) . . ?
C9 C10 H10 120.0 . . ?
C12 C11 C3 177.8(2) . . ?
C11 C12 C13 169.1(8) . . ?
C11 C12 C13A 176.1(8) . . ?
C14 C13 C12 123.8(10) . . ?
C17 C13 C12 116.9(11) . . ?
C17 C13 C14 118.0(10) . . ?
N2 C14 C13 119.5(10) . . ?
N2 C14 H14 120.2 . . ?
C13 C14 H14 120.2 . . ?
N2 C15 H15 116.9 . . ?
C16 C15 N2 126.3(8) . . ?
C16 C15 H15 116.9 . . ?
C15 C16 H16 122.4 . . ?
C17 C16 C15 115.2(9) . . ?
C17 C16 H16 122.4 . . ?
C13 C17 H17 117.6 . . ?
C16 C17 C13 124.9(10) . . ?
C16 C17 H17 117.6 . . ?
C14A N2A C15A 115.8(5) . . ?
C14A C13A C12 121.6(7) . . ?
C17A C13A C12 121.3(7) . . ?
C17A C13A C14A 116.2(7) . . ?
N2A C14A C13A 124.7(6) . . ?
N2A C14A H14A 117.7 . . ?
C13A C14A H14A 117.7 . . ?
N2A C15A H15A 118.2 . . ?
N2A C15A C16A 123.6(5) . . ?
C16A C15A H15A 118.2 . . ?
C15A C16A H16A 121.4 . . ?
C17A C16A C15A 117.1(6) . . ?
C17A C16A H16A 121.4 . . ?
C13A C17A H17A 118.8 . . ?
C16A C17A C13A 122.4(7) . . ?
C16A C17A H17A 118.8 . . ?
loop_
_geom_bond_atom_site_label_1
_geom_bond_atom_site_label_2
_geom_bond_distance
_geom_bond_site_symmetry_2
_geom_bond_publ_flag
N1 C7 1.319(4) . ?
N1 C8 1.341(6) . ?
N2 C14 1.382(12) . ?
N2 C15 1.394(12) . ?
C1 C2 1.404(3) . ?
C1 C3 1.422(3) 2_566 ?
C1 C4 1.473(3) . ?
C2 H2 0.9500 . ?
C2 C3 1.385(3) . ?
C3 C11 1.436(3) . ?
C4 C5 1.124(4) . ?
C5 C6 1.445(4) . ?
C6 C7 1.404(4) . ?
C6 C10 1.395(4) . ?
C7 H7 0.9500 . ?
C8 H8 0.9500 . ?
C8 C9 1.399(6) . ?
C9 H9 0.9500 . ?
C9 C10 1.367(4) . ?
C10 H10 0.9500 . ?
C11 C12 1.199(3) . ?
C12 C13 1.431(10) . ?
C12 C13A 1.439(8) . ?
C13 C14 1.393(11) . ?
C13 C17 1.380(12) . ?
C14 H14 0.9500 . ?
C15 H15 0.9500 . ?
C15 C16 1.339(12) . ?
C16 H16 0.9500 . ?
C16 C17 1.312(11) . ?
C17 H17 0.9500 . ?
N2A C14A 1.340(7) . ?
N2A C15A 1.375(8) . ?
C13A C14A 1.390(8) . ?
C13A C17A 1.389(9) . ?
C14A H14A 0.9500 . ?
C15A H15A 0.9500 . ?
C15A C16A 1.395(9) . ?
C16A H16A 0.9500 . ?
C16A C17A 1.350(9) . ?
C17A H17A 0.9500 . ?
loop_
_geom_torsion_atom_site_label_1
_geom_torsion_atom_site_label_2
_geom_torsion_atom_site_label_3
_geom_torsion_atom_site_label_4
_geom_torsion
_geom_torsion_site_symmetry_1
_geom_torsion_site_symmetry_2
_geom_torsion_site_symmetry_3
_geom_torsion_site_symmetry_4
_geom_torsion_publ_flag
N1 C8 C9 C10 1.6(8) . . . . ?
N2 C15 C16 C17 5(2) . . . . ?
C1 C2 C3 C1 -0.2(4) . . . 2_566 ?
C1 C2 C3 C11 -179.9(2) . . . . ?
C3 C1 C2 C3 0.2(4) 2_566 . . . ?
C4 C1 C2 C3 -179.7(2) . . . . ?
C5 C6 C7 N1 -179.3(3) . . . . ?
C5 C6 C10 C9 179.4(3) . . . . ?
C7 N1 C8 C9 -1.5(7) . . . . ?
C7 C6 C10 C9 -0.6(5) . . . . ?
C8 N1 C7 C6 0.3(6) . . . . ?
C8 C9 C10 C6 -0.5(6) . . . . ?
C10 C6 C7 N1 0.7(5) . . . . ?
C11 C12 C13 C14 150(4) . . . . ?
C11 C12 C13 C17 -43(8) . . . . ?
C12 C13 C14 N2 174(2) . . . . ?
C12 C13 C17 C16 -174.0(19) . . . . ?
C12 C13A C14A N2A -174.9(13) . . . . ?
C12 C13A C17A C16A 174.3(15) . . . . ?
C14 N2 C15 C16 -3.8(18) . . . . ?
C14 C13 C17 C16 -7(4) . . . . ?
C15 N2 C14 C13 -2(2) . . . . ?
C15 C16 C17 C13 1(3) . . . . ?
C17 C13 C14 N2 7(3) . . . . ?
N2A C15A C16A C17A -0.2(13) . . . . ?
C14A N2A C15A C16A -0.3(11) . . . . ?
C14A C13A C17A C16A 5(3) . . . . ?
C15A N2A C14A C13A 3.3(17) . . . . ?
C15A C16A C17A C13A -2(2) . . . . ?
C17A C13A C14A N2A -6(2) . . . . ?
loop_
_twin_individual_id
_twin_individual_mass_fraction_refined
1 0.9182(16)
2 0.0818(16)
loop_
_exptl_oxdiff_crystal_face_indexfrac_h
_exptl_oxdiff_crystal_face_indexfrac_k
_exptl_oxdiff_crystal_face_indexfrac_l
_exptl_oxdiff_crystal_face_x
_exptl_oxdiff_crystal_face_y
_exptl_oxdiff_crystal_face_z
0.0034 6.0084 3.9927 0.0411 0.8309 -0.5039
-0.0034 -6.0084 -3.9927 -0.0411 -0.8309 0.5039
1.9992 1.4984 3.4886 -0.0335 0.5457 0.6411
-1.9991 -1.9990 -2.9883 -0.0346 -0.5918 -0.5999
-0.0060 0.4989 -12.4957 0.9989 -0.2884 -0.0299
0.0060 -0.4989 12.4957 -0.9989 0.2884 0.0299
loop_
_smtbx_masks_void_nr
_smtbx_masks_void_average_x
_smtbx_masks_void_average_y
_smtbx_masks_void_average_z
_smtbx_masks_void_volume
_smtbx_masks_void_count_electrons
_smtbx_masks_void_content
1 -0.195 0.000 0.000 114.4 35.5 ?
