#------------------------------------------------------------------------------
#$Date: 2021-04-05 16:53:30 +0300 (Mon, 05 Apr 2021) $
#$Revision: 263621 $
#$URL: file:///home/coder/svn-repositories/cod/cif/7/12/79/7127940.cif $
#------------------------------------------------------------------------------
#
# This file is available in the Crystallography Open Database (COD),
# http://www.crystallography.net/
#
# All data on this site have been placed in the public domain by the
# contributors.
#
data_7127940
loop_
_publ_author_name
'Born, Max'
'Fessard, Thomas C.'
'G\"ottemann, Lucas'
'Klap\"otke, Thomas M'
'Stierstorfer, J\"org'
'Voggenreiter, Michael'
_publ_section_title
;
 3,3-Dinitratooxetane - an important leap towards energetic oxygen-rich
 monomers and polymers.
;
_journal_issue                   22
_journal_name_full
'Chemical communications (Cambridge, England)'
_journal_page_first              2804
_journal_page_last               2807
_journal_paper_doi               10.1039/d1cc00466b
_journal_volume                  57
_journal_year                    2021
_chemical_formula_moiety         'C3 H4 N2 O7'
_chemical_formula_sum            'C3 H4 N2 O7'
_chemical_formula_weight         180.08
_chemical_name_common            3,3-dinitrato-oxetane
_chemical_name_systematic        3,3-dinitrato-oxetane
_space_group_IT_number           14
_space_group_name_Hall           '-P 2ybc'
_space_group_name_H-M_alt        'P 1 21/c 1'
_symmetry_cell_setting           monoclinic
_symmetry_Int_Tables_number      14
_symmetry_space_group_name_Hall  '-P 2ybc'
_symmetry_space_group_name_H-M   'P 1 21/c 1'
_atom_sites_solution_hydrogens   geom
_atom_sites_solution_primary     difmap
_audit_creation_date             2020-03-04
_audit_creation_method           SHELXL-2018/3
_audit_update_record
;
2020-07-02 deposited with the CCDC.	2021-02-10 downloaded from the CCDC.
;
_cell_angle_alpha                90
_cell_angle_beta                 92.46(2)
_cell_angle_gamma                90
_cell_formula_units_Z            4
_cell_length_a                   9.259(2)
_cell_length_b                   12.501(3)
_cell_length_c                   5.7467(11)
_cell_measurement_reflns_used    521
_cell_measurement_temperature    107(2)
_cell_measurement_theta_max      26.3460
_cell_measurement_theta_min      2.2030
_cell_volume                     664.5(2)
_computing_cell_refinement       'CrysAlisPro 1.171.39.46e (Rigaku OD, 2018)'
_computing_data_collection       'CrysAlisPro 1.171.39.46e (Rigaku OD, 2018)'
_computing_data_reduction        'CrysAlisPro 1.171.39.46e (Rigaku OD, 2018)'
_computing_molecular_graphics    'Diamond 2.1c, Crystal Impact GbR'
_computing_publication_material  'Microsoft Word 2016'
_computing_structure_refinement  'SHELXL-2018/3 (Sheldrick, 2018)'
_diffrn_ambient_temperature      107(2)
_diffrn_detector                 'CCD plate'
_diffrn_detector_area_resol_mean 15.9809
_diffrn_detector_type            Sapphire3
_diffrn_measured_fraction_theta_full 0.968
_diffrn_measured_fraction_theta_max 0.970
_diffrn_measurement_details
;
List of Runs (angles in degrees, time in seconds):

  # Type    Start    End  Width  t~exp~   \w     \q     \k     \f   Frames
#--------------------------------------------------------------------------
  1  \w    -51.00  49.00   1.00   30.00    --  -20.45  77.00-120.00  100
  2  \w    -53.00  50.00   1.00   30.00    --  -20.45  77.00 120.00  103
  3  \w     -8.00  94.00   1.00   30.00    --   21.23  77.00   0.00  102
;
_diffrn_measurement_device       'four-circle diffractometer'
_diffrn_measurement_device_type  'Xcalibur, Sapphire3'
_diffrn_measurement_method       '\w scans'
_diffrn_orient_matrix_UB_11      -0.0034246000
_diffrn_orient_matrix_UB_12      -0.0561052000
_diffrn_orient_matrix_UB_13      0.0176729000
_diffrn_orient_matrix_UB_21      0.0758842000
_diffrn_orient_matrix_UB_22      -0.0036096000
_diffrn_orient_matrix_UB_23      -0.0107158000
_diffrn_orient_matrix_UB_31      0.0106548000
_diffrn_orient_matrix_UB_32      0.0077711000
_diffrn_orient_matrix_UB_33      0.1217283000
_diffrn_radiation_monochromator  graphite
_diffrn_radiation_probe          x-ray
_diffrn_radiation_type           MoK\a
_diffrn_radiation_wavelength     0.71073
_diffrn_reflns_av_R_equivalents  0.0701
_diffrn_reflns_av_sigmaI/netI    0.0962
_diffrn_reflns_av_unetI/netI     0.1002
_diffrn_reflns_Laue_measured_fraction_full 0.968
_diffrn_reflns_Laue_measured_fraction_max 0.970
_diffrn_reflns_limit_h_max       11
_diffrn_reflns_limit_h_min       -11
_diffrn_reflns_limit_k_max       15
_diffrn_reflns_limit_k_min       -8
_diffrn_reflns_limit_l_max       7
_diffrn_reflns_limit_l_min       -7
_diffrn_reflns_number            3348
_diffrn_reflns_point_group_measured_fraction_full 0.968
_diffrn_reflns_point_group_measured_fraction_max 0.970
_diffrn_reflns_theta_full        25.242
_diffrn_reflns_theta_max         26.370
_diffrn_reflns_theta_min         2.739
_diffrn_source                   'fine-focus sealed X-ray tube'
_exptl_absorpt_coefficient_mu    0.183
_exptl_absorpt_correction_T_max  1.00000
_exptl_absorpt_correction_T_min  0.61979
_exptl_absorpt_correction_type   multi-scan
_exptl_absorpt_process_details
;
CrysAlisPro 1.171.39.46e (Rigaku Oxford Diffraction, 2018)
Empirical absorption correction using spherical harmonics,
 implemented in SCALE3 ABSPACK scaling algorithm.
;
_exptl_crystal_colour            colorless
_exptl_crystal_density_diffrn    1.800
_exptl_crystal_description       block
_exptl_crystal_F_000             368
_exptl_crystal_size_max          0.20
_exptl_crystal_size_mid          0.12
_exptl_crystal_size_min          0.05
_refine_diff_density_max         0.365
_refine_diff_density_min         -0.395
_refine_diff_density_rms         0.082
_refine_ls_extinction_method     none
_refine_ls_goodness_of_fit_ref   1.049
_refine_ls_hydrogen_treatment    constr
_refine_ls_matrix_type           full
_refine_ls_number_parameters     109
_refine_ls_number_reflns         1313
_refine_ls_number_restraints     0
_refine_ls_restrained_S_all      1.049
_refine_ls_R_factor_all          0.1211
_refine_ls_R_factor_gt           0.0749
_refine_ls_shift/su_max          0.000
_refine_ls_shift/su_mean         0.000
_refine_ls_structure_factor_coef Fsqd
_refine_ls_weighting_details
'w=1/[\s^2^(Fo^2^)+(0.0391P)^2^+0.9803P] where P=(Fo^2^+2Fc^2^)/3'
_refine_ls_weighting_scheme      calc
_refine_ls_wR_factor_gt          0.1449
_refine_ls_wR_factor_ref         0.1672
_reflns_Friedel_coverage         0.000
_reflns_number_gt                822
_reflns_number_total             1313
_reflns_threshold_expression     'I > 2\s(I)'
_cod_data_source_file            d1cc00466b2.cif
_cod_data_source_block           px075
_cod_depositor_comments          'Adding full bibliography for 7127940.cif.'
_cod_original_cell_volume        664.6(3)
_cod_original_sg_symbol_H-M      'P 21/c'
_cod_database_code               7127940
_shelx_space_group_comment
;
The symmetry employed for this shelxl refinement is uniquely defined
by the following loop, which should always be used as a source of
symmetry information in preference to the above space-group names.
They are only intended as comments.
;
_shelx_res_file
;
TITL SIR97 run in space group P 21/c
    shelx.res
    created by SHELXL-2018/3 at 09:56:22 on 02-Jul-2020
CELL  0.71073   9.2593  12.5010   5.7467   90.000   92.461   90.000
ZERR     4.00   0.0023   0.0026   0.0011    0.000    0.022    0.000
LATT   1
SYMM  - X, 1/2 + Y, 1/2 - Z
SFAC  C    H    N    O
UNIT  12 16 8 28
MERG   2
OMIT    -1   3   7
OMIT    -1   1   7
OMIT     0   2   0
OMIT     2   1   0
OMIT     0   6   0
OMIT     4   0   0
OMIT     2   5   0
OMIT     2   9   0
OMIT     4   8   0
OMIT     6   8   0
OMIT    10   0   0
OMIT     2   2   0
OMIT     0  14   0
OMIT     6   0   0
OMIT     2   6   0
OMIT     6   6   0
OMIT     4   1   0
OMIT     4   2   0
OMIT     6   5   0
OMIT     1   0   0
OMIT     2   4   0
OMIT     4   9   0
OMIT     0   8   0
OMIT     4   6   0
OMIT     4   4   0
OMIT     2   3   0
OMIT     2  14   0
OMIT     6   1   0
OMIT     0  10   0
OMIT     8   9   0
OMIT     6   9   0
OMIT     8   0   0
OMIT     2   0   0
OMIT     4  12   0
OMIT     4   5   0
OMIT     8   6   0
OMIT     4  10   0
OMIT     2  11   0
OMIT     2  13   0
OMIT    -3   6   1
OMIT     6   3   0
MORE -1
SHEL 1000 0.8
FMAP   2
PLAN    5
ACTA
BOND   $H
CONF
LIST   6
L.S.  10
TEMP  -166.15
WGHT    0.039100    0.980300
FVAR       0.40158
O5    4    0.340070    0.566778    0.539425    11.00000    0.01750    0.01861 =
         0.01884   -0.00538    0.00315   -0.00325
O6    4    0.346638    0.697055    0.792390    11.00000    0.03383    0.02409 =
         0.02640   -0.00827   -0.00280   -0.00343
O2    4    0.159936    0.432947    0.521196    11.00000    0.01935    0.01666 =
         0.01686    0.00405    0.00359    0.00287
O3    4    0.156187    0.294244    0.753004    11.00000    0.03607    0.02353 =
         0.02582    0.00730    0.00706   -0.00293
O7    4    0.135882    0.653313    0.633879    11.00000    0.02055    0.02302 =
         0.03012   -0.00459    0.00097    0.00468
N1    3    0.236911    0.350640    0.650749    11.00000    0.03074    0.01404 =
         0.01618   -0.00006    0.00134    0.00222
O1    4    0.234450    0.497180    0.023160    11.00000    0.03287    0.03069 =
         0.01389   -0.00058    0.00198    0.00406
N2    3    0.264944    0.646357    0.666000    11.00000    0.02389    0.01655 =
         0.01877   -0.00087   -0.00044    0.00041
O4    4    0.366660    0.348178    0.640170    11.00000    0.01839    0.02678 =
         0.03289    0.00331    0.00191    0.00529
C3    1    0.246621    0.501701    0.390885    11.00000    0.01658    0.01510 =
         0.01692    0.00028    0.00183   -0.00427
C1    1    0.334822    0.452094    0.198692    11.00000    0.02639    0.01966 =
         0.01534    0.00119    0.00309    0.00086
AFIX  23
H1A   2    0.434128    0.481025    0.192812    11.00000   -1.20000
H1B   2    0.335882    0.372910    0.200763    11.00000   -1.20000
AFIX   0
C2    1    0.155803    0.555339    0.197485    11.00000    0.02622    0.02000 =
         0.01314   -0.00069   -0.00013    0.00247
AFIX  23
H2B   2    0.051900    0.536729    0.198265    11.00000   -1.20000
H2A   2    0.169146    0.633833    0.190637    11.00000   -1.20000
AFIX   0
HKLF    4




REM  SIR97 run in space group P 21/c
REM wR2 = 0.1672, GooF = S = 1.049, Restrained GooF = 1.049 for all data
REM R1 = 0.0749 for 822 Fo > 4sig(Fo) and 0.1211 for all 1313 data
REM 109 parameters refined using 0 restraints

END

WGHT      0.0391      0.9803

REM Highest difference peak  0.365,  deepest hole -0.395,  1-sigma level  0.082
Q1    1   0.2204  0.5003  0.5336  11.00000  0.05    0.37
Q2    1   0.2703  0.6525  0.4859  11.00000  0.05    0.36
Q3    1   0.2155  0.5024 -0.1405  11.00000  0.05    0.36
Q4    1   0.1631  0.2939  0.9278  11.00000  0.05    0.35
Q5    1   0.1441  0.6552  0.4399  11.00000  0.05    0.35
;
_shelx_res_checksum              6571
_shelx_hkl_file
;
   0   0   1    0.06    0.44
   0   0  -1   -0.27    0.62
   0   0   1   -0.53    0.47
   0   0  -1    0.44    0.45
   0   0  -2  115.32    6.61
   0   0  -2  117.00    6.54
   0   0   2  116.15    6.50
   0   0  -3    1.82    1.79
   0   0  -3    0.44    1.31
   0   0   4    8.16    3.03
   0   0  -4   11.75    3.06
   0   0  -5    3.22    2.41
   0   0   5   -1.72    2.76
   0   0   6   84.62   11.87
   0   0   7    0.52    1.56
   0  -1   1  512.94    8.98
   0  -1  -1  532.92   10.95
   0  -1   1  538.08   11.48
   0   1   1  513.07   10.89
   0   1  -1  526.33    8.95
   0   1  -1  541.01   11.35
   0   1   1  524.17    7.43
   0  -1  -1  517.55    7.30
   0   1  -2   10.78    2.56
   0   1   2   12.75    1.94
   0  -1  -2   13.29    2.10
   0   1  -2   11.44    2.05
   0  -1   2   10.77    1.91
   0   1   2   15.42    2.70
   0   1  -3    1.90    1.92
   0   1   3    1.88    1.62
   0  -1  -3    0.54    0.79
   0   1  -3    0.15    0.98
   0  -1  -4   13.62    2.85
   0   1  -4   11.93    3.17
   0   1  -4   12.63    3.63
   0   1   4   13.23    3.83
   0  -1  -5   74.15    7.93
   0   1  -5   62.03    8.24
   0   1   5   64.62    9.13
   0  -1   5   69.70    9.33
   0  -1   6    5.14    3.49
   0   1  -6    1.87    2.67
   0   1   6    1.45    3.44
   0   1   7   34.83    8.65
   0  -1   7   41.25    9.27
   0  -2   0  780.76   10.67
   0   2   0  787.01   10.40
   0  -2   0  808.08   12.22
   0   2   0  787.78   12.09
   0  -2   1    0.24    0.34
   0  -2   1   -0.39    0.79
   0   2   1   -0.17    1.19
   0   2  -1   -0.18    1.28
   0  -2  -1    2.58    1.30
   0   2  -1   -0.16    0.50
   0   2   2  793.81   12.58
   0  -2  -2  779.31   12.52
   0  -2   2  764.67   15.38
   0   2  -2  786.52   15.83
   0   2  -2  779.04   19.49
   0   2   2  768.28   19.07
   0   2   3   -0.99    1.61
   0  -2  -3    2.06    1.10
   0   2  -3    1.74    1.79
   0   2  -3    2.07    1.26
   0   2   4   30.98    5.68
   0  -2  -4   29.69    4.28
   0   2  -4   34.07    5.15
   0   2  -4   24.14    4.67
   0   2  -5   -0.46    2.19
   0   2   5    1.06    2.59
   0   2   6   28.25    9.18
   0  -2   6   51.86   11.19
   0   2   7    4.77    3.31
   0  -2   7   14.58    5.95
   0   3   0    1.14    0.77
   0  -3   0    0.50    0.91
   0  -3   0    1.04    0.81
   0   3   0    1.67    1.06
   0   3  -1  425.61    8.52
   0  -3   1  477.58   11.96
   0  -3   1  412.24    9.85
   0   3  -1  398.83   12.29
   0   3   1  392.57   12.42
   0   3  -2   13.70    2.89
   0   3   2   13.45    1.22
   0  -3   2   13.68    2.14
   0   3   2   12.22    2.70
   0   3  -2   11.81    1.93
   0   3   3  161.23    6.78
   0   3  -3  182.26    9.61
   0   3   3  180.70   11.42
   0   3  -3  163.54   10.98
   0   3  -4    0.93    1.73
   0   3   4    2.43    1.68
   0   3  -4    2.25    1.61
   0   3  -5   10.45    4.15
   0   3   5    6.84    2.72
   0   3  -5    8.52    2.60
   0   3   6    3.61    2.13
   0   3  -6    6.63    3.82
   0   3   7   26.88    7.33
   0  -3   7   26.37    7.27
   0  -4   0   31.10    2.94
   0   4   0   33.70    3.66
   0   4   0   37.59    3.21
   0   4  -1   -0.64    1.06
   0   4   1    0.77    1.53
   0   4  -1   -0.89    0.64
   0   4   2   29.42    4.19
   0   4  -2   28.97    4.29
   0   4  -2   23.92    2.83
   0   4  -3   -0.18    0.81
   0   4   3    0.56    0.32
   0   4  -3   -1.65    2.24
   0   4  -4  127.98   11.45
   0   4  -4  140.18    9.92
   0   4   4  132.35   11.54
   0   4  -5    8.86    3.80
   0   4   5    2.98    1.49
   0   4  -5    6.17    2.76
   0   4   6   36.64    7.91
   0   4  -6   30.53    6.72
   0  -4   7    1.79    2.40
   0   4   7   -0.22    2.18
   0   4  -7    3.68    3.04
   0  -5   0    0.24    0.84
   0   5   0    0.17    1.43
   0   5   0    0.90    1.03
   0  -5  -1  179.20    5.22
   0   5  -1  179.97    8.85
   0   5   1  179.36    5.25
   0   5  -1  177.72    9.90
   0   5   1  188.23   10.46
   0   5  -1  222.13    8.21
   0   5   2    2.18    1.43
   0   5  -2    2.50    1.59
   0   5  -2    0.75    0.66
   0   5  -3   48.81    4.85
   0   5   3   50.30    6.70
   0   5  -3   50.44    6.46
   0   5  -4    2.30    1.92
   0   5   4    0.94    1.34
   0   5  -4    1.48    1.57
   0   5   5   77.89   10.21
   0   5  -5   81.94    8.70
   0   5  -5   77.93   10.57
   0   5  -6    5.46    1.87
   0   5   6   -0.67    1.91
   0   5  -7   16.37    6.50
   0   6   0 1065.64   21.11
   0   6   0 1021.33   24.19
   0   6  -1    0.00    1.01
   0  -6  -1   -0.61    0.53
   0   6  -1    2.93    1.29
   0   6   1    0.70    0.49
   0   6  -1   -2.58    1.48
   0   6   1    0.14    1.05
   0   6   2   68.60    7.48
   0   6  -2   57.74    6.62
   0   6  -2   50.45    4.18
   0   6  -3    3.93    1.78
   0   6   3   10.34    2.55
   0   6  -3    7.43    2.03
   0   6  -4  133.15    9.47
   0   6   4  124.76   11.91
   0   6  -4  110.94   11.36
   0   6   5    2.65    1.77
   0   6  -5    2.69    2.46
   0   6  -5    1.87    1.52
   0   6   6    3.91    3.75
   0   6  -6   22.60    6.03
   0   7   0    1.15    1.84
   0   7   0    1.39    1.33
   0   7   1    0.83    0.47
   0   7  -1    2.43    1.74
   0  -7  -1    1.76    0.96
   0   7  -1    1.71    1.75
   0   7  -1    1.94    1.26
   0   7   1    1.92    1.96
   0   7  -2    2.22    1.34
   0   7  -2    5.25    1.62
   0   7   2    4.27    2.50
   0   7  -3  764.21   20.22
   0   7  -3  772.45   28.40
   0   7   3  729.56   27.54
   0   7   4    7.89    4.06
   0   7  -4    1.48    1.72
   0   7  -4    3.47    1.89
   0   7  -5   15.30    4.59
   0   7   5    7.35    3.44
   0   7  -6    2.88    3.71
   0   7   6    5.15    3.43
   0   8   0  172.61    9.98
   0   8   0  174.71   11.54
   0   8  -1    4.15    1.99
   0   8  -1    1.58    1.05
   0  -8  -1    4.39    1.33
   0   8   1    7.81    1.77
   0   8   1    4.64    2.90
   0   8  -1    5.75    2.34
   0   8   2   12.40    3.23
   0   8  -2    9.70    2.19
   0   8  -2   11.82    3.69
   0   8  -3    4.84    3.40
   0   8  -3    7.10    2.30
   0   8   3    7.06    2.90
   0   8   4   79.30   10.35
   0   8  -4   76.42   10.01
   0   8  -4   79.06    7.56
   0   8   5    3.22    2.95
   0   8  -5    7.36    4.53
   0   8   6   -1.92    1.65
   0   8  -6   -2.92    2.17
   0   9   0    1.06    2.31
   0   9   0    0.84    1.43
   0   9  -1  158.02   11.57
   0   9   1  174.35   14.52
   0   9  -1  163.64   11.04
   0   9  -1  167.35   13.55
   0   9  -2   -0.43    1.84
   0   9   2   -0.79    1.68
   0   9  -2   -1.45    0.72
   0   9  -3   28.38    4.31
   0   9   3   27.98    6.33
   0   9  -3   28.42    5.79
   0   9  -4    6.06    2.63
   0   9   4    7.27    3.62
   0   9   5    6.66    4.03
   0   9  -5   -3.20    3.42
   0  10   0  164.26   12.78
   0  10   0  179.42   11.27
   0  10   1   -2.56    2.48
   0  10  -1   -0.97    1.09
   0  10  -1   -0.60    1.45
   0  10  -1   -0.52    1.88
   0  10   2    4.41    3.09
   0  10  -2    2.95    1.67
   0  10  -2   -1.72    2.54
   0  10  -3    1.94    1.89
   0  10  -3    0.86    1.69
   0  10   3    1.28    2.13
   0  10  -4   53.72    9.20
   0  10   4   59.85    9.65
   0  10  -5    1.39    2.78
   0  10   5    5.52    3.47
   0  11   0   -1.40    1.25
   0  11   0   -0.47    2.07
   0  11   1   18.94    4.97
   0  11  -1   14.90    4.07
   0  11  -1   23.20    4.82
   0  11  -1   22.50    5.31
   0  11  -2    8.85    2.65
   0  11  -2    5.70    2.44
   0  11   2    4.89    2.72
   0  11   3   -0.12    2.09
   0  11  -3   -4.51    3.57
   0  11   4    0.22    1.70
   0  11  -4    1.03    2.28
   0  11   5    7.96    3.51
   0  11  -5    7.25    3.47
   0  12   0    8.82    2.88
   0  12   0    6.29    2.92
   0  12  -1    4.85    2.68
   0  12  -1    0.51    1.85
   0  12  -1    2.98    2.15
   0  12   2   89.43   11.20
   0  12  -2   81.16    7.52
   0  12  -2  105.93   11.95
   0  12  -3   -0.02    1.84
   0  12   3    2.83    3.14
   0  12  -4   15.28    4.66
   0  12   4   23.52    6.63
   0  13   0   10.78    4.18
   0  13  -1   80.17   10.14
   0  13  -1   86.08    9.50
   0  13   1   86.66   11.46
   0  13  -1  110.41   13.40
   0  13  -2    2.38    2.70
   0  13   2   -1.27    1.46
   0  13   3   64.09   10.24
   0  13  -3   77.87   11.25
   0  13  -4    4.90    3.56
   0  14   0  404.74   21.72
   0  14   0  411.71   24.42
   0  14  -1   -4.98    3.12
   0  14   1   -0.86    1.79
   0  14   2    5.18    3.40
   0  14  -2    5.67    3.48
   0  14  -3    0.43    2.33
   0  14   3   -3.81    3.18
   0  15   0    4.26    2.84
   0  15   0   -0.08    1.53
   0  15   1    6.03    3.69
   0  15   2    1.88    2.56
   0  15  -2   -0.66    1.58
   0  15  -3    4.71    2.97
   0  16   0    4.32    2.10
   0  16   1    4.05    3.82
  -1   0   7   -3.03    3.16
  -1   0   6   39.75    8.64
   1   0  -6   53.22   10.08
  -1   0   5    1.97    2.06
   1   0  -5    3.76    2.80
   1   0  -4   -1.56    1.18
   1   0  -3    0.64    0.94
  -1   0   2 1090.36   18.82
   1   0  -2 1093.81   20.19
   1   0  -1    1.61    0.89
  -1   0   1    0.95    0.46
  -1   0   0   11.85    0.98
   1   0   0   11.11    1.04
   1   0   1    0.40    0.41
  -1   0  -1    0.44    0.65
   1   0   1   -0.26    0.51
  -1   0  -1    0.54    0.34
  -1   0  -2  931.15   19.77
   1   0   2  902.67   17.88
  -1   0  -3    0.74    1.38
   1   0   3   -0.57    1.08
   1   0   4   20.52    4.38
  -1   0  -4   25.22    4.91
   1   0   5    1.09    1.21
   1   0   6   26.21    6.40
   1   0   7   -1.18    1.18
  -1   1   7   34.90    9.13
  -1  -1   7   47.07   10.14
   1   1  -6    4.71    2.62
  -1  -1   6    1.94    1.52
  -1   1   6    3.95    3.85
   1  -1  -5    0.38    1.83
  -1   1   5    0.16    1.39
   1   1  -5    0.23    1.46
  -1   1   4   17.37    4.36
   1   1  -4   13.46    3.39
   1  -1  -4   16.55    3.47
   1  -1  -3   14.50    2.88
   1   1  -3   11.86    2.98
  -1   1   2  127.07    6.00
   1   1  -2  125.24    7.46
  -1  -1   2  124.53    5.62
   1  -1  -2  121.70    6.09
  -1  -1   1   17.77    2.20
  -1  -1   1   18.27    1.25
  -1   1   1   19.32    1.90
   1   1  -1   18.54    2.33
   1  -1  -1   19.09    1.79
   1   1   0   -0.16    0.35
  -1  -1   0    1.28    0.60
   1   1   0    0.81    0.41
  -1  -1   0    0.75    0.38
   1  -1   0    1.20    0.62
  -1   1   0    1.11    0.63
   1   1   0    0.41    0.36
  -1  -1  -1   28.50    2.51
  -1   1  -1   25.73    2.57
   1  -1   1   27.41    2.56
   1  -1   1   30.41    3.01
  -1  -1  -1   25.49    2.61
   1   1   1   27.39    2.57
   1   1   1   26.56    2.70
   1   1   2  126.01    7.21
   1   1   2  128.21    6.40
  -1   1  -2  127.48    7.77
  -1   1  -2  119.22    7.02
  -1  -1  -2  122.44    7.48
   1   1   3   18.43    3.62
  -1   1  -3   23.97    3.85
  -1  -1  -3   17.75    3.80
  -1   1  -3   19.50    3.47
  -1   1  -4   54.67    6.75
  -1   1  -4   59.98    7.28
   1   1   4   50.36    6.54
   1  -1   4   55.87    6.65
   1  -1   5    1.76    1.83
   1   1   5    6.00    3.07
  -1   1  -5    7.87    3.60
   1   1   6    1.71    2.01
   1  -1   6    0.59    2.62
   1   1   7   10.58    4.22
   1  -1   7   10.70    4.87
  -1  -2   7    9.43    5.23
   1   2  -7    3.02    3.45
  -1   2   7    4.78    3.57
   1   2  -6  180.85   16.05
  -1   2   6  175.60   17.17
  -1   2   5   19.78    5.84
   1   2  -5   17.45    4.53
   1  -2  -5   19.58    4.08
  -1   2   4   -1.57    2.01
   1   2  -4    1.58    1.76
   1  -2  -4    1.22    1.26
  -1   2   3   22.17    4.09
   1   2  -3   17.14    3.55
   1  -2  -3   23.02    3.28
   1   2  -3   21.56    3.18
   1   2  -2    3.08    1.58
  -1   2   2    5.65    2.06
   1   2  -2    5.41    1.18
  -1  -2   2    6.24    1.22
  -1   2   2    4.74    1.06
   1  -2  -2    5.44    1.33
  -1   2   1   17.60    2.38
  -1  -2   1   17.19    2.36
   1  -2  -1   17.76    1.52
   1  -2  -1   18.83    2.43
   1   2  -1   14.93    2.32
  -1  -2   0    1.22    0.54
   1   2   0    1.79    0.85
   1   2   0    2.48    1.07
  -1  -2   0    2.33    0.90
   1  -2   0    0.51    0.37
  -1   2   0    1.29    0.65
  -1   2  -1   54.48    4.53
  -1   2  -1   46.40    3.32
  -1  -2  -1   53.17    4.02
   1   2   1   57.92    4.40
   1   2   1   55.10    4.27
   1  -2   1   49.63    3.39
   1  -2   1   57.58    4.48
   1   2   2   -0.91    0.95
  -1   2  -2    1.55    1.01
   1   2   2    0.77    0.53
   1   2   3   64.88    6.57
  -1   2  -3   62.18    6.85
  -1   2  -3   58.37    5.74
  -1   2  -4   -2.50    1.99
   1   2   4   -1.74    1.93
  -1   2  -4    2.24    1.83
   1   2   5   54.08    8.03
  -1   2  -5   46.83    7.04
  -1   2  -5   49.95    7.74
   1  -2   5   50.54    7.73
   1   2   6   92.61   11.72
   1  -2   6   82.98   11.38
   1  -2   7   23.46    7.07
   1   2   7   28.63    7.41
  -1   3   7   41.09    9.43
  -1  -3   7   32.93    8.52
   1   3  -7   28.52    7.78
   1   3  -6    0.03    1.51
  -1   3   6    0.31    1.67
  -1   3   5   27.02    6.16
   1   3  -5   21.03    5.25
  -1   3   4   31.01    5.53
   1   3  -4   30.65    5.69
   1   3  -4   30.08    4.40
   1  -3  -4   33.05    3.95
   1   3  -3   -1.54    1.92
  -1   3   3   -0.04    1.18
  -1   3   3   -0.04    0.60
   1  -3  -3   -0.32    0.78
   1   3  -3   -0.17    0.74
  -1  -3   2   19.36    2.04
   1   3  -2   21.70    2.33
   1   3  -2   18.89    3.54
  -1   3   2   22.73    3.59
   1   3  -1 2123.01   29.15
  -1   3   1 2180.37   27.64
  -1  -3   0    3.09    1.29
   1   3   0    7.09    2.17
  -1  -3   0    3.23    0.77
  -1   3   0    3.34    1.00
   1  -3   0    3.03    1.15
   1  -3   0    5.47    1.31
   1   3   0    1.95    0.88
   1   3   1 1808.46   16.47
   1  -3   1 1905.45   24.76
   1   3   1 1848.50   27.95
  -1   3  -1 1986.70   21.82
   1  -3   1 1900.39   21.61
  -1   3  -1 1888.55   27.89
   1   3   2    1.52    0.60
   1   3   2    2.17    1.87
  -1   3  -2   -0.09    1.28
  -1   3  -2    1.05    1.12
   1   3   3    6.21    1.85
   1   3   3    6.25    1.56
  -1   3  -3   11.27    3.40
  -1   3  -3    8.84    2.27
   1   3   4   23.82    4.78
  -1   3  -4   27.20    4.65
  -1   3  -4   20.68    5.00
   1   3   5   31.44    5.86
  -1   3  -5   44.68    7.36
  -1   3  -5   40.56    6.70
   1   3   6    9.78    3.63
  -1   3  -6   17.05    5.20
   1  -3   6    9.08    3.57
   1   3   7   27.65    7.03
   1   4  -7    6.60    4.12
  -1   4   7    3.02    3.20
   1   4  -6   49.16    8.66
  -1   4   6   43.29    9.08
  -1   4   5   -0.14    2.52
   1   4  -5    1.04    2.72
  -1   4   4   55.95    7.82
   1   4  -4   50.26    5.50
   1  -4  -4   54.90    4.48
   1   4  -4   54.19    7.44
  -1   4   3   17.22    4.01
   1   4  -3   16.08    3.91
   1   4  -3   18.57    2.79
   1   4  -2  382.90    9.55
   1   4  -2  378.85   15.58
  -1   4   2  354.17   14.34
  -1  -4   2  377.01    9.89
   1  -4  -1   42.52    2.66
   1   4  -1   43.06    4.46
   1   4  -1   35.85    2.42
  -1   4   1   43.08    4.27
  -1   4   0    5.29    1.59
  -1  -4   0    7.26    1.66
   1   4   0    4.62    1.92
   1  -4   0    4.22    1.27
   1  -4   0    6.57    1.58
   1   4   0    3.70    0.87
   1   4   1    2.99    0.89
   1  -4   1    3.01    1.25
   1   4   1    2.11    1.79
  -1   4  -1    1.90    1.36
  -1   4  -2  304.43   11.04
   1   4   2  346.99   15.00
   1   4   2  334.81    6.84
  -1   4  -2  352.72   15.31
   1   4   3  123.00    5.67
  -1   4  -3  127.24    8.43
  -1   4  -3  122.50   10.37
   1   4   3  131.75   10.08
   1   4   4   27.92    5.17
  -1   4  -4   24.39    4.97
  -1   4  -4   19.95    3.87
  -1   4  -5    0.11    1.58
  -1   4  -5    0.96    2.23
   1   4   5    4.72    3.00
  -1   4  -6   35.14    7.04
   1   4   6   34.08    7.33
   1   4   7   18.91    6.39
   1   5  -7   12.66    5.20
   1   5  -6    9.81    4.07
  -1   5   6    7.33    3.24
  -1   5   5    1.02    2.11
   1   5  -5   -5.06    3.22
  -1   5   4   -3.81    3.29
   1   5  -4    2.64    1.49
   1   5  -4   -0.76    1.57
   1   5  -3  267.46   15.62
   1   5  -3  279.35   10.60
  -1   5   3  258.25   14.65
   1   5  -2   69.63    4.25
  -1   5   2   66.09    6.51
   1   5  -2   67.41    6.98
   1   5  -1   72.18    4.30
   1   5  -1   72.93    6.29
   1  -5  -1   70.41    3.85
  -1   5   1   69.81    6.13
   1   5   0   10.99    2.15
   1   5   0   13.21    3.24
  -1   5   0    9.85    2.20
  -1   5  -1   61.25    4.69
  -1   5  -1   47.74    4.15
   1   5   1   54.11    6.59
   1   5   1   49.84    3.27
  -1   5  -1   46.28    5.17
  -1   5  -2   41.12    5.77
  -1   5  -2   32.80    3.65
   1   5   2   44.27    6.10
  -1   5  -3  103.74   10.01
  -1   5  -3   98.99    7.61
   1   5   3   97.36    3.65
   1   5   3   97.94    9.36
  -1   5  -4   38.57    5.41
   1   5   4   30.99    5.86
  -1   5  -4   36.77    6.36
   1   5   5    1.86    2.52
  -1   5  -5   -0.62    2.41
  -1   5  -5    5.20    2.46
  -1   5  -6    3.37    2.46
   1   5   6   -1.77    2.06
   1   5   7   -0.23    1.63
  -1   6   6   23.63    6.79
   1   6  -6   34.54    7.60
   1   6  -5   -1.69    2.55
  -1   6   5   -0.63    2.93
  -1   6   4   20.03    5.02
   1   6  -4   19.58    5.02
   1   6  -4   16.36    3.17
   1   6  -3   -0.49    0.93
  -1   6   3    1.50    1.88
   1   6  -3    1.46    2.26
  -1   6   2   65.49    6.82
   1   6  -2   61.82    7.13
   1   6  -2   56.41    3.90
   1   6  -1  288.84    9.69
   1   6  -1  234.73   12.15
  -1   6   1  275.82   13.56
   1   6  -1  221.12   11.85
   1  -6  -1  235.20    7.97
   1   6   0    4.62    2.28
  -1   6   0    4.00    1.72
   1   6   0    8.19    2.12
  -1   6  -1  233.77   10.23
   1   6   1  235.12    8.36
   1   6   1  230.39   13.61
  -1  -6  -1  226.54    7.76
  -1   6  -1  233.48   11.97
  -1   6  -1  247.40   10.90
   1   6   2   19.75    4.31
  -1   6  -2   15.56    2.63
  -1   6  -2   16.40    3.92
   1   6   3   14.99    4.15
  -1   6  -3   16.48    3.67
  -1   6  -3   21.80    3.83
  -1   6  -4   12.47    3.28
  -1   6  -4    8.71    3.24
   1   6   4    9.88    4.04
   1   6   5   16.86    4.93
  -1   6  -5   16.61    4.37
  -1   6  -5   15.33    5.09
   1   6   6   10.64    4.53
  -1   7   6    6.26    3.88
   1   7  -6    4.82    4.23
  -1   7   5  207.73   17.43
   1   7  -5  226.40   18.34
   1   7  -4    4.07    1.66
  -1   7   4    8.59    2.65
   1   7  -3    1.63    1.10
  -1   7   3    1.43    1.89
   1   7  -3   -1.60    2.39
   1   7  -2   22.90    2.68
  -1   7   2   24.07    4.71
   1   7  -2   25.91    4.99
  -1   7   1    7.88    2.87
   1  -7  -1    5.02    1.38
   1   7  -1    5.81    2.31
   1   7  -1    8.10    2.45
   1   7  -1    8.23    2.52
   1   7   0    0.98    1.65
  -1   7   0    0.18    0.88
   1   7   0    0.65    0.70
  -1   7  -1   14.91    3.43
  -1  -7  -1   14.86    2.16
   1   7   1   12.36    3.41
   1   7   1   18.64    2.52
  -1   7  -1   14.52    3.08
  -1   7  -1   16.49    2.92
  -1   7  -2   13.53    2.66
   1   7   2   14.84    3.13
  -1   7  -2   13.75    4.01
   1   7   3    4.32    3.07
  -1   7  -3    0.30    1.23
  -1   7  -4   19.25    3.81
   1   7   4   19.74    5.46
  -1   7  -4   28.10    6.02
  -1   7  -5  123.06   13.66
  -1   7  -5  119.45   10.84
   1   7   5  132.34   14.05
   1   7   6    3.00    2.82
   1   8  -6    6.53    4.30
  -1   8   6    1.75    2.90
  -1   8   5    4.12    3.57
   1   8  -5    2.82    2.66
   1   8  -4   24.90    6.11
  -1   8   4   22.54    5.53
   1   8  -3    0.52    2.08
  -1   8   3    3.50    2.85
   1   8  -3    4.69    1.78
   1   8  -2    0.62    1.20
  -1   8   2    0.73    1.91
   1   8  -2   -0.14    2.15
  -1   8   1   21.59    5.08
   1   8  -1   18.29    3.76
   1   8  -1   14.71    3.97
   1   8  -1   16.05    3.68
   1   8   0   -0.05    1.16
   1   8   0    0.91    2.23
  -1   8   0    3.75    2.42
   1   8   1   38.32    6.32
  -1   8  -1   35.93    4.83
   1   8   1   53.90    4.63
  -1   8  -1   40.44    4.98
  -1   8  -1   46.63    6.07
  -1   8  -2    0.42    0.96
  -1   8  -2    1.49    1.97
  -1   8  -3   -0.21    2.35
   1   8   3    5.20    3.25
  -1   8  -3    0.12    0.98
   1   8   4    9.04    3.63
  -1   8  -4   10.17    3.82
  -1   8  -4   10.73    3.00
   1   8   5    2.55    2.65
  -1   8  -5   -1.38    2.92
   1   8   6    4.72    3.25
   1   9  -5    0.68    2.28
  -1   9   5    5.17    3.76
  -1   9   4    5.50    3.73
   1   9  -4    0.33    2.35
   1   9  -3  159.41   14.01
  -1   9   3  151.46   13.28
   1   9  -2    8.83    3.49
   1   9  -2    7.14    1.70
  -1   9   2    6.29    2.83
   1   9  -1   11.74    3.28
   1   9  -1   12.47    3.69
  -1   9   1   10.06    3.47
   1   9  -1   11.75    2.74
   1   9   0    8.32    2.55
   1   9   0    4.80    2.48
  -1   9   0    7.08    3.20
  -1   9  -1    5.89    2.19
   1   9   1   11.75    4.03
   1   9   1    8.77    2.08
  -1   9  -1    6.88    2.44
  -1   9  -1    9.41    2.69
   1   9   2    7.71    3.11
  -1   9  -2    8.00    2.17
  -1   9  -2    9.85    3.83
  -1   9  -3  103.79    8.50
  -1   9  -3   98.96   11.03
   1   9   3  112.13   12.14
  -1   9  -4   -1.09    2.05
   1   9   4    5.62    3.21
  -1   9  -4    3.76    2.53
   1   9   5    5.70    4.56
  -1   9  -5   -0.25    1.79
   1  10  -5   -0.25    3.58
  -1  10   5   -0.33    2.13
  -1  10   4   67.07    9.91
   1  10  -4   60.19    9.45
   1  10  -3   10.46    4.51
  -1  10   3    0.60    1.74
  -1  10   2  223.02   15.45
   1  10  -2  196.06    9.76
   1  10  -2  231.46   16.26
   1  10  -1    1.72    2.05
   1  10  -1    3.37    2.48
   1  10  -1    7.67    3.31
  -1  10   1    6.05    2.22
   1  10   0    0.56    1.73
   1  10   0    0.84    1.15
  -1  10   0    3.11    2.69
   1  10   1    0.54    1.00
  -1  10  -1    2.41    1.57
   1  10   1   -0.88    2.12
  -1  10  -1    1.64    2.30
  -1  10  -1    2.18    2.16
  -1  10  -2  189.58   10.87
   1  10   2  236.02   17.19
  -1  10  -2  234.95   16.65
   1  10   3   -0.76    2.01
  -1  10  -3    0.13    0.86
  -1  10  -3   -2.53    2.39
  -1  10  -4   46.01    8.17
   1  10   4   46.68    8.87
   1  10   5    8.59    3.90
  -1  10  -5    8.93    4.32
   1  11  -5    2.08    2.40
  -1  11   5    2.17    1.50
  -1  11   4    9.58    3.84
   1  11  -4    9.27    4.22
  -1  11   3   34.12    6.71
   1  11  -3   46.38    7.89
   1  11  -2    5.59    2.82
  -1  11   2    6.32    2.91
   1  11  -1    5.25    2.49
   1  11  -1   -0.82    1.75
   1  11  -1    0.76    1.49
  -1  11   1    2.92    1.88
   1  11   0    4.31    2.83
   1  11   0    2.07    1.75
  -1  11   0    4.60    2.98
  -1  11  -1    3.08    1.56
  -1  11  -1    7.46    2.78
  -1  11  -1    3.45    2.33
  -1  11  -2   -0.12    0.98
   1  11   2    2.14    2.06
  -1  11  -3   22.34    4.26
   1  11   3   24.73    6.10
  -1  11  -3   20.54    5.51
   1  11   4    4.81    3.53
  -1  11  -4    0.34    1.79
  -1  11  -5    2.73    3.01
   1  11   5    1.52    2.06
   1  12  -4    1.41    2.94
  -1  12   4   -0.80    3.09
   1  12  -3   -0.43    1.97
  -1  12   3    0.61    2.70
  -1  12   2   -3.71    2.39
   1  12  -2   -4.04    2.66
   1  12  -1    0.85    2.21
  -1  12   1    2.72    2.35
   1  12  -1    6.13    2.82
   1  12  -1    5.74    2.26
  -1  12   0    0.30    1.85
   1  12   0   -1.52    1.53
   1  12   0   -1.30    2.25
  -1  12   0    1.04    1.67
  -1  12  -1   -0.52    1.38
   1  12   1    1.86    2.85
  -1  12  -1   -0.63    1.74
  -1  12  -2    1.20    1.55
  -1  12  -2   -0.24    1.08
   1  12   2   -1.00    1.95
   1  12   3    2.52    2.25
  -1  12  -3    1.80    2.45
  -1  12  -4    5.78    4.09
   1  12   4    6.66    3.91
  -1  13   4    1.42    2.15
   1  13  -4    4.19    3.15
  -1  13   3    4.37    3.12
   1  13  -3    6.01    2.77
   1  13  -2    1.90    1.55
  -1  13   2    0.01    1.45
   1  13  -1   14.15    4.13
   1  13  -1    7.20    2.62
  -1  13   1    8.69    4.03
   1  13   0    1.59    1.71
  -1  13   0    3.10    2.63
  -1  13   0   -0.07    1.52
   1  13   1   17.08    5.69
  -1  13  -1   14.27    4.23
  -1  13  -1   14.99    3.78
   1  13   2    6.52    4.45
  -1  13  -2    0.77    1.02
   1  13   3    0.90    1.55
  -1  14   3   -0.28    1.85
   1  14  -3   -1.52    1.92
  -1  14   2   11.31    4.51
   1  14  -2    8.44    3.84
  -1  14   1   20.54    5.86
   1  14   0    2.85    3.12
  -1  14   0    1.26    2.46
  -1  14   0    0.03    1.04
  -1  14  -1   30.56    6.06
   1  14   1   30.67    7.19
  -1  14  -1   28.92    5.54
   1  14   2   22.16    6.17
   1  14   3   -2.32    2.36
   1  15  -3    8.01    4.66
  -1  15   2    1.24    1.54
   1  15  -2   -2.01    2.60
  -1  15   1    6.47    3.55
  -1  15   0    2.54    2.39
   1  15   0    0.20    2.19
  -1  15   0    0.97    1.50
   1  15   1    9.83    5.26
   1  15   2    2.02    2.71
  -1  16   1    1.62    2.48
  -1  16   0    2.04    1.85
  -1  16   0    0.27    1.39
   1  16   0   -2.91    2.36
  -2   0   7    5.76    3.72
  -2   0   6   17.57    5.89
   2   0  -6   31.33    6.75
   2   0  -5   -0.04    1.36
   2   0  -4   15.47    3.79
   2   0  -3    2.89    1.74
   2   0  -2   -0.53    0.86
   2   0  -1   -0.89    0.91
  -2   0   1    1.01    1.13
   2   0   0 6482.21   33.54
  -2   0   0 6758.74   34.01
  -2   0  -1    2.69    1.39
   2   0   1    1.04    0.73
  -2   0  -1    0.55    0.56
   2   0   2   16.43    2.39
  -2   0  -2   17.73    3.09
  -2   0  -3   -1.74    1.39
   2   0   3    1.17    1.23
  -2   0  -4    9.87    3.19
   2   0   4    6.64    2.20
  -2   0  -5    1.35    1.85
   2   0   5    0.66    1.51
   2   0   6   46.48    8.03
  -2   1   7   11.03    4.77
  -2  -1   7    9.57    4.17
   2   1  -6   12.14    4.45
  -2   1   6    7.04    3.58
  -2   1   5   19.94    5.20
   2   1  -5   15.99    4.60
   2  -1  -5   14.20    3.82
   2  -1  -4  165.23   11.15
   2   1  -4  152.54   11.74
   2  -1  -3   22.66    3.51
   2   1  -3   21.50    3.90
  -2  -1   2    3.09    0.85
   2   1  -2    3.36    1.41
   2  -1  -2    2.46    1.40
   2   1  -1   85.19    5.63
   2  -1  -1   94.88    5.23
   2   1   0   81.07    3.71
  -2   1   0   76.77    4.07
  -2  -1   0   79.54    4.07
  -2  -1   0   78.12    3.61
   2  -1   0   76.00    4.23
  -2  -1  -1   28.27    2.75
  -2  -1  -1   24.91    3.36
   2   1   1   26.28    2.66
   2  -1   2   18.50    2.34
  -2  -1  -2   19.59    3.35
  -2   1  -2   17.64    2.97
   2   1   2   15.89    2.55
  -2  -1  -3   74.72    7.33
   2   1   3   72.65    6.69
   2  -1   3   65.84    5.75
  -2   1  -3   74.34    7.00
   2  -1   4  162.42   11.11
  -2  -1  -4  166.97   12.42
   2   1   4  174.11   11.94
  -2   1  -4  187.11   12.86
   2   1   5   22.53    4.85
   2  -1   5   21.92    4.95
  -2   1  -5   25.66    5.70
   2  -1   6    3.63    2.51
  -2   1  -6    4.77    3.57
   2   1   6    6.87    3.03
   2   1   7   -0.42    2.34
  -2   2   7   21.29    6.84
   2   2  -7   20.53    6.47
  -2  -2   7   25.78    7.52
   2   2  -6   18.82    5.57
  -2   2   6   25.34    8.55
   2  -2  -5   33.25    5.68
  -2   2   5   31.91    7.04
   2   2  -5   34.02    6.67
   2   2  -4    4.22    1.96
   2  -2  -4    2.22    1.96
  -2   2   4    2.69    1.87
  -2   2   3  168.14   11.42
   2  -2  -3  172.54    9.05
   2   2  -3  168.04   11.01
  -2   2   2  426.22   15.04
   2   2  -2  406.62   14.80
   2  -2  -2  410.24   11.50
  -2  -2   2  411.97    7.80
   2   2  -1    5.37    1.94
  -2   2   1    6.43    1.59
  -2  -2   0  434.81   11.19
   2   2   0  451.69   11.83
   2   2   0  425.69    8.82
  -2  -2   0  429.54    8.55
   2   2   0  431.80   11.59
  -2   2   0  417.63    7.19
   2  -2   0  412.53   11.69
  -2   2   0  412.53   11.13
  -2  -2  -1   25.26    3.06
  -2   2  -1   21.31    2.78
   2   2   1   23.92    2.97
  -2  -2  -1   23.75    2.98
  -2  -2  -2  156.46    9.16
  -2   2  -2  156.09    8.55
   2   2   2  159.84    8.88
  -2   2  -3  136.74    9.44
  -2  -2  -3  136.80    9.84
   2   2   3  128.44    9.24
   2   2   4   20.07    4.24
   2  -2   4   20.29    3.72
  -2  -2  -4   22.77    4.97
  -2   2  -4   18.85    3.61
  -2   2  -5   36.40    6.65
   2   2   5   32.96    5.85
   2  -2   5   30.82    5.49
   2   2   6    0.95    1.28
   2  -2   6    2.74    2.60
  -2   2  -6   -0.73    1.43
   2   2   7    7.92    3.96
   2   3  -7   32.50    7.78
  -2   3   7   31.04    8.50
  -2   3   6    7.11    4.56
   2   3  -6    5.37    3.17
  -2   3   5   10.37    4.01
   2   3  -5    2.92    1.65
   2  -3  -4    5.90    1.81
  -2   3   4    4.81    2.61
   2   3  -4    6.23    2.96
   2  -3  -3   13.95    2.48
   2   3  -3   15.54    3.62
  -2   3   3   12.29    3.22
  -2  -3   3   13.00    2.09
  -2  -3   2  655.18    8.16
  -2   3   2  696.42   19.57
   2   3  -2  690.81   20.70
   2  -3  -2  674.46   13.76
   2   3  -1  113.14    7.23
  -2   3   1  114.09    6.35
  -2   3   0  159.56    5.62
   2   3   0  162.48    8.32
  -2   3   0  166.18    7.99
   2   3   0  162.12    6.05
  -2  -3   0  154.84    7.51
   2   3   0  166.57    7.68
   2  -3   0  163.03    6.11
   2  -3   1   75.22    3.55
  -2   3  -1   97.26    5.92
   2   3   1   73.06    5.80
  -2  -3  -1   76.82    5.44
   2   3   2  761.59   20.97
  -2   3  -2  723.66   18.45
  -2  -3  -2  739.39   20.20
   2   3   3   -1.44    1.97
  -2   3  -3    4.01    2.02
   2   3   4    1.83    1.37
  -2   3  -4    0.91    1.49
  -2   3  -5   48.33    7.37
   2  -3   5   49.24    7.20
   2   3   5   51.99    7.76
   2   3   6    6.45    3.95
   2  -3   6    6.86    3.40
  -2   3  -6    5.28    3.16
   2   3   7    4.15    2.86
   2   4  -7   20.08    6.35
   2   4  -6   43.72    8.19
  -2   4   6   33.11    8.48
   2   4  -5   47.24    8.09
  -2   4   5   47.15    8.26
   2  -4  -4   34.71    4.15
  -2   4   4   29.28    5.73
   2   4  -4   28.20    5.23
   2   4  -3   34.00    5.53
  -2   4   3   27.46    5.05
  -2  -4   3   24.52    2.54
   2  -4  -3   31.94    3.35
   2   4  -2   57.97    6.29
  -2   4   2   63.34    6.05
   2  -4  -2   63.66    3.95
  -2   4   1  626.19   16.49
   2   4  -1  574.82   17.43
  -2   4   0   14.24    2.13
   2   4   0   12.90    2.72
   2  -4   0   11.71    1.90
   2   4   0   11.99    2.65
  -2   4   0    9.94    2.72
   2   4   0   13.72    1.96
   2   4   1  714.15   19.66
   2   4   1  701.82   14.63
   2  -4   1  699.93   13.41
  -2   4  -1  768.10   17.10
   2  -4   2   78.99    5.11
   2   4   2   85.74    7.73
  -2   4  -2   72.76    5.82
   2   4   3   18.59    4.32
  -2   4  -3   15.98    3.32
   2   4   4   21.52    4.80
  -2   4  -4   25.30    4.78
   2   4   5   67.82    8.99
  -2   4  -5   64.62    8.49
  -2   4  -6    6.57    3.71
   2   4   6    4.82    3.08
   2   4   7   29.75    7.67
   2   5  -7   -5.66    4.35
  -2   5   6   12.64    5.32
   2   5  -6   -1.17    2.54
  -2   5   5   55.43    8.94
   2   5  -5   53.10    8.77
  -2   5   4    7.96    3.38
   2   5  -4    8.36    4.00
   2   5  -3   25.22    4.96
  -2  -5   3   22.33    2.62
  -2   5   3   22.74    4.65
   2   5  -3   23.74    2.54
  -2   5   2  155.08    9.79
   2  -5  -2  162.40    5.99
   2   5  -2  161.11   11.06
   2   5  -1   62.74    6.10
  -2   5   1   78.53    6.22
  -2   5   0  647.20   15.25
   2   5   0  620.62   17.03
   2   5   0  656.62   20.02
  -2   5   0  621.44   18.11
   2  -5   1   25.75    2.98
   2   5   1   30.08    5.59
  -2   5  -1   26.53    2.79
  -2   5  -1   33.15    4.18
   2   5   1   29.45    3.24
   2   5   2  165.38    6.49
  -2   5  -2  130.90    7.82
   2   5   2  167.06   11.39
   2   5   3   48.57    6.98
  -2   5  -3   46.88    5.67
   2   5   3   45.32    3.71
   2   5   4    2.52    2.10
  -2   5  -4    0.06    1.52
  -2   5  -5   17.07    4.70
   2   5   5   18.03    5.23
   2   5   6    2.63    3.29
  -2   5  -6    3.43    2.94
   2   5   7    8.31    4.78
  -2   6   6   -1.36    2.32
   2   6  -6    7.97    3.81
   2   6  -5    4.59    2.39
  -2   6   5    6.13    3.43
  -2   6   4   31.29    6.02
   2   6  -4   37.86    6.80
   2   6  -3    0.64    0.44
  -2   6   3   -0.85    2.47
   2   6  -3    1.71    2.10
   2   6  -2    5.36    2.74
  -2   6   2    3.83    1.90
   2  -6  -2    4.50    0.99
  -2   6   1  113.57    8.23
   2   6  -1  107.66    8.38
   2  -6  -1  105.34    6.28
   2   6   0  429.17   17.68
  -2   6   0  433.34   14.10
   2   6   0  434.93   14.84
  -2   6  -1   95.62    6.05
  -2   6  -1  109.86    7.52
   2   6   1  105.80    6.27
   2   6   1  110.35    9.23
   2   6   2    0.22    1.59
  -2   6  -2    1.80    1.03
   2   6   2    1.40    0.94
   2   6   3    0.25    0.60
   2   6   3    2.04    1.96
  -2   6  -3    3.33    1.60
  -2   6  -4    9.90    3.23
   2   6   4    7.91    3.37
  -2   6  -5    1.86    1.73
   2   6   5    3.41    2.93
   2   6   6    6.03    3.38
  -2   6  -6    4.98    3.22
   2   7  -6    7.44    3.95
  -2   7   6   -3.71    1.73
   2   7  -5    0.75    3.61
  -2   7   5    2.55    1.17
  -2   7   4    6.42    2.98
   2   7  -4    9.59    3.92
  -2   7   3  268.58   15.89
   2   7  -3  315.76   18.77
  -2   7   2    6.11    2.60
   2  -7  -2    8.15    1.37
   2   7  -2    4.75    2.36
   2   7  -2    7.37    1.29
   2   7  -1    2.38    1.94
  -2   7   1   -0.86    1.28
   2   7   0    3.76    1.72
   2   7   0    4.26    2.74
  -2   7   0    2.14    1.49
  -2   7  -1   -0.07    0.75
   2   7   1    0.05    1.80
   2   7   1   -1.34    1.03
  -2   7  -1   -0.45    0.96
  -2   7  -2    0.32    1.22
   2   7   2    2.87    1.97
   2   7   2   -0.01    0.61
   2   7   3  182.55   14.64
  -2   7  -3  159.02   10.57
  -2   7  -4   14.52    3.79
   2   7   4   21.85    6.00
  -2   7  -5    7.55    3.09
   2   7   5    9.28    4.20
   2   7   6    6.55    4.23
  -2   8   6    2.15    2.77
   2   8  -6    2.30    2.21
   2   8  -5    3.89    2.94
  -2   8   5    1.90    1.65
  -2   8   4   41.83    7.22
   2   8  -4   47.65    8.52
  -2   8   3    4.22    2.33
   2   8  -3    5.06    2.49
  -2   8   2   19.05    4.23
   2   8  -2   19.97    4.64
   2   8  -2   17.07    2.18
   2   8  -1   47.90    6.53
  -2   8   1   42.09    5.80
   2   8  -1   54.49    6.76
   2   8   0   12.05    3.85
  -2   8   0   10.43    2.33
   2   8   0   13.20    2.98
   2   8   1   39.74    7.18
  -2   8  -1   22.46    3.63
   2   8   1   23.24    3.49
  -2   8  -1   28.03    5.00
  -2   8  -2    1.06    1.42
   2   8   2    2.26    1.11
   2   8   2    3.91    2.77
  -2   8  -3   -0.68    1.67
   2   8   3    0.70    1.82
  -2   8  -4    1.14    1.83
   2   8   4   -0.74    2.01
  -2   8  -5   16.98    4.51
   2   8   5   19.71    6.03
   2   8   6   -0.45    1.75
  -2   9   5   10.79    4.21
   2   9  -5    9.46    4.27
   2   9  -4    7.59    3.87
  -2   9   4    1.25    1.50
  -2   9   3    5.75    3.47
   2   9  -3    3.47    2.46
  -2   9   2    9.48    3.17
   2   9  -2   18.76    4.59
   2   9  -2   16.05    2.40
   2   9  -1   59.12    7.71
   2   9  -1   70.56    8.19
  -2   9   1   63.73    7.17
   2   9   0  631.64   25.87
  -2   9   0  611.10   22.36
   2   9   0  665.24   21.93
  -2   9   0  623.92   21.55
  -2   9  -1   13.35    3.09
   2   9   1   13.79    2.86
   2   9   1   22.11    7.03
  -2   9  -1   28.45    5.79
  -2   9  -2    5.56    1.78
   2   9   2    9.35    3.50
   2   9   3   18.59    4.95
  -2   9  -3   17.23    3.62
  -2   9  -4   10.57    3.58
   2   9   4   12.80    4.90
   2   9   5    2.80    2.70
   2  10  -5    3.10    2.53
  -2  10   5    6.35    3.77
   2  10  -4   10.75    4.23
  -2  10   4   17.78    5.47
   2  10  -3   28.79    6.28
  -2  10   3   25.81    5.52
   2  10  -2    6.07    2.79
  -2  10   2    6.26    2.72
  -2  10   1   20.78    4.94
   2  10  -1   21.32    4.77
   2  10  -1   18.70    4.62
   2  10   0   10.28    3.11
  -2  10   0   15.47    4.36
  -2  10   0   13.56    3.50
   2  10   0   13.66    4.12
  -2  10  -1   19.66    3.98
  -2  10  -1   24.79    5.13
   2  10   1   22.42    3.80
   2  10   1   23.80    6.67
  -2  10  -2   20.74    4.03
   2  10   2   19.83    5.29
  -2  10  -3   21.54    4.50
   2  10   3   25.66    6.10
  -2  10  -4    2.02    1.82
   2  10   4   11.76    5.03
   2  10   5    8.81    5.08
  -2  11   5    5.13    3.36
   2  11  -5    4.70    3.78
  -2  11   4    9.43    4.40
   2  11  -4    3.82    2.89
   2  11  -3    0.42    1.98
  -2  11   3   -0.13    1.44
  -2  11   2   78.58    9.06
   2  11  -2   81.55   10.36
   2  11  -1    2.57    1.91
  -2  11   1    4.07    3.13
   2  11  -1    1.40    1.86
   2  11  -1   -0.06    1.57
   2  11   0   54.36    8.31
  -2  11   0   46.33    6.79
   2  11   0   53.65    6.75
  -2  11   0   48.77    6.89
   2  11   1   19.29    5.43
  -2  11  -1   10.47    3.12
  -2  11  -1   10.78    3.42
   2  11   2  119.41   12.75
  -2  11  -2   84.12    8.09
  -2  11  -3    1.30    1.34
   2  11   3   -1.82    2.74
   2  11   4    5.46    2.83
  -2  12   4    2.88    2.49
   2  12  -4    7.19    4.45
  -2  12   3    8.65    3.80
   2  12  -3    6.66    3.60
   2  12  -2   26.30    6.16
  -2  12   2   18.51    4.88
   2  12  -1   24.50    6.05
  -2  12   1   17.75    4.89
   2  12  -1   12.81    4.10
   2  12   0   20.80    5.54
  -2  12   0   19.72    4.67
   2  12   0   18.99    4.33
  -2  12   0   15.59    4.35
   2  12   1   16.94    5.92
  -2  12  -1   13.55    3.63
  -2  12  -1   11.08    3.36
  -2  12  -2   20.56    4.16
   2  12   2   27.57    6.66
  -2  12  -3    5.65    2.31
   2  12   3    6.69    3.87
   2  12   4   -0.01    1.42
  -2  13   4    1.28    1.79
   2  13  -4    7.74    3.92
  -2  13   3   31.03    6.70
   2  13  -3   27.02    6.81
  -2  13   2    3.80    2.59
   2  13  -2    1.34    1.85
   2  13  -1   17.35    4.71
  -2  13   1   18.86    5.47
   2  13   0   20.77    5.72
  -2  13   0   23.04    5.77
  -2  13   0   21.44    5.00
  -2  13  -1   13.64    3.69
   2  13   1   17.84    5.99
  -2  13  -1   15.64    4.39
  -2  13  -2    6.79    2.44
   2  13   2   11.62    4.71
   2  13   3   25.57    6.60
  -2  14   3    4.70    2.91
   2  14  -3    1.53    1.97
  -2  14   2   -3.78    2.56
   2  14  -2   -2.46    1.89
  -2  14   1   12.47    4.14
   2  14   0  167.99   16.57
  -2  14   0  163.62   14.38
  -2  14   0  144.95   13.72
  -2  14  -1   11.61    3.23
   2  14   1   21.08    6.22
  -2  14  -1   17.65    4.48
  -2  14  -2    3.41    2.22
   2  14   2    0.82    2.25
   2  15  -3    3.14    2.83
   2  15  -2    5.10    3.32
  -2  15   2    1.58    1.99
  -2  15   1    8.38    3.52
  -2  15   1   10.48    3.89
   2  15   0   -3.43    2.57
  -2  15   0   -1.79    1.77
  -2  15   0    1.08    2.86
   2  15   1    0.46    2.32
  -2  15  -1    1.58    2.19
  -2  16   1    0.67    1.75
  -2  16   1   -0.44    1.50
  -2  16   0   10.52    4.16
  -3   0   7   -7.66    4.17
   3   0  -6   36.91    7.72
  -3   0   6   14.72    6.67
   3   0  -5   -1.48    1.51
   3   0  -4    2.35    2.31
   3   0  -3   -2.25    1.88
   3   0  -2    1.33    1.31
   3   0  -1    1.96    1.74
  -3   0   1   -0.70    0.91
   3   0   0   13.09    1.82
  -3   0   0   11.33    1.83
  -3   0  -1    1.23    1.37
   3   0   1    1.26    0.86
  -3   0  -1    0.36    0.50
  -3   0  -2   18.62    2.34
   3   0   2   24.63    2.99
  -3   0  -2   24.20    3.86
   3   0   3    1.11    0.81
  -3   0  -3    0.65    1.84
  -3   0  -4   35.17    6.27
   3   0   4   27.21    4.46
   3   0   5   -1.40    2.14
  -3   0  -5    3.35    3.04
   3   0   6   10.51    3.89
  -3   0  -6   16.01    5.46
  -3  -1   7    9.17    5.21
  -3   1   7    8.33    5.49
   3   1  -6    4.92    3.67
  -3   1   6   -0.53    2.55
   3   1  -5    8.27    3.88
   3  -1  -5    5.32    2.46
  -3   1   5    1.69    2.36
   3  -1  -4   85.99    8.14
   3   1  -4   80.04    8.68
   3  -1  -3   75.31    6.75
   3   1  -3   83.48    7.92
   3  -1  -2  141.59    8.35
   3   1  -2  149.57    9.38
   3   1  -1    7.25    1.98
  -3   1   1   12.34    2.58
  -3  -1   1    5.95    0.85
  -3   1   0    0.70    0.81
   3   1   0    2.48    1.04
  -3  -1   0    1.30    0.87
  -3  -1   0    2.15    1.18
  -3   1  -1    0.08    1.29
   3   1   1    0.52    0.68
  -3  -1  -1    0.90    0.90
  -3  -1  -1    1.08    1.39
   3   1   2   97.11    6.41
   3  -1   2   93.04    4.94
  -3   1  -2   95.44    7.31
  -3  -1  -2  103.21    7.82
   3  -1   3   28.90    3.74
   3   1   3   36.02    4.69
  -3  -1  -3   25.12    4.50
  -3   1  -3   40.99    5.52
   3   1   4   40.41    5.65
  -3  -1  -4   46.92    6.91
  -3   1  -4   40.71    6.36
   3  -1   4   43.10    5.52
   3   1   5   15.42    3.95
  -3   1  -5   21.33    5.42
  -3  -1  -5   17.24    5.04
   3  -1   5   22.72    4.84
   3   1   6   -0.98    1.73
  -3   1  -6    4.70    3.54
  -3  -2   7   14.12    5.46
   3   2  -7   14.89    5.71
   3   2  -6   36.76    7.80
  -3   2   6   29.45    7.53
   3   2  -5   95.88   10.99
   3  -2  -5  101.97   10.01
  -3   2   5   90.37   11.71
   3  -2  -4   11.23    3.18
   3   2  -4    9.79    3.23
  -3   2   4    5.85    2.33
  -3  -2   3   55.56    3.92
   3  -2  -3   68.21    6.15
   3   2  -3   70.88    7.44
   3  -2  -2    0.40    0.99
  -3  -2   2    2.06    0.66
   3   2  -2    1.73    1.21
   3   2  -1  159.10    9.53
  -3  -2   1  166.04    4.58
   3   2   0    2.17    0.89
  -3  -2   0    2.47    0.92
   3   2   0   -0.18    1.24
  -3   2   0    2.95    0.75
  -3   2   0   -0.56    1.50
   3   2   0    4.49    1.97
   3   2   1  108.53    6.67
  -3  -2  -1  109.58    7.23
   3  -2   2   66.38    3.74
   3   2   2   62.07    5.78
  -3   2  -2   67.50    6.11
  -3  -2  -2   64.87    6.31
   3  -2   3   24.87    3.36
  -3  -2  -3   28.69    5.27
  -3   2  -3   25.88    4.51
   3   2   3   26.04    4.13
   3   2   4    6.95    2.67
  -3   2  -4    4.78    2.45
   3  -2   4    7.72    2.54
  -3  -2  -4    9.19    3.53
  -3   2  -5   21.56    5.07
   3  -2   5   20.81    4.76
  -3  -2  -5   21.86    5.87
   3   2   5   19.93    4.63
   3   2   6    9.33    4.03
  -3   2  -6   -3.36    2.28
  -3   2  -7   17.64    5.93
   3   3  -7    4.79    3.43
   3   3  -6    9.79    4.51
  -3   3   6    7.71    4.58
  -3   3   5    0.84    2.91
   3   3  -5    0.95    2.21
   3   3  -4   50.26    7.42
  -3   3   4   56.19    7.99
   3  -3  -4   64.14    6.65
   3  -3  -3   27.54    3.81
  -3   3   3   21.71    4.34
  -3  -3   3   22.36    2.17
   3   3  -3   28.23    5.48
   3  -3  -2    0.98    1.35
  -3   3   2    0.34    1.00
   3   3  -2    1.18    1.68
   3   3  -1   43.94    5.28
  -3   3   1   41.89    3.92
   3   3   0   -0.73    1.33
   3   3   0   -0.09    1.22
  -3   3   0    1.05    0.62
  -3  -3   0   -0.23    0.52
   3   3   0    0.63    0.60
  -3   3   0    1.38    1.25
  -3   3  -1    5.24    2.92
  -3  -3  -1    2.33    2.87
   3   3   1    1.49    1.39
  -3   3  -2    1.07    1.21
   3   3   2    0.24    1.09
  -3  -3  -2    1.87    1.51
   3  -3   3   43.50    4.13
  -3  -3  -3   47.46    6.27
  -3   3  -3   41.99    5.43
   3   3   3   44.28    5.97
   3   3   4   52.81    7.29
  -3  -3  -4   48.08    7.27
  -3   3  -4   51.32    7.13
   3  -3   4   56.90    6.05
   3   3   5    3.99    2.31
   3  -3   5    1.26    1.15
   3   3   6    5.25    2.50
  -3   3  -6    6.49    4.13
  -3   3  -7    1.32    2.35
   3   4  -7   35.42    8.41
   3   4  -6    4.04    3.58
  -3   4   6   11.30    5.93
  -3   4   5    2.35    2.09
   3   4  -5    0.28    2.27
   3   4  -4   36.23    6.53
  -3   4   4   37.73    6.82
   3  -4  -4   39.46    4.99
  -3   4   3  146.70   11.11
  -3  -4   3  121.23    3.72
   3   4  -3  134.50   11.30
   3  -4  -3  140.91    7.99
   3  -4  -2   23.39    3.14
  -3   4   2   18.07    3.29
   3   4  -2   20.74    4.44
   3   4  -1    8.29    2.78
  -3   4   1   10.56    2.14
   3   4  -1    9.72    0.87
   3   4   0   15.78    2.31
   3  -4   0   15.32    2.21
   3   4   0   14.41    2.70
   3   4   0   11.74    2.44
  -3   4   0   16.03    2.08
  -3   4   0   17.50    3.21
   3   4   1    3.67    1.79
  -3   4  -1    2.62    1.71
   3   4   1    1.20    1.45
   3  -4   1    1.57    0.49
   3   4   2   28.21    4.43
  -3   4  -2   24.51    3.77
   3  -4   2   23.71    2.49
   3   4   3  108.06   10.01
  -3   4  -3   92.23    8.26
  -3   4  -4    4.58    2.37
   3   4   4    3.55    2.97
   3  -4   4    1.67    1.38
   3   4   5   -1.42    2.21
  -3   4  -5    0.63    1.63
   3   4   6    7.90    3.38
  -3   4  -6    9.19    3.65
   3   4   7   16.57    5.86
  -3   4  -7   14.52    5.04
   3   5  -7    7.32    4.91
   3   5  -6    9.53    5.14
  -3   5   6    0.97    2.21
  -3   5   5   -1.03    1.70
   3   5  -5    0.47    2.86
   3   5  -4   38.16    6.91
  -3   5   4   36.19    6.51
  -3   5   3   47.33    6.66
   3  -5  -3   64.39    5.13
   3   5  -3   64.89    8.56
   3  -5  -2   83.73    5.60
   3   5  -2   73.79    7.87
  -3   5   2   78.26    7.07
  -3   5   1   40.96    4.42
   3   5  -1   39.24    5.54
   3   5  -1   39.20    2.47
   3   5   0    2.20    1.91
  -3   5   0    2.16    0.96
   3   5   0    1.95    1.60
  -3   5   0    3.15    2.14
  -3   5  -1   34.82    2.67
   3  -5   1   37.33    3.10
   3   5   1   39.93    5.59
  -3   5  -1   36.78    4.76
   3   5   1   42.64    4.73
  -3   5  -2   31.42    4.31
   3  -5   2   36.90    3.50
   3   5   2   35.32    3.69
   3   5   2   36.22    5.38
  -3   5  -3    4.75    2.45
   3   5   3    5.37    2.41
   3   5   4   67.51    9.02
  -3   5  -4   53.04    7.06
  -3   5  -5    1.84    1.95
   3   5   5    6.23    3.56
   3   5   6    9.68    4.79
  -3   5  -6    1.04    2.12
   3   5   7    5.17    3.81
  -3   6   6   16.07    5.94
   3   6  -6   17.91    5.96
  -3   6   5   18.10    5.47
   3   6  -5   16.25    5.46
   3   6  -4    1.94    2.57
  -3   6   4    6.55    3.06
  -3   6   3   17.65    4.13
   3   6  -3   31.41    6.63
   3  -6  -3   24.04    2.92
   3   6  -2    9.88    3.76
  -3   6   2    4.33    1.79
  -3   6   1  495.39   16.19
   3   6  -1  483.87   20.25
   3   6   0   -1.47    1.39
  -3   6   0    0.29    0.83
   3   6   0    0.81    1.03
  -3   6   0    2.31    2.09
  -3   6  -1  282.87    9.27
   3   6   1  414.26   18.80
   3  -6   1  275.54    9.80
  -3   6  -1  370.48   15.26
   3   6   1  297.18   13.40
   3   6   2   11.86    2.22
   3   6   2    5.96    2.31
  -3   6  -2    9.01    2.16
   3   6   3   19.11    5.40
  -3   6  -3   17.50    3.40
   3   6   3   16.57    2.54
  -3   6  -4    1.39    1.87
   3   6   4   -2.29    2.65
   3   6   5    8.47    4.51
  -3   6  -5   11.26    3.59
   3   6   6   25.52    6.67
  -3   6  -6   19.82    5.01
  -3   7   6    7.94    3.89
   3   7  -6    5.62    3.89
  -3   7   5   19.16    5.66
   3   7  -5   25.23    6.71
  -3   7   4   30.24    5.98
   3   7  -4   32.19    7.03
  -3   7   3   21.29    4.46
   3   7  -3   29.90    6.26
   3   7  -2   28.42    5.86
  -3   7   2   20.97    4.03
   3   7  -1   -0.29    0.39
   3   7  -1   -2.26    1.37
   3   7   0    8.85    3.13
  -3   7   0    7.18    1.94
   3   7   0    4.55    1.92
  -3   7   0    9.06    3.43
   3   7   1   10.15    3.76
  -3   7  -1    9.04    1.92
   3   7   1   11.41    2.71
  -3   7  -1    8.76    2.89
  -3   7  -2   23.67    3.79
   3   7   2   27.02    5.22
   3   7   2   33.83    3.85
  -3   7  -3   19.21    4.18
   3   7   3   25.03    6.00
   3   7   4   30.62    6.98
  -3   7  -4   30.00    5.68
   3   7   5    3.44    3.23
  -3   7  -5    3.55    2.06
   3   7   6    0.45    1.97
  -3   7  -6   -2.88    2.46
   3   8  -6   14.84    6.04
  -3   8   5    2.61    2.64
   3   8  -5    4.72    3.40
  -3   8   4    0.09    1.24
   3   8  -4    1.93    2.49
   3   8  -3   -2.63    3.09
  -3   8   3    1.55    2.01
  -3   8   2    5.03    2.95
   3   8  -2    3.06    2.93
   3   8  -1   33.83    5.95
  -3   8   1   41.17    5.59
   3   8   0    1.54    1.43
  -3   8   0    2.77    1.27
  -3   8   0    3.60    2.59
   3   8   0    0.20    1.88
  -3   8  -1   35.74    4.18
   3   8   1   42.54    7.52
   3   8   1   39.80    4.82
  -3   8  -1   35.23    5.52
  -3   8  -2    2.61    1.95
   3   8   2    1.50    1.27
  -3   8  -3   -0.16    1.39
   3   8   3   -0.70    1.52
   3   8   4   -1.14    2.74
  -3   8  -4   -0.56    1.29
   3   8   5    9.66    4.73
  -3   8  -5   -0.16    1.89
   3   8   6   11.85    5.18
  -3   9   5   -4.43    3.69
   3   9  -5    3.70    2.61
   3   9  -4   10.21    4.10
  -3   9   4    5.08    2.75
  -3   9   3    4.07    2.33
   3   9  -3    7.05    3.36
   3   9  -2   14.14    3.71
  -3   9   2   12.16    3.70
  -3   9   1   24.00    4.23
   3   9  -1   23.65    4.91
   3   9   0    1.65    2.01
   3   9   0    2.12    2.87
  -3   9   0    0.15    1.39
  -3   9   0    1.04    1.95
   3   9   1    7.66    4.44
  -3   9  -1    4.88    1.97
  -3   9  -1    3.75    2.57
   3   9   1    5.63    1.95
  -3   9  -2    2.75    1.90
   3   9   2   -0.21    1.62
  -3   9  -3   -2.19    2.16
   3   9   3    8.45    4.04
  -3   9  -4    3.78    2.68
   3   9   4    6.91    4.32
   3   9   5    2.52    2.33
  -3   9  -5    0.03    1.39
  -3  10   5    2.67    1.66
   3  10  -5    2.80    2.04
  -3  10   4    2.97    2.12
   3  10  -4    6.66    3.92
  -3  10   3    4.80    2.93
   3  10  -3    5.27    3.57
  -3  10   2    4.31    2.01
   3  10  -2    4.02    3.25
   3  10  -1    3.10    1.55
  -3  10   1   -0.06    0.94
   3  10   0    0.62    0.97
   3  10   0    4.54    3.19
  -3  10   0    3.01    1.91
  -3  10   0    3.34    2.55
   3  10   1   -0.54    1.61
   3  10   1    0.72    1.58
  -3  10  -1   -0.71    0.76
  -3  10  -1   -0.62    1.44
  -3  10  -2    6.67    2.44
   3  10   2    0.45    1.57
  -3  10  -3    5.37    2.34
   3  10   3    1.66    1.86
   3  10   4    0.71    2.79
  -3  10  -4    3.10    2.09
   3  10   5   10.37    5.27
   3  11  -4   20.56    6.04
  -3  11   4   12.64    4.61
  -3  11   3    3.28    2.49
   3  11  -3    9.33    4.38
  -3  11   2    0.98    1.12
   3  11  -2   -1.52    1.64
  -3  11   1   19.53    4.50
   3  11  -1   16.84    5.01
   3  11   0   -3.47    3.53
  -3  11   0    0.91    1.81
   3  11   0   -1.20    1.31
  -3  11   0    0.39    2.04
  -3  11  -1   13.40    3.20
   3  11   1   17.03    5.45
  -3  11  -1   19.04    4.93
  -3  11  -2    0.91    1.56
   3  11   2    7.14    4.83
   3  11   3   -6.80    4.02
  -3  11  -3   -0.04    0.98
  -3  11  -4    1.73    1.86
   3  11   4    6.92    5.06
  -3  12   4   -2.61    3.25
   3  12  -4    0.04    2.60
  -3  12   3    1.11    1.16
   3  12  -3    1.67    2.71
  -3  12   2   -2.89    1.85
   3  12  -2    1.98    4.33
  -3  12   1   -1.42    1.70
   3  12  -1    2.23    1.98
  -3  12   0    1.00    1.49
   3  12   0    3.48    2.47
   3  12   0    3.26    1.78
  -3  12   0    0.77    1.95
  -3  12  -1    1.14    1.03
  -3  12  -1   -0.27    1.10
  -3  12  -2    4.76    2.27
   3  12   2    3.26    3.01
  -3  12  -3    2.83    1.78
   3  12   3    4.12    3.45
   3  12   4   -0.56    2.31
  -3  13   4   17.05    5.41
   3  13  -3    2.29    3.18
  -3  13   3   -1.61    2.29
   3  13  -2    0.26    1.24
  -3  13   2    1.61    1.91
  -3  13   1    1.76    1.98
  -3  13   1    6.21    2.98
   3  13  -1    1.36    2.37
   3  13   0   -1.16    1.57
  -3  13   0   -0.96    1.86
  -3  13   0    0.71    1.89
   3  13   1   -0.02    1.86
  -3  13  -1   -2.52    2.06
  -3  13  -2    2.13    2.02
   3  13   2    3.50    3.97
   3  13   3   20.96    7.17
  -3  13  -3   13.15    3.98
  -3  14   3    3.24    2.99
   3  14  -3    7.24    4.25
  -3  14   2    1.75    2.23
   3  14  -2    2.06    1.81
  -3  14   1   52.84    8.22
  -3  14   1   51.08    9.56
   3  14   0   10.87    4.51
  -3  14   0   13.71    3.96
  -3  14   0   12.23    4.70
   3  14   1   57.86   10.93
  -3  14  -1   49.04    8.15
  -3  14  -2    0.49    1.46
   3  14   2    6.31    4.09
  -3  15   2    1.93    2.42
   3  15  -2   -4.64    3.11
  -3  15   1    6.28    3.67
  -3  15   1    5.54    3.10
   3  15   0    0.27    2.65
  -3  15   0   -0.01    2.41
  -3  15  -1   -0.76    1.66
  -3  15  -2    0.78    1.71
  -3  16   0    7.53    3.80
  -3  16  -1   -4.06    3.06
   4   0  -6    2.46    3.69
   4   0  -5   -0.09    1.60
   4   0  -4   13.83    3.69
   4   0  -3    1.28    1.86
   4   0  -2   57.47    6.17
  -4   0   1    0.52    0.62
   4   0  -1    3.81    2.25
  -4   0   0  751.11   14.04
  -4   0   0  783.79   17.01
   4   0   1   -1.01    0.81
  -4   0  -1   -0.15    1.26
  -4   0  -1   -0.24    0.46
   4   0   2   94.65    5.39
  -4   0  -2   99.55    8.11
  -4   0  -2   91.30    4.79
   4   0   3   -0.20    0.83
  -4   0  -3   -0.05    1.41
   4   0   4   36.06    5.23
  -4   0  -4   34.48    6.52
   4   0   5    0.18    1.09
  -4   0  -5    1.78    2.11
  -4   0  -6    8.49    4.05
  -4   1   6    6.35    3.56
   4   1  -6    6.19    3.13
   4   1  -5    2.21    2.13
   4  -1  -5    1.64    2.05
   4  -1  -4   68.97    7.77
   4   1  -4   64.87    8.07
   4  -1  -3  150.64   10.45
   4   1  -3  146.41   11.03
   4  -1  -2   13.43    3.20
   4   1  -2    9.64    3.01
  -4  -1   2   13.22    2.21
  -4  -1   1  125.20    5.76
  -4   1   1  127.83    7.84
   4   1  -1  154.96   10.55
  -4   1   0  265.33   10.13
  -4  -1   0  287.57   10.27
  -4  -1  -1  131.49    6.74
  -4   1  -1  160.25    9.30
  -4  -1  -1  150.00    8.97
   4   1   1  129.02    6.98
  -4   1  -2    2.94    2.26
   4   1   2    1.29    0.92
  -4  -1  -2    2.55    2.12
   4  -1   2   -0.03    0.35
   4  -1   3  232.55   10.16
   4   1   3  231.76   12.01
  -4   1  -3  229.57   13.69
  -4  -1  -3  229.24   13.87
   4   1   4    3.08    1.91
  -4   1  -4    4.01    2.61
   4  -1   4    1.97    1.36
  -4  -1  -4    0.91    1.51
   4   1   5    1.05    1.53
  -4   1  -5   -0.06    1.67
  -4   1  -6    5.64    4.59
  -4  -1  -6   13.00    5.25
  -4   2   6    1.92    1.95
   4   2  -6    7.68    3.54
   4   2  -5    8.02    3.63
  -4   2   5    9.86    4.19
   4  -2  -5   11.94    3.93
   4   2  -4    6.45    3.74
   4  -2  -4    6.21    2.53
   4  -2  -3   30.48    4.75
   4   2  -3   28.51    5.26
  -4  -2   3   23.92    2.55
   4  -2  -2    0.58    1.05
  -4  -2   2    0.39    0.33
   4   2  -1   67.52    4.08
  -4   2   1   73.23    7.15
   4   2  -1   84.91    8.35
  -4  -2   1   94.46    4.58
  -4   2   0  210.72    9.64
  -4  -2   0  232.31    8.83
   4   2   1   62.78    5.58
  -4   2  -1   83.45    6.61
  -4  -2  -1   81.43    6.64
   4   2   2   12.92    2.60
   4  -2   2   10.22    1.10
  -4  -2  -2    9.36    2.26
  -4   2  -2    9.53    2.96
  -4   2  -3    0.54    1.30
   4   2   3   -1.13    1.61
   4  -2   3   -0.73    0.88
  -4  -2  -3    0.96    2.00
  -4   2  -4   -1.37    1.58
   4   2   4    5.00    2.97
   4  -2   4    0.26    0.76
  -4  -2  -4    7.23    3.29
   4   2   5   11.69    3.52
  -4  -2  -5   13.50    4.17
  -4   2  -5    6.86    3.09
  -4   2  -6   10.40    5.04
   4   3  -7    7.73    3.90
  -4   3   6    8.71    4.26
   4   3  -6    6.87    3.64
   4   3  -5   26.18    6.42
  -4   3   5   28.61    6.76
   4   3  -4    4.15    2.96
  -4   3   4   -1.78    2.88
   4  -3  -4    1.41    1.44
   4  -3  -3   27.46    4.19
  -4   3   3   28.16    5.22
  -4  -3   3   31.92    2.31
  -4  -3   3   23.76    1.75
   4   3  -3   21.20    4.41
  -4   3   2  325.52   14.05
   4  -3  -2  337.09   14.02
   4   3  -2  322.62   16.34
   4   3  -1    7.59    2.55
  -4  -3   1    6.74    1.07
  -4   3   1    5.35    1.53
  -4   3   1    6.31    2.68
   4   3  -1    4.89    1.01
   4   3   0   -0.71    1.00
  -4  -3   0   -1.48    0.86
  -4   3   0    0.68    0.59
  -4   3   0   -1.62    1.72
  -4   3  -1    7.01    2.43
  -4  -3  -1    5.31    1.64
   4   3   1    5.38    2.36
   4   3   2  154.15    9.81
  -4   3  -2  148.34    9.73
  -4  -3  -2  165.93   10.88
   4   3   3   54.66    6.51
  -4   3  -3   43.60    6.11
   4  -3   3   59.82    4.45
  -4  -3  -3   57.94    7.28
   4   3   4    1.23    1.76
  -4  -3  -4    2.88    3.23
  -4   3  -4    0.67    1.34
   4   3   5   68.29    9.20
  -4   3  -5   64.35    9.14
   4   3   6    0.78    1.47
  -4   3  -6    0.09    1.92
   4   4  -7   19.33    6.70
  -4   4   6    4.22    3.70
   4   4  -6    4.09    3.43
  -4   4   5   57.33    9.93
   4   4  -5   63.31    9.90
   4   4  -4    2.40    3.25
  -4   4   4    3.02    2.42
   4  -4  -4    7.22    2.41
  -4   4   3   -0.90    1.23
   4  -4  -3    1.46    1.84
   4   4  -3   -1.47    2.21
  -4   4   2   87.20    7.43
   4  -4  -2   94.81    7.27
   4   4  -2   96.69    9.24
  -4   4   1  156.91    8.11
  -4   4   1  149.12   10.39
   4   4  -1  135.48    4.39
   4   4  -1  164.31   11.46
  -4   4   0  141.25    5.69
   4   4   0  148.60    9.75
  -4   4   0  146.59    9.29
   4   4   0  148.34    9.63
  -4  -4   0  152.98    7.05
   4   4   1  152.25   10.06
   4   4   1  176.08    9.97
  -4   4  -1  161.40    9.97
  -4  -4  -1  170.65    9.43
   4   4   2   98.67    8.32
  -4   4  -2   90.89    7.59
  -4  -4  -2  101.97    8.44
  -4   4  -3    1.21    1.55
   4   4   3   -0.97    1.69
   4  -4   3   -0.36    0.65
  -4   4  -4    1.97    2.27
   4   4   4    5.84    3.13
   4   4   5   12.49    4.53
  -4   4  -5    8.25    3.27
   4   4   6   -0.46    1.10
  -4   4  -6   -0.77    1.69
  -4   5   6   -0.72    1.85
   4   5  -6   -2.43    3.02
   4   5  -5    1.23    1.87
  -4   5   5    0.11    1.85
  -4   5   4    5.47    3.10
   4   5  -4    2.76    2.29
   4  -5  -3    4.25    1.82
  -4   5   3    1.71    2.48
   4   5  -3    2.54    1.70
  -4   5   2   99.14    7.85
   4   5  -2  108.55   10.15
   4   5  -1    6.42    3.02
  -4   5   1    0.81    0.92
  -4   5   1    4.42    2.69
  -4   5   0   40.95    3.56
   4   5   0   42.19    5.74
   4   5   0   35.60    4.73
  -4   5   0   34.24    4.85
  -4   5  -1    6.23    2.23
   4   5   1    7.14    2.45
   4   5   1    7.37    2.76
   4  -5   1    4.46    0.89
   4   5   2   69.37    7.56
   4  -5   2   59.11    2.76
  -4   5  -2   60.38    6.30
  -4   5  -3    8.56    2.98
   4   5   3   13.95    4.22
  -4   5  -4    6.46    2.78
   4   5   4    9.98    3.46
   4   5   5   -0.84    2.44
  -4   5  -5   -0.46    1.38
   4   5   6    8.52    4.24
  -4   5  -6   10.62    4.08
  -4   6   6    8.56    5.28
   4   6  -6   16.20    7.57
  -4   6   5    1.60    1.83
   4   6  -5   -2.14    2.04
  -4   6   4   10.68    3.97
   4   6  -4    9.62    3.83
   4   6  -3    8.62    4.29
  -4   6   3   13.16    3.79
   4  -6  -3   10.97    2.67
  -4   6   2   34.12    4.74
   4   6  -2   41.17    6.55
  -4   6   1   17.61    2.95
   4   6  -1   19.67    4.56
   4   6  -1   16.64    1.91
   4   6   0  192.84   12.97
  -4   6   0  186.44    8.26
  -4   6   0  195.71   12.12
   4   6   0  197.23   11.74
  -4   6  -1    9.33    1.41
   4   6   1   18.71    4.57
   4  -6   1    7.83    1.49
   4   6   1   11.37    2.80
  -4   6  -1    5.69    2.62
   4   6   2   77.65    8.75
   4   6   2   85.03    6.84
  -4   6  -2   74.45    7.12
  -4   6  -3    2.00    1.34
   4   6   3    2.32    2.56
  -4   6  -4   22.16    5.10
   4   6   4   34.33    7.37
  -4   6  -5    4.80    3.34
   4   6   5    6.48    2.99
  -4   6  -6   12.28    4.63
   4   6   6   14.61    5.80
  -4   7   6    2.40    2.66
   4   7  -6    2.23    2.17
  -4   7   5   -3.42    3.42
   4   7  -5    6.62    4.04
   4   7  -4   10.65    3.92
  -4   7   4    9.32    3.49
   4   7  -3    5.25    3.36
  -4   7   3    0.91    1.08
  -4   7   2    3.52    1.52
   4   7  -2   -4.04    3.03
   4   7  -1    6.86    1.41
  -4   7   1    5.42    2.17
   4   7  -1    3.68    2.09
   4   7   0    3.34    1.93
  -4   7   0    4.17    1.37
   4   7   0    1.43    1.31
  -4   7   0    2.74    2.52
  -4   7  -1    2.14    0.98
   4   7   1    3.62    3.21
   4   7   1    3.97    2.25
  -4   7  -1    1.76    1.54
   4   7   2   -0.40    0.84
  -4   7  -2    0.22    1.70
   4   7   2   -0.61    2.47
  -4   7  -3    9.57    3.40
   4   7   3   13.07    4.84
   4   7   4    1.76    2.27
  -4   7  -4   -1.74    1.50
  -4   7  -5    3.24    2.43
   4   7   5    5.51    2.98
   4   7   6   -1.20    2.31
  -4   7  -6    0.01    1.42
  -4   8   5    1.13    1.36
   4   8  -5    5.11    3.25
   4   8  -4    6.10    3.37
  -4   8   4    5.01    2.99
  -4   8   3   10.03    3.19
   4   8  -3    9.28    3.56
   4   8  -2    3.18    3.03
  -4   8   2    5.13    2.17
  -4   8   1    1.34    1.78
   4   8  -1   -0.99    2.67
  -4   8   0  705.31   19.51
   4   8   0  693.92   27.42
  -4   8   0  641.75   23.60
   4   8   0  704.55   24.14
  -4   8  -1    2.82    1.17
   4   8   1    5.84    3.57
   4   8   1    5.24    2.04
  -4   8  -1    2.96    2.00
  -4   8  -2    2.95    2.08
   4   8   2    6.75    3.39
   4   8   2    2.50    1.20
  -4   8  -3   10.39    3.46
   4   8   3   15.47    4.78
  -4   8  -4   30.90    5.86
   4   8   4   36.22    7.00
  -4   8  -5    5.82    2.82
   4   8   5    6.12    3.17
   4   8   6   12.74    5.32
  -4   8  -6    4.53    3.10
  -4   9   5   23.37    6.23
   4   9  -5   35.07    8.12
  -4   9   4    8.32    3.09
   4   9  -4   10.59    4.61
   4   9  -3    5.89    3.67
  -4   9   3    1.75    1.82
   4   9  -2    2.44    2.21
  -4   9   2    4.97    2.59
   4   9  -1    9.05    3.68
  -4   9   1    6.99    2.63
  -4   9   1   12.89    4.90
   4   9   0   95.80   10.81
  -4   9   0   90.71    7.50
  -4   9   0   95.27    9.71
   4   9   0   95.31    9.08
  -4   9  -1   12.07    2.51
   4   9   1   11.83    2.88
   4   9   1   14.41    4.52
  -4   9  -1    5.89    2.77
  -4   9  -2    3.04    2.21
   4   9   2    1.89    2.64
  -4   9  -3   -2.05    1.75
   4   9   3    5.28    2.91
  -4   9  -4    6.61    3.68
   4   9   4    7.56    3.81
  -4   9  -5   13.97    4.33
   4   9   5   23.70    6.50
  -4  10   5    4.09    3.35
   4  10  -5    6.43    4.96
  -4  10   4    3.56    2.77
   4  10  -4    0.21    3.13
  -4  10   3   13.27    4.11
   4  10  -3   17.00    4.88
   4  10  -2   30.76    6.85
  -4  10   2   27.22    5.12
   4  10  -1   27.87    5.81
  -4  10   1   21.50    4.20
  -4  10   1   27.80    6.51
  -4  10   0   63.15    6.68
   4  10   0   67.05    9.35
  -4  10   0   66.23    8.19
   4  10   0   68.05    8.11
   4  10   1   12.54    4.88
   4  10   1    3.42    1.97
  -4  10  -1    9.28    3.58
  -4  10  -2   41.32    6.12
   4  10   2   59.24    9.58
  -4  10  -3   11.54    3.65
   4  10   3   12.43    3.83
  -4  10  -4    7.63    3.43
   4  10   4   10.17    4.68
  -4  10  -5    0.89    1.44
   4  10   5    2.05    3.75
  -4  11   4    3.01    2.83
   4  11  -4    4.40    3.52
  -4  11   3    0.28    1.12
   4  11  -3    1.61    1.57
   4  11  -2   61.44    9.53
  -4  11   2   45.77    6.79
   4  11  -1    1.17    2.26
  -4  11   1    3.69    2.20
  -4  11   1    7.47    4.55
   4  11   0    3.76    2.33
  -4  11   0    5.01    2.27
   4  11   0    2.39    2.34
  -4  11   0    3.31    2.76
   4  11   1    5.81    3.38
  -4  11  -1    2.39    2.37
  -4  11  -2   14.06    3.90
   4  11   2   22.74    6.72
  -4  11  -3   -2.81    2.59
   4  11   3    4.37    2.79
   4  11   4    3.39    2.77
  -4  11  -4   -2.77    2.36
  -4  12   4    1.85    1.56
   4  12  -4    5.30    4.15
  -4  12   3    0.97    1.82
   4  12  -3   -0.84    2.77
  -4  12   2    4.16    2.03
   4  12  -2    2.12    2.49
  -4  12   1   16.77    4.53
   4  12  -1   19.35    6.20
  -4  12   1   18.04    5.81
   4  12   0   58.85    9.63
   4  12   0   59.19    8.08
  -4  12   0   54.95    7.95
   4  12   1   39.05    8.18
  -4  12  -1   35.26    6.27
  -4  12  -2    5.32    2.99
   4  12   2    1.28    2.05
  -4  12  -3    2.02    1.90
   4  12   3    3.91    3.27
  -4  12  -4    4.32    2.60
  -4  13   3    6.43    3.05
   4  13  -3    7.28    3.94
  -4  13   2    3.87    2.50
   4  13  -2    5.50    2.51
  -4  13   1    5.37    2.77
   4  13  -1   10.26    4.46
  -4  13   1   14.13    5.01
   4  13   0   12.31    4.31
  -4  13   0   11.18    4.14
  -4  13  -1   15.48    4.48
   4  13   1   12.76    5.03
  -4  13  -2   -1.61    1.62
   4  13   2    4.01    2.79
   4  13   3    4.01    3.64
  -4  13  -3    6.74    2.83
   4  14  -3    3.71    3.88
  -4  14   3   -4.05    2.70
  -4  14   2    1.17    1.45
   4  14  -2  -14.14    5.11
  -4  14   1    7.77    3.77
   4  14   0   -0.84    2.90
  -4  14   0   -0.03    2.33
   4  14   1    7.42    4.00
  -4  14  -1    5.35    2.73
  -4  14  -2   -0.86    1.30
  -4  14  -3   -1.49    2.34
   4  15  -2   -1.53    1.96
  -4  15   0   16.07    5.05
  -4  15  -1    2.99    1.63
  -4  15  -2    5.86    3.14
   5   0  -6    2.52    2.89
   5   0  -5    1.01    1.68
   5   0  -4    5.81    2.86
   5   0  -3    0.09    1.87
   5   0  -2   39.76    5.96
  -5   0   2   52.72    5.11
  -5   0   1    0.87    1.06
   5   0  -1    2.70    2.17
  -5   0   0   14.97    2.57
  -5   0  -1   -0.77    1.00
  -5   0  -1   -0.56    0.66
   5   0   2  124.56    6.58
  -5   0  -2  107.75    5.21
  -5   0  -2  112.90    9.10
   5   0   3   -0.30    0.72
  -5   0  -3    1.24    2.13
  -5   0  -4   23.07    5.12
  -5   0  -5   -1.71    1.91
  -5   0  -6    5.39    3.87
   5   1  -6    6.59    3.89
  -5   1   6    5.70    4.02
   5  -1  -5   33.55    6.37
   5   1  -5   36.96    7.10
   5  -1  -4    3.78    2.15
   5   1  -4    4.85    2.61
  -5  -1   3  169.71    8.79
   5  -1  -3  157.04   11.60
   5   1  -3  149.33   12.23
   5  -1  -2   18.12    3.72
   5   1  -2   21.96    4.32
  -5   1   2   29.02    4.22
  -5  -1   2   19.17    2.58
   5   1  -1   28.35    4.90
  -5   1   1   28.93    3.92
  -5  -1   1   27.40    3.11
  -5   1   0    0.93    1.07
  -5  -1   0    2.92    1.49
   5   1   1    0.12    1.15
  -5  -1  -1    7.15    2.68
  -5   1  -1    5.76    2.38
   5  -1   2   44.02    3.08
   5   1   2   40.28    4.39
  -5   1  -2   36.09    5.19
  -5  -1  -2   36.12    5.24
   5   1   3   53.91    5.51
   5  -1   3   52.98    4.36
  -5   1  -3   55.80    7.13
  -5  -1  -3   62.02    7.74
   5   1   4    8.19    2.87
  -5   1  -4    4.45    1.54
  -5  -1  -4    5.07    2.65
  -5   1  -5   17.03    5.11
  -5  -1  -5   26.43    6.50
  -5   1  -6    3.75    3.55
  -5  -1  -6    6.70    3.94
   5   2  -6    6.82    4.56
  -5   2   6    8.17    4.63
   5  -2  -5    4.08    2.67
   5   2  -5    6.78    4.05
  -5   2   5    3.95    2.94
   5  -2  -4   21.44    4.77
   5   2  -4   10.11    3.22
   5  -2  -3    1.04    2.03
   5   2  -3   -1.22    1.85
  -5  -2   3    2.81    1.15
   5  -2  -2   18.84    4.18
   5   2  -2   18.75    4.62
  -5  -2   2   18.37    2.14
  -5   2   2   23.52    4.36
  -5   2   1  122.20    8.67
   5   2  -1  142.45   11.14
  -5  -2   1  152.11    7.09
  -5   2   0    5.20    1.74
  -5  -2   0    5.98    1.83
   5   2   1   92.63    7.08
  -5   2  -1  112.60    8.67
  -5  -2  -1  124.25    9.01
   5   2   2   99.09    7.33
  -5   2  -2   91.56    8.34
  -5  -2  -2   98.55    8.57
  -5   2  -3    9.34    3.53
   5   2   3    8.54    2.72
  -5  -2  -3   10.96    2.96
   5   2   4    2.49    2.01
  -5   2  -4    2.70    2.63
  -5  -2  -4    5.70    3.48
  -5   2  -5   38.22    7.10
  -5  -2  -5   34.56    7.20
  -5   2  -6   18.45    6.27
  -5  -2  -6   25.32    7.28
   5   3  -7   10.86    4.83
   5   3  -6    8.48    4.35
  -5   3   6    9.26    4.57
   5   3  -5    1.08    2.16
  -5   3   5   -2.41    3.15
  -5   3   4    1.48    1.91
   5  -3  -4    2.74    1.69
   5   3  -4   -3.09    3.05
  -5   3   3  101.55    9.88
   5  -3  -3   96.49    8.58
   5   3  -3   99.46   10.27
   5  -3  -2   11.09    3.11
   5   3  -2   16.61    4.53
  -5   3   2   14.55    3.14
  -5  -3   2   14.55    1.37
  -5   3   1   40.20    5.00
   5   3  -1   38.42    3.39
   5   3  -1   47.28    7.99
  -5  -3   1   42.87    3.64
  -5   3   1   30.05    5.31
   5   3   0    2.51    2.37
  -5  -3   0    1.89    1.09
  -5   3   0    1.52    0.62
  -5   3   0   -2.48    2.28
   5   3   1   95.22    7.96
  -5   3  -1   98.14    7.99
  -5  -3  -1  106.72    7.90
  -5   3  -2    2.78    1.48
   5   3   2    6.00    2.36
  -5  -3  -2    2.74    2.03
  -5   3  -3   38.84    6.09
   5   3   3   36.67    5.44
  -5  -3  -3   36.58    6.30
  -5   3  -4    0.97    1.69
   5   3   4    2.09    2.82
  -5  -3  -4    1.47    2.15
   5   3   5   -0.47    1.69
  -5   3  -5    3.28    3.33
  -5  -3  -5    1.29    2.48
  -5   3  -6    5.26    3.58
   5   4  -6    6.91    4.01
  -5   4   6    7.13    4.70
   5   4  -5    5.15    4.04
  -5   4   5    1.86    2.09
  -5   4   4   17.20    4.79
   5  -4  -4   15.67    3.74
   5   4  -4   14.95    4.73
   5  -4  -3    4.09    1.30
  -5   4   3    2.65    1.36
   5   4  -3    6.78    2.94
   5   4  -2    2.91    2.24
  -5   4   2    3.58    1.88
   5  -4  -2    2.74    1.82
   5   4  -1    4.38    2.21
  -5  -4   1    7.06    1.32
  -5   4   1    4.93    1.65
  -5   4   1   13.42    3.97
   5   4  -1    6.50    1.25
   5   4   0    8.68    3.13
  -5   4   0    9.49    1.44
  -5  -4   0   11.84    2.14
  -5   4   0    9.18    2.03
  -5   4  -1    5.81    2.18
   5   4   1    3.98    1.99
  -5  -4  -1    5.31    1.99
  -5   4  -2    4.65    2.26
  -5  -4  -2    5.66    2.53
   5   4   2    4.40    2.01
  -5   4  -3    2.42    2.06
   5   4   3    6.43    2.34
  -5   4  -4    3.15    1.17
   5   4   4   -1.94    2.21
  -5  -4  -4    5.61    3.30
   5   4   5   13.34    4.40
  -5   4  -5    7.03    3.79
  -5   4  -6   -0.15    1.74
  -5   5   6    8.14    5.08
   5   5  -6    7.88    4.25
   5   5  -5    3.19    2.89
  -5   5   5    5.21    3.06
   5   5  -4   21.86    5.59
  -5   5   4   14.44    4.09
   5  -5  -3    3.93    2.26
  -5   5   3    3.18    2.13
   5   5  -3    4.42    2.51
  -5   5   2   26.33    4.05
   5   5  -2   38.39    6.18
  -5   5   1  190.79    9.18
  -5   5   1  213.29   13.79
   5   5  -1  168.08    5.81
   5   5  -1  204.05   13.88
   5   5   0    1.33    1.37
  -5   5   0    2.87    1.00
  -5   5   0   -1.36    2.00
   5   5   1   90.15    9.39
   5   5   1  125.37   11.00
  -5   5  -1  107.92   10.06
  -5   5  -2   32.00    5.24
   5   5   2   29.99    5.27
  -5  -5  -2   37.66    5.62
   5   5   3   17.42    4.50
  -5   5  -3   17.77    4.27
  -5   5  -4   19.04    4.89
   5   5   4   20.63    4.97
   5   5   5    1.78    2.55
  -5   5  -5    3.84    2.64
  -5   5  -6    1.60    2.46
  -5   6   6   59.41   11.34
   5   6  -6   66.08   11.46
   5   6  -5   14.16    5.35
  -5   6   5   11.60    4.57
   5   6  -4    0.40    1.98
  -5   6   4   -2.32    2.32
   5  -6  -3    8.66    2.74
  -5   6   3    7.46    3.19
   5   6  -3   10.01    2.68
  -5   6   2    3.40    1.74
   5   6  -2    3.93    2.47
  -5   6   1   -0.13    0.77
   5   6  -1    1.35    2.02
  -5   6   1    1.37    2.30
   5   6   0    3.17    1.65
   5   6   0    5.82    2.21
  -5   6   0    7.66    1.76
  -5   6   0    6.18    2.50
  -5   6  -1    3.92    2.47
   5   6   1    1.27    2.29
   5   6   1    1.03    1.43
   5   6   2    2.20    1.45
  -5   6  -2   -3.62    2.26
   5   6   2    2.17    2.58
  -5   6  -3   -1.31    2.13
   5   6   3    0.29    1.84
  -5   6  -4    0.15    1.47
   5   6   4    4.69    3.30
   5   6   5   -3.08    3.48
  -5   6  -5    0.07    1.73
  -5   6  -6   47.94    8.88
   5   7  -5    7.90    4.64
  -5   7   5    7.79    3.80
   5   7  -4   11.45    4.52
  -5   7   4    3.00    1.98
  -5   7   3   22.96    4.77
   5   7  -3   26.22    6.42
  -5   7   2    1.22    1.54
   5   7  -2   -0.45    2.05
  -5   7   1    4.72    2.33
   5   7  -1    2.05    2.78
  -5   7   1    5.80    3.73
  -5   7   0    4.23    1.50
   5   7   0    4.22    1.82
   5   7   0    1.90    2.43
  -5   7   0    1.81    1.60
  -5   7  -1    9.11    2.96
   5   7   1   17.85    4.26
   5   7   1    8.18    1.69
  -5   7  -2    0.47    1.34
   5   7   2    1.99    1.27
   5   7   2    4.08    2.57
  -5   7  -3   10.23    3.15
   5   7   3   10.73    4.21
  -5   7  -4   -0.66    1.45
   5   7   4    2.39    2.60
   5   7   5   22.42    6.50
  -5   7  -5   23.86    5.56
  -5   7  -6    0.46    1.70
  -5   8   5    9.88    3.96
   5   8  -5   12.69    5.19
   5   8  -4    7.42    4.59
  -5   8   4    4.66    2.79
   5   8  -3    3.80    3.03
  -5   8   3    4.34    1.89
  -5   8   2    9.36    2.75
   5   8  -2   10.76    3.81
  -5   8   1   10.50    3.08
   5   8  -1   14.83    4.21
  -5   8   1   14.56    4.71
   5   8   0    2.94    2.74
  -5   8   0    6.70    2.02
   5   8   0    8.33    3.24
  -5   8   0    8.91    3.20
   5   8   1   21.21    5.40
   5   8   1   16.70    3.89
  -5   8  -1   13.32    3.69
  -5   8  -2    1.97    1.63
   5   8   2   -1.61    1.92
   5   8   2   -0.59    1.36
  -5   8  -3    0.86    1.93
   5   8   3   -0.29    2.56
  -5   8  -4   -0.11    1.77
   5   8   4    1.42    1.92
   5   8   5   14.37    5.42
  -5   8  -5    5.13    2.48
  -5   9   5   -0.41    1.63
   5   9  -5    3.88    3.95
   5   9  -4    8.60    4.32
  -5   9   4   10.97    4.13
   5   9  -3   21.91    6.35
  -5   9   3    7.64    3.18
   5   9  -2    4.90    3.60
  -5   9   2    2.47    1.89
  -5   9   1   35.42    4.90
   5   9  -1   38.27    6.79
  -5   9   1   39.72    7.02
   5   9   0    1.35    1.54
  -5   9   0    1.58    1.02
   5   9   0    1.10    1.32
  -5   9   0    4.09    2.57
   5   9   1   17.51    4.96
   5   9   1   16.68    6.25
  -5   9  -1   17.40    4.74
  -5   9  -2   15.69    4.07
   5   9   2   24.63    6.33
  -5   9  -3   16.75    4.20
   5   9   3   24.65    6.27
  -5   9  -4    1.48    1.54
   5   9   4    1.68    2.70
  -5   9  -5   -1.21    1.38
   5   9   5   -5.92    3.65
  -5  10   5    3.97    3.71
  -5  10   4   -1.01    2.40
   5  10  -4    0.98    3.20
   5  10  -3   -0.96    1.86
  -5  10   3   -0.04    1.38
   5  10  -2    7.01    3.55
  -5  10   2    9.75    3.09
  -5  10   1   -0.32    0.98
  -5  10   1    2.96    3.19
   5  10  -1    2.13    2.27
   5  10   0    1.29    2.46
   5  10   0    4.83    2.01
  -5  10   0    5.87    3.04
   5  10   1   -6.52    3.60
   5  10   1    0.45    1.50
  -5  10  -1   -5.15    2.85
  -5  10  -2    7.10    3.03
   5  10   2    9.78    4.25
  -5  10  -3   -3.42    2.55
   5  10   3    1.20    2.50
  -5  10  -4    1.49    1.67
   5  10   4    8.58    4.61
  -5  10  -5    0.01    1.23
  -5  11   4    4.96    2.99
   5  11  -4   -0.61    2.80
  -5  11   3   -1.28    1.65
   5  11  -3   -5.00    3.50
   5  11  -2   17.95    5.50
  -5  11   2   10.62    3.34
  -5  11   1   43.53    6.22
   5  11  -1   54.88    8.82
  -5  11   1   50.07    8.56
   5  11   0    3.18    1.85
  -5  11   0    6.24    2.47
   5  11   0    4.13    2.31
   5  11   1   30.07    7.62
  -5  11  -1   26.45    6.50
  -5  11  -2    3.42    2.35
   5  11   2    6.00    4.01
  -5  11  -3    1.03    1.89
   5  11   3    6.06    4.04
  -5  11  -4    2.88    2.61
   5  11   4    4.23    3.30
  -5  12   4    6.66    3.87
  -5  12   3    1.93    2.18
   5  12  -3    4.32    3.62
  -5  12   2    3.53    2.15
   5  12  -2   -0.72    1.59
  -5  12   2    5.98    3.51
   5  12  -1   10.80    4.59
  -5  12   1    7.31    3.33
   5  12   0   -1.00    2.49
   5  12   0    4.07    2.34
  -5  12   0    5.15    2.56
   5  12   1   17.16    5.94
  -5  12  -1   10.94    3.83
  -5  12  -2    2.64    2.44
   5  12   2    6.00    3.61
  -5  12  -3    2.42    2.63
   5  12   3    7.87    4.48
  -5  12  -4    3.98    2.87
  -5  13   3   13.89    4.43
   5  13  -3   13.65    5.03
   5  13  -2   -1.64    2.45
  -5  13   2    1.52    3.45
   5  13  -1    1.77    1.86
  -5  13   1   -1.54    2.81
   5  13   0    1.28    1.42
  -5  13   0    1.42    2.04
   5  13   1    4.02    3.28
  -5  13  -1    0.79    2.32
  -5  13  -2    0.55    1.22
   5  13   2    3.23    3.42
  -5  13  -3   14.20    4.66
   5  14  -2    6.02    3.88
  -5  14   1    1.42    3.49
  -5  14   0    0.64    1.38
  -5  14  -1    2.19    1.80
  -5  14  -2    2.81    2.52
   6   0  -6    4.35    3.04
   6   0  -5    2.88    3.14
   6   0  -4  142.09   12.96
   6   0  -3    0.39    2.22
  -6   0   3   -0.82    0.80
   6   0  -2   22.59    4.77
  -6   0   2   24.69    3.55
  -6   0   1   -0.02    1.28
   6   0  -1    1.45    2.29
  -6   0   0  442.59   16.64
  -6   0  -1   -0.03    1.32
  -6   0  -1   -0.13    0.55
   6   0   2   11.83    2.03
  -6   0  -2   10.24    3.45
  -6   0  -3   -1.49    1.49
  -6   0  -4   27.53    6.03
  -6   0  -5    0.15    1.64
  -6   0  -6   -0.31    1.43
   6   1  -6    0.35    2.42
  -6   1   6   11.83    5.04
   6  -1  -5    4.92    2.52
   6   1  -5    2.27    2.29
   6  -1  -4   22.83    5.48
   6   1  -4   17.71    4.89
  -6   1   3  197.46   11.83
  -6  -1   3  201.15    9.37
   6  -1  -3  188.33   13.78
   6   1  -3  191.38   14.60
  -6  -1   2    0.23    0.81
   6  -1  -2    1.38    1.72
  -6   1   2    1.29    1.41
   6   1  -2    1.46    2.15
   6   1  -1   64.26    8.19
  -6   1   1   61.03    6.04
  -6  -1   1   68.11    5.83
  -6   1   0   82.85    7.27
  -6  -1   0   92.40    7.62
  -6   1  -1   49.56    6.49
  -6  -1  -1   44.49    5.78
   6   1   2    0.42    0.82
  -6   1  -2    1.36    2.29
  -6  -1  -2    2.32    1.51
   6   1   3  204.96   10.89
  -6   1  -3  193.00   14.13
  -6  -1  -3  192.86   14.28
  -6   1  -4   63.88    8.71
  -6  -1  -4   67.53    9.15
  -6   1  -5   -1.59    2.50
  -6  -1  -5    0.69    2.89
  -6   1  -6   20.24    6.15
   6   2  -6   23.57    6.67
  -6   2   6   31.19    7.96
   6   2  -5    6.10    3.77
  -6   2   5    3.61    2.37
   6  -2  -5    5.52    3.03
   6  -2  -4    1.37    2.23
   6   2  -4    1.87    1.96
   6  -2  -3   44.96    6.93
   6   2  -3   37.16    6.75
  -6   2   3   44.17    6.04
   6  -2  -2   17.31    4.51
  -6  -2   2   16.01    2.33
   6   2  -2   14.74    2.36
  -6   2   2   22.11    4.38
   6   2  -1   54.62    7.26
  -6  -2   1   50.69    4.76
  -6   2   1   33.23    4.83
  -6   2   0    8.64    2.50
  -6  -2   0   10.28    2.51
  -6   2  -1   33.06    5.20
  -6  -2  -1   31.95    4.92
  -6   2  -2    5.91    2.65
  -6  -2  -2    5.85    2.34
   6   2   2    3.76    1.96
   6   2   3  104.55    8.44
  -6   2  -3   83.26    9.17
  -6  -2  -3   86.38    9.69
  -6   2  -4    0.57    2.12
  -6  -2  -4   -1.43    1.61
  -6   2  -5    1.24    1.89
  -6  -2  -5    3.32    3.14
  -6   2  -6   12.95    5.32
   6   3  -6   10.67    5.46
  -6   3   6    4.53    3.39
   6   3  -5   24.69    6.36
  -6   3   5   20.71    6.07
   6  -3  -4    1.76    1.65
  -6   3   4   -0.76    1.90
   6   3  -4   -4.62    2.52
   6  -3  -3    1.50    3.05
   6   3  -3    8.21    4.10
  -6   3   3    3.47    2.77
   6  -3  -2    6.44    2.88
  -6  -3   2    8.43    1.44
   6   3  -2    7.87    3.22
  -6   3   2    9.46    3.53
  -6   3   1   23.16    3.67
   6   3  -1   16.93    4.57
  -6  -3   1   27.01    3.18
  -6   3   1   17.20    3.75
   6   3   0   33.13    5.78
  -6   3   0   35.75    5.11
  -6   3   0   30.96    2.68
  -6  -3   0   37.04    4.44
  -6   3  -1   25.55    4.81
   6   3   1   20.88    3.90
  -6  -3  -1   30.87    4.71
  -6   3  -2   31.02    5.16
   6   3   2   34.41    5.05
  -6  -3  -2   35.85    5.55
  -6   3  -3    4.81    2.39
   6   3   3   10.62    2.87
  -6  -3  -3   10.15    3.40
  -6   3  -4    5.78    3.47
  -6  -3  -4    0.87    1.83
  -6   3  -5   20.22    5.36
  -6  -3  -5   27.05    6.65
   6   4  -6    2.22    2.37
  -6   4   6    0.69    2.16
   6   4  -5    1.05    2.54
  -6   4   5    4.53    3.70
   6  -4  -4    0.75    1.36
  -6   4   4    0.71    2.22
   6   4  -4    2.79    2.07
   6  -4  -3   20.43    4.66
  -6   4   3   12.15    3.63
   6   4  -3   13.35    5.11
  -6   4   2   67.65    6.99
   6   4  -2   62.98    8.38
  -6   4   2   67.01    8.13
   6  -4  -2   67.96    7.97
  -6   4   1   53.18    5.21
  -6   4   1   40.30    6.52
   6   4  -1   61.18    8.12
  -6  -4   1   48.90    3.98
  -6   4   0    0.81    1.55
   6   4   0    0.92    1.50
  -6   4   0    1.67    0.66
  -6  -4   0    3.41    1.61
   6   4   1   62.93    7.40
   6   4   1   57.35    7.54
  -6   4  -1   49.70    6.72
  -6  -4  -1   69.31    6.93
  -6   4  -2   54.16    7.13
  -6  -4  -2   64.08    7.66
   6   4   2   60.18    7.12
  -6   4  -3   17.34    4.19
   6   4   3   18.84    4.29
  -6  -4  -3   14.95    4.60
   6   4   4    4.41    2.44
  -6   4  -4   -1.18    1.79
  -6  -4  -4    3.21    2.51
  -6   4  -5   12.96    4.64
   6   5  -6   -3.10    3.89
   6   5  -5    3.66    3.11
  -6   5   5   -1.95    2.69
  -6   5   4   28.62    6.17
   6   5  -4   28.14    6.48
   6  -5  -3   -0.73    1.32
  -6   5   3   -0.19    0.87
   6   5  -2   -2.16    2.78
  -6   5   2   -0.11    1.45
   6   5  -1    7.02    2.92
  -6   5   1   12.10    2.40
  -6   5   1    9.38    3.25
  -6   5   0  221.08    7.53
  -6   5   0  215.97   13.35
   6   5   0  212.91   13.72
  -6  -5   0  223.96   10.36
   6   5   1   10.69    3.91
  -6   5  -1    7.88    2.73
   6   5   1    9.66    3.18
  -6  -5  -1    9.56    2.78
  -6   5  -2   -0.46    1.41
   6   5   2    0.66    2.25
  -6  -5  -2   -0.72    1.81
  -6   5  -3    3.44    2.46
   6   5   3    8.54    3.68
  -6  -5  -3    1.66    1.83
  -6   5  -4   12.69    3.90
   6   5   4   15.57    4.47
  -6   5  -5    4.27    3.14
   6   6  -5    4.13    2.78
  -6   6   5    0.27    2.45
   6   6  -4    6.01    3.94
  -6   6   4    0.74    1.38
   6  -6  -3   14.30    3.72
  -6   6   3   15.13    4.37
   6   6  -3   10.67    4.00
  -6   6   2   37.53    5.23
   6   6  -2   42.14    7.55
  -6   6   2   38.81    6.71
  -6   6   1   17.68    3.34
  -6   6   1   19.02    4.86
  -6   6   0  300.79    9.67
  -6   6   0  279.26   15.94
   6   6   0  292.85   16.47
  -6   6  -1   19.21    4.82
   6   6   1   23.79    4.68
   6   6   1   30.18    5.86
   6   6   2   34.18    5.52
  -6   6  -2   31.77    5.69
   6   6   2   44.15    6.59
  -6   6  -3    3.53    2.29
   6   6   3    9.66    3.59
  -6   6  -4    1.43    2.18
   6   6   4   10.14    4.02
  -6   6  -5    1.39    1.96
   6   7  -5   12.95    6.49
  -6   7   5    6.18    3.54
   6   7  -4    3.38    3.77
  -6   7   4    1.34    1.75
  -6   7   3    7.80    3.22
   6   7  -3    7.38    3.09
  -6   7   2   -0.38    0.96
   6   7  -2   -2.08    2.97
  -6   7   2    4.69    3.52
  -6   7   1   39.84    4.71
   6   7  -1   37.87    7.28
  -6   7   1   54.56    8.03
   6   7   0    6.57    3.36
  -6   7   0    7.23    2.77
  -6   7  -1   20.38    5.19
   6   7   1   27.83    6.24
   6   7   1   28.05    5.16
  -6   7  -2   -1.51    1.92
   6   7   2   -0.22    1.20
   6   7   2    1.04    1.59
  -6   7  -3    1.20    1.74
   6   7   3    3.40    2.30
  -6   7  -4    8.81    3.47
   6   7   4    4.24    2.59
   6   7   5    4.14    3.71
  -6   7  -5    6.57    3.21
   6   8  -5    6.75    5.28
  -6   8   5   -0.92    1.92
   6   8  -4   28.60    7.60
  -6   8   4   17.89    4.95
  -6   8   3   23.22    5.00
   6   8  -3   35.18    7.30
  -6   8   2    2.87    2.14
   6   8  -2    1.12    1.72
  -6   8   2    5.91    3.92
  -6   8   1   33.06    4.55
   6   8  -1   39.34    6.83
  -6   8   1   35.61    6.58
  -6   8   0  578.82   24.36
   6   8   0  633.32   25.52
  -6   8  -1   14.82    4.67
   6   8   1    9.56    4.38
   6   8   1   10.79    4.02
  -6   8  -2    5.41    2.70
   6   8   2    1.49    1.10
   6   8   2    6.91    2.93
  -6   8  -3   12.76    3.78
   6   8   3   13.27    4.29
  -6   8  -4    7.31    3.38
   6   8   4   17.52    5.35
   6   8   5    0.66    2.38
  -6   8  -5    5.24    3.18
  -6   9   5   11.59    4.80
   6   9  -4    4.62    3.82
  -6   9   4    0.20    1.68
   6   9  -3   15.39    5.04
  -6   9   3   11.97    3.71
  -6   9   2    3.33    1.72
  -6   9   2    5.54    3.57
   6   9  -2   -2.21    3.06
   6   9  -1   16.19    4.48
  -6   9   1   21.39    5.49
  -6   9   0  132.63   12.02
   6   9   0  139.86   12.39
   6   9   1   -0.03    2.23
   6   9   1    4.35    3.14
  -6   9  -2   -0.30    1.66
   6   9   2    7.67    3.63
  -6   9  -3   14.15    4.17
   6   9   3   10.40    4.73
  -6   9  -4    3.00    2.70
   6   9   4   -2.11    2.76
   6   9   5   17.82    6.25
   6  10  -4   -0.78    2.77
  -6  10   4   -0.08    0.88
   6  10  -3    0.80    2.66
  -6  10   3    0.67    1.43
   6  10  -2   34.03    7.40
  -6  10   2   24.18    4.73
  -6  10   2   35.04    7.15
   6  10  -1   -1.25    2.10
  -6  10   1   -1.93    1.35
   6  10   0   28.78    5.89
  -6  10   0   15.03    4.46
  -6  10  -1    1.25    1.45
   6  10   1   -0.49    1.56
   6  10   1   -0.60    1.80
  -6  10  -2   19.54    4.73
   6  10   2   28.59    6.75
  -6  10  -3   -1.46    2.73
   6  10   3    7.21    4.05
  -6  10  -4    0.89    2.26
   6  10   4   -0.06    1.66
  -6  11   4   10.61    3.91
   6  11  -3    6.43    3.31
  -6  11   3    4.44    2.44
   6  11  -2    5.06    3.09
  -6  11   2   13.47    4.72
  -6  11   1    5.39    3.47
   6  11  -1    4.13    3.03
   6  11   0   46.07    7.61
  -6  11   0   43.55    7.09
  -6  11  -1    0.17    1.38
   6  11   1   -4.89    3.90
  -6  11  -2   23.51    5.52
   6  11   2   32.97    7.83
  -6  11  -3   -2.65    2.70
   6  11   3   -0.07    1.50
  -6  12   4    2.15    2.08
   6  12  -3    6.05    3.12
   6  12  -2   11.14    4.59
  -6  12   2   16.97    5.67
   6  12  -1    1.08    1.89
  -6  12   1    3.07    2.90
  -6  12   0   60.94    8.76
  -6  12  -1    5.85    3.41
   6  12   1    5.25    3.60
  -6  12  -2    1.86    1.50
   6  12   2    8.74    4.31
  -6  12  -3   11.05    3.97
   6  13  -2    3.39    2.80
   6  13  -1    4.62    3.44
  -6  13   1    8.23    4.00
  -6  13   0    1.90    1.93
  -6  13  -1    5.30    2.89
   6  13   1   14.29    5.72
  -6  13  -2   -0.05    1.64
   6  14  -2    3.09    3.28
   7   0  -5   -4.81    3.18
   7   0  -4   21.91    5.65
   7   0  -3    2.32    3.65
  -7   0   3   -1.19    1.43
  -7   0   2   16.70    3.13
   7   0  -2   10.50    3.86
  -7   0   1    1.37    1.43
   7   0  -1   -2.15    2.14
  -7   0   0    5.93    2.37
  -7   0  -1    0.34    1.19
  -7   0  -2    1.02    1.23
  -7   0  -3    2.95    2.85
  -7   0  -4    3.63    2.39
  -7   0  -5    1.24    1.61
   7   1  -6   21.54    7.64
   7  -1  -5   54.22    8.78
   7   1  -5   36.79    7.05
   7  -1  -4   18.95    5.28
   7   1  -4   13.71    4.69
   7  -1  -3   42.74    7.04
   7   1  -3   46.96    7.89
  -7   1   3   47.54    5.80
   7  -1  -2   61.16    8.59
   7   1  -2   61.67    8.49
  -7   1   2   66.63    6.73
  -7  -1   2   61.58    5.60
   7   1  -1   10.63    4.98
  -7   1   1    4.69    2.46
  -7  -1   1    8.76    2.77
  -7   1   0    0.01    1.08
  -7  -1   0   -0.16    1.67
  -7   1  -1   30.14    5.21
  -7  -1  -1   28.52    5.09
  -7   1  -2   66.51    8.32
  -7  -1  -2   73.07    8.51
  -7   1  -3    8.63    3.41
  -7  -1  -3    4.50    2.65
  -7   1  -4   31.35    6.45
  -7  -1  -4   44.89    7.91
  -7   1  -5   11.90    4.05
  -7  -1  -5   11.63    4.67
   7   2  -6    1.54    3.35
  -7   2   5   37.34    8.33
   7  -2  -5   29.06    6.47
   7   2  -5   27.14    7.16
   7  -2  -4    5.85    3.80
   7   2  -4   11.38    4.39
   7  -2  -3   19.66    4.75
   7   2  -3   18.88    5.60
  -7   2   3   17.23    3.89
   7  -2  -2   27.24    5.91
   7   2  -2   24.45    5.16
  -7  -2   2   25.43    3.47
  -7   2   2   21.86    4.35
  -7   2   1    3.25    1.79
   7   2  -1    6.78    3.37
  -7  -2   1    6.72    2.34
  -7   2   0   10.33    3.33
  -7  -2   0    7.43    2.45
  -7   2  -1    1.75    1.88
  -7  -2  -1    6.03    2.62
   7   2   2   70.80    6.90
  -7   2  -2   61.92    8.03
  -7  -2  -2   58.39    7.58
  -7   2  -3   11.90    3.80
  -7  -2  -3   14.34    4.45
  -7   2  -4   -0.08    1.76
  -7  -2  -4    0.87    1.88
  -7  -2  -5   62.79   10.12
  -7   2  -5   61.08    9.57
   7   3  -6    1.03    2.54
  -7   3   5    7.89    4.06
   7   3  -5    4.75    2.98
   7  -3  -4   18.77    4.85
  -7   3   4   13.38    4.07
   7   3  -4   17.45    5.42
  -7   3   4   18.08    4.45
  -7   3   3   93.73    9.96
  -7   3   3  104.03   10.02
   7  -3  -3  110.18   11.31
   7   3  -3  103.52   12.09
   7   3  -2    0.76    1.87
  -7   3   2    4.17    2.28
   7   3  -1   21.07    5.26
  -7  -3   1   21.39    3.31
  -7   3   1   20.66    3.36
  -7   3   1   20.48    4.01
   7   3   0    2.90    2.29
  -7   3   0    0.21    1.18
  -7  -3   0    0.35    1.10
  -7   3   0    0.23    0.46
  -7   3  -1    7.43    3.44
  -7  -3  -1   12.93    3.55
   7   3   2    1.19    1.35
  -7   3  -2    2.18    1.45
  -7  -3  -2   -0.42    1.44
  -7   3  -3   13.73    3.58
  -7  -3  -3   11.84    4.27
  -7   3  -4   25.39    6.11
  -7  -3  -4   25.31    6.17
  -7   3  -5    4.75    3.54
  -7  -3  -5    2.75    2.94
   7   4  -6   20.73    6.83
   7   4  -5    4.43    3.70
  -7   4   5   -2.47    3.03
   7  -4  -4   13.73    3.87
  -7   4   4   15.63    4.76
   7   4  -4   10.94    3.71
   7  -4  -3   22.82    5.43
   7   4  -3   25.37    6.00
  -7   4   3   20.74    4.73
  -7   4   3   21.22    4.86
   7   4  -2   24.78    6.19
  -7   4   2   19.41    3.91
  -7   4   2   22.04    4.70
   7  -4  -2   22.69    5.34
   7   4  -1    8.03    2.97
  -7  -4   1   11.51    2.35
  -7   4   1   10.98    2.52
  -7   4   1    7.71    2.43
  -7   4   0   10.95    3.52
   7   4   0    6.73    2.92
  -7  -4   0    8.05    2.21
  -7   4  -1    6.75    2.95
  -7  -4  -1    9.93    3.20
   7   4   1   13.22    4.50
   7   4   2   60.90    7.53
  -7   4  -2   60.85    7.97
  -7  -4  -2   57.36    7.60
   7   4   3   49.60    6.91
  -7   4  -3   43.00    7.10
  -7  -4  -3   45.76    7.47
  -7   4  -4   -0.70    1.64
  -7  -4  -4    6.53    3.26
  -7   4  -5    3.33    3.16
  -7  -4  -5   12.13    5.07
   7   5  -5    3.12    3.09
  -7   5   5    3.33    2.88
  -7   5   4    2.98    2.31
   7   5  -4    2.92    2.80
   7  -5  -3    0.75    1.80
  -7   5   3    0.37    1.83
   7   5  -3    0.35    1.59
  -7   5   3    2.23    2.78
  -7   5   2   64.24    6.88
  -7   5   2   65.04    8.42
   7   5  -2   61.60    9.20
  -7   5   1   41.05    4.48
   7   5  -1   40.35    6.66
  -7   5   1   40.48    6.21
  -7   5   0    2.94    2.09
   7   5   0    6.07    2.79
  -7  -5   0    3.01    1.71
   7   5   1   14.61    4.88
  -7   5  -1    9.83    4.03
  -7  -5  -1   17.65    3.89
   7   5   2   45.82    6.92
  -7   5  -2   44.93    7.13
  -7  -5  -2   54.85    7.50
  -7   5  -3    0.10    1.57
   7   5   3   -0.76    1.04
  -7  -5  -3   -0.81    1.91
  -7   5  -4   -0.11    2.11
  -7  -5  -4    2.43    1.50
  -7   5  -5    2.74    2.96
   7   6  -5    2.36    2.20
  -7   6   5   -1.85    2.40
  -7   6   4   -0.01    1.26
   7   6  -4   -5.71    4.69
   7  -6  -3    0.27    1.63
  -7   6   3    3.95    2.06
   7   6  -3    2.92    2.28
  -7   6   3    4.98    2.86
  -7   6   2   24.73    4.28
   7   6  -2   29.63    6.50
  -7   6   2   21.68    5.18
  -7   6   1   90.44    6.75
  -7   6   1   85.06    9.74
  -7   6   0   13.26    3.21
   7   6   0   11.32    3.22
   7   6   1  124.64   12.16
   7   6   1  125.57   11.38
  -7   6  -1  110.84   11.17
  -7  -6  -1  121.17    9.73
   7   6   2    8.51    3.20
  -7   6  -2   11.75    3.96
   7   6   2   10.78    3.78
  -7  -6  -2   16.04    4.12
  -7   6  -3    2.84    2.24
   7   6   3    5.89    3.17
   7   6   3    0.37    1.17
  -7   6  -4    9.11    3.76
  -7   7   5    3.38    2.98
  -7   7   4   15.88    4.80
   7   7  -4   12.84    5.86
  -7   7   3   -1.76    1.73
   7   7  -3   -1.92    1.57
  -7   7   3    1.50    2.20
  -7   7   2    8.28    2.52
   7   7  -2    8.62    2.88
  -7   7   2   14.10    4.57
   7   7  -1   17.50    5.45
  -7   7   1    7.88    3.38
   7   7   0    1.92    1.34
  -7   7   0    0.28    1.87
  -7   7  -1   24.31    5.22
   7   7   1   26.12    5.59
   7   7   1   28.02    5.60
   7   7   2   14.02    3.78
  -7   7  -2   13.32    4.01
   7   7   2   15.38    4.16
  -7   7  -3   -1.74    2.33
   7   7   3    2.78    1.81
   7   7   4   20.94    5.76
  -7   7  -4   14.64    4.48
  -7   8   5    4.21    3.21
   7   8  -4    3.66    3.90
  -7   8   4   -0.22    1.37
  -7   8   3    2.76    1.94
  -7   8   3    6.89    3.40
   7   8  -3   11.16    4.40
  -7   8   2   13.13    3.17
   7   8  -2   11.74    4.44
  -7   8   2   13.42    4.34
   7   8  -1   50.24    8.62
  -7   8   1   30.37    6.29
   7   8   0    3.06    1.97
  -7   8   0    2.40    1.54
  -7   8  -1   40.25    7.30
   7   8   1   43.84    7.97
   7   8   1   45.56    7.04
  -7   8  -2    0.23    1.62
   7   8   2   -2.12    2.44
   7   8   2   -1.63    1.99
  -7   8  -3   -1.17    2.28
   7   8   3   -1.30    1.58
  -7   8  -4    6.59    3.44
   7   8   4    4.36    2.93
   7   9  -4   -1.81    3.19
  -7   9   4    3.56    2.60
  -7   9   3   -0.41    1.34
  -7   9   3    3.41    3.03
   7   9  -3    1.75    1.78
   7   9  -2   11.66    3.59
  -7   9   2   16.08    5.05
   7   9  -1   40.71    7.89
  -7   9   1   50.80    8.14
   7   9   0    6.38    2.90
  -7   9   0    0.26    2.58
  -7   9  -1   25.02    7.04
   7   9   1   23.19    6.09
   7   9   1   27.88    6.30
  -7   9  -2   16.56    4.60
   7   9   2   27.66    6.87
  -7   9  -3    3.86    2.55
   7   9   3   -0.50    1.93
  -7   9  -4   -1.75    2.03
   7   9   4    0.60    2.04
  -7  10   4    0.16    1.33
   7  10  -3    5.45    3.32
  -7  10   3    6.77    4.58
  -7  10   2    1.61    1.57
   7  10  -2    5.34    2.59
   7  10  -1    2.21    2.01
  -7  10   1   -1.87    2.77
   7  10   0    4.25    2.47
  -7  10   0    1.93    1.40
  -7  10  -1   -1.53    1.59
   7  10   1   -1.65    1.65
   7  10   1   -2.40    2.10
  -7  10  -2   10.95    4.06
   7  10   2    8.42    4.07
  -7  10  -3    0.52    1.76
   7  10   3   -2.10    2.31
   7  10   4    0.01    2.11
   7  11  -3    4.28    3.57
  -7  11   3    7.42    4.38
   7  11  -2   10.69    4.68
  -7  11   2   12.12    4.71
   7  11  -1   40.99    7.80
  -7  11   1   41.03    7.43
   7  11   0   -0.64    1.73
  -7  11   0    1.08    1.81
  -7  11  -1   26.38    6.98
   7  11   1   21.86    6.30
  -7  11  -2    2.93    2.48
   7  11   2    6.12    4.22
   7  11   3    3.50    3.56
   7  12  -2   -0.97    1.57
   7  12  -1   12.83    4.50
  -7  12   1    8.92    3.61
  -7  12   0    2.85    2.48
  -7  12  -1    6.62    3.61
   7  12   1    5.53    2.96
   7  12   2    9.05    5.07
   7  13  -2    0.09    2.15
   7  13  -1   -0.47    1.48
   8   0  -5    0.52    2.46
   8   0  -4   82.16   11.00
   8   0  -3   -3.01    4.17
  -8   0   2    2.18    1.70
   8   0  -2   -2.30    2.88
  -8   0   1    0.56    1.00
   8   0  -1   -0.44    2.38
  -8   0   0  251.93   14.90
  -8   0  -1    3.57    2.04
  -8   0  -2   -2.01    2.40
  -8   0  -3   -1.33    1.52
  -8   0  -4    4.97    2.66
   8   1  -6    5.03    3.44
   8  -1  -5    9.91    4.15
   8   1  -5    2.57    2.32
   8  -1  -4   28.56    6.42
   8   1  -4   33.90    7.31
   8  -1  -3   53.63    8.59
   8   1  -3   61.17    9.46
  -8   1   2   -1.23    1.45
   8  -1  -2    0.23    1.96
   8   1  -2   -3.29    3.57
   8   1  -1   14.35    5.43
  -8   1   1    6.15    2.20
  -8  -1   1    8.84    2.69
  -8   1   0    3.56    1.73
  -8  -1   0    2.24    1.85
  -8   1  -1    5.03    3.14
  -8  -1  -1    5.21    2.41
  -8   1  -2    2.12    2.58
  -8  -1  -2    5.82    2.92
  -8   1  -3   35.13    6.61
  -8  -1  -3   49.65    8.08
  -8   1  -4   23.31    5.98
  -8  -1  -4   20.91    5.54
  -8   2   5    6.93    3.99
   8  -2  -5    8.20    3.57
   8   2  -5   13.63    5.59
   8  -2  -4    4.36    2.70
   8   2  -4    3.77    3.90
   8  -2  -3   44.12    8.17
   8   2  -3   43.03    8.17
  -8   2   3   33.61    5.22
   8  -2  -2   -0.94    2.05
   8   2  -2   -1.72    3.17
  -8   2   2   -1.57    2.01
  -8   2   1    5.24    2.77
   8   2  -1    4.40    3.26
  -8  -2   1    3.01    1.51
  -8   2   0   -0.26    1.42
  -8  -2   0    0.99    1.22
   8   2   0    3.17    2.36
  -8   2  -1    8.96    3.65
  -8  -2  -1    3.46    2.00
  -8   2  -2   14.07    4.15
  -8  -2  -2   16.34    4.43
  -8   2  -3   32.09    6.40
  -8  -2  -3   35.93    6.84
  -8   2  -4    1.72    2.83
  -8  -2  -4    1.27    2.14
  -8   3   5    2.21    2.51
   8   3  -5   -4.27    2.79
   8  -3  -4   -2.19    2.66
  -8   3   4   -2.53    2.55
   8   3  -4   -2.19    2.94
   8  -3  -3   15.55    4.60
   8   3  -3   13.41    5.20
  -8   3   3   15.52    4.03
  -8   3   3   15.14    3.85
  -8   3   2  101.47    9.07
  -8   3   2  103.14    9.80
   8  -3  -2  116.45   12.84
   8   3  -2  100.11   11.69
  -8   3   1   32.48    5.69
   8   3  -1   29.76    6.48
  -8   3   1   25.33    3.89
   8   3   0    7.50    3.24
  -8   3   0   13.41    3.66
  -8  -3   0    9.91    2.92
  -8   3  -1   29.47    6.01
  -8  -3  -1   29.57    5.42
  -8   3  -2   85.27   10.07
  -8  -3  -2   93.94   10.41
  -8   3  -3    5.45    2.87
  -8  -3  -3    2.75    2.52
  -8   3  -4    4.97    2.83
  -8  -3  -4    1.65    2.55
  -8   4   5   22.31    6.41
   8   4  -5   28.00    7.46
   8  -4  -4    6.20    3.10
  -8   4   4    8.48    3.58
   8   4  -4    3.22    2.55
  -8   4   4   10.71    3.87
   8  -4  -3    2.00    2.83
   8   4  -3    0.71    2.35
  -8   4   3    7.77    3.18
  -8   4   3    2.88    2.06
   8   4  -2   15.29    5.14
  -8   4   2   11.51    3.08
  -8   4   2   14.31    3.92
   8  -4  -2   21.21    5.80
  -8   4   1  101.42   10.50
   8   4  -1  100.96   11.62
  -8   4   0   19.71    4.60
   8   4   0   20.07    5.20
  -8  -4   0   20.18    3.68
   8   4   1  128.08   12.59
  -8   4  -1  124.95   11.97
  -8  -4  -1  123.30   10.66
  -8   4  -2   18.61    4.88
  -8  -4  -2   18.33    4.51
  -8   4  -3    7.69    3.87
  -8  -4  -3   10.92    4.05
  -8   4  -4    6.77    3.45
  -8  -4  -4    9.56    4.02
   8   5  -5   -3.30    2.81
  -8   5   5   -2.27    2.53
  -8   5   4    3.62    2.63
   8   5  -4   -0.51    3.64
  -8   5   4    7.41    3.03
   8  -5  -3    2.84    2.00
  -8   5   3   -0.99    1.89
   8   5  -3    3.42    3.60
  -8   5   3    4.69    3.18
   8   5  -2   33.55    6.96
  -8   5   2   23.69    4.32
  -8   5   2   21.05    4.80
   8   5  -1    0.39    2.64
  -8   5   1   -0.06    2.04
  -8   5   0   75.84    9.08
   8   5   0   81.12    9.72
   8   5   1   -0.14    1.26
  -8   5  -1   -3.59    2.59
  -8  -5  -1   -0.77    1.09
   8   5   2   13.91    3.85
  -8   5  -2    8.99    3.12
  -8  -5  -2   15.21    4.26
   8   5   2   16.38    4.71
  -8   5  -3    3.30    2.21
  -8  -5  -3    2.70    2.07
  -8   5  -4    1.60    2.30
  -8  -5  -4    5.46    3.46
  -8   6   5    4.05    2.91
  -8   6   4   14.15    4.86
  -8   6   4   15.13    4.80
   8   6  -4   14.92    4.94
   8  -6  -3    4.07    3.08
  -8   6   3   -0.02    1.16
  -8   6   3    0.70    1.94
   8   6  -2    4.61    3.65
  -8   6   2    4.64    2.54
   8   6  -1   25.53    6.31
  -8   6   1   25.01    5.79
  -8   6   0  207.05   15.33
   8   6   0  195.48   15.28
  -8   6  -1   28.15    6.21
   8   6   1   38.01    6.84
  -8  -6  -1   26.67    4.81
   8   6   2   -1.33    1.90
  -8   6  -2    0.39    1.58
   8   6   2    0.20    1.31
  -8  -6  -2   -1.60    1.65
  -8   6  -3   -0.16    1.24
  -8  -6  -3    2.03    2.10
   8   6   3    4.42    3.05
  -8   6  -4    2.24    2.33
  -8   7   5    1.66    2.33
  -8   7   5    5.91    3.37
  -8   7   4    0.19    1.07
  -8   7   4    3.90    2.77
   8   7  -4    4.95    2.28
  -8   7   3   15.59    3.86
   8   7  -3   22.90    6.21
  -8   7   3   21.19    5.46
   8   7  -2   -2.19    2.55
  -8   7   2    1.95    2.26
   8   7  -1   32.54    7.03
  -8   7   1   29.03    6.20
  -8   7   0    7.06    3.32
   8   7   0    0.76    1.87
  -8   7  -1   14.54    5.04
   8   7   1   17.53    4.81
   8   7   2    3.13    2.31
  -8   7  -2   -0.60    2.15
   8   7   2    1.39    1.17
  -8   7  -3   37.04    7.16
  -8   8   4    1.95    1.79
  -8   8   4    1.09    2.35
   8   8  -3   -0.72    1.91
  -8   8   3    2.13    2.57
   8   8  -2   -0.52    1.99
  -8   8   2    1.37    2.47
   8   8  -1   12.76    4.54
  -8   8   1    5.97    3.00
  -8   8   0   60.64    8.75
   8   8   0   56.01    8.48
  -8   8  -1    9.31    3.81
   8   8   1    1.92    1.54
  -8   8  -2    5.75    3.51
   8   8   2    4.09    2.96
   8   8   2    3.30    1.75
  -8   8  -3    5.77    3.30
   8   8   3    0.09    1.51
  -8   9   4    6.69    4.24
  -8   9   3    0.11    1.98
   8   9  -3    2.14    3.23
   8   9  -2    2.42    2.89
  -8   9   2    0.88    2.25
   8   9  -1    5.47    3.10
  -8   9   1   -2.00    1.87
  -8   9   0  159.44   14.16
   8   9   0  163.93   14.70
  -8   9  -1    6.40    3.22
   8   9   1    7.01    3.11
  -8   9  -2    0.93    1.38
   8   9   2   -0.69    2.06
  -8   9  -3    2.12    1.37
   8   9   3    0.22    1.53
  -8  10   3   11.74    4.59
   8  10  -2    2.93    2.58
  -8  10   2    8.75    3.36
   8  10  -1    4.32    2.80
  -8  10   1    4.48    2.77
   8  10   0    4.23    2.53
  -8  10   0   -0.20    3.15
  -8  10  -1    3.70    2.93
  -8  10  -2    3.16    2.72
   8  10   2   -0.99    2.24
   8  10   3    4.29    2.77
   8  11  -2   41.03    8.60
   8  11  -1    5.42    3.20
  -8  11   1    4.12    2.38
   8  11   0   10.95    4.10
  -8  11   0    6.27    2.62
  -8  11  -1    4.91    3.13
   8  11   2   43.13    8.88
   8  12  -1   -3.36    2.71
   9   0  -5    4.81    3.56
   9   0  -4    4.28    3.11
   9   0  -3   -3.22    3.01
   9   0  -2   53.69    9.46
   9   0  -1    0.48    2.48
  -9   0   1   -1.93    2.02
  -9   0   0    5.69    2.66
  -9   0  -1    2.14    2.43
  -9   0  -2   12.59    4.24
  -9   0  -3    0.81    1.49
  -9   0  -4    4.54    2.92
   9  -1  -5   14.66    5.46
   9   1  -5    7.79    3.20
   9  -1  -4   16.13    5.26
   9   1  -4    9.22    4.45
   9  -1  -3   -3.02    3.23
   9   1  -3   -3.39    2.13
  -9   1   2    3.78    1.98
   9  -1  -2    5.56    4.44
   9   1  -2   -1.34    3.07
   9   1  -1    1.58    2.68
  -9   1   1    4.78    2.44
  -9  -1   1    4.24    2.32
   9  -1  -1    8.12    4.25
  -9   1   0    5.13    2.77
  -9  -1   0    0.86    0.92
  -9   1  -1   13.32    4.34
  -9  -1  -1   13.17    3.64
  -9   1  -2    6.05    2.58
  -9  -1  -2    3.52    2.05
  -9   1  -3   -2.55    2.63
  -9  -1  -3   -1.21    1.87
  -9   1  -4    7.36    3.55
  -9  -1  -4   14.92    5.04
  -9   2   5   11.09    4.75
   9   2  -5   23.86    6.73
   9  -2  -4    0.06    2.03
   9   2  -4   -3.71    3.09
   9  -2  -3   -4.71    3.97
   9   2  -3    2.14    3.19
  -9   2   2    0.30    0.91
   9  -2  -2    3.78    3.33
   9   2  -2    0.51    2.23
  -9   2   1   12.98    3.94
   9   2  -1   13.89    5.33
  -9   2   0    8.35    2.70
  -9  -2   0   15.39    3.90
   9   2   0   12.76    4.51
  -9   2  -1    4.16    2.21
  -9  -2  -1    7.14    3.01
  -9   2  -2   10.68    4.02
  -9  -2  -2    9.69    3.74
  -9   2  -3   -2.91    2.70
  -9  -2  -3   -1.00    1.73
  -9   2  -4    1.10    2.20
  -9  -2  -4    2.90    2.09
  -9   3   5    2.17    2.43
   9  -3  -4   15.70    5.50
  -9   3   4   11.84    4.32
   9   3  -4   20.57    6.40
   9  -3  -3   18.49    6.13
   9   3  -3   14.04    5.34
  -9   3   3   12.22    3.97
  -9   3   2    0.48    1.79
   9  -3  -2    3.77    3.47
   9   3  -2   -2.37    2.25
  -9   3   1  109.29   10.81
   9   3  -1  111.24   12.90
   9   3   0    0.93    1.71
  -9   3   0   -0.21    1.74
  -9  -3   0    3.83    2.20
  -9   3  -1   86.12   10.63
  -9  -3  -1   81.88    9.50
  -9   3  -2   -1.76    2.15
  -9  -3  -2   -2.67    2.30
  -9   3  -3    2.40    2.13
  -9  -3  -3    5.14    3.28
  -9   3  -4   15.56    5.13
  -9  -3  -4   13.59    4.98
  -9   4   5    1.80    1.91
  -9   4   4    3.02    2.37
   9   4  -4    8.74    4.57
   9  -4  -3    2.00    2.56
  -9   4   3    6.87    2.85
  -9   4   3    3.92    2.12
   9  -4  -2   34.57    8.19
   9   4  -2   33.82    7.11
  -9   4   2   21.52    4.80
  -9   4   1    3.48    2.37
   9   4  -1    1.96    1.71
   9   4   0    5.84    3.57
  -9   4   0   10.10    3.84
   9   4   1    4.82    3.05
  -9   4  -1   -1.58    2.14
  -9  -4  -1    4.17    2.09
  -9   4  -2   37.19    7.29
  -9  -4  -2   51.81    8.21
  -9   4  -3    3.11    3.27
  -9  -4  -3    2.62    2.74
  -9  -4  -4   -0.20    1.66
  -9   5   5    1.31    2.44
  -9   5   4    7.52    3.50
   9   5  -4    8.16    4.48
   9  -5  -3   19.17    5.81
   9   5  -3    8.50    4.22
  -9   5   3    8.54    3.31
   9   5  -2    3.59    2.71
  -9   5   2    2.41    1.87
  -9   5   1    0.39    1.10
   9   5  -1   -7.55    4.42
  -9   5   0   -1.79    1.67
   9   5   0   -4.42    2.75
   9   5   1    2.89    2.49
  -9   5  -1    1.26    1.74
  -9   5  -2   -0.22    1.99
  -9  -5  -2    4.01    2.73
   9   5   2    1.85    2.19
  -9   5  -3   12.08    4.62
  -9  -5  -3   15.52    4.94
  -9  -5  -4    7.87    4.33
  -9   6   4    0.06    1.34
   9  -6  -3    5.85    3.69
   9   6  -3    4.16    3.78
  -9   6   3    6.52    2.92
   9   6  -2    8.45    3.93
   9  -6  -2   18.90    6.44
  -9   6   2    7.45    3.14
  -9   6   1   32.63    6.72
   9   6  -1   38.28    7.43
  -9   6   0    5.90    2.77
   9   6   0    3.19    2.61
  -9   6  -1   38.24    7.85
   9   6   1   43.63    8.10
   9   6   2    4.41    3.06
  -9   6  -2    0.79    1.83
  -9  -6  -2   -2.45    2.25
  -9   6  -3    0.39    2.59
  -9  -6  -3   -0.26    1.22
  -9   7   4    6.63    3.56
   9   7  -3    1.76    3.06
  -9   7   3   -2.13    1.95
   9   7  -2   -0.16    1.65
  -9   7   2    1.46    1.87
   9   7  -1    0.13    1.64
  -9   7   1    3.18    2.09
  -9   7   0    3.99    2.62
   9   7   0   -1.82    3.09
  -9   7  -1   11.93    4.25
   9   7   1    7.26    3.11
   9   7   2    2.18    1.76
  -9   7  -2    7.35    3.68
  -9   8   4   -0.02    1.48
  -9   8   3    1.41    2.29
   9   8  -2   -0.31    1.85
  -9   8   2    2.87    2.45
   9   8  -1    3.00    2.83
  -9   8   1   -0.46    1.94
  -9   8   0    0.73    1.48
   9   8   0    2.50    2.46
  -9   8  -1    1.15    1.51
   9   8   1   -1.36    2.17
  -9   8  -2    1.50    1.77
  -9   9   3   21.04    5.79
   9   9  -2    0.99    2.16
  -9   9   2    4.01    2.71
   9   9  -1   12.08    4.12
  -9   9   1   12.14    4.20
  -9   9   0    1.50    2.53
   9   9   0   -1.25    1.65
  -9   9  -1   -0.42    1.80
   9   9   1    6.64    3.74
   9  10  -1    3.04    2.84
   9  10   0    0.85    1.97
   9  11  -1    1.17    1.96
   9  11   0   -1.33    1.82
  10   0  -4    2.41    2.55
  10   0  -3   -4.35    3.01
  10   0  -2    0.63    2.93
  10   0  -1   -0.02    2.58
 -10   0   0  505.95   24.10
 -10   0  -1    1.81    1.35
 -10   0  -2   -1.56    2.16
 -10   0  -3    3.23    2.47
  10  -1  -4    6.18    4.22
  10   1  -4    5.44    4.18
  10  -1  -3   -1.26    3.08
  10   1  -3   -6.02    3.22
  10  -1  -2   -1.37    3.04
  10   1  -2    0.99    2.11
  10   1  -1   39.04    8.33
 -10   1   1   25.70    5.44
  10  -1  -1   51.19   10.05
 -10   1   0    8.21    3.55
 -10  -1   0    2.64    1.80
 -10   1  -1   14.60    4.54
 -10  -1  -1   14.74    4.47
 -10   1  -2   -0.42    2.65
 -10  -1  -2    4.43    3.24
 -10   1  -3   -0.34    1.45
 -10  -1  -3   -1.65    2.62
  10  -2  -4    1.60    2.69
  10   2  -4    1.38    2.10
 -10   2   4   -0.70    2.30
  10  -2  -3    6.17    3.44
  10   2  -3   10.37    5.19
  10  -2  -2   15.39    5.57
  10   2  -2   15.13    5.45
  10   2  -1   12.18    4.87
 -10   2   1   13.69    4.08
  10  -2  -1    4.99    3.98
  10   2   0   25.04    7.09
 -10   2   0   16.44    4.61
 -10   2  -1    9.60    3.99
 -10  -2  -1    7.97    3.34
 -10   2  -2   20.71    5.75
 -10  -2  -2   21.39    5.51
 -10   2  -3   -2.28    3.48
 -10  -2  -3   -2.83    2.29
  10  -3  -4    0.35    2.41
  10  -3  -3   -0.05    2.99
  10   3  -3    9.33    4.83
 -10   3   2   20.42    4.82
  10  -3  -2   33.40    8.54
  10   3  -2   24.37    6.32
 -10   3   1    0.04    1.16
  10   3  -1    1.34    1.87
  10   3   0   -0.21    2.52
 -10   3   0   -3.58    2.75
 -10   3  -1    4.73    3.23
 -10  -3  -1    2.00    2.15
  10   3   1    3.86    3.55
 -10   3  -2    6.82    3.38
 -10  -3  -2    4.72    3.11
 -10   3  -3    3.63    2.43
 -10  -3  -3    2.43    2.69
  10  -4  -3    2.36    2.03
  10   4  -3    7.03    5.47
  10  -4  -2    1.67    3.41
 -10   4   2   -0.35    0.99
  10   4  -2    0.15    1.78
 -10   4   1    3.31    2.57
  10   4  -1    7.85    3.33
  10   4   0    5.70    4.19
 -10   4   0   -0.07    1.96
  10   4   1   14.40    5.37
 -10   4  -1   11.63    4.30
 -10   4  -2   -5.56    3.41
 -10  -4  -2    2.47    2.71
  10   4   2    3.47    3.05
 -10  -4  -3    0.25    1.94
  10  -5  -3    3.41    2.83
  10   5  -3    1.54    2.45
  10  -5  -2   14.83    6.86
 -10   5   2    9.66    3.56
  10   5  -2    6.32    3.75
 -10   5   1    0.24    1.15
  10   5  -1   -1.37    3.21
 -10   5   0    3.32    2.27
  10   5   0   -5.25    4.20
  10   5   1    2.10    2.43
 -10   5  -1    4.78    2.04
  10   5   2    5.95    3.63
 -10   5  -2    2.32    2.35
 -10  -5  -2    3.35    3.16
 -10  -5  -3    1.95    2.59
  10   5   3    6.95    3.57
 -10   6   3    0.83    1.16
 -10   6   2    0.57    1.07
  10   6  -2    2.65    2.57
 -10   6   1    2.15    1.34
  10   6  -1    3.44    2.40
 -10   6   0   15.66    4.90
  10   6   0   10.76    3.95
 -10   6  -1    1.68    2.12
  10   6   1    2.38    3.24
  10   6   2    5.59    3.43
 -10   6  -2    7.73    4.06
 -10  -6  -3   -2.52    2.23
 -10   7   3   35.68    7.20
  10   7  -2    0.92    3.00
  10  -7  -2   -1.65    2.68
 -10   7   2   -1.71    2.15
 -10   7   1    0.26    1.94
  10   7  -1    1.33    2.05
 -10   7   0   -1.22    2.17
  10   7   0   -0.12    1.98
 -10   7  -1    4.19    2.71
  10   7   1    0.13    2.47
  10   7   2   -1.03    2.31
 -10   8   2    2.99    2.77
 -10   8   1    6.03    3.46
  10   8  -1    5.04    3.34
 -10   8   0   24.98    6.26
  10   8   0   16.03    5.07
  10   8   1    0.59    2.54
  10   9   0   10.82    4.50
  10   9   1    4.76    3.05
  11   0  -3    7.32    4.69
  11   0  -2    8.05    3.70
  11   0  -1    3.67    2.37
  11   0   0   21.51    7.41
 -11   0  -1    0.88    1.18
 -11   0  -2   -1.66    2.45
  11  -1  -3   -6.04    3.81
  11  -1  -2   -1.81    4.39
  11   1  -2   -4.71    4.86
  11  -1  -1    6.13    5.40
  11   1  -1    3.58    4.16
 -11   1   0   -0.40    1.41
  11   1   0   10.49    5.75
 -11   1  -1   -1.86    2.47
 -11  -1  -1    0.44    1.85
 -11   1  -2    0.06    1.74
 -11  -1  -2    0.13    1.81
  11  -2  -3   -1.69    3.04
  11  -2  -2    2.79    3.46
  11   2  -2   -1.26    2.16
  11   2  -1   -1.98    2.35
  11  -2  -1    6.65    4.97
  11   2   0   10.15    4.51
 -11   2   0   11.19    4.07
 -11   2  -1    0.38    1.64
  11   2   1    3.23    4.00
 -11   2  -2    2.25    2.25
 -11  -2  -2    2.20    2.33
  11  -3  -3   -1.66    2.82
  11  -3  -2    2.79    4.53
  11   3  -2    4.26    4.25
 -11   3   1   36.81    7.01
  11   3  -1   34.02    7.74
  11  -3  -1   47.43   10.87
  11   3   0    0.44    2.94
 -11   3   0    1.56    2.01
  11   3   1   26.67    8.37
 -11   3  -1   20.51    5.95
 -11   3  -2    0.63    1.82
 -11  -3  -2    1.03    1.43
  11  -4  -3    1.07    3.35
  11  -4  -2    7.25    5.63
 -11   4   1   -0.39    1.45
  11   4  -1   -6.92    4.58
  11   4   0    3.45    2.08
 -11   4   0   -2.30    3.10
  11   4   1   -0.50    3.28
 -11   4  -1   -0.87    2.14
  11   4   2    7.96    5.14
  11  -5  -3   19.57    7.49
  11  -5  -2    5.16    5.26
 -11   5   2    1.19    1.85
 -11   5   1    3.11    2.71
  11   5  -1   -1.30    2.05
 -11   5   0   -3.25    3.41
  11   5   0   -0.20    2.17
  11   5   1    0.82    2.15
 -11   5  -1    0.03    2.33
  11   5   2    7.56    4.56
  11  -6  -2    4.08    4.09
 -11   6   2   -2.15    1.96
 -11   6   1    0.84    2.21
 -11   6   0    3.70    3.11
  11   6   0    1.35    2.64
  11   6   1    1.95    3.41
  11  -7  -2    0.45    2.33
 -12   1  -1    1.10    1.43
 -12   2  -1    2.74    2.54
 -12   3   0   -4.84    3.04
 -12   4   0   17.62    5.54
   0   0   0    0.00    0.00
;
_shelx_hkl_checksum              49249
loop_
_space_group_symop_operation_xyz
'x, y, z'
'-x, y+1/2, -z+1/2'
'-x, -y, -z'
'x, -y-1/2, z-1/2'
loop_
_atom_site_label
_atom_site_type_symbol
_atom_site_fract_x
_atom_site_fract_y
_atom_site_fract_z
_atom_site_U_iso_or_equiv
_atom_site_adp_type
_atom_site_occupancy
_atom_site_site_symmetry_order
_atom_site_calc_flag
_atom_site_refinement_flags_posn
_atom_site_refinement_flags_adp
_atom_site_refinement_flags_occupancy
_atom_site_disorder_assembly
_atom_site_disorder_group
O5 O 0.3401(3) 0.5668(2) 0.5394(4) 0.0183(7) Uani 1 1 d . . . . .
O6 O 0.3466(3) 0.6971(2) 0.7924(5) 0.0282(8) Uani 1 1 d . . . . .
O2 O 0.1599(3) 0.4329(2) 0.5212(4) 0.0175(7) Uani 1 1 d . . . . .
O3 O 0.1562(3) 0.2942(2) 0.7530(5) 0.0283(8) Uani 1 1 d . . . . .
O7 O 0.1359(3) 0.6533(2) 0.6339(5) 0.0246(7) Uani 1 1 d . . . . .
N1 N 0.2369(4) 0.3506(3) 0.6507(5) 0.0203(8) Uani 1 1 d . . . . .
O1 O 0.2345(3) 0.4972(2) 0.0232(5) 0.0258(8) Uani 1 1 d . . . . .
N2 N 0.2649(4) 0.6464(3) 0.6660(5) 0.0198(8) Uani 1 1 d . . . . .
O4 O 0.3667(3) 0.3482(2) 0.6402(5) 0.0260(7) Uani 1 1 d . . . . .
C3 C 0.2466(4) 0.5017(3) 0.3909(6) 0.0162(9) Uani 1 1 d . . . . .
C1 C 0.3348(5) 0.4521(3) 0.1987(6) 0.0204(9) Uani 1 1 d . . . . .
H1A H 0.434128 0.481025 0.192812 0.024 Uiso 1 1 calc R U . . .
H1B H 0.335882 0.372910 0.200763 0.024 Uiso 1 1 calc R U . . .
C2 C 0.1558(5) 0.5553(3) 0.1975(6) 0.0198(9) Uani 1 1 d . . . . .
H2B H 0.051900 0.536729 0.198265 0.024 Uiso 1 1 calc R U . . .
H2A H 0.169146 0.633833 0.190637 0.024 Uiso 1 1 calc R U . . .
loop_
_atom_site_aniso_label
_atom_site_aniso_U_11
_atom_site_aniso_U_22
_atom_site_aniso_U_33
_atom_site_aniso_U_23
_atom_site_aniso_U_13
_atom_site_aniso_U_12
O5 0.0175(15) 0.0186(15) 0.0188(15) -0.0054(12) 0.0032(11) -0.0032(12)
O6 0.0338(18) 0.0241(17) 0.0264(17) -0.0083(13) -0.0028(13) -0.0034(14)
O2 0.0194(15) 0.0167(15) 0.0169(15) 0.0040(11) 0.0036(11) 0.0029(12)
O3 0.0361(18) 0.0235(18) 0.0258(17) 0.0073(13) 0.0071(13) -0.0029(15)
O7 0.0205(17) 0.0230(17) 0.0301(17) -0.0046(13) 0.0010(12) 0.0047(13)
N1 0.031(2) 0.0140(18) 0.0162(18) -0.0001(14) 0.0013(15) 0.0022(16)
O1 0.0329(17) 0.0307(18) 0.0139(15) -0.0006(13) 0.0020(12) 0.0041(15)
N2 0.024(2) 0.0166(18) 0.0188(19) -0.0009(14) -0.0004(14) 0.0004(15)
O4 0.0184(17) 0.0268(18) 0.0329(18) 0.0033(13) 0.0019(12) 0.0053(13)
C3 0.017(2) 0.015(2) 0.017(2) 0.0003(16) 0.0018(16) -0.0043(17)
C1 0.026(2) 0.020(2) 0.015(2) 0.0012(17) 0.0031(17) 0.0009(18)
C2 0.026(2) 0.020(2) 0.013(2) -0.0007(17) -0.0001(16) 0.0025(18)
loop_
_atom_type_symbol
_atom_type_description
_atom_type_scat_dispersion_real
_atom_type_scat_dispersion_imag
_atom_type_scat_source
C C 0.0033 0.0016 'International Tables Vol C Tables 4.2.6.8 and 6.1.1.4'
H H 0.0000 0.0000 'International Tables Vol C Tables 4.2.6.8 and 6.1.1.4'
N N 0.0061 0.0033 'International Tables Vol C Tables 4.2.6.8 and 6.1.1.4'
O O 0.0106 0.0060 'International Tables Vol C Tables 4.2.6.8 and 6.1.1.4'
loop_
_geom_angle_atom_site_label_1
_geom_angle_atom_site_label_2
_geom_angle_atom_site_label_3
_geom_angle
_geom_angle_site_symmetry_1
_geom_angle_site_symmetry_3
_geom_angle_publ_flag
N2 O5 C3 113.7(3) . . ?
C3 O2 N1 115.4(3) . . ?
O3 N1 O4 130.8(4) . . ?
O3 N1 O2 111.6(3) . . ?
O4 N1 O2 117.6(3) . . ?
C1 O1 C2 92.3(3) . . ?
O7 N2 O6 130.3(4) . . ?
O7 N2 O5 118.2(3) . . ?
O6 N2 O5 111.4(3) . . ?
O2 C3 O5 111.7(3) . . ?
O2 C3 C2 110.3(3) . . ?
O5 C3 C2 118.9(3) . . ?
O2 C3 C1 117.9(3) . . ?
O5 C3 C1 109.3(3) . . ?
C2 C3 C1 86.9(3) . . ?
O1 C1 C3 89.9(3) . . ?
O1 C1 H1A 113.7 . . ?
C3 C1 H1A 113.7 . . ?
O1 C1 H1B 113.7 . . ?
C3 C1 H1B 113.7 . . ?
H1A C1 H1B 110.9 . . ?
O1 C2 C3 90.3(3) . . ?
O1 C2 H2B 113.6 . . ?
C3 C2 H2B 113.6 . . ?
O1 C2 H2A 113.6 . . ?
C3 C2 H2A 113.6 . . ?
H2B C2 H2A 110.9 . . ?
loop_
_geom_bond_atom_site_label_1
_geom_bond_atom_site_label_2
_geom_bond_distance
_geom_bond_site_symmetry_2
_geom_bond_publ_flag
O5 N2 1.430(4) . ?
O5 C3 1.441(4) . ?
O6 N2 1.206(4) . ?
O2 C3 1.413(4) . ?
O2 N1 1.441(4) . ?
O3 N1 1.199(4) . ?
O7 N2 1.204(4) . ?
N1 O4 1.206(4) . ?
O1 C1 1.455(5) . ?
O1 C2 1.458(5) . ?
C3 C2 1.520(5) . ?
C3 C1 1.533(5) . ?
C1 H1A 0.9900 . ?
C1 H1B 0.9900 . ?
C2 H2B 0.9900 . ?
C2 H2A 0.9900 . ?
loop_
_geom_contact_atom_site_label_1
_geom_contact_atom_site_label_2
_geom_contact_distance
_geom_contact_site_symmetry_1
_geom_contact_site_symmetry_2
_geom_contact_publ_flag
? ? ? ? ? ?
loop_
_geom_hbond_atom_site_label_D
_geom_hbond_atom_site_label_H
_geom_hbond_atom_site_label_A
_geom_hbond_distance_DH
_geom_hbond_distance_HA
_geom_hbond_distance_DA
_geom_hbond_angle_DHA
_geom_hbond_site_symmetry_A
? ? ? ? ? ? ? ?
loop_
_geom_torsion_atom_site_label_1
_geom_torsion_atom_site_label_2
_geom_torsion_atom_site_label_3
_geom_torsion_atom_site_label_4
_geom_torsion
_geom_torsion_site_symmetry_1
_geom_torsion_site_symmetry_2
_geom_torsion_site_symmetry_3
_geom_torsion_site_symmetry_4
_geom_torsion_publ_flag
C3 O2 N1 O3 -178.6(3) . . . . ?
C3 O2 N1 O4 1.0(4) . . . . ?
C3 O5 N2 O7 -1.8(4) . . . . ?
C3 O5 N2 O6 178.2(3) . . . . ?
N1 O2 C3 O5 -66.6(4) . . . . ?
N1 O2 C3 C2 158.8(3) . . . . ?
N1 O2 C3 C1 61.2(4) . . . . ?
N2 O5 C3 O2 -69.7(4) . . . . ?
N2 O5 C3 C2 60.5(4) . . . . ?
N2 O5 C3 C1 157.9(3) . . . . ?
C2 O1 C1 C3 5.6(3) . . . . ?
O2 C3 C1 O1 106.0(3) . . . . ?
O5 C3 C1 O1 -125.0(3) . . . . ?
C2 C3 C1 O1 -5.4(3) . . . . ?
C1 O1 C2 C3 -5.7(3) . . . . ?
O2 C3 C2 O1 -113.3(3) . . . . ?
O5 C3 C2 O1 115.8(3) . . . . ?
C1 C3 C2 O1 5.4(3) . . . . ?
