#------------------------------------------------------------------------------
#$Date: 2021-01-07 06:56:17 +0200 (Thu, 07 Jan 2021) $
#$Revision: 260701 $
#$URL: file:///home/coder/svn-repositories/cod/cif/7/12/72/7127273.cif $
#------------------------------------------------------------------------------
#
# This file is available in the Crystallography Open Database (COD),
# http://www.crystallography.net/
#
# All data on this site have been placed in the public domain by the
# contributors.
#
data_7127273
loop_
_publ_author_name
'Yasui, Takeshi'
'Kikuchi, Tomohiro'
'Yamamoto, Yoshihiko'
_publ_section_title
;
 Rhodium-catalyzed cycloisomerization of ester-tethered 1,6-diynes with
 cyclopropanol moiety leading to tetralone/exocyclic diene hybrid
 molecules.
;
_journal_issue                   84
_journal_name_full
'Chemical communications (Cambridge, England)'
_journal_page_first              12865
_journal_page_last               12868
_journal_paper_doi               10.1039/d0cc05429a
_journal_volume                  56
_journal_year                    2020
_chemical_absolute_configuration 'CHOOSE rm ad rmad syn or unk'
_chemical_formula_moiety         'C21 H16 O3'
_chemical_formula_sum            'C21 H16 O3'
_chemical_formula_weight         316.36
_space_group_crystal_system      monoclinic
_space_group_IT_number           4
_space_group_name_Hall           'P 2yb'
_space_group_name_H-M_alt        'P 1 21 1'
_atom_sites_solution_hydrogens   geom
_atom_sites_solution_primary     direct
_atom_sites_solution_secondary   difmap
_audit_update_record
;
2020-06-03 deposited with the CCDC.	2020-09-16 downloaded from the CCDC.
;
_cell_angle_alpha                90.0000
_cell_angle_beta                 116.4260(18)
_cell_angle_gamma                90.0000
_cell_formula_units_Z            2
_cell_length_a                   9.6092(3)
_cell_length_b                   8.1201(3)
_cell_length_c                   10.9799(4)
_cell_measurement_reflns_used    7311
_cell_measurement_temperature    123
_cell_measurement_theta_max      68.22
_cell_measurement_theta_min      4.50
_cell_volume                     767.22(5)
_computing_cell_refinement       'RAPID AUTO'
_computing_data_collection       'RAPID AUTO (Rigaku, ????)'
_computing_data_reduction        'RAPID AUTO'
_computing_molecular_graphics    'CrystalStructure 4.2'
_computing_publication_material  'CrystalStructure 4.2 (Rigaku, 2015)'
_computing_structure_refinement  'SHELXL Version 2014/7 (Sheldrick, 2008)'
_computing_structure_solution    'Il Milione (Burla, et al., 2007)'
_diffrn_ambient_temperature      123
_diffrn_detector_area_resol_mean 10.000
_diffrn_measured_fraction_theta_full 0.999
_diffrn_measured_fraction_theta_max 0.997
_diffrn_measurement_device_type  'Rigaku R-AXIS RAPID'
_diffrn_measurement_method       \w
_diffrn_radiation_type           'Cu K\a'
_diffrn_radiation_wavelength     1.54187
_diffrn_reflns_av_R_equivalents  0.0352
_diffrn_reflns_Laue_measured_fraction_full 0.999
_diffrn_reflns_Laue_measured_fraction_max 0.997
_diffrn_reflns_limit_h_max       11
_diffrn_reflns_limit_h_min       -11
_diffrn_reflns_limit_k_max       9
_diffrn_reflns_limit_k_min       -9
_diffrn_reflns_limit_l_max       13
_diffrn_reflns_limit_l_min       -13
_diffrn_reflns_number            8943
_diffrn_reflns_point_group_measured_fraction_full 0.962
_diffrn_reflns_point_group_measured_fraction_max 0.958
_diffrn_reflns_theta_full        67.687
_diffrn_reflns_theta_max         68.214
_diffrn_reflns_theta_min         4.497
_diffrn_standards_number         0
_exptl_absorpt_coefficient_mu    0.734
_exptl_absorpt_correction_T_max  0.929
_exptl_absorpt_correction_T_min  0.734
_exptl_absorpt_correction_type   multi-scan
_exptl_absorpt_process_details   'ABSCOR (Rigaku, 1995)'
_exptl_crystal_colour            yellow
_exptl_crystal_density_diffrn    1.369
_exptl_crystal_density_method    'not measured'
_exptl_crystal_description       platelet
_exptl_crystal_F_000             332.00
_exptl_crystal_size_max          0.200
_exptl_crystal_size_mid          0.200
_exptl_crystal_size_min          0.100
_refine_diff_density_max         0.19
_refine_diff_density_min         -0.21
_refine_ls_abs_structure_details
;
 Flack x determined using 1098 quotients [(I+)-(I-)]/[(I+)+(I-)]
 (Parsons, Flack and Wagner, Acta Cryst. B69 (2013) 249-259).
;
_refine_ls_abs_structure_Flack   0.05(8)
_refine_ls_extinction_coef       0.0050(11)
_refine_ls_extinction_method     SHELXL
_refine_ls_goodness_of_fit_ref   1.076
_refine_ls_hydrogen_treatment    constr
_refine_ls_number_parameters     218
_refine_ls_number_reflns         2701
_refine_ls_number_restraints     1
_refine_ls_R_factor_all          0.0333
_refine_ls_R_factor_gt           0.0317
_refine_ls_shift/su_max          0.000
_refine_ls_structure_factor_coef Fsqd
_refine_ls_weighting_details
'w = 1/[\s^2^(Fo^2^)+(0.0378P)^2^+0.1740P] where P=(Fo^2^+2Fc^2^)/3'
_refine_ls_weighting_scheme      calc
_refine_ls_wR_factor_gt          0.0800
_refine_ls_wR_factor_ref         0.0822
_reflns_Friedel_coverage         0.784
_reflns_Friedel_fraction_full    0.920
_reflns_Friedel_fraction_max     0.912
_reflns_number_gt                2602
_reflns_number_total             2701
_reflns_threshold_expression     F^2^>2.0\s(F^2^)
_cod_data_source_file            d0cc05429a3.cif
_cod_data_source_block           KIK-0575-pro
_cod_depositor_comments
'Adding full bibliography for 7127270--7127274.cif.'
_cod_original_cell_volume        767.22(4)
_cod_database_code               7127273
_shelx_res_file
;

    shelxl.res created by SHELXL-2014/7

TITL KIK-0575-pro
CELL  1.54187 9.60920 8.12014 10.97987 90.00000 116.42600 90.00000
ZERR  2 0.00028 0.00025 0.00035 0.00000 0.00180 0.00000
LATT -1
SYMM    -X, .50+Y,    -Z
SFAC C H O
UNIT 42 32 6
L.S. 10
FMAP 2
PLAN 30
WPDB -2
HTAB
BOND $H
CONF
LIST 4
TEMP -150.0
ACTA
SIZE 0.200 0.200 0.100
WGHT    0.037800    0.174000
EXTI    0.004986
FVAR       1.96208
O1    3    0.630145    0.383536    0.212767    11.00000    0.02909    0.04860 =
         0.03176    0.00019    0.01491   -0.00354
O2    3    0.488396    0.463804   -0.000320    11.00000    0.03525    0.04677 =
         0.03014   -0.00154    0.01885   -0.00590
O3    3   -0.022557   -0.035066   -0.311302    11.00000    0.04189    0.03317 =
         0.03595   -0.00701    0.00744   -0.00304
C1    1    0.611888    0.298164    0.320489    11.00000    0.03203    0.04467 =
         0.02862    0.00054    0.01477    0.00174
AFIX  23
H1A   2    0.651747    0.366189    0.404007    11.00000   -1.20000
H1B   2    0.668931    0.192296    0.341670    11.00000   -1.20000
AFIX   0
C2    1    0.439876    0.269054    0.267300    11.00000    0.03025    0.03170 =
         0.02692   -0.00386    0.01357    0.00023
C3    1    0.369913    0.308438    0.121847    11.00000    0.03130    0.03080 =
         0.02861   -0.00180    0.01791    0.00259
C4    1    0.492893    0.396643    0.098706    11.00000    0.03087    0.03679 =
         0.02960   -0.00660    0.01667   -0.00079
C5    1    0.230623    0.259063    0.021081    11.00000    0.03096    0.02855 =
         0.02861   -0.00359    0.01838    0.00077
C6    1    0.156196    0.331619   -0.116437    11.00000    0.02434    0.03104 =
         0.02932   -0.00251    0.01701   -0.00028
C7    1    0.159467    0.501469   -0.138204    11.00000    0.03025    0.03071 =
         0.03451   -0.00699    0.01955   -0.00277
AFIX  43
H7    2    0.216932    0.571415   -0.063078    11.00000   -1.20000
AFIX   0
C8    1    0.081170    0.569318   -0.266183    11.00000    0.03529    0.02710 =
         0.03951    0.00283    0.02235    0.00227
AFIX  43
H8    2    0.084750    0.684861   -0.278078    11.00000   -1.20000
AFIX   0
C9    1   -0.003334    0.468911   -0.378336    11.00000    0.03267    0.03976 =
         0.03192    0.00625    0.01591    0.00554
AFIX  43
H9    2   -0.055488    0.515271   -0.466766    11.00000   -1.20000
AFIX   0
C10   1   -0.010292    0.301856   -0.359414    11.00000    0.02878    0.03511 =
         0.02931   -0.00357    0.01289   -0.00070
AFIX  43
H10   2   -0.067790    0.233035   -0.435335    11.00000   -1.20000
AFIX   0
C11   1    0.066196    0.232859   -0.229985    11.00000    0.02393    0.03111 =
         0.02830   -0.00010    0.01414    0.00143
C12   1    0.049310    0.052650   -0.213237    11.00000    0.02358    0.03140 =
         0.03154   -0.00485    0.01270   -0.00008
C13   1    0.123359   -0.014340   -0.071107    11.00000    0.03105    0.02692 =
         0.03435    0.00024    0.01653   -0.00232
AFIX  23
H13A  2    0.226709   -0.059588   -0.052051    11.00000   -1.20000
H13B  2    0.059038   -0.106324   -0.065157    11.00000   -1.20000
AFIX   0
C14   1    0.143393    0.113536    0.038840    11.00000    0.03010    0.03493 =
         0.02825   -0.00033    0.01666   -0.00125
AFIX  23
H14A  2    0.040475    0.149103    0.029285    11.00000   -1.20000
H14B  2    0.202252    0.064976    0.130410    11.00000   -1.20000
AFIX   0
C15   1    0.364363    0.245887    0.343843    11.00000    0.02882    0.03738 =
         0.02733   -0.00357    0.01280    0.00018
AFIX  43
H15   2    0.254736    0.233717    0.296303    11.00000   -1.20000
AFIX   0
C16   1    0.432975    0.237378    0.492818    11.00000    0.03140    0.03173 =
         0.02668   -0.00076    0.01490   -0.00254
C17   1    0.343527    0.293152    0.556373    11.00000    0.02774    0.03724 =
         0.03040    0.00481    0.01402    0.00202
AFIX  43
H17   2    0.238628    0.324894    0.502243    11.00000   -1.20000
AFIX   0
C18   1    0.405364    0.302797    0.696649    11.00000    0.03486    0.03711 =
         0.02981   -0.00039    0.01993    0.00065
AFIX  43
H18   2    0.343973    0.343711    0.737973    11.00000   -1.20000
AFIX   0
C19   1    0.556444    0.252842    0.776404    11.00000    0.03787    0.03516 =
         0.02417    0.00082    0.01365   -0.00167
AFIX  43
H19   2    0.599700    0.260805    0.872638    11.00000   -1.20000
AFIX   0
C20   1    0.644726    0.191099    0.715694    11.00000    0.03190    0.04135 =
         0.03281    0.00621    0.01311    0.00750
AFIX  43
H20   2    0.747599    0.153739    0.770679    11.00000   -1.20000
AFIX   0
C21   1    0.583903    0.183451    0.575100    11.00000    0.03752    0.03835 =
         0.03275    0.00059    0.02071    0.00666
AFIX  43
H21   2    0.645585    0.141129    0.534552    11.00000   -1.20000
AFIX   0
HKLF 4

REM  KIK-0575-pro
REM R1 =  0.0317 for    2602 Fo > 4sig(Fo)  and  0.0333 for all    2701 data
REM    218 parameters refined using      1 restraints

END

WGHT      0.0378      0.1740

REM Instructions for potential hydrogen bonds
EQIV $1 -x+1, y-1/2, -z
HTAB C13 O2_$1

REM Highest difference peak  0.189,  deepest hole -0.215,  1-sigma level  0.034
Q1    1   0.4075  0.2518  0.1860  11.00000  0.05    0.19
Q2    1   0.3339  0.2371  0.0685  11.00000  0.05    0.16
Q3    1   0.2859  0.3233  0.0831  11.00000  0.05    0.14
Q4    1   0.4140  0.3252  0.3234  11.00000  0.05    0.14
Q5    1   0.5265  0.2757  0.3007  11.00000  0.05    0.14
Q6    1   0.3958  0.2049  0.4216  11.00000  0.05    0.14
Q7    1   0.1136  0.2752 -0.1705  11.00000  0.05    0.13
Q8    1   0.3981  0.3218  0.5203  11.00000  0.05    0.13
Q9    1   0.4075  0.2886  0.4164  11.00000  0.05    0.13
Q10   1   0.1060  0.0272 -0.1372  11.00000  0.05    0.13
Q11   1   0.2189  0.2916 -0.0595  11.00000  0.05    0.13
Q12   1   0.4060  0.1909  0.2976  11.00000  0.05    0.13
Q13   1   0.1379  0.0536 -0.0225  11.00000  0.05    0.13
Q14   1   0.6381  0.2429  0.6463  11.00000  0.05    0.13
Q15   1   0.3557  0.2505  0.6255  11.00000  0.05    0.12
Q16   1   0.7343  0.3766  0.2389  11.00000  0.05    0.11
Q17   1  -0.0194  0.2608 -0.2871  11.00000  0.05    0.11
Q18   1   0.3732  0.2098  0.5254  11.00000  0.05    0.11
Q19   1   0.2011  0.4064 -0.1389  11.00000  0.05    0.11
Q20   1   0.0805  0.2637 -0.2965  11.00000  0.05    0.11
Q21   1   0.1726  0.5068 -0.2174  11.00000  0.05    0.11
Q22   1  -0.0189  0.5274 -0.3169  11.00000  0.05    0.11
Q23   1   0.5231  0.2522  0.5327  11.00000  0.05    0.11
Q24   1   0.7797  0.1967  0.7513  11.00000  0.05    0.10
Q25   1   0.3988  0.3986  0.1058  11.00000  0.05    0.10
Q26   1   0.6035  0.1366  0.6414  11.00000  0.05    0.10
Q27   1   0.1929  0.4319  0.4979  11.00000  0.05    0.10
Q28   1   0.1068  0.1472 -0.2252  11.00000  0.05    0.10
Q29   1   0.0613  0.3722 -0.3664  11.00000  0.05    0.10
Q30   1   0.5807  0.5340  0.0298  11.00000  0.05    0.10
;
_shelx_res_checksum              47088
_shelx_hkl_file
;
   0   0   1  895.56   24.81
   0   0   1  942.17   23.51
   0   0   1  952.89   25.67
   0   0   1  875.86   23.05
   0   0   1  984.80   26.44
   0   0  -1  983.56   26.65
   0   0  -1 1054.78   28.78
   0   0  -1 1061.69   28.67
   0   0  -1 1050.24   28.29
   0   0   2 2818.70  119.29
   0   0   2 2841.91  115.81
   0   0   2 3064.23  114.02
   0   0  -2 2670.75  111.22
   0   0  -2 3069.25  134.55
   0   0  -2 2827.49  115.36
   0   0  -2 3086.27  120.82
   0   0   3 3673.55  158.74
   0   0   3 3607.34  147.88
   0   0   3 3564.38  144.74
   0   0   3 3743.59  160.17
   0   0   3 3693.73  170.85
   0   0  -3 3580.48  156.68
   0   0  -3 3835.82  165.90
   0   0  -3 3733.69  163.10
   0   0  -3 3678.65  159.68
   0   0   4 2114.35   73.03
   0   0   4 2088.08   80.51
   0   0   4 2006.61   81.91
   0   0   4 2065.13   80.84
   0   0   4 1987.36   69.30
   0   0  -4 1953.84   82.96
   0   0  -4 2117.41   84.68
   0   0  -4 2106.63   83.22
   0   0  -4 2171.74   81.31
   0   0   5  460.14   11.35
   0   0   5  500.95   20.44
   0   0   5  463.44   11.76
   0   0   5  479.93   16.49
   0   0   5  453.75   16.69
   0   0  -5  491.79   19.26
   0   0  -5  466.76   17.58
   0   0  -5  488.88   15.64
   0   0  -5  471.42   18.33
   0   0   6    2.44    1.71
   0   0   6    3.71    2.34
   0   0   6    1.99    2.15
   0   0  -6    1.84    1.77
   0   0  -6    2.70    1.28
   0   0  -6    0.51    2.00
   0   0  -6    1.21    1.94
   0   0   7    7.22    2.16
   0   0   7   11.18    5.47
   0   0  -7    8.13    2.00
   0   0  -7   11.62    2.77
   0   0  -7   10.53    3.08
   0   0   8  171.31   11.56
   0   0   8  159.32    8.31
   0   0  -8  163.20    9.59
   0   0  -8  175.88   10.85
   0   0   9  770.15   35.57
   0   0  -9  763.73   34.09
   0   0  -9  786.83   42.15
   0   0  10  132.78    9.62
   0   0 -10  131.49    8.79
   0   0  11   74.04    5.91
   0   0  11   68.87    5.19
   0   1   0    3.58    0.59
   0   1   0    3.04    0.73
   0   1   0    3.49    0.69
   0  -1   0    3.43    0.85
   0  -1   0    4.56    0.26
   0  -1   0    3.18    0.64
   0   1   1 1280.07   39.87
   0   1   1 1246.24   38.25
   0   1  -1 1262.60   35.95
   0   1   1 1256.16   36.82
   0   1  -1 1302.34   40.28
   0   1   1 1256.09   40.66
   0   1  -1 1324.09   40.41
   0   1  -1 1286.32   38.97
   0   1   1 1250.33   35.93
   0  -1   1 1339.65   40.54
   0  -1   1 1227.56   36.19
   0  -1   1 1316.53   41.47
   0  -1   1 1317.29   41.27
   0  -1  -1 1221.97   37.76
   0  -1   1 1148.27   33.90
   0  -1  -1 1319.96   41.41
   0  -1  -1 1312.86   37.94
   0  -1  -1 1298.51   42.30
   0   1   2 1611.73   60.34
   0   1   2 1687.06   68.12
   0   1  -2 1593.48   58.34
   0   1   2 1859.69   67.63
   0   1  -2 1707.52   64.71
   0   1   2 1803.25   67.16
   0  -1   2 1606.34   58.89
   0  -1   2 1635.79   69.71
   0  -1  -2 1519.94   54.72
   0  -1  -2 1733.33   57.94
   0  -1   2 1810.03   68.51
   0  -1  -2 1642.29   61.56
   0  -1  -2 1765.29   65.65
   0  -1  -2 1726.45   63.28
   0  -1   2 1650.45   61.37
   0   1   3  760.72   22.93
   0   1   3  699.53   22.94
   0   1  -3  692.49   22.07
   0   1  -3  686.86   26.85
   0   1   3  735.70   24.51
   0   1  -3  751.22   24.60
   0   1   3  815.90   26.48
   0   1  -3  761.52   23.77
   0  -1   3  643.10   26.45
   0  -1   3  675.03   20.49
   0  -1  -3  737.25   21.23
   0  -1  -3  671.78   22.84
   0  -1  -3  718.00   24.23
   0  -1  -3  704.85   21.80
   0  -1   3  763.03   25.20
   0  -1  -3  688.34   25.47
   0   1   4 3848.33  182.58
   0   1   4 3845.73  185.58
   0   1   4 3708.00  168.38
   0   1   4 3805.44  175.30
   0   1   4 3885.02  170.07
   0   1  -4 4029.99  180.97
   0   1  -4 3849.90  175.17
   0   1  -4 3848.02  176.48
   0   1  -4 3977.53  184.65
   0  -1   4 3719.46  166.54
   0  -1  -4 3635.73  169.83
   0  -1   4 3584.31  169.40
   0  -1  -4 3989.13  187.03
   0  -1  -4 4057.10  179.32
   0  -1   4 3743.30  173.51
   0  -1  -4 3912.88  170.08
   0  -1  -4 3943.30  178.32
   0   1   5  508.66   19.11
   0   1   5  532.28   17.16
   0   1   5  509.84   19.76
   0   1   5  499.04   15.10
   0   1  -5  534.65   19.40
   0   1   5  494.05   16.12
   0   1  -5  513.26   19.76
   0   1  -5  502.88   19.39
   0   1  -5  496.37   17.22
   0  -1   5  514.74   19.23
   0  -1  -5  508.71   20.74
   0  -1  -5  513.28   18.50
   0  -1   5  473.14   16.24
   0  -1   5  496.49   20.44
   0  -1  -5  477.32   18.31
   0  -1  -5  541.84   16.76
   0   1  -6   77.57    5.35
   0   1   6   68.17    5.52
   0   1   6   69.27    3.83
   0   1   6   73.37    5.32
   0   1  -6   71.66    5.96
   0   1  -6   73.29    7.96
   0   1  -6   70.73    4.25
   0  -1  -6   73.27    3.46
   0  -1   6   66.82    4.29
   0  -1   6   61.02    6.13
   0  -1  -6   74.69    6.04
   0  -1  -6   64.76    5.09
   0  -1   6   74.59    5.41
   0  -1  -6   71.92    5.30
   0   1  -7  334.19   14.78
   0   1  -7  328.94   15.05
   0   1   7  330.69   15.74
   0  -1   7  331.52   14.71
   0  -1   7  336.07   16.88
   0  -1  -7  351.56   16.75
   0  -1  -7  327.28   14.88
   0   1  -8  516.27   22.50
   0   1   8  498.29   22.89
   0   1  -8  482.65   21.82
   0  -1   8  474.52   20.44
   0  -1   8  506.56   24.59
   0  -1  -8  489.12   23.36
   0  -1  -8  457.00   21.10
   0   1  -9  897.38   39.09
   0   1   9  865.39   45.70
   0   1  -9  852.11   37.67
   0  -1   9  813.26   35.33
   0  -1   9  888.80   40.92
   0  -1  -9  859.85   43.68
   0  -1  -9  859.05   38.96
   0   1  10   56.72    5.76
   0   1 -10   46.27    5.16
   0  -1  10   55.16    6.09
   0  -1 -10   52.00    5.95
   0  -1 -10   45.83    4.93
   0   1  11    4.83    2.23
   0   1  11    6.23    2.29
   0  -1  11    5.56    2.62
   0  -1  11    4.72    1.78
   0   2   011068.78  674.15
   0   2   011444.89  696.20
   0   2   011493.59  674.29
   0   2   011337.14  660.93
   0  -2   010784.34  670.96
   0  -2   011869.98  690.23
   0  -2   011608.49  713.39
   0  -2   011728.74  712.58
   0   2   1 6611.75  322.93
   0   2   1 6471.51  336.62
   0   2   1 6296.79  311.07
   0   2   1 6497.26  332.90
   0   2  -1 6859.15  333.20
   0   2  -1 6464.26  319.28
   0   2  -1 6705.67  339.57
   0   2  -1 6810.80  344.64
   0  -2   1 6424.99  308.62
   0  -2   1 6602.32  340.05
   0  -2  -1 6764.53  348.32
   0  -2   1 6584.29  334.24
   0  -2   1 6694.79  330.40
   0  -2  -1 6852.84  344.15
   0  -2   1 6707.82  345.58
   0  -2  -1 6718.24  335.39
   0  -2  -1 6618.02  360.79
   0   2   2 1215.54   41.18
   0   2   2 1297.74   44.73
   0   2  -2 1219.43   34.54
   0   2   2 1242.70   43.85
   0   2  -2 1180.27   40.09
   0   2  -2 1229.68   44.04
   0  -2   2 1238.97   43.23
   0  -2   2 1259.66   41.39
   0  -2   2 1353.83   40.73
   0  -2   2 1151.30   34.31
   0  -2   2 1221.73   42.71
   0  -2  -2 1240.73   42.01
   0  -2  -2 1170.39   37.80
   0  -2  -2 1244.32   38.57
   0  -2  -2 1234.51   44.78
   0  -2  -2 1241.14   43.10
   0   2  -3   53.38    3.80
   0   2   3   59.63    3.81
   0   2   3   51.72    2.84
   0   2   3   55.77    4.00
   0   2  -3   52.35    5.49
   0  -2   3   52.62    2.92
   0  -2   3   43.32    3.78
   0  -2  -3   46.80    3.70
   0  -2   3   49.79    3.35
   0  -2   3   53.90    4.18
   0  -2  -3   49.52    2.11
   0  -2  -3   48.80    5.59
   0  -2  -3   48.65    3.64
   0  -2  -3   48.76    2.01
   0   2  -4 1858.96   68.97
   0   2  -4 1714.03   67.00
   0   2   4 1981.89   75.21
   0   2   4 1842.63   71.24
   0   2   4 1899.62   81.44
   0   2  -4 1663.60   65.22
   0  -2   4 1783.91   64.75
   0  -2   4 1599.56   65.64
   0  -2  -4 1860.35   73.51
   0  -2   4 1855.52   76.90
   0  -2  -4 1902.14   67.48
   0  -2  -4 1819.54   73.80
   0  -2   4 1965.47   80.07
   0  -2  -4 1649.83   66.95
   0  -2  -4 1584.72   57.81
   0   2   5  607.28   23.11
   0   2   5  628.11   23.69
   0   2   5  650.33   24.55
   0   2  -5  606.82   28.47
   0   2   5  610.90   22.46
   0   2  -5  614.03   26.13
   0   2  -5  606.32   22.55
   0   2  -5  652.51   22.13
   0  -2   5  579.60   23.05
   0  -2  -5  631.03   19.12
   0  -2   5  577.62   18.92
   0  -2  -5  510.72   17.23
   0  -2  -5  620.77   29.88
   0  -2   5  584.97   23.85
   0  -2  -5  561.37   22.01
   0  -2  -5  691.59   24.72
   0   2   6   96.87    4.60
   0   2  -6  106.08   10.08
   0   2  -6  100.85    5.88
   0   2   6   94.16    5.61
   0   2   6   95.79    5.95
   0   2  -6  100.72    5.69
   0   2  -6  104.55    7.00
   0  -2   6   94.82    6.71
   0  -2   6   95.78    7.01
   0  -2   6   96.59    4.72
   0  -2  -6  105.34    7.23
   0  -2  -6   89.80    6.10
   0   2   7   23.81    3.99
   0   2  -7   28.05    4.10
   0   2  -7   30.92    3.37
   0  -2   7   27.91    7.56
   0  -2   7   21.78    4.53
   0  -2  -7   24.59    4.90
   0  -2  -7   28.78    6.29
   0   2   8   51.40    5.47
   0   2  -8   53.02    5.70
   0   2  -8   54.66    5.06
   0  -2   8   53.68    6.52
   0  -2   8   50.93    5.93
   0  -2  -8   49.42    5.51
   0  -2  -8   49.92   10.04
   0   2   9  486.33   22.23
   0   2  -9  482.36   22.67
   0  -2   9  528.19   25.19
   0  -2   9  511.93   22.62
   0  -2  -9  494.86   28.11
   0  -2  -9  500.87   24.11
   0   2  10  209.03   11.67
   0   2  10  220.69   15.07
   0  -2  10  209.26   10.45
   0  -2  10  212.48   12.26
   0  -2 -10  184.91   10.11
   0   2  11   36.74    5.37
   0   2  11   41.64    6.56
   0  -2  11   43.09    4.67
   0   3   0    1.37    0.67
   0   3   0    0.46    1.44
   0   3   0    0.04    0.25
   0   3   0   -0.14    0.33
   0  -3   0    0.16    0.96
   0  -3   0   -0.28    0.79
   0  -3   0    1.78    1.03
   0   3  -1 2979.11  110.01
   0   3   1 2895.03  123.11
   0   3   1 2861.99  114.98
   0   3   1 2847.58  104.28
   0   3   1 3039.65  126.24
   0   3  -1 3022.45  124.08
   0   3   1 2815.11  103.04
   0   3   1 2954.94  115.95
   0   3  -1 2983.11  121.92
   0   3  -1 2910.67  111.22
   0  -3   1 2788.38  107.31
   0  -3   1 2857.48  118.90
   0  -3  -1 2779.86  122.33
   0  -3  -1 2969.66  131.65
   0  -3  -1 2867.61  115.87
   0  -3   1 2964.72  124.63
   0  -3   1 2845.14  121.03
   0   3   2  497.69   13.30
   0   3  -2  512.83   17.45
   0   3   2  504.96   18.68
   0   3   2  537.37   18.68
   0   3  -2  502.59   13.23
   0   3  -2  514.55   15.38
   0  -3   2  469.61   13.88
   0  -3   2  524.86   19.13
   0  -3   2  451.05   11.58
   0  -3   2  489.16   13.98
   0  -3   2  503.27   18.31
   0  -3  -2  503.10   15.87
   0  -3  -2  485.65   15.99
   0  -3  -2  483.97   21.41
   0  -3  -2  503.76   20.41
   0   3   3  133.21    7.17
   0   3   3  121.14    6.87
   0   3  -3  133.46    2.76
   0   3   3  118.66    4.30
   0   3  -3  128.06    6.60
   0   3  -3  139.15    9.14
   0   3  -3  141.34    2.72
   0  -3   3  126.48    5.33
   0  -3   3  125.03    4.07
   0  -3  -3  126.24    8.70
   0  -3   3  123.14    7.33
   0  -3  -3  125.49    8.11
   0  -3  -3  127.04    3.96
   0  -3   3  127.47    7.38
   0  -3  -3  126.21    6.80
   0   3  -4 1047.93   39.14
   0   3   4 1104.26   41.94
   0   3   4 1113.40   41.33
   0   3  -4 1010.51   36.13
   0   3   4 1033.51   35.49
   0  -3   4  993.85   37.23
   0  -3   4 1064.77   48.62
   0  -3  -4 1034.41   33.12
   0  -3  -4  935.22   31.01
   0  -3  -4 1035.51   45.46
   0  -3  -4 1080.67   42.45
   0  -3   4 1046.04   34.47
   0  -3   4 1164.88   46.28
   0  -3  -4 1025.66   39.83
   0   3  -5 1059.78   45.32
   0   3  -5  905.96   32.96
   0   3   5 1035.74   38.37
   0   3   5 1027.72   36.96
   0   3   5 1094.82   42.70
   0   3  -5  973.47   39.52
   0   3  -5 1005.71   37.02
   0  -3  -5  958.93   38.88
   0  -3   5 1068.07   44.26
   0  -3   5  812.00   33.33
   0  -3  -5  889.24   36.49
   0  -3  -5 1101.34   43.50
   0   3   6   33.08    4.13
   0   3   6   33.65    3.27
   0   3  -6   40.39    4.65
   0  -3   6   39.72    5.12
   0  -3  -6   28.27    4.28
   0  -3   6   31.69    4.21
   0  -3  -6   34.53    7.44
   0   3  -7  388.27   18.25
   0   3   7  350.12   15.08
   0  -3   7  401.43   19.89
   0  -3  -7  366.86   22.15
   0  -3   7  373.99   18.05
   0  -3  -7  376.34   18.79
   0   3  -8  107.40    8.08
   0   3   8   98.52    6.76
   0  -3   8  104.07    8.64
   0  -3  -8   94.83    7.58
   0  -3   8   97.18    7.96
   0  -3  -8  101.75    8.58
   0   3   9  140.23    9.59
   0   3  -9  140.60    9.27
   0  -3   9  159.57    9.80
   0  -3   9  155.57   10.01
   0  -3  -9  148.77    9.24
   0   3  10   26.01    4.25
   0  -3  10   28.29    4.30
   0  -3  10   30.87    3.96
   0  -3 -10   24.33    3.44
   0   3  11   -0.07    1.10
   0  -3  11    0.38    1.81
   0   4   0 7171.88  380.04
   0   4   0 7181.21  390.31
   0   4   0 6608.34  322.24
   0   4   0 6921.47  352.13
   0  -4   0 7049.71  391.64
   0  -4   0 6792.65  331.49
   0  -4   0 6926.40  399.88
   0  -4   0 7120.40  395.31
   0   4   1  354.66   13.46
   0   4  -1  338.02   11.64
   0   4   1  368.89   13.03
   0   4  -1  335.16   12.38
   0   4  -1  344.45    7.73
   0   4   1  330.94    9.34
   0   4  -1  332.50    8.56
   0  -4   1  358.54   13.64
   0  -4  -1  348.40   11.60
   0  -4   1  371.49   19.33
   0  -4   1  325.41   12.34
   0  -4  -1  345.37   21.73
   0  -4  -1  345.24   14.09
   0  -4   1  350.27    8.79
   0   4   2  558.59   16.48
   0   4   2  536.80   21.06
   0   4   2  606.42   22.18
   0   4  -2  529.12   17.16
   0   4  -2  567.63   19.62
   0   4  -2  605.35   17.67
   0   4  -2  593.88   20.51
   0   4   2  550.72   17.37
   0  -4   2  597.55   22.51
   0  -4   2  620.23   24.10
   0  -4   2  540.04   16.11
   0  -4   2  588.79   21.41
   0  -4  -2  576.10   22.37
   0  -4  -2  529.59   22.68
   0  -4  -2  556.68   17.81
   0   4   3  897.13   31.57
   0   4   3 1007.56   37.72
   0   4  -3  848.57   32.24
   0   4  -3  910.84   32.53
   0   4   3  956.59   36.82
   0   4  -3  849.77   27.92
   0  -4   3  874.28   30.04
   0  -4  -3  960.99   30.15
   0  -4  -3  913.17   35.76
   0  -4   3  966.54   38.30
   0  -4   3  919.43   36.42
   0  -4  -3  895.77   37.36
   0  -4  -3  853.45   30.69
   0   4  -4  342.29   14.20
   0   4  -4  378.42   15.04
   0   4   4  382.09   15.81
   0   4   4  393.59   16.49
   0  -4   4  380.07   23.37
   0  -4  -4  323.09   14.29
   0  -4  -4  341.81   21.65
   0  -4   4  339.21   16.21
   0  -4   4  346.95   12.64
   0   4  -5  251.72    9.61
   0  -4   5  239.32   12.97
   0  -4   5  201.12    9.18
   0  -4  -5  213.42   15.15
   0  -4  -5  218.42   10.71
   0  -4  -5  242.49   13.06
   0  -4   5  256.88   14.58
   0   4   6  364.16   17.48
   0   4  -6  355.77   17.38
   0  -4   6  286.01   13.55
   0  -4  -6  322.02   20.80
   0  -4   6  356.87   18.85
   0  -4  -6  342.92   16.23
   0   4   7    3.38    4.06
   0   4  -7    3.69    2.94
   0   4   7    2.62    2.43
   0  -4   7    3.54    2.31
   0  -4  -7    2.72    2.52
   0  -4   7    4.11    3.29
   0   4   8   86.00    7.44
   0   4  -8   95.03    7.90
   0  -4   8   93.35   10.72
   0  -4   8   95.71    8.75
   0  -4  -8   93.78    7.34
   0   4   9   63.39    5.96
   0  -4   9   67.82    9.94
   0  -4   9   61.88    5.62
   0  -4  -9   61.61    5.74
   0   4  10   85.85    5.89
   0  -4  10   95.95    6.04
   0  -4  10   87.27    5.70
   0  -4 -10   69.33    5.20
   0   5   0   -0.09    1.04
   0   5   0    1.87    1.65
   0  -5   0   -0.11    1.81
   0  -5   0    4.83    1.41
   0  -5   0    0.45    1.80
   0   5   1   78.06    3.48
   0   5  -1   84.28    4.59
   0   5   1   88.59    9.12
   0   5  -1   83.31    5.48
   0  -5   1   80.03    7.74
   0  -5   1   79.16    5.42
   0  -5   1   87.14    6.32
   0  -5  -1   81.89    4.55
   0  -5  -1   73.11    6.18
   0  -5  -1   77.92    5.92
   0   5   2  307.15   17.97
   0   5  -2  286.63   11.06
   0   5  -2  281.55   11.42
   0  -5  -2  265.62   17.13
   0  -5  -2  286.20    9.14
   0  -5   2  275.34   13.61
   0  -5   2  277.21   12.36
   0  -5  -2  249.56    9.46
   0  -5  -2  255.59   13.57
   0   5   3  177.43    7.06
   0  -5   3  186.54   10.54
   0  -5   3  187.61   10.23
   0  -5  -3  183.15   10.17
   0  -5  -3  195.33   17.56
   0   5   4 1423.41   58.74
   0  -5   4 1637.77   75.44
   0  -5   4 1757.83   79.41
   0  -5  -4 1554.01   69.67
   0  -5  -4 1698.32   78.08
   0   5   5  312.68   17.20
   0  -5   5  398.87   21.38
   0  -5   5  351.17   19.84
   0  -5  -5  343.58   22.88
   0  -5  -5  381.40   20.45
   0   5   6  752.19   34.64
   0   5  -6  702.38   33.10
   0   5   6  649.40   33.46
   0  -5   6  756.81   36.12
   0   5   7  113.52    8.84
   0   5   7   96.72    7.11
   0   5  -7  110.15    9.10
   0  -5   7  109.46    9.98
   0  -5  -7  103.03    8.43
   0   5   8  402.73   18.75
   0   5   8  374.78   17.26
   0   5  -8  416.82   19.89
   0  -5   8  443.98   21.94
   0  -5  -8  414.89   19.59
   0   5   9    5.48    2.16
   0  -5   9    8.52    4.36
   0  -5   9    2.66    1.82
   0  -5  -9    5.99    3.58
   0   5  10   35.24    3.29
   0  -5  10   43.17    3.83
   0  -6   0  641.26   25.55
   0  -6   0  696.34   29.80
   0  -6   0  735.61   32.59
   0  -6   1   13.83    3.80
   0  -6   1   10.12    2.80
   0  -6   1    5.11    4.54
   0  -6  -1   10.17    3.72
   0  -6  -1   14.55    3.65
   0  -6   2  398.42   18.32
   0  -6   2  413.59   20.51
   0  -6  -2  406.30   19.59
   0  -6  -2  402.01   21.44
   0  -6   3 1420.12   66.41
   0  -6   3 1407.37   71.30
   0  -6  -3 1383.22   63.21
   0  -6  -3 1456.59   69.51
   0  -6   4 1180.91   57.05
   0  -6   4 1270.15   59.47
   0  -6  -4 1247.93   60.05
   0  -6  -4 1103.32   51.45
   0   6   5  202.55   13.97
   0  -6   5  201.42   13.63
   0  -6   5  176.01   13.56
   0  -6  -5  166.92   16.65
   0   6   6  259.37   15.93
   0   6  -6  252.78   15.11
   0  -6   6  265.53   16.49
   0  -6  -6  228.09   19.08
   0   6   7  477.26   22.25
   0   6   7  386.83   17.40
   0   6  -7  465.51   22.42
   0  -6  -7  428.77   20.50
   0  -6   7  481.87   23.81
   0   6   8   37.35    4.36
   0   6   8   34.41    3.62
   0  -6   8   37.45    5.41
   0  -6  -8   34.63    4.34
   0  -6   9    1.19    1.47
   0  -6  -9   -0.19    1.02
   0   7   0    0.74    1.99
   0  -7   0   -2.97    2.46
   0   7   1  205.02   12.79
   0  -7   1  190.49   10.66
   0  -7   1  222.67   14.16
   0  -7  -1  222.51   14.30
   0   7   2  169.49   12.38
   0  -7   2  178.77   12.74
   0  -7   2  184.87   11.79
   0  -7  -2  170.96   12.11
   0   7   3  186.05   13.74
   0  -7   3  209.67   12.96
   0  -7   3  204.18   14.34
   0  -7  -3  176.12   12.69
   0   7   4    3.47    2.83
   0  -7   4    0.50    2.44
   0  -7   4   -0.41    4.30
   0  -7  -4   -0.05    2.43
   0   7   5   40.05    6.89
   0  -7   5   40.49    6.19
   0  -7  -5   33.00    5.60
   0   7  -6   51.56    9.12
   0   7   6   49.67    6.51
   0  -7   6   51.20    6.56
   0  -7  -6   42.18    5.65
   0   7   7   25.96    4.05
   0  -7   7   24.85    6.91
   0  -7  -7   13.93    3.72
   0   7   8   35.66    3.11
   0  -7   8   39.13    4.31
   0  -7  -8   28.34    3.34
   0   8   0   37.78    4.95
   0  -8   0   46.97    6.63
   0   8   1  164.92   15.78
   0  -8   1  173.65   12.72
   0  -8  -1  168.18   13.01
   0   8   2   78.37    8.15
   0  -8   2   88.95    7.05
   0  -8   2   98.97    9.01
   0  -8  -2   92.06    8.97
   0   8   3   60.34   12.10
   0  -8   3   78.00    6.98
   0  -8   3   80.72    8.52
   0  -8  -3   75.44    8.24
   0   8   4   62.12    7.20
   0  -8   4   64.23    6.19
   0  -8   4   57.81    7.52
   0  -8  -4   55.07    6.96
   0   8   5   50.51    6.60
   0   8  -5   57.60    5.87
   0  -8  -5   50.40    5.97
   0  -8   5   59.80    5.79
   0   8   6   19.61    3.89
   0  -8   6   26.15    3.56
   0  -8  -6   11.24    3.59
   0  -9   0   -1.55    2.56
   0  -9   1   23.84    5.43
   0  -9  -1   29.64    5.18
   0   9   2  142.30   11.26
   0  -9   2  141.18   10.55
   0  -9  -2  138.85    9.74
   0   9   3   46.23    4.54
   0  -9   3   48.20    5.81
   0  -9   3   34.20    3.09
   0  -9  -3   43.66    5.49
   0   9   4  118.93    7.22
   0   9  -4  121.82    7.00
   0  -9  -4  102.14    7.88
  -1   0  12   -0.30    1.06
  -1   0  12    0.07    1.29
   1   0 -11    1.58    2.12
   1   0 -11    0.80    1.91
  -1   0  11    3.44    2.44
   1   0 -10  331.81   17.06
   1   0 -10  329.39   17.31
  -1   0  10  335.33   18.54
   1   0  -9   30.53    5.30
   1   0  -9   31.21    5.00
  -1   0   9   34.99    5.88
   1   0  -8  261.69   14.39
   1   0  -8  256.02   14.00
  -1   0   8  265.43   15.44
   1   0  -7  284.95    9.71
   1   0  -7  270.21   13.18
   1   0  -7  285.69   14.13
  -1   0   7  277.94   12.99
  -1   0   7  289.07   14.86
   1   0  -6   14.40    3.07
   1   0  -6   14.45    3.39
   1   0  -6   18.27    2.56
   1   0  -6   11.63    3.18
  -1   0   6   13.53    3.52
  -1   0   6   18.98    2.61
  -1   0   6   12.22    1.75
   1   0  -5  117.95    4.24
   1   0  -5  116.43   10.63
   1   0  -5  113.75    6.51
   1   0  -5  112.41    7.02
  -1   0   5  102.13    5.54
  -1   0   5  110.24    2.63
  -1   0   5  120.52    4.96
  -1   0   5  115.48    8.05
   1   0  -4  439.81   20.18
   1   0  -4  416.73   15.11
   1   0  -4  388.87   13.58
   1   0  -4  396.05   10.98
   1   0  -4  451.91   15.69
  -1   0   4  406.71   10.64
  -1   0   4  401.97   13.36
  -1   0   4  424.50   16.04
   1   0  -3  750.67   21.18
   1   0  -3  812.82   28.41
   1   0  -3  797.70   27.03
   1   0  -3  784.90   27.45
   1   0  -3  730.01   24.39
  -1   0   3  736.60   26.05
  -1   0   3  781.94   22.31
  -1   0   3  749.38   27.68
   1   0  -2 3135.13  129.04
   1   0  -2 2740.78  114.25
   1   0  -2 3350.53  130.66
   1   0  -2 3027.29  113.64
   1   0  -2 3250.27  138.11
  -1   0   2 3165.92  122.79
  -1   0   2 3108.19  126.29
  -1   0   2 2925.25  116.12
  -1   0   2 3043.69  115.16
  -1   0   2 3005.18  120.17
   1   0  -1  158.93    3.65
   1   0  -1  138.42    3.57
   1   0  -1  143.38    2.79
   1   0  -1  157.19    3.77
   1   0  -1  150.60    3.63
   1   0  -1  157.79    3.82
  -1   0   1  146.95    4.45
  -1   0   1  160.83    4.72
  -1   0   1  144.00    3.31
   1   0   0 1877.08   59.84
   1   0   0 1880.37   60.63
   1   0   0 1846.72   58.44
   1   0   0 1955.64   64.78
  -1   0   0 1813.09   57.09
  -1   0   0 1845.07   58.79
  -1   0   0 1827.32   60.69
  -1   0   0 1798.55   57.07
   1   0   1 2546.45   94.54
   1   0   1 2362.53   86.30
   1   0   1 2367.67   89.37
   1   0   1 2443.94   89.42
  -1   0  -1 2073.83   72.16
  -1   0  -1 2522.57   92.83
  -1   0  -1 2352.32   94.19
  -1   0  -1 2388.06   95.40
  -1   0  -1 2498.74   91.33
   1   0   2   18.98    3.99
   1   0   2   19.30    3.59
   1   0   2   12.08    1.51
   1   0   2   14.73    1.55
  -1   0  -2   27.49    2.20
  -1   0  -2   16.78    2.78
  -1   0  -2   17.01    1.53
  -1   0  -2   17.18    2.44
   1   0   3   70.84    4.37
   1   0   3   74.93    6.26
   1   0   3   83.53    3.86
   1   0   3   67.38    3.85
   1   0   3   67.45    2.51
  -1   0  -3   76.40    3.20
  -1   0  -3   71.39    3.89
  -1   0  -3   92.07    6.06
  -1   0  -3   79.27    5.00
   1   0   4 3124.31  137.55
   1   0   4 2831.58  135.53
   1   0   4 3107.66  124.13
   1   0   4 2934.94  118.46
   1   0   4 3043.70  132.00
  -1   0  -4 3063.54  135.79
  -1   0  -4 3161.82  134.45
  -1   0  -4 3020.04  133.70
  -1   0  -4 2964.10  130.79
   1   0   5   31.32    3.98
   1   0   5   29.97    3.40
   1   0   5   28.89    3.39
  -1   0  -5   33.29    2.91
  -1   0  -5   30.57    3.98
  -1   0  -5   32.55    2.99
  -1   0  -5   32.51    5.85
   1   0   6  112.13    6.51
   1   0   6  126.49    6.78
   1   0   6  109.96    7.63
  -1   0  -6  105.98    6.90
  -1   0  -6  121.43    6.06
  -1   0  -6  112.14    8.42
   1   0   7  583.78   23.51
   1   0   7  579.27   32.08
  -1   0  -7  559.08   22.64
  -1   0  -7  593.61   25.55
   1   0   8  222.78   12.90
  -1   0  -8  213.28   11.85
  -1   0  -8  197.74   10.64
   1   0   9  605.51   27.63
   1   0   9  598.44   25.92
   1   0  10  181.11   10.36
   1   0  10  185.24    9.58
   1   0  11   39.16    4.37
   1   0  11   45.40    3.93
  -1   1  12  100.54    5.74
  -1   1  12   99.86    5.85
  -1  -1  12   97.01    6.32
   1   1 -11   52.07    4.99
  -1   1  11   51.95    5.47
   1   1 -11   49.91    4.94
   1  -1 -11   49.36    4.98
  -1  -1  11   56.10    9.35
   1  -1 -11   49.00    5.61
  -1   1  10   39.30    5.90
   1   1 -10   37.60    5.26
   1   1 -10   41.59    5.31
   1  -1 -10   37.13    5.96
   1  -1 -10   48.42    8.25
  -1  -1  10   37.37    6.14
  -1   1   9  688.57   39.48
   1   1  -9  685.99   31.29
   1   1  -9  680.71   31.77
   1  -1  -9  678.57   31.32
   1  -1  -9  696.66   32.64
  -1  -1   9  715.12   33.62
   1   1  -8  465.51   22.36
  -1   1   8  473.91   22.60
   1   1  -8  490.87   27.79
   1  -1  -8  471.56   22.10
  -1  -1   8  503.54   24.56
   1  -1  -8  491.60   23.78
  -1  -1   8  476.94   19.58
   1   1  -7  108.86    5.36
   1   1  -7   97.02    7.17
   1   1  -7  104.03    7.15
  -1   1   7   98.83    7.54
   1  -1  -7  104.72   11.97
   1  -1  -7   98.01    7.01
  -1  -1   7   97.75    5.78
  -1  -1   7   98.51    7.88
   1   1  -6  705.80   24.32
   1   1  -6  756.28   28.73
   1   1  -6  734.39   28.48
   1   1  -6  706.44   29.18
  -1   1   6  732.66   30.13
  -1   1   6  711.94   27.06
  -1   1   6  709.84   21.90
   1  -1  -6  806.97   32.37
   1  -1  -6  721.33   29.48
   1  -1  -6  729.33   22.34
  -1  -1   6  708.46   25.68
  -1  -1   6  753.10   31.22
  -1  -1   6  779.59   28.61
  -1   1   5 3681.09  170.45
  -1   1   5 3515.38  160.83
   1   1  -5 3399.70  151.29
   1   1  -5 3809.41  177.71
   1   1  -5 3862.25  184.50
  -1   1   5 3540.57  167.42
   1   1  -5 3517.25  160.99
  -1   1   5 3787.15  162.88
   1  -1  -5 3663.39  153.87
  -1  -1   5 3372.61  152.73
  -1  -1   5 3670.28  173.83
  -1  -1   5 3896.37  178.59
   1  -1  -5 3716.18  183.83
   1  -1  -5 3567.41  170.38
   1   1  -4  896.52   31.43
   1   1  -4  926.73   34.09
   1   1  -4  895.74   34.76
   1   1  -4  866.38   28.12
   1   1  -4  904.63   31.27
  -1   1   4  897.99   30.72
  -1   1   4  936.54   33.82
  -1   1   4  934.31   33.38
  -1   1   4  903.24   28.08
  -1  -1   4  873.56   29.19
   1  -1  -4  878.40   24.82
  -1  -1   4  920.71   33.51
  -1  -1   4  917.91   30.04
   1  -1  -4  868.05   32.05
   1  -1  -4 1014.83   32.94
   1  -1  -4  889.36   31.73
   1   1  -3  606.65   20.00
  -1   1   3  618.36   24.28
   1   1  -3  666.62   21.08
  -1   1   3  628.58   18.69
   1   1  -3  569.08   18.34
   1   1  -3  600.63   18.15
  -1   1   3  672.56   22.43
  -1   1   3  612.44   23.22
   1  -1  -3  637.46   15.47
   1  -1  -3  661.50   20.62
  -1  -1   3  603.97   24.44
  -1  -1   3  619.79   18.71
  -1  -1   3  645.04   23.15
   1  -1  -3  650.36   21.35
  -1  -1   3  645.53   19.95
   1  -1  -3  593.67   20.54
   1   1  -2 4426.24  202.28
  -1   1   2 4162.36  196.28
   1   1  -2 4261.86  189.90
  -1   1   2 4227.27  197.97
   1   1  -2 3898.79  174.25
   1   1  -2 4187.69  174.01
   1   1  -2 4633.68  207.42
  -1   1   2 4349.87  211.29
  -1   1   2 4458.88  202.55
   1  -1  -2 4661.16  212.73
   1  -1  -2 4304.19  196.21
   1  -1  -2 4482.99  218.20
   1  -1  -2 4140.06  160.73
  -1  -1   2 4472.19  202.14
  -1  -1   2 4313.26  197.56
  -1  -1   2 4357.06  192.41
  -1  -1   2 4698.61  220.79
   1   1  -1 5141.96  231.94
  -1   1   1 5283.78  235.57
   1   1  -1 4954.97  223.75
  -1   1   1 5193.25  239.86
  -1   1   1 5233.55  238.55
   1   1  -1 5069.10  228.22
   1   1  -1 5370.91  242.40
  -1   1   1 5048.17  220.68
  -1   1   1 4932.53  207.98
   1  -1  -1 5298.64  243.71
   1  -1  -1 5315.80  243.75
  -1  -1   1 5159.97  240.96
   1  -1  -1 5250.80  237.93
  -1  -1   1 5236.91  237.99
  -1  -1   1 5007.26  224.07
   1  -1  -1 4406.49  187.53
  -1  -1   1 4610.31  201.12
  -1  -1   1 5191.77  224.84
   1  -1  -1 5108.93  225.94
   1   1   0 3306.06  137.41
   1   1   0 3084.27  126.81
   1   1   0 3448.40  134.96
   1   1   0 3366.50  134.72
  -1   1   0 3402.29  134.52
  -1   1   0 3411.96  134.87
  -1   1   0 3304.17  127.40
   1   1   0 3519.53  140.78
   1  -1   0 3534.76  141.66
   1  -1   0 3291.36  132.47
  -1  -1   0 3386.90  126.59
   1  -1   0 3438.13  124.63
   1  -1   0 3469.57  138.44
   1  -1   0 3757.30  145.03
  -1  -1   0 3310.02  138.43
  -1   1  -1 2430.36   94.55
   1   1   1 2278.60  104.61
  -1   1  -1 2275.78   98.15
   1   1   1 2501.65   92.63
  -1   1  -1 2327.01   83.71
   1   1   1 2121.71   88.79
   1   1   1 2325.60   84.42
   1   1   1 2270.97   88.34
   1  -1   1 2441.03   94.84
   1  -1   1 2459.16   90.69
   1  -1   1 2222.05   98.47
  -1  -1  -1 2393.83   88.57
   1  -1   1 2346.65   83.64
  -1  -1  -1 2338.43   98.11
  -1  -1  -1 2409.03   97.57
  -1  -1  -1 2326.57   89.28
   1  -1   1 2335.67   84.20
  -1  -1  -1 2441.22   95.64
   1   1   2 1411.15   47.90
   1   1   2 1497.02   49.66
  -1   1  -2 1385.05   47.98
   1   1   2 1373.85   47.64
   1   1   2 1358.68   46.84
   1   1   2 1287.62   45.86
  -1   1  -2 1418.27   49.13
   1   1   2 1323.43   44.46
  -1   1  -2 1548.62   45.82
   1  -1   2 1422.34   48.05
   1  -1   2 1297.26   46.87
  -1  -1  -2 1402.23   51.38
  -1  -1  -2 1333.39   44.57
   1  -1   2 1309.61   42.56
   1  -1   2 1425.25   50.12
  -1  -1  -2 1423.36   47.50
   1  -1   2 1329.07   40.19
  -1  -1  -2 1404.47   49.99
  -1   1  -3 1220.79   42.71
   1   1   3 1183.68   41.00
   1   1   3 1295.98   46.23
   1   1   3 1185.56   41.14
   1   1   3 1219.05   41.31
   1   1   3 1021.17   36.35
  -1   1  -3 1118.26   37.79
  -1   1  -3 1294.01   53.09
   1   1   3 1172.41   39.89
  -1   1  -3 1193.18   40.59
   1  -1   3 1153.48   32.81
  -1  -1  -3 1246.50   42.77
  -1  -1  -3 1199.31   40.34
   1  -1   3 1128.91   41.49
   1  -1   3 1174.67   47.91
   1  -1   3 1287.46   37.32
  -1  -1  -3 1165.78   43.02
   1  -1   3 1168.88   38.61
  -1  -1  -3 1048.05   36.35
   1   1   4   30.15    2.94
   1   1   4   34.26    2.81
   1   1   4   29.70    3.42
   1   1   4   33.58    4.02
   1   1   4   34.07    3.10
  -1   1  -4   31.58    5.64
   1   1   4   38.46    2.64
  -1   1  -4   34.07    2.93
  -1   1  -4   32.75    2.93
  -1   1  -4   35.16    4.70
   1  -1   4   26.13    3.95
   1  -1   4   34.33    4.45
  -1  -1  -4   29.07    4.02
  -1  -1  -4   31.13    2.74
   1  -1   4   35.59    4.00
  -1  -1  -4   34.88    3.00
   1   1   5  513.01   24.89
   1   1   5  530.69   18.64
  -1   1  -5  518.91   18.86
   1   1   5  494.49   17.95
  -1   1  -5  545.34   19.64
   1   1   5  488.75   15.97
   1   1   5  485.40   23.22
  -1   1  -5  514.95   20.86
  -1   1  -5  516.51   21.85
   1  -1   5  521.12   17.63
   1  -1   5  479.51   20.70
  -1  -1  -5  505.65   20.76
  -1  -1  -5  489.59   20.98
  -1  -1  -5  508.47   17.26
   1  -1   5  516.31   20.71
  -1  -1  -5  511.06   19.04
  -1   1  -6    8.38    1.72
   1   1   6    2.03    2.08
  -1   1  -6    2.44    1.92
   1  -1   6    1.94    3.99
  -1  -1  -6    2.77    2.33
   1  -1   6    3.06    1.63
   1  -1   6    2.61    2.17
  -1  -1  -6    2.05    1.65
  -1  -1  -6    2.23    1.54
  -1  -1  -6    4.13    1.63
   1   1   7 2082.85   94.73
  -1   1  -7 2058.27   92.53
  -1   1  -7 2173.47   96.39
   1  -1   7 2072.42   93.83
   1  -1   7 2113.59   98.77
  -1  -1  -7 2087.94   95.68
  -1  -1  -7 2036.28   90.79
  -1  -1  -7 1991.49   88.54
   1   1   8 1025.87   45.22
  -1   1  -8 1047.47   45.20
   1  -1   8 1043.81   47.79
   1  -1   8 1027.37   44.66
  -1  -1  -8 1025.87   46.06
  -1   1  -9  145.36    8.86
   1   1   9  140.17    9.43
   1   1   9  152.86    9.32
   1  -1   9  150.26   10.13
   1  -1   9  128.17    8.13
   1   1  10   12.87    3.21
   1   1  10   21.94    3.33
   1  -1  10   17.68    6.04
   1  -1  10    7.82    4.01
   1   1  11    4.66    1.51
   1   1  11    2.93    1.58
   1  -1  11    1.48    2.04
  -1   2  12   88.81    5.38
  -1  -2  12   98.29    5.76
  -1   2  11  157.66    9.44
   1   2 -11  158.35    8.82
  -1   2  11  169.06    8.98
  -1  -2  11  172.51    9.94
   1  -2 -11  157.82    8.82
   1   2 -10  167.19   14.97
   1   2 -10  154.21    9.38
  -1   2  10  163.55    9.99
   1  -2 -10  158.99   10.78
   1  -2 -10  163.60   10.38
  -1  -2  10  172.75   11.42
   1   2  -9  457.18   21.22
  -1   2   9  463.39   27.84
   1   2  -9  461.09   28.93
   1  -2  -9  479.51   23.90
  -1  -2   9  477.48   23.33
   1  -2  -9  461.01   22.43
  -1  -2   9  489.51   21.60
   1   2  -8  515.90   27.20
  -1   2   8  520.58   23.72
   1   2  -8  508.55   24.87
   1  -2  -8  509.92   24.24
  -1  -2   8  551.28   24.18
   1  -2  -8  526.64   25.63
  -1  -2   8  527.91   25.60
   1   2  -7   98.06    6.14
   1   2  -7   83.98    7.29
  -1   2   7   81.10    6.83
   1  -2  -7   90.06    7.64
   1  -2  -7   85.73    6.86
  -1  -2   7   99.97    9.67
  -1  -2   7   93.83   10.84
   1   2  -6  229.08    9.53
   1   2  -6  227.60    9.85
   1   2  -6  222.73   11.93
  -1   2   6  220.67   10.27
  -1   2   6  234.85   11.51
  -1   2   6  220.32   10.80
   1   2  -6  225.90    9.87
  -1   2   6  242.57    8.41
   1  -2  -6  231.43   12.32
  -1  -2   6  212.75    8.28
   1  -2  -6  225.03   11.24
  -1  -2   6  218.72   10.65
  -1  -2   6  219.64   10.51
   1  -2  -6  198.82   10.36
  -1   2   5 3808.59  173.89
   1   2  -5 3761.01  180.66
   1   2  -5 3934.55  185.36
  -1   2   5 3857.11  192.03
   1   2  -5 3699.68  176.92
  -1   2   5 4021.88  191.21
   1   2  -5 3844.81  188.16
  -1   2   5 3814.39  177.62
  -1  -2   5 3738.48  180.02
  -1  -2   5 4131.54  197.37
   1  -2  -5 3425.46  169.20
   1  -2  -5 4048.41  195.19
  -1  -2   5 3728.15  169.59
   1  -2  -5 4181.07  196.60
   1   2  -4 1487.21   54.73
  -1   2   4 1542.48   56.48
  -1   2   4 1346.66   56.04
   1   2  -4 1451.06   53.37
   1   2  -4 1429.13   53.20
  -1   2   4 1461.60   56.39
   1  -2  -4 1379.61   55.14
   1  -2  -4 1536.00   59.04
  -1  -2   4 1489.64   62.43
   1  -2  -4 1523.20   47.54
   1  -2  -4 1584.75   67.23
  -1  -2   4 1561.47   54.62
  -1  -2   4 1379.81   53.30
   1  -2  -4 1476.28   45.72
  -1  -2   4 1506.22   62.15
   1   2  -3  130.91    2.49
   1   2  -3  131.46    4.60
   1   2  -3  125.85    5.39
  -1   2   3  129.90    6.24
   1   2  -3  133.44    5.50
   1   2  -3  114.18    4.27
  -1   2   3  115.22    4.72
  -1   2   3  112.90    5.30
   1  -2  -3  116.86    5.88
  -1  -2   3  125.32    3.98
   1  -2  -3  120.39    5.21
   1  -2  -3  132.21    6.62
   1  -2  -3  115.67    2.29
  -1  -2   3  112.03    4.61
  -1  -2   3  131.46    6.92
  -1  -2   3  132.71    5.92
   1   2  -2 8415.18  460.02
   1   2  -2 8439.61  460.82
   1   2  -2 8182.95  441.29
   1   2  -2 8255.78  441.43
  -1   2   2 7954.83  439.15
   1   2  -2 7181.86  381.96
  -1   2   2 8542.96  469.56
  -1   2   2 8090.04  413.61
   1  -2  -2 8394.14  471.12
   1  -2  -2 8244.80  425.77
   1  -2  -2 7750.80  421.75
  -1  -2   2 8145.15  454.94
   1  -2  -2 8543.00  462.32
   1  -2  -2 8324.87  461.96
  -1  -2   2 7686.12  410.54
  -1  -2   2 8491.15  469.43
  -1  -2   2 7545.25  405.51
  -1   2   119497.26 1358.21
   1   2  -117755.94 1260.10
  -1   2   118257.55 1313.09
   1   2  -118187.41 1300.49
   1   2  -118839.06 1347.42
  -1   2   117769.11 1272.94
   1  -2  -117711.47 1291.08
   1  -2  -118863.53 1346.23
  -1  -2   117170.13 1214.30
   1  -2  -117507.04 1222.26
   1  -2  -118124.52 1273.78
  -1  -2   117327.72 1250.91
   1  -2  -118117.05 1306.42
  -1  -2   117891.32 1293.48
  -1  -2   118608.23 1271.97
  -1  -2   118148.57 1310.02
  -1   2   018940.17 1373.85
   1   2   019862.51 1445.77
   1   2   019161.05 1393.38
   1   2   019073.59 1387.24
   1   2   016935.12 1257.50
  -1   2   018968.77 1368.62
  -1   2   019334.15 1404.63
  -1   2   019270.64 1386.76
   1  -2   019594.65 1452.76
   1  -2   021003.57 1540.14
   1  -2   020799.00 1514.82
  -1  -2   020045.78 1480.48
  -1  -2   018848.98 1392.27
   1  -2   018619.37 1358.62
  -1  -2   017527.30 1305.12
   1   2   1  775.91   24.54
   1   2   1  825.98   20.66
   1   2   1  797.66   24.15
  -1   2  -1  809.29   24.29
  -1   2  -1  796.12   24.92
   1   2   1  901.60   27.32
   1   2   1  774.82   27.12
  -1   2  -1  815.19   22.96
   1  -2   1  816.26   25.20
   1  -2   1  797.54   27.23
  -1  -2  -1  775.72   27.42
   1  -2   1  786.92   23.43
  -1  -2  -1  804.70   25.16
  -1  -2  -1  803.18   25.10
   1  -2   1  751.55   24.80
   1   2   2 1020.36   41.21
   1   2   2  947.01   28.68
   1   2   2 1118.46   36.95
  -1   2  -2 1164.94   32.33
  -1   2  -2 1034.93   34.26
  -1   2  -2  975.66   33.30
   1  -2   2  983.20   28.53
   1  -2   2 1028.95   37.10
   1  -2   2 1000.15   34.11
  -1  -2  -2  994.92   31.74
  -1  -2  -2  946.03   31.76
  -1  -2  -2  995.20   34.74
  -1  -2  -2  952.47   31.53
   1  -2   2 1014.04   33.89
  -1  -2  -2 1019.02   37.06
   1  -2   2 1028.61   31.40
   1   2   3  391.67   13.50
   1   2   3  327.27   10.52
   1   2   3  393.25   15.15
   1   2   3  406.05   15.03
  -1   2  -3  353.50   13.05
  -1   2  -3  358.92   13.99
   1  -2   3  365.97   13.77
   1  -2   3  351.89    7.24
   1  -2   3  427.18   14.84
  -1  -2  -3  366.17   18.83
   1  -2   3  366.92   15.00
  -1  -2  -3  346.08   10.60
  -1  -2  -3  367.08   12.64
  -1  -2  -3  344.17   11.63
  -1  -2  -3  417.33   15.82
  -1  -2  -3  380.37   11.93
   1  -2   3  331.79    9.11
   1   2   4 1157.98   50.43
   1   2   4 1069.37   38.82
   1   2   4 1142.35   40.53
   1   2   4 1016.77   36.09
   1   2   4 1097.32   41.42
  -1   2  -4 1136.71   43.35
  -1   2  -4 1064.13   39.05
  -1   2  -4 1072.18   39.19
  -1   2  -4 1047.88   35.29
   1  -2   4 1002.75   33.07
   1  -2   4 1088.31   43.21
   1  -2   4  969.36   38.55
  -1  -2  -4 1018.35   34.81
  -1  -2  -4  978.38   36.26
  -1  -2  -4 1059.24   41.68
  -1  -2  -4  954.68   34.42
  -1  -2  -4 1028.38   35.18
   1   2   5 1347.88   49.42
  -1   2  -5 1285.19   49.70
   1   2   5 1280.11   48.63
   1   2   5 1181.72   45.65
   1   2   5 1390.87   54.83
  -1   2  -5 1324.50   51.78
   1   2   5 1335.20   51.54
  -1   2  -5 1241.79   49.19
  -1   2  -5 1303.39   51.55
   1  -2   5 1089.18   46.31
  -1  -2  -5 1164.61   45.34
   1  -2   5 1250.37   52.23
  -1  -2  -5 1162.63   54.61
   1  -2   5 1208.27   45.62
  -1  -2  -5 1175.26   46.37
  -1  -2  -5 1279.27   49.24
  -1  -2  -5 1255.87   46.46
   1   2   6   56.65    4.27
  -1   2  -6   49.12    3.83
  -1   2  -6   53.61    4.38
   1  -2   6   56.20    5.76
  -1  -2  -6   52.63    4.24
  -1  -2  -6   60.25    3.62
  -1  -2  -6   49.72    3.88
   1  -2   6   55.87    3.47
  -1  -2  -6   57.11    5.49
   1  -2   6   49.19    5.65
   1   2   7  111.72   10.08
   1  -2   7  107.42    8.36
   1  -2   7  107.87    8.74
  -1  -2  -7  105.53    6.72
  -1  -2  -7  100.38    8.49
   1   2   8   44.98    4.92
   1  -2   8   39.63    5.84
   1  -2   8   42.68    5.53
   1   2   9  205.64   12.17
   1   2   9  206.34   10.87
   1  -2   9  230.91   12.25
   1  -2   9  224.66   12.91
   1   2  10    1.42    1.49
   1   2  10    2.77    1.83
  -1   2 -10   -0.14    1.52
   1  -2  10    0.53    2.02
   1   2  11  127.97    6.31
   1  -2  11  126.06    6.90
   1   3 -11  103.77    8.32
  -1   3  11   93.79    5.17
  -1   3  11  108.36    6.84
   1  -3 -11  106.36    6.45
  -1  -3  11  115.68    6.93
   1   3 -10  193.89   10.98
  -1   3  10  173.71    9.45
   1  -3 -10  179.24   10.44
  -1  -3  10  181.57   10.66
  -1  -3  10  189.65   10.05
   1   3  -9  383.91   19.79
  -1   3   9  365.55   17.01
   1  -3  -9  359.59   19.14
  -1  -3   9  403.73   19.01
  -1  -3   9  368.36   18.81
   1  -3  -9  361.58   18.21
   1   3  -8  291.01   16.32
  -1   3   8  288.21   13.93
   1  -3  -8  275.22   15.62
  -1  -3   8  299.43   15.68
  -1  -3   8  274.68   14.71
   1  -3  -8  279.17   15.50
   1   3  -7  213.15   13.08
   1   3  -7  195.83    9.57
  -1   3   7  212.18   10.25
   1  -3  -7  204.98   10.31
   1  -3  -7  211.12   12.07
   1  -3  -7  198.67   11.74
  -1  -3   7  198.99   12.03
  -1  -3   7  202.13   11.19
  -1   3   6  617.43   22.53
   1   3  -6  647.35   23.15
  -1   3   6  581.24   26.06
   1   3  -6  584.53   21.49
   1   3  -6  548.04   24.52
   1  -3  -6  580.43   23.46
  -1  -3   6  538.93   20.85
  -1  -3   6  592.61   25.80
   1  -3  -6  571.35   23.89
  -1  -3   6  518.51   21.54
   1  -3  -6  511.86   23.11
  -1   3   5  288.63   13.21
   1   3  -5  252.82    9.15
   1   3  -5  283.69   10.16
  -1   3   5  261.04   13.78
   1   3  -5  259.15   10.99
  -1   3   5  268.37   13.88
  -1   3   5  262.25   10.28
   1  -3  -5  275.64   16.27
   1  -3  -5  231.80   11.55
   1  -3  -5  262.19   15.08
  -1  -3   5  245.49   11.49
  -1  -3   5  254.38    8.13
  -1  -3   5  235.53   10.06
  -1  -3   5  266.66   14.58
   1   3  -4 3147.58  136.27
   1   3  -4 3368.16  157.78
   1   3  -4 3501.24  152.13
  -1   3   4 3480.66  154.44
  -1   3   4 3561.46  162.27
  -1   3   4 3401.77  153.96
   1  -3  -4 3455.16  163.76
  -1  -3   4 3465.70  160.39
  -1  -3   4 3399.99  143.94
   1  -3  -4 3143.91  144.55
  -1  -3   4 3395.78  162.91
   1  -3  -4 3263.64  154.15
  -1  -3   4 3100.39  139.57
   1   3  -3  116.96    6.14
   1   3  -3  105.80    4.01
   1   3  -3  125.58    4.04
   1   3  -3  121.04    4.33
   1   3  -3  109.37    5.65
  -1   3   3  120.08    4.68
  -1   3   3  106.58    6.16
  -1   3   3  125.65    6.94
   1  -3  -3  108.54    3.28
   1  -3  -3  115.76    5.08
   1  -3  -3  125.69    8.47
  -1  -3   3  121.68    7.58
   1  -3  -3  121.73    2.77
  -1  -3   3  128.61    7.00
  -1  -3   3  112.38    3.51
   1  -3  -3  120.82    6.70
   1   3  -2 1158.65   36.60
   1   3  -2 1176.83   41.01
   1   3  -2 1021.22   31.62
  -1   3   2 1075.59   39.39
  -1   3   2 1109.73   32.42
  -1   3   2 1163.32   41.38
   1   3  -2 1158.16   37.73
  -1   3   2 1113.95   35.36
   1  -3  -2 1129.03   36.13
  -1  -3   2 1048.45   32.39
  -1  -3   2 1150.74   43.12
  -1  -3   2 1108.81   40.81
   1  -3  -2 1077.41   34.24
   1  -3  -2 1152.74   45.12
  -1  -3   2 1167.94   34.59
   1  -3  -2 1110.90   40.62
   1   3  -1 1981.04   78.45
   1   3  -1 1963.20   73.85
  -1   3   1 1874.78   62.11
   1   3  -1 1892.20   67.11
  -1   3   1 1910.01   72.33
  -1   3   1 1829.76   64.25
  -1   3   1 1916.41   65.96
   1  -3  -1 1900.21   76.82
   1  -3  -1 2001.97   70.56
   1  -3  -1 1981.70   80.89
   1  -3  -1 1848.69   66.36
  -1  -3   1 1899.33   73.27
  -1  -3   1 1936.50   74.76
  -1  -3   1 1908.21   74.64
   1   3   0 3318.58  139.85
   1   3   0 3255.60  138.79
   1   3   0 3473.69  149.10
  -1   3   0 3330.60  134.66
  -1   3   0 3453.38  146.65
  -1   3   0 3384.04  142.51
  -1   3   0 3467.13  143.07
  -1  -3   0 3332.79  144.36
  -1  -3   0 3290.69  144.63
  -1  -3   0 3210.77  144.21
   1  -3   0 3243.59  134.01
   1  -3   0 3164.01  135.17
   1  -3   0 3169.00  141.18
   1  -3   0 3359.92  145.75
   1   3   1 2864.23  123.56
   1   3   1 2571.96  105.39
   1   3   1 2863.16  114.46
   1   3   1 2986.50  123.66
  -1   3  -1 2783.75  116.68
  -1   3  -1 2881.84  113.57
  -1   3  -1 2855.72  116.02
  -1   3  -1 2794.91  110.00
  -1  -3  -1 2687.58  111.12
   1  -3   1 2863.89  119.77
   1  -3   1 2676.40  107.96
   1  -3   1 2715.51  114.38
   1  -3   1 2695.48  111.99
  -1  -3  -1 2774.64  117.51
  -1  -3  -1 2621.59  116.39
  -1   3  -2  622.31   21.92
  -1   3  -2  705.80   19.53
   1   3   2  690.28   26.35
   1   3   2  628.65   21.80
   1   3   2  715.86   25.12
  -1   3  -2  728.18   28.22
   1   3   2  627.49   16.17
  -1   3  -2  657.61   20.97
   1  -3   2  699.75   21.27
   1  -3   2  654.81   29.78
  -1  -3  -2  633.54   21.01
   1  -3   2  691.71   24.37
  -1  -3  -2  712.48   25.33
   1  -3   2  648.33   24.63
  -1  -3  -2  638.85   22.79
  -1  -3  -2  678.11   27.60
   1   3   3  152.44    5.68
  -1   3  -3  186.49   11.66
   1   3   3  191.56    8.17
  -1   3  -3  165.54    7.57
   1   3   3  187.95    9.10
   1  -3   3  183.10    8.46
  -1  -3  -3  167.85    7.50
   1  -3   3  186.53    9.99
  -1  -3  -3  167.85    6.44
   1  -3   3  166.72    7.10
  -1  -3  -3  181.23    6.31
  -1  -3  -3  185.25    9.94
  -1  -3  -3  172.70    8.12
   1   3   4 1093.85   43.97
   1   3   4  960.88   33.06
   1   3   4 1120.39   41.35
   1   3   4 1158.06   43.51
  -1   3  -4 1049.00   39.71
  -1   3  -4 1138.49   42.76
   1  -3   4 1055.11   43.12
  -1  -3  -4  975.58   36.10
  -1  -3  -4  964.54   37.33
   1  -3   4  953.87   37.32
  -1  -3  -4  955.95   39.11
  -1  -3  -4  992.25   34.50
   1  -3   4 1057.60   42.29
   1   3   5  307.91   11.24
   1   3   5  367.34   14.61
   1   3   5  337.23   14.87
   1   3   5  368.54   14.12
  -1   3  -5  316.14   13.42
   1  -3   5  264.93   12.62
  -1  -3  -5  305.73   12.19
  -1  -3  -5  362.92   12.51
   1  -3   5  353.01   22.11
  -1  -3  -5  308.35   12.91
  -1  -3  -5  308.89   14.40
   1   3   6  325.30   14.65
  -1   3  -6  308.48   17.79
   1  -3   6  286.22   14.20
   1  -3   6  335.14   17.34
  -1  -3  -6  302.94   15.52
  -1  -3  -6  295.96   13.19
   1   3   7  138.51    9.55
   1  -3   7  148.67    9.92
   1  -3   7  166.35   11.01
  -1  -3  -7  152.08    8.87
   1   3   8   20.93    4.46
   1  -3   8   20.67    4.64
   1  -3   8   21.83    4.60
  -1  -3  -8   23.02    3.50
   1   3   9  125.27   12.84
   1  -3   9  132.46    9.14
   1  -3   9  141.92   13.22
  -1   3 -10   27.11    3.32
   1   3  10   24.67    3.72
   1  -3  10   21.62    6.10
  -1   4  11  120.47    6.13
  -1  -4  11  127.90    5.91
   1  -4 -11  104.25    5.87
   1   4 -10   35.63    4.38
  -1   4  10   35.12    4.33
   1  -4 -10   38.59    4.41
  -1  -4  10   38.65    4.39
  -1  -4  10   30.31    4.04
   1   4  -9  151.06   10.39
  -1   4   9  128.05    8.87
  -1  -4   9  157.62   10.26
   1  -4  -9  140.08    9.53
  -1  -4   9  135.31    8.86
   1   4  -8  287.20   16.24
   1  -4  -8  273.90   14.99
   1  -4  -8  276.20   14.77
  -1  -4   8  253.10   13.19
  -1  -4   8  297.29   16.56
   1   4  -7  219.31   13.76
   1  -4  -7  196.07   11.11
   1  -4  -7  217.35   12.07
   1  -4  -7  186.68   11.78
  -1  -4   7  194.96   13.15
  -1  -4   7  170.43   13.28
   1   4  -6  241.45   13.59
   1  -4  -6  219.32   12.19
   1  -4  -6  216.12   11.05
   1  -4  -6  255.63   13.31
  -1  -4   6  183.19    9.28
  -1  -4   6  253.03   14.59
   1   4  -5  256.12    8.93
   1  -4  -5  246.15   12.32
   1  -4  -5  265.14   13.30
   1  -4  -5  243.03   10.67
  -1  -4   5  283.34   15.40
  -1  -4   5  255.71   12.94
  -1  -4   5  247.04    9.94
   1   4  -4  925.07   31.11
   1   4  -4 1096.29   41.33
  -1   4   4 1147.76   44.80
  -1   4   4 1062.53   46.75
  -1   4   4 1019.90   37.08
   1  -4  -4 1013.46   41.17
   1  -4  -4 1102.21   46.59
  -1  -4   4 1074.96   45.43
   1  -4  -4 1028.27   38.49
  -1  -4   4  977.39   34.48
  -1  -4   4 1049.34   42.38
   1   4  -3  796.11   28.85
   1   4  -3  704.17   22.16
   1   4  -3  814.35   33.64
  -1   4   3  862.29   32.16
  -1   4   3  763.25   24.11
  -1   4   3  763.06   29.49
   1  -4  -3  849.37   35.63
   1  -4  -3  809.60   31.34
  -1  -4   3  845.23   38.54
  -1  -4   3  839.28   33.97
  -1  -4   3  779.24   24.34
   1  -4  -3  806.90   27.13
   1   4  -2 2796.90  118.97
   1   4  -2 2776.00  117.47
   1   4  -2 2877.20  120.06
  -1   4   2 2722.15  109.11
  -1   4   2 2677.96  116.79
  -1   4   2 2859.22  123.34
   1   4  -2 2773.35  109.94
  -1   4   2 2618.59  101.88
  -1   4   2 2849.03  109.89
  -1   4   2 2574.18  103.18
   1  -4  -2 2414.32   98.15
  -1  -4   2 2832.57  125.66
  -1  -4   2 2891.63  130.68
   1  -4  -2 2824.32  141.13
   1  -4  -2 2797.78  131.40
  -1   4   1  265.98    7.81
   1   4  -1  255.78    9.54
   1   4  -1  328.14   11.25
  -1   4   1  267.79    5.85
   1   4  -1  246.97    8.65
  -1   4   1  266.11   10.45
  -1   4   1  236.67    9.77
  -1   4   1  248.06    7.41
   1  -4  -1  264.36    7.46
  -1  -4   1  265.85   11.25
  -1  -4   1  261.29   11.22
  -1  -4   1  250.51   15.81
   1  -4  -1  260.02   10.97
   1  -4  -1  239.36    8.15
   1  -4  -1  268.52   13.11
   1   4   0  177.69    7.29
   1   4   0  173.46    6.58
   1   4   0  187.52    8.23
  -1   4   0  183.57    6.80
  -1   4   0  194.10    5.36
  -1   4   0  174.79    7.34
  -1   4   0  192.15    6.61
  -1  -4   0  181.87    9.84
  -1  -4   0  184.26    7.96
   1  -4   0  181.34    5.44
  -1  -4   0  178.83   12.31
   1  -4   0  168.59    6.89
   1  -4   0  177.08   11.86
  -1   4  -1 1562.41   57.15
  -1   4  -1 1573.79   56.02
   1   4   1 1413.40   51.01
   1   4   1 1467.62   53.98
   1   4   1 1547.67   59.78
  -1   4  -1 1461.30   54.38
  -1   4  -1 1577.64   54.80
   1  -4   1 1541.85   55.14
  -1  -4  -1 1462.33   61.95
   1  -4   1 1451.91   57.21
   1  -4   1 1580.75   61.58
  -1  -4  -1 1528.29   58.10
   1  -4   1 1557.13   61.81
  -1  -4  -1 1513.07   60.61
  -1   4  -2   83.01    3.03
  -1   4  -2   80.12    3.73
   1   4   2   94.90    6.48
   1   4   2   84.36    8.24
   1   4   2   72.40    4.12
  -1   4  -2   79.58    4.71
  -1   4  -2   76.79    4.11
   1  -4   2   74.83    5.52
  -1  -4  -2   83.97    3.74
   1  -4   2   83.75    3.97
   1  -4   2   70.04    3.59
  -1  -4  -2   83.81    5.23
  -1  -4  -2   74.24    5.99
  -1  -4  -2   80.43    7.19
   1  -4   2   76.57    5.43
   1   4   3  217.28   14.77
   1   4   3  180.52    8.05
   1   4   3  208.92    9.78
  -1   4  -3  198.02    8.80
  -1   4  -3  195.82    8.15
  -1   4  -3  189.25    7.04
  -1  -4  -3  177.22    7.15
   1  -4   3  201.84   10.78
  -1  -4  -3  190.71   11.28
  -1  -4  -3  191.40    6.76
  -1  -4  -3  177.97   11.73
   1  -4   3  183.99    7.47
   1  -4   3  183.25   12.95
   1   4   4  591.57   23.30
   1   4   4  647.39   27.95
  -1   4  -4  676.29   23.92
   1  -4   4  656.14   27.29
   1  -4   4  581.43   22.44
  -1  -4  -4  593.24   23.86
   1  -4   4  644.54   28.06
   1   4   5  556.90   23.31
   1   4   5  649.91   28.27
  -1   4  -5  621.93   25.46
   1  -4   5  526.73   22.34
  -1  -4  -5  556.42   23.41
   1  -4   5  630.99   28.98
   1   4   6  577.08   25.18
  -1   4  -6  534.24   23.31
   1   4   6  473.29   21.58
   1  -4   6  423.51   19.68
  -1  -4  -6  483.27   21.44
   1  -4   6  559.42   26.94
   1   4   7   40.15    5.37
   1   4   7   44.13    5.09
   1  -4   7   40.95    6.35
   1  -4   7   34.14    4.97
  -1  -4  -7   44.62    4.80
   1   4   8  177.34   10.36
   1  -4   8  182.83   10.40
   1  -4   8  199.30   17.12
  -1  -4  -8  171.86   10.23
   1   4   9   16.88    3.47
   1  -4   9   19.12    3.73
   1  -4   9   12.29    3.26
  -1   4 -10    0.60    1.25
   1   4  10   -0.13    1.36
   1  -4  10    1.20    1.92
  -1   5  10    0.31    1.80
  -1  -5  10    8.35    2.21
   1  -5 -10    6.23    2.06
   1   5  -9  332.28   16.55
  -1   5   9  280.80   13.13
   1  -5  -9  312.37   15.71
  -1  -5   9  344.86   16.68
  -1   5   8   87.69   11.21
   1   5  -8   92.20    8.40
  -1   5   8   82.39    6.56
  -1  -5   8   97.64    8.88
   1  -5  -8   88.03    7.68
   1   5  -7   67.03   12.73
  -1   5   7   69.84    5.83
  -1   5   7   69.62    7.60
   1  -5  -7   71.09    7.22
  -1  -5   7   81.28    8.57
   1   5  -6  483.22   24.78
  -1   5   6  422.19   18.15
   1  -5  -6  429.81   21.46
  -1  -5   6  520.33   26.54
   1  -5  -6  514.34   25.64
  -1   5   5  480.91   18.78
   1  -5  -5  504.30   23.58
   1  -5  -5  547.31   26.17
  -1  -5   5  551.01   32.58
  -1  -5   5  585.54   29.43
   1  -5  -4   49.26    6.39
  -1  -5   4   46.88    6.93
  -1  -5   4   52.83    5.83
   1  -5  -3   93.56   11.76
   1  -5  -3   96.11    7.10
  -1  -5   3   93.70    7.10
  -1  -5   3   96.76    7.79
   1   5  -2  497.59   18.29
   1   5  -2  511.31   19.50
   1   5  -2  511.58   18.83
  -1   5   2  493.28   19.96
  -1   5   2  542.39   25.82
   1  -5  -2  473.66   24.99
   1  -5  -2  489.03   22.97
  -1  -5   2  475.70   19.92
  -1  -5   2  488.14   22.02
   1   5  -1  160.13    8.23
  -1   5   1  160.94    5.14
   1   5  -1  147.17    6.57
   1   5  -1  150.12    7.83
  -1   5   1  160.57    8.25
  -1   5   1  157.56    7.41
   1  -5  -1  144.74    9.19
  -1  -5   1  150.10    7.90
   1  -5  -1  152.25    8.28
   1  -5  -1  137.30    5.83
  -1  -5   1  164.15    9.34
   1   5   0 1744.44   70.13
   1   5   0 1598.50   60.54
  -1   5   0 1657.87   65.91
  -1   5   0 1637.39   60.69
  -1   5   0 1595.71   61.13
   1  -5   0 1560.80   67.20
  -1  -5   0 1551.62   66.42
  -1  -5   0 1516.99   65.32
   1  -5   0 1529.60   61.40
  -1  -5   0 1635.71   66.88
   1  -5   0 1575.62   66.16
  -1   5  -1  188.02    7.29
   1   5   1  164.54    6.18
   1   5   1  202.92    9.72
   1   5   1  178.84    6.50
  -1   5  -1  174.99    7.94
   1  -5   1  156.70    7.92
  -1  -5  -1  167.84   10.58
   1  -5   1  173.75    9.11
   1  -5   1  203.55   12.31
  -1  -5  -1  161.34   10.18
  -1  -5  -1  168.97    9.11
   1   5   2  237.98    9.27
   1  -5   2  248.02   11.82
   1  -5   2  264.66   12.76
  -1  -5  -2  233.51    9.69
  -1  -5  -2  255.08   14.30
  -1  -5  -2  235.24   11.55
  -1  -5  -2  272.81    9.53
   1   5   3  191.81   10.86
   1   5   3  196.07   12.57
   1  -5   3  198.68   10.60
   1  -5   3  205.88   12.24
  -1  -5  -3  180.53   10.23
   1   5   4  367.37   15.38
   1   5   4  419.79   21.78
   1  -5   4  426.13   26.32
   1  -5   4  420.72   20.95
  -1  -5  -4  387.21   17.75
   1   5   5  397.99   20.48
   1   5   5  323.88   14.94
  -1   5  -5  386.37   18.06
   1  -5   5  311.36   14.40
  -1  -5  -5  347.15   16.70
   1  -5   5  387.62   20.35
   1   5   6   12.55    3.97
   1   5   6   11.15    3.06
  -1   5  -6    9.46    3.47
   1  -5   6    7.40    2.81
  -1  -5  -6   12.01    3.32
   1  -5   6   12.19    4.45
   1   5   7  509.59   22.54
   1   5   7  432.74   19.76
   1  -5   7  388.40   18.76
   1  -5   7  497.77   24.26
  -1  -5  -7  445.85   21.10
   1   5   8   22.13    5.84
   1  -5   8   28.99    7.27
   1  -5   8   20.78    3.25
  -1  -5  -8   17.59    3.22
   1   5   9   -0.22    2.16
   1  -5   9   15.22    4.15
   1  -5   9    7.00    1.75
  -1   6   9   42.47    3.54
  -1  -6   9   60.43    5.51
   1  -6  -9   47.80    4.81
   1   6  -8   38.79    5.65
  -1   6   8   46.78    5.48
   1  -6  -8   42.83    8.53
  -1  -6   8   48.89    6.41
   1   6  -7  713.69   34.02
  -1   6   7  683.83   32.79
  -1  -6   7  707.56   34.27
   1  -6  -7  631.15   30.52
   1   6  -6  166.18   12.67
   1  -6  -6  161.05   11.33
  -1  -6   6  182.45   18.86
   1  -6  -5   50.11    7.90
   1  -6  -5   43.77    6.37
  -1  -6   5   49.33    8.20
  -1  -6   5   54.12    7.54
   1  -6  -4  944.32   51.50
   1  -6  -4 1022.16   59.84
  -1  -6   4 1054.15   50.85
  -1  -6   4  967.20   44.90
   1  -6  -3  338.02   17.33
   1  -6  -3  326.79   18.98
  -1  -6   3  357.11   19.39
  -1  -6   3  343.45   23.36
   1  -6  -2  391.32   20.49
   1  -6  -2  413.16   19.86
  -1  -6   2  426.16   19.27
  -1  -6   2  447.58   22.03
   1   6  -1   93.12    6.30
   1  -6  -1   83.48    7.45
   1  -6  -1   78.26    7.21
  -1  -6   1   88.00    9.57
  -1  -6   1   91.86    8.13
   1   6   0  200.34   11.16
   1  -6   0  186.06   10.33
   1  -6   0  164.34    8.33
   1  -6   0  209.26   11.84
  -1  -6   0  214.99   12.59
  -1  -6   0  194.19    9.50
   1   6   1  249.98   14.73
   1  -6   1  283.14   13.66
   1  -6   1  290.76   15.15
  -1  -6  -1  255.59   11.65
  -1  -6  -1  288.36   15.12
   1   6   2  178.78   13.18
   1  -6   2  190.71   12.02
   1  -6   2  203.55   12.00
  -1  -6  -2  190.26   11.84
   1   6   3  186.89   13.74
   1  -6   3  179.79   16.82
   1  -6   3  184.96   12.09
  -1  -6  -3  182.59   11.21
   1   6   4  204.77   14.06
   1  -6   4  195.14   12.86
   1  -6   4  179.62   12.77
  -1  -6  -4  161.93   10.81
   1   6   5  193.70   10.25
   1   6   5  221.19   14.42
  -1   6  -5  215.59   12.45
  -1  -6  -5  189.79   11.68
   1  -6   5  229.56   14.17
   1   6   6  143.74    8.39
   1   6   6  170.84   11.51
   1  -6   6  171.23   11.93
  -1  -6  -6  142.14    9.39
   1   6   7  140.94    8.75
   1   6   7  122.78    7.36
   1  -6   7  138.35    9.93
  -1  -6  -7  116.55    8.01
   1   6   8   39.00    3.27
   1   6   8   31.91    3.12
   1  -6   8   39.09    4.62
  -1  -6  -8   21.54    3.08
   1   7  -8    0.12    1.73
  -1   7   8   -0.26    1.65
   1  -7  -8    1.87    1.76
  -1  -7   8    3.13    2.01
   1   7  -7   28.80    4.97
  -1   7   7   27.19    4.89
  -1  -7   7   30.63    5.21
   1  -7  -7   25.17    4.49
   1   7  -6  251.87   15.07
  -1   7   6  244.88   15.52
   1  -7  -6  215.53   13.15
  -1  -7   6  254.70   15.35
  -1   7   5   97.46    9.54
   1  -7  -5   79.23    7.99
  -1  -7   5   97.42   10.61
  -1  -7   5   98.89    9.82
   1  -7  -4  740.01   37.32
   1  -7  -4  668.42   41.05
  -1  -7   4  723.20   38.12
  -1  -7   4  758.17   36.61
   1  -7  -3  122.02   10.22
   1  -7  -3  121.30   11.15
  -1  -7   3  122.10   11.15
  -1  -7   3  128.68    9.23
   1  -7  -2    5.01    3.17
   1  -7  -2    5.19    3.33
  -1  -7   2    2.30    3.65
  -1  -7   2    3.54    2.66
   1   7  -1   98.92    7.12
   1  -7  -1  105.41    8.59
   1  -7  -1  103.39    9.14
  -1  -7   1   86.46    7.30
  -1  -7   1  104.71    9.84
   1   7   0  106.45   12.27
   1  -7   0   96.14    7.70
   1  -7   0   96.45   13.78
  -1  -7   0   91.90    6.74
  -1  -7   0  108.97    9.78
   1   7   1  118.96   10.03
   1  -7   1  126.90    8.69
   1  -7   1  128.66    9.91
  -1  -7  -1  125.48   10.76
   1   7   2  293.25   17.61
   1  -7   2  287.77   16.48
   1  -7   2  289.90   15.27
  -1  -7  -2  306.02   23.34
   1   7   3  462.04   32.88
   1  -7   3  460.46   24.54
   1  -7   3  463.01   22.53
  -1  -7  -3  433.29   22.21
   1   7   4   27.40    5.44
   1  -7   4   19.15    5.12
   1  -7   4   20.41    7.38
  -1  -7  -4   19.62    4.62
   1   7   5   40.29    6.92
  -1   7  -5   47.83    5.43
   1  -7   5   50.41    6.13
  -1  -7  -5   41.41    5.44
   1   7   6  343.53   16.79
   1  -7   6  339.48   16.60
  -1  -7  -6  298.21   15.00
   1   7   7   77.84    5.54
   1  -7   7   78.80    9.56
  -1  -7  -7   62.23    5.13
  -1   8   7  575.36   22.51
  -1  -8   7  587.60   28.25
   1  -8  -7  519.86   22.34
   1   8  -6  150.94   14.21
  -1   8   6  144.31    9.81
   1  -8  -6  132.23   13.19
  -1  -8   6  148.11    9.41
   1   8  -5  129.92    9.90
  -1   8   5  110.19    9.57
   1  -8  -5   99.65    8.63
  -1  -8   5  127.10    8.91
  -1   8   4   58.90    7.14
   1  -8  -4   43.72   10.19
  -1  -8   4   50.58    8.14
  -1  -8   4   51.86    6.18
  -1   8   3   12.35    4.57
   1  -8  -3   18.18    4.63
  -1  -8   3   18.06    5.60
  -1  -8   3   17.04    4.47
  -1   8   2  322.88   17.64
  -1  -8   2  348.98   17.56
   1  -8  -2  344.79   18.87
  -1  -8   2  323.21   19.45
  -1   8   1   38.02    5.34
   1  -8  -1   40.94    6.45
  -1  -8   1   35.60    7.09
  -1  -8   1   40.70    6.94
   1   8   0  350.35   16.87
   1  -8   0  338.89   18.60
  -1  -8   0  338.42   19.73
   1   8   1   26.65    4.61
   1  -8   1   21.08    5.11
  -1  -8  -1   25.55    5.76
   1   8   2  327.10   17.49
   1  -8   2  337.46   19.01
  -1  -8  -2  343.67   19.09
   1   8   3   58.54    6.92
   1  -8   3   54.93    5.38
   1  -8   3   51.29    7.12
  -1  -8  -3   56.86    6.62
   1   8   4  160.15   15.49
  -1   8  -4  160.65    9.66
   1  -8   4  163.40    9.30
  -1  -8  -4  141.03   10.03
   1   8   5  116.61    8.32
   1  -8   5  114.33    6.94
  -1  -8  -5  101.63    7.53
   1   8   6  141.58    7.95
   1  -8   6  141.20    7.08
  -1  -8  -6  116.24    9.76
   1   9  -5   73.30    7.52
  -1   9   5   66.64    7.64
  -1  -9   5   43.56    3.34
   1   9  -4    2.88    2.15
  -1   9   4    1.23    1.90
   1  -9  -4    0.81    2.11
  -1  -9   4    0.60    1.47
  -1   9   3   39.06    4.52
   1  -9  -3   39.58    5.36
  -1  -9   3   41.74    6.33
  -1  -9   3   34.00    5.66
  -1   9   2   95.64    6.47
  -1  -9   2   94.73    9.13
   1  -9  -2   88.34    7.67
   1  -9  -1    5.68    3.07
  -1  -9   1    5.30    5.77
   1  -9   0   53.67    6.15
  -1  -9   0   54.97    6.74
   1   9   1   54.06    4.60
   1  -9   1   47.46    6.15
  -1  -9  -1   54.13    6.36
   1   9   2   42.85    4.35
   1  -9   2   42.92    5.39
  -1  -9  -2   25.73    8.72
   1   9   3  172.61    8.95
  -1  -9  -3  154.22    9.53
   1   9   4  168.79    8.52
   2   0 -12    0.05    1.63
   2   0 -12    1.72    1.72
  -2   0  12    1.90    1.99
   2   0 -11  142.76    9.63
   2   0 -11  136.55    9.50
  -2   0  11  129.99   10.26
   2   0 -10  461.59   23.48
   2   0 -10  468.88   23.36
  -2   0  10  464.20   31.38
   2   0  -9   44.33   10.59
   2   0  -9   44.17   10.05
  -2   0   9   46.03    6.85
   2   0  -8  300.15   16.20
   2   0  -8  268.13   15.04
  -2   0   8  284.62   16.25
   2   0  -7 1274.49   56.46
   2   0  -7 1340.02   57.46
  -2   0   7 1439.02   57.29
  -2   0   7 1381.72   60.20
  -2   0   7 1416.41   56.54
   2   0  -6  842.86   34.22
   2   0  -6  808.04   25.30
   2   0  -6  870.22   34.00
   2   0  -6  892.87   35.92
  -2   0   6  818.44   41.26
  -2   0   6  809.48   29.92
  -2   0   6  786.69   34.90
   2   0  -5   21.36    3.64
   2   0  -5   19.14    1.39
   2   0  -5   22.97    3.74
   2   0  -5   22.44    3.63
  -2   0   5   23.21    2.82
  -2   0   5   22.82    1.23
  -2   0   5   20.04    4.79
  -2   0   5   23.17    4.24
   2   0  -4  622.18   22.18
   2   0  -4  621.57   21.50
   2   0  -4  601.69   21.27
   2   0  -4  613.68   16.35
  -2   0   4  650.97   20.96
  -2   0   4  617.59   21.53
  -2   0   4  647.97   20.95
  -2   0   4  582.24   16.14
   2   0  -3  976.10   34.63
   2   0  -3  926.38   32.82
   2   0  -3 1005.27   28.58
   2   0  -3 1032.61   34.97
   2   0  -3 1056.36   32.43
  -2   0   3 1039.45   31.39
  -2   0   3 1025.41   33.29
  -2   0   3  997.72   34.07
  -2   0   3 1025.49   37.26
  -2   0   3  963.82   29.37
   2   0  -213063.95  809.33
   2   0  -212973.69  831.30
   2   0  -213246.11  842.32
   2   0  -211837.80  771.56
   2   0  -213947.28  892.53
   2   0  -212240.06  790.86
  -2   0   213610.52  844.66
  -2   0   213575.42  859.14
  -2   0   212725.15  805.91
  -2   0   213332.87  843.98
   2   0  -111243.26  666.52
   2   0  -110015.18  581.50
   2   0  -110754.90  646.08
   2   0  -110784.52  618.37
   2   0  -110622.77  637.20
  -2   0   110962.77  643.34
  -2   0   110382.80  619.60
  -2   0   111444.73  672.88
  -2   0   111157.79  656.07
   2   0   017039.71 1182.62
   2   0   016711.58 1143.41
   2   0   016484.77 1137.02
   2   0   016902.52 1161.64
   2   0   015559.20 1086.67
  -2   0   017052.88 1168.40
  -2   0   015846.09 1092.20
  -2   0   015930.16 1104.07
   2   0   1  813.66   29.31
   2   0   1  798.79   25.41
   2   0   1  817.61   24.98
   2   0   1  824.29   27.35
   2   0   1  810.64   25.25
  -2   0  -1  860.54   27.05
  -2   0  -1  951.00   32.62
  -2   0  -1  826.48   26.84
  -2   0  -1  831.78   20.53
   2   0   2   93.00    4.83
   2   0   2   76.45    4.89
   2   0   2   88.94    4.30
   2   0   2   94.83    3.75
   2   0   2   86.41    4.00
  -2   0  -2   86.66    4.03
  -2   0  -2   92.57    4.59
  -2   0  -2   81.19    2.25
  -2   0  -2   91.10    4.71
   2   0   3 1461.41   52.06
   2   0   3 1711.22   63.41
   2   0   3 1442.03   53.11
   2   0   3 1411.84   54.38
   2   0   3 1528.44   59.74
  -2   0  -3 1584.24   68.00
  -2   0  -3 1462.72   55.47
  -2   0  -3 1388.25   47.31
  -2   0  -3 1621.27   61.31
   2   0   4  335.01   13.73
   2   0   4  303.54   12.80
   2   0   4  357.07   11.00
   2   0   4  353.53   13.21
   2   0   4  366.04   11.07
  -2   0  -4  384.27   16.14
  -2   0  -4  321.31   10.30
  -2   0  -4  345.85   13.42
  -2   0  -4  323.13   12.77
   2   0   5   10.16    2.81
   2   0   5   11.91    2.78
   2   0   5   12.22    2.57
  -2   0  -5   14.24    2.67
  -2   0  -5   10.77    2.54
  -2   0  -5   13.21    3.18
   2   0   6  280.02   14.18
   2   0   6  301.37   13.98
  -2   0  -6  303.57   13.65
   2   0   7 1727.06   77.01
   2   0   7 1830.05   82.44
  -2   0  -7 1793.59   80.20
   2   0   8   33.53    4.52
   2   0   8   33.85    5.02
  -2   0  -8   31.45    4.44
   2   0   9  235.63   11.57
   2   0   9  262.46   13.06
  -2   0  -9  230.49   11.98
   2   0  10   67.23    7.41
   2   0  10   53.29    4.01
  -2   1  12  105.83    6.93
   2   1 -12   96.28    5.79
   2   1 -12  101.63    9.61
   2  -1 -12   97.97    6.93
   2  -1 -12   92.38    5.88
  -2  -1  12   95.59   10.61
  -2   1  11  178.71   11.21
   2   1 -11  172.08   10.81
   2   1 -11  173.19   10.55
   2  -1 -11  180.27   11.05
   2  -1 -11  173.14   11.39
  -2  -1  11  182.38   11.44
   2   1 -10  625.56   29.50
  -2   1  10  620.00   30.36
   2   1 -10  622.96   30.57
   2  -1 -10  613.41   29.64
  -2  -1  10  669.87   31.68
   2  -1 -10  620.91   30.21
  -2   1   9  695.77   32.87
   2   1  -9  676.22   32.48
   2   1  -9  718.88   33.29
   2  -1  -9  682.26   32.65
   2  -1  -9  698.96   33.98
  -2  -1   9  713.65   34.12
   2   1  -8  538.07   25.74
   2   1  -8  554.30   31.60
  -2   1   8  568.62   26.57
   2  -1  -8  599.24   27.90
   2  -1  -8  550.29   25.94
  -2  -1   8  571.33   34.05
  -2  -1   8  533.33   24.91
   2   1  -7   15.50    4.07
   2   1  -7   15.28    3.54
   2   1  -7   23.39    3.47
  -2   1   7   19.33    4.16
   2  -1  -7   14.53    4.08
   2  -1  -7   15.62    4.10
  -2  -1   7   16.51    3.98
  -2  -1   7   25.39    3.06
  -2  -1   7   17.95    3.45
  -2  -1   7   17.70    2.68
   2   1  -6 1886.71   91.47
   2   1  -6 1845.95   76.72
   2   1  -6 1849.97   71.83
   2   1  -6 1914.20   81.83
  -2   1   6 1990.36   73.73
  -2   1   6 1888.18   83.01
  -2   1   6 1824.88   74.75
   2  -1  -6 1958.35   75.99
   2  -1  -6 1879.25   82.43
  -2  -1   6 1940.62   84.36
  -2  -1   6 1787.07   73.68
  -2  -1   6 1837.79   74.64
  -2  -1   6 2056.19   82.41
   2  -1  -6 1925.02   82.53
   2  -1  -6 2000.02   85.76
   2   1  -5 1304.49   57.30
  -2   1   5 1288.71   51.99
   2   1  -5 1386.38   52.13
   2   1  -5 1405.44   55.11
   2   1  -5 1446.76   59.56
  -2   1   5 1416.08   48.56
  -2   1   5 1354.32   50.40
  -2   1   5 1335.69   52.60
  -2   1   5 1288.84   48.44
   2  -1  -5 1332.97   54.34
  -2  -1   5 1409.95   50.50
  -2  -1   5 1380.36   50.91
  -2  -1   5 1425.41   65.76
   2  -1  -5 1475.20   58.26
   2  -1  -5 1262.58   37.89
   2  -1  -5 1553.19   55.55
  -2  -1   5 1294.07   48.82
  -2   1   4  411.74   14.62
   2   1  -4  422.64   18.93
   2   1  -4  442.62   17.10
   2   1  -4  459.40   13.53
  -2   1   4  453.30   14.80
  -2   1   4  433.07   14.20
  -2   1   4  438.47   15.92
  -2   1   4  436.99   15.78
   2  -1  -4  467.42   14.74
  -2  -1   4  392.53    9.52
  -2  -1   4  433.26   14.19
  -2  -1   4  470.89   15.09
   2  -1  -4  400.21   15.14
   2  -1  -4  435.91   19.38
   2  -1  -4  421.61    8.67
  -2  -1   4  461.76   16.58
   2   1  -3  622.14   16.47
   2   1  -3  626.99   20.31
   2   1  -3  610.55   19.68
   2   1  -3  600.27   17.69
  -2   1   3  605.44   20.12
  -2   1   3  605.03   18.14
  -2   1   3  634.96   19.65
  -2   1   3  566.71   17.74
  -2  -1   3  623.04   19.09
  -2  -1   3  661.54   23.33
  -2  -1   3  605.92   18.34
  -2  -1   3  604.63   22.56
   2  -1  -3  554.47   18.99
   2  -1  -3  620.33   23.05
   2  -1  -3  597.88   22.72
  -2  -1   3  590.68   17.69
   2   1  -2 9988.85  580.42
  -2   1   210288.00  587.92
   2   1  -2 9973.63  585.14
   2   1  -210102.26  583.33
   2   1  -210041.62  580.48
  -2   1   210317.63  597.67
  -2   1   2 9895.81  535.72
  -2   1   2 9833.59  574.14
  -2   1   2 8864.32  518.22
   2  -1  -2 9659.07  565.61
  -2  -1   210832.63  639.93
  -2  -1   210536.23  607.80
  -2  -1   210226.77  602.79
  -2  -1   2 9987.61  576.41
   2  -1  -210523.03  619.88
   2  -1  -210512.12  608.31
  -2  -1   2 8534.73  495.72
  -2  -1   210129.79  587.75
   2  -1  -210449.97  612.75
  -2   1   1 5776.61  279.90
   2   1  -1 5402.15  276.77
   2   1  -1 5519.33  268.95
  -2   1   1 5445.71  254.71
   2   1  -1 5642.16  264.62
   2   1  -1 5520.50  266.62
  -2   1   1 5722.87  274.49
  -2   1   1 5486.24  252.83
   2  -1  -1 5717.03  267.61
   2  -1  -1 5684.25  280.33
   2  -1  -1 5603.66  273.13
  -2  -1   1 5488.75  271.50
  -2  -1   1 5784.24  268.04
  -2  -1   1 5534.54  269.71
  -2  -1   1 5361.38  263.94
   2  -1  -1 6011.68  279.90
   2  -1  -1 5761.72  268.27
   2   1   0  693.93   18.21
   2   1   0  641.37   24.82
   2   1   0  637.27   20.46
  -2   1   0  614.33   23.41
  -2   1   0  648.79   23.53
   2   1   0  601.52   21.26
  -2   1   0  654.02   15.75
   2  -1   0  624.25   16.27
   2  -1   0  614.26   19.72
   2  -1   0  695.54   16.70
   2  -1   0  611.10   19.92
   2  -1   0  675.70   17.50
  -2  -1   0  642.41   21.12
  -2  -1   0  652.32   21.56
  -2  -1   0  693.01   18.80
   2  -1   0  636.77   20.37
   2   1   1  477.27   15.79
   2   1   1  453.78   14.30
   2   1   1  456.19   12.73
   2   1   1  454.87   14.73
   2   1   1  433.08   18.60
   2   1   1  550.94   15.41
  -2   1  -1  486.07   15.12
  -2   1  -1  512.91   19.91
  -2   1  -1  481.04   13.20
   2  -1   1  469.27   13.69
   2  -1   1  460.67   12.00
   2  -1   1  471.30   15.05
   2  -1   1  450.48   15.11
  -2  -1  -1  477.41   14.95
  -2  -1  -1  478.95   13.49
  -2  -1  -1  452.10   14.78
   2  -1   1  502.59   12.27
   2  -1   1  477.37   12.51
  -2  -1  -1  469.91   11.83
   2   1   2  321.00    8.74
   2   1   2  337.91   11.71
   2   1   2  313.43    9.82
   2   1   2  313.87   10.77
   2   1   2  296.72   13.86
  -2   1  -2  362.13    9.25
  -2   1  -2  356.68    9.60
  -2   1  -2  344.51   12.19
  -2   1  -2  361.17   12.87
   2  -1   2  360.88   10.22
  -2  -1  -2  345.89   12.44
  -2  -1  -2  307.51   11.14
  -2  -1  -2  340.77   11.50
   2  -1   2  320.52   11.56
   2  -1   2  303.04   10.27
  -2  -1  -2  333.32   10.73
   2  -1   2  312.17   15.43
  -2  -1  -2  332.36    8.85
  -2   1  -3  322.48   13.71
   2   1   3  312.23   14.29
   2   1   3  283.60   10.35
   2   1   3  304.39   11.92
  -2   1  -3  309.28    8.95
   2   1   3  298.75   11.02
  -2   1  -3  312.08   16.17
  -2   1  -3  298.42    9.91
   2   1   3  317.82    9.65
   2  -1   3  326.74   10.33
   2  -1   3  289.98   12.23
   2  -1   3  288.98    8.20
   2  -1   3  307.66   13.16
  -2  -1  -3  354.92   13.59
  -2  -1  -3  269.81   11.23
  -2  -1  -3  303.98   12.39
  -2  -1  -3  305.45   11.46
  -2  -1  -3  284.92    8.52
   2  -1   3  322.10   10.49
   2   1   4  441.79   17.52
  -2   1  -4  475.39   19.58
   2   1   4  409.05   14.51
   2   1   4  374.54   14.43
   2   1   4  449.66   17.97
  -2   1  -4  406.63   14.37
  -2   1  -4  431.41   13.73
  -2   1  -4  449.88   16.77
   2  -1   4  443.96   14.73
  -2  -1  -4  387.62   14.73
  -2  -1  -4  438.30   15.77
  -2  -1  -4  395.11   15.51
  -2  -1  -4  483.03   17.55
   2  -1   4  441.06   18.10
   2  -1   4  381.34   16.31
  -2  -1  -4  414.76   16.78
   2   1   5  845.93   32.22
   2   1   5  671.14   26.33
  -2   1  -5  844.24   31.28
  -2   1  -5  681.83   25.52
   2  -1   5  642.98   27.47
   2  -1   5  763.29   26.81
  -2  -1  -5  676.68   26.53
   2  -1   5  695.48   28.38
  -2  -1  -5  784.28   28.40
  -2  -1  -5  685.57   24.61
  -2  -1  -5  684.09   27.59
  -2  -1  -5  772.47   28.78
  -2   1  -6 1354.07   55.37
   2   1   6 1380.36   58.05
   2  -1   6 1369.80   58.93
  -2  -1  -6 1283.87   55.18
   2  -1   6 1312.79   64.63
  -2  -1  -6 1384.44   59.07
   2   1   7  167.78    9.52
   2   1   7  163.74    9.84
   2  -1   7  159.02   10.47
   2  -1   7  169.94   10.36
   2  -1   7  134.30    8.13
  -2  -1  -7  165.73    9.59
   2   1   8   10.58    2.72
   2   1   8    7.24    2.89
  -2   1  -8    0.71    2.69
   2  -1   8    8.47    3.20
  -2  -1  -8    7.28    2.50
   2  -1   8   -0.02    2.31
   2   1   9   33.55    4.43
   2   1   9   34.95    4.29
  -2   1  -9   35.14    4.24
   2  -1   9   34.39    5.11
   2   1  10  168.36    7.79
   2   1  10  159.14    7.67
  -2   1 -10  123.20    6.12
   2  -1  10  172.69    8.79
  -2   2  12   24.78    3.60
   2   2 -12   28.72    3.26
  -2   2  12   26.78    3.12
  -2  -2  12   26.07    3.70
   2  -2 -12   18.96    4.95
  -2   2  11  229.04   12.11
   2   2 -11  227.19   11.69
   2   2 -11  225.83   12.16
   2  -2 -11  236.30   17.38
   2  -2 -11  228.68   12.97
  -2  -2  11  235.06   13.15
   2   2 -10  359.67   19.14
   2   2 -10  359.93   17.80
  -2   2  10  369.39   18.63
   2  -2 -10  357.75   19.36
   2  -2 -10  344.62   18.87
  -2  -2  10  374.35   25.86
  -2   2   9  573.36   34.30
   2   2  -9  604.45   27.50
   2   2  -9  566.23   28.71
   2  -2  -9  586.57   36.05
   2  -2  -9  569.20   27.92
  -2  -2   9  589.56   28.06
  -2  -2   9  599.56   25.83
   2   2  -8   87.75    8.64
   2   2  -8   92.73    7.25
  -2   2   8   88.45    7.68
   2  -2  -8   86.98    8.25
   2  -2  -8   86.59    8.03
  -2  -2   8   88.96    8.09
  -2  -2   8   85.30    6.17
   2   2  -7   61.27    4.14
  -2   2   7   63.03    3.60
  -2   2   7   55.37    6.07
   2   2  -7   68.84    8.70
   2   2  -7   56.82    7.15
   2  -2  -7   59.48    6.13
   2  -2  -7   62.49    4.41
  -2  -2   7   66.51    5.14
  -2  -2   7   59.59    5.77
   2  -2  -7   73.34    6.45
   2   2  -6  664.35   30.43
   2   2  -6  635.87   22.50
   2   2  -6  677.62   36.13
   2   2  -6  659.40   25.54
  -2   2   6  734.83   28.99
  -2   2   6  648.84   27.00
  -2   2   6  652.22   24.14
  -2   2   6  680.56   22.89
   2  -2  -6  702.06   28.29
   2  -2  -6  612.20   26.14
   2  -2  -6  678.76   25.25
  -2  -2   6  633.18   23.45
  -2  -2   6  633.61   22.50
  -2  -2   6  730.76   32.31
  -2  -2   6  666.30   26.64
   2   2  -5  255.96   12.75
   2   2  -5  238.29    9.01
   2   2  -5  252.29   10.59
   2   2  -5  246.16   10.19
  -2   2   5  229.01    8.95
  -2   2   5  261.33   11.88
  -2   2   5  229.16    8.27
  -2   2   5  218.25   10.22
  -2  -2   5  246.09   10.03
  -2  -2   5  242.52   14.19
  -2  -2   5  243.71    8.63
  -2  -2   5  225.53    8.58
   2  -2  -5  220.93   11.04
   2  -2  -5  254.30   10.97
   2  -2  -5  266.33   11.46
   2   2  -4 1868.15   72.55
   2   2  -4 1889.56   72.14
   2   2  -4 1831.75   71.31
   2   2  -4 1887.00   59.96
  -2   2   4 1809.38   79.18
  -2   2   4 1780.02   67.11
  -2   2   4 1692.58   65.81
  -2   2   4 1826.70   71.85
   2  -2  -4 1803.11   70.75
  -2  -2   4 1840.07   78.68
  -2  -2   4 1822.14   71.50
  -2  -2   4 1871.69   69.13
  -2  -2   4 1770.69   69.39
   2  -2  -4 1663.94   74.81
   2  -2  -4 1912.07   77.40
  -2  -2   4 1909.64   74.90
   2   2  -3 1265.38   44.07
   2   2  -3 1428.74   44.55
   2   2  -3 1361.05   47.91
   2   2  -3 1310.90   49.44
  -2   2   3 1276.93   42.29
  -2   2   3 1204.36   43.19
  -2   2   3 1360.44   48.64
   2  -2  -3 1318.99   46.94
  -2  -2   3 1297.59   41.81
  -2  -2   3 1373.54   52.58
  -2  -2   3 1302.91   44.20
  -2  -2   3 1326.41   47.80
  -2  -2   3 1219.10   45.29
   2  -2  -3 1271.14   46.87
   2  -2  -3 1318.80   49.44
   2  -2  -3 1320.96   49.14
   2   2  -2 3597.71  154.52
   2   2  -2 3665.85  159.49
   2   2  -2 3799.60  164.27
   2   2  -2 3853.81  166.76
  -2   2   2 3661.28  150.18
  -2   2   2 3748.91  162.39
  -2   2   2 3595.06  158.12
  -2   2   2 3675.55  139.92
   2  -2  -2 3662.36  154.33
  -2  -2   2 3831.43  170.69
  -2  -2   2 3733.27  165.17
  -2  -2   2 3585.54  148.98
  -2  -2   2 3606.35  154.91
   2  -2  -2 3705.85  167.25
   2  -2  -2 3875.76  169.76
   2  -2  -2 3946.25  171.90
  -2  -2   2 3753.41  154.01
   2   2  -1 7257.85  388.89
   2   2  -1 6932.99  371.06
   2   2  -1 7354.30  386.08
   2   2  -1 7453.72  392.27
  -2   2   1 7042.27  343.07
  -2   2   1 7436.10  391.65
  -2   2   1 6933.95  350.41
  -2   2   1 7086.57  366.84
   2  -2  -1 7290.16  384.93
   2  -2  -1 6858.53  352.90
   2  -2  -1 7566.12  394.26
   2  -2  -1 6660.91  329.48
  -2  -2   1 7327.27  390.05
   2  -2  -1 7226.03  388.30
  -2  -2   1 7498.89  396.09
  -2  -2   1 7382.49  390.22
  -2  -2   1 6910.70  335.83
   2   2   0 1439.85   58.91
   2   2   0 1587.40   53.20
   2   2   0 1354.32   54.22
   2   2   0 1555.18   54.19
   2   2   0 1483.76   52.85
  -2   2   0 1534.57   49.61
  -2   2   0 1470.22   49.04
  -2   2   0 1571.47   53.52
  -2   2   0 1570.59   53.21
   2  -2   0 1615.08   52.82
   2  -2   0 1398.80   49.53
   2  -2   0 1516.90   54.06
  -2  -2   0 1475.67   50.54
   2  -2   0 1500.99   52.80
  -2  -2   0 1508.99   53.93
  -2  -2   0 1521.28   44.41
  -2   2  -1 1468.82   54.96
   2   2   1 1459.73   48.45
   2   2   1 1221.24   47.49
   2   2   1 1391.13   48.88
   2   2   1 1376.86   50.78
   2   2   1 1298.39   46.87
  -2   2  -1 1339.73   43.72
  -2   2  -1 1510.74   48.79
   2  -2   1 1346.98   48.09
   2  -2   1 1302.26   48.21
   2  -2   1 1307.59   37.73
  -2  -2  -1 1453.43   54.83
  -2  -2  -1 1359.32   48.92
  -2  -2  -1 1313.72   42.48
  -2  -2  -1 1381.03   46.62
   2  -2   1 1414.80   46.34
   2  -2   1 1311.16   47.80
   2   2   2 2993.29  131.32
   2   2   2 2892.72  130.66
   2   2   2 3149.37  135.20
   2   2   2 3402.01  140.69
   2   2   2 3182.27  139.52
  -2   2  -2 3428.58  137.03
   2   2   2 2996.57  123.46
  -2   2  -2 3028.88  136.12
  -2   2  -2 3169.00  136.09
   2  -2   2 3200.74  136.91
   2  -2   2 3011.34  141.98
   2  -2   2 2765.74  109.54
   2  -2   2 2924.95  122.48
  -2  -2  -2 2747.91  111.39
   2  -2   2 3002.88  131.66
  -2  -2  -2 3021.81  131.21
  -2  -2  -2 3337.47  140.78
   2  -2   2 3066.61  119.66
  -2  -2  -2 3029.08  126.06
   2   2   3 8743.64  504.62
   2   2   3 8663.66  497.71
   2   2   3 7850.91  443.73
   2   2   3 7375.61  433.40
   2   2   3 8009.43  470.76
  -2   2  -3 8229.70  449.07
   2   2   3 8725.96  497.31
  -2   2  -3 8487.70  486.28
  -2   2  -3 8423.97  474.96
  -2   2  -3 8846.57  509.34
   2  -2   3 7614.33  447.72
  -2  -2  -3 8207.16  466.81
  -2  -2  -3 7920.02  449.94
  -2  -2  -3 8469.73  473.07
  -2  -2  -3 7653.36  446.91
   2  -2   3 8016.50  439.68
   2  -2   3 8255.21  487.83
   2  -2   3 7826.51  431.10
   2   2   4  142.04    6.08
   2   2   4  166.41    7.92
   2   2   4  179.00    7.67
   2   2   4  182.18    9.51
  -2   2  -4  148.73    5.45
   2   2   4  165.82    6.49
  -2   2  -4  167.49    8.55
  -2   2  -4  177.58    8.36
  -2   2  -4  175.24    9.75
   2  -2   4  147.31    6.38
   2  -2   4  133.33    7.60
   2  -2   4  162.80    9.20
  -2  -2  -4  160.65    6.32
  -2  -2  -4  144.57    5.99
  -2  -2  -4  163.22    6.92
  -2  -2  -4  148.58    7.21
  -2  -2  -4  140.01    7.92
   2   2   5  594.98   21.02
   2   2   5  499.70   19.01
   2   2   5  472.00   17.89
   2  -2   5  527.16   23.11
   2  -2   5  437.66   19.70
  -2  -2  -5  451.52   16.86
  -2  -2  -5  557.61   19.51
  -2  -2  -5  484.24   19.32
  -2  -2  -5  644.45   26.77
   2   2   6  170.98   10.33
   2   2   6  177.26    8.78
   2  -2   6  187.45   16.09
   2  -2   6  174.38   10.81
  -2  -2  -6  171.95   12.03
   2   2   7  620.12   25.80
   2   2   7  600.05   27.45
   2  -2   7  639.82   29.07
   2  -2   7  616.61   28.81
   2   2   8   35.85    5.16
   2   2   8   35.51    4.18
   2  -2   8   38.78    5.36
   2  -2   8   31.16    5.51
   2   2   9   90.87    6.09
   2   2   9  100.70    7.27
  -2   2  -9  101.36    6.95
   2  -2   9  107.06    7.98
   2   2  10   41.32    4.00
  -2   2 -10   40.12    3.39
   2  -2  10   40.13    4.35
  -2   3  12   78.68    5.04
   2  -3 -12   83.50    4.79
  -2  -3  12   79.93    4.70
  -2   3  11   20.28    3.00
   2   3 -11    5.63    5.44
  -2   3  11   -0.26    3.42
  -2  -3  11   23.59    3.33
   2  -3 -11   26.36    3.58
   2   3 -10  229.29   18.85
  -2   3  10  205.97   11.22
   2  -3 -10  212.03   12.32
   2  -3 -10  210.70   12.65
  -2  -3  10  210.17   11.32
  -2  -3  10  211.60   12.03
   2   3  -9    9.88    8.04
   2   3  -9   14.82    5.55
  -2   3   9   18.43    3.96
   2  -3  -9   17.89    4.67
   2  -3  -9   14.04    4.58
  -2  -3   9   21.74    4.14
  -2  -3   9   18.26    3.99
   2   3  -8    5.66    4.60
   2   3  -8    6.99    4.28
  -2   3   8   11.53    3.32
   2  -3  -8    8.04    3.65
   2  -3  -8    7.14    3.85
  -2  -3   8   10.97    3.31
  -2  -3   8   14.71    3.49
   2   3  -7  488.30   24.84
   2   3  -7  464.77   23.01
  -2   3   7  460.95   20.14
   2  -3  -7  461.54   21.89
   2  -3  -7  474.30   19.86
   2  -3  -7  475.07   21.32
  -2  -3   7  515.09   22.94
  -2  -3   7  463.84   19.95
   2   3  -6  325.87   13.22
   2   3  -6  324.58   16.59
  -2   3   6  329.23   12.49
   2   3  -6  326.53   16.60
  -2   3   6  329.47   14.13
   2  -3  -6  362.89   15.89
   2  -3  -6  319.48   13.85
   2  -3  -6  284.05   14.41
  -2  -3   6  328.10   12.22
  -2  -3   6  309.32   13.84
  -2  -3   6  307.89   12.83
  -2  -3   6  318.45   11.19
  -2   3   5   17.14    2.64
   2   3  -5   16.50    2.42
   2   3  -5   13.95    2.68
   2   3  -5   15.70    4.60
  -2   3   5   13.83    3.66
  -2   3   5   13.63    2.48
  -2   3   5   12.54    2.10
   2  -3  -5   17.05    2.59
  -2  -3   5   15.66    3.11
  -2  -3   5   16.01    2.34
  -2  -3   5   14.61    1.88
  -2  -3   5   14.80    1.82
   2  -3  -5   15.41    3.28
   2  -3  -5   15.19    3.56
  -2  -3   5   18.11    4.50
  -2   3   4  631.73   20.54
   2   3  -4  731.97   24.78
   2   3  -4  647.92   23.17
   2   3  -4  706.98   25.03
  -2   3   4  706.87   26.49
  -2   3   4  697.94   24.40
  -2   3   4  664.88   24.69
   2  -3  -4  694.50   26.82
   2  -3  -4  684.95   27.04
  -2  -3   4  705.88   21.69
   2  -3  -4  756.08   37.09
  -2  -3   4  617.64   20.82
  -2  -3   4  708.81   29.85
  -2  -3   4  639.88   20.27
  -2  -3   4  739.65   27.78
   2   3  -3  827.02   29.46
   2   3  -3  902.24   27.78
   2   3  -3  902.29   33.70
   2   3  -3  862.49   30.50
  -2   3   3  856.84   26.42
  -2   3   3  819.89   30.36
  -2   3   3  910.20   32.95
  -2  -3   3  952.47   35.21
  -2  -3   3  862.86   27.78
  -2  -3   3  850.65   25.83
  -2  -3   3  905.51   35.89
  -2  -3   3  876.08   25.47
   2  -3  -3  828.55   26.97
   2  -3  -3  880.32   32.73
   2  -3  -3  932.08   37.44
   2   3  -2  117.82    5.15
  -2   3   2  111.55    5.67
  -2   3   2  131.60    2.88
  -2   3   2  120.10    2.92
  -2   3   2  122.70    6.13
   2   3  -2  121.08    4.97
   2   3  -2  112.83    5.59
   2   3  -2  109.05    5.36
   2  -3  -2  112.83    3.61
  -2  -3   2  114.03    2.06
   2  -3  -2  120.89    7.64
   2  -3  -2  121.32    5.80
   2  -3  -2  123.47    4.17
   2  -3  -2  128.83    5.14
  -2  -3   2  123.89    6.71
  -2  -3   2  115.33    4.27
  -2  -3   2  128.83    7.17
   2   3  -1 2966.43  129.32
   2   3  -1 3132.54  136.27
   2   3  -1 2903.53  122.17
   2   3  -1 3015.39  127.60
  -2   3   1 3009.75  125.73
  -2   3   1 3102.72  122.19
  -2   3   1 2982.85  126.52
  -2   3   1 2933.55  119.00
   2  -3  -1 3093.99  137.28
  -2  -3   1 3073.76  133.42
   2  -3  -1 2849.99  117.40
   2  -3  -1 2939.10  123.32
  -2  -3   1 2956.54  128.88
   2  -3  -1 3083.75  130.98
   2   3   0 1599.52   65.63
   2   3   0 1843.72   67.75
   2   3   0 1755.16   65.35
   2   3   0 1616.72   60.72
  -2   3   0 1796.90   64.85
  -2   3   0 1685.40   59.70
  -2   3   0 1682.23   59.99
  -2   3   0 1739.57   65.09
  -2  -3   0 1581.43   60.46
  -2  -3   0 1641.93   63.80
   2  -3   0 1632.14   60.97
   2  -3   0 1680.75   62.07
   2  -3   0 1611.81   61.45
   2  -3   0 1617.40   63.51
   2   3   1   94.39    7.52
   2   3   1   97.39    5.05
   2   3   1  113.56    7.68
   2   3   1  101.40    7.03
  -2   3  -1  119.20    4.37
  -2   3  -1   94.15    4.84
  -2   3  -1   99.91    4.78
  -2   3  -1  106.27    3.92
  -2  -3  -1  105.59    5.04
  -2  -3  -1  101.63    5.41
  -2  -3  -1  109.56    5.38
   2  -3   1  103.91    4.99
   2  -3   1  104.72    4.85
   2  -3   1  103.42    5.93
   2  -3   1  110.22    6.82
   2   3   2  237.66   11.20
   2   3   2  229.75   11.87
   2   3   2  207.27    8.95
   2   3   2  242.91    8.88
  -2   3  -2  221.13    9.08
  -2   3  -2  227.78    8.49
  -2   3  -2  250.57    6.89
  -2   3  -2  240.07    9.51
  -2  -3  -2  228.61    8.47
  -2  -3  -2  220.90    9.06
  -2  -3  -2  223.46    8.58
   2  -3   2  226.97    9.09
   2  -3   2  228.24    8.58
   2  -3   2  265.81   11.44
   2  -3   2  232.46    7.52
  -2   3  -3  222.34    9.48
   2   3   3  237.97   11.29
   2   3   3  201.12    9.57
  -2   3  -3  194.77    6.14
   2   3   3  239.09   11.08
   2   3   3  226.30   16.27
  -2   3  -3  233.29   10.34
   2  -3   3  221.39    9.04
   2  -3   3  225.58   15.83
  -2  -3  -3  203.14    8.81
  -2  -3  -3  218.51    8.18
  -2  -3  -3  210.17    8.19
   2  -3   3  205.53    9.26
   2   3   4  311.69   14.14
   2   3   4  265.63   12.54
   2   3   4  320.98   12.35
   2   3   4  339.26   14.06
  -2   3  -4  296.89   11.62
  -2   3  -4  344.47   15.08
   2  -3   4  306.54   14.92
   2  -3   4  255.07   15.81
  -2  -3  -4  314.50   11.47
  -2  -3  -4  263.93   11.41
  -2  -3  -4  281.35   11.10
   2   3   5  282.48   16.87
   2   3   5  253.36   12.87
   2  -3   5  237.25   16.72
   2  -3   5  285.01   20.78
  -2  -3  -5  254.71   10.61
  -2  -3  -5  265.78   11.66
   2   3   6  133.12    9.09
   2   3   6  135.60    8.10
   2  -3   6  148.22   10.40
   2  -3   6  122.38    9.09
   2   3   7 1023.03   53.03
   2  -3   7 1092.67   49.04
   2  -3   7 1150.11   51.54
   2   3   8   36.84    5.31
   2  -3   8   44.39    5.53
   2  -3   8   46.09    9.29
   2   3   9   22.98    3.88
   2  -3   9   28.05    4.09
   2  -3   9   19.62    4.07
  -2   3 -10   76.52    4.29
   2   3  10   85.10    5.29
   2  -3  10   96.10    8.34
   2   4 -11   38.91    4.16
  -2   4  11   38.26    3.87
   2  -4 -11   45.58    4.21
  -2  -4  11   32.93    3.26
  -2  -4  11   37.30    4.75
   2   4 -10  108.01    8.69
  -2   4  10   96.82    7.07
   2  -4 -10  102.05    7.83
  -2  -4  10   94.60    6.70
  -2  -4  10  121.60    7.80
   2   4  -9  464.55   24.05
   2  -4  -9  440.94   22.09
   2  -4  -9  442.52   20.96
  -2  -4   9  490.31   22.57
  -2  -4   9  382.17   18.41
   2   4  -8  216.09   15.10
   2  -4  -8  201.10   12.82
   2  -4  -8  203.74   11.72
   2  -4  -8  221.42   12.25
  -2  -4   8  213.92   13.31
  -2  -4   8  196.64   10.85
   2   4  -7  110.99   10.20
  -2   4   7  105.91    9.71
   2  -4  -7  119.98    8.00
   2  -4  -7  115.30    8.31
  -2  -4   7   96.29    6.56
  -2  -4   7  123.76   10.04
   2  -4  -7  110.80    8.93
  -2   4   6  445.36   17.60
   2  -4  -6  418.82   20.18
   2  -4  -6  450.10   26.76
  -2  -4   6  457.33   20.66
   2  -4  -6  464.56   18.85
   2   4  -5  137.39    6.21
  -2   4   5  147.94    9.81
   2  -4  -5  124.16    8.31
   2  -4  -5  130.57    6.59
  -2  -4   5  140.72   10.78
  -2  -4   5  131.43    4.89
  -2  -4   5  135.93    8.55
   2  -4  -5  135.31    9.62
   2   4  -4  633.29   23.35
   2   4  -4  666.69   24.57
   2   4  -4  669.13   22.46
  -2   4   4  681.71   26.51
  -2   4   4  656.26   22.18
  -2   4   4  634.88   29.58
  -2   4   4  588.35   18.69
   2  -4  -4  669.47   29.56
   2  -4  -4  591.08   24.30
  -2  -4   4  536.28   17.31
   2  -4  -4  630.14   21.64
  -2  -4   4  639.44   25.91
  -2  -4   4  634.12   28.05
   2   4  -3  322.03   10.08
   2   4  -3  323.20   10.70
   2   4  -3  316.70   12.29
   2   4  -3  305.76   12.10
  -2   4   3  317.54   10.39
  -2   4   3  288.95   15.82
  -2   4   3  311.54   17.26
  -2   4   3  296.96    9.91
   2  -4  -3  315.86   16.34
  -2  -4   3  280.43    8.76
  -2  -4   3  310.90   15.20
  -2  -4   3  327.39   18.71
   2  -4  -3  312.06   13.13
  -2   4   2 7570.07  437.05
  -2   4   2 7547.90  405.50
  -2   4   2 7703.08  424.41
   2   4  -2 7997.46  457.21
   2   4  -2 7957.30  462.33
   2   4  -2 8149.66  460.17
   2   4  -2 7806.09  449.57
  -2   4   2 8410.91  481.54
   2  -4  -2 7930.22  477.93
   2  -4  -2 8398.80  480.60
   2  -4  -2 8139.37  476.48
  -2  -4   2 8109.38  477.16
  -2  -4   2 8492.28  503.46
   2   4  -1 4052.10  191.26
   2   4  -1 4025.58  191.03
   2   4  -1 3902.15  190.54
   2   4  -1 3941.77  183.92
  -2   4   1 4046.12  189.57
  -2   4   1 4188.48  187.24
  -2   4   1 4235.04  186.85
  -2   4   1 4065.77  190.14
  -2  -4   1 4148.92  201.78
  -2  -4   1 4096.50  200.74
   2  -4  -1 3810.55  178.01
   2  -4  -1 4223.70  196.40
   2  -4  -1 4077.37  204.53
   2  -4  -1 4138.21  198.55
   2   4   0 1570.00   59.72
   2   4   0 1715.25   65.97
   2   4   0 1539.22   65.14
   2   4   0 1572.37   63.83
  -2   4   0 1609.58   60.87
  -2   4   0 1597.51   60.13
  -2   4   0 1684.07   62.23
  -2   4   0 1619.89   60.72
  -2  -4   0 1616.63   65.10
  -2  -4   0 1645.52   66.01
   2  -4   0 1566.60   65.12
   2  -4   0 1640.85   61.70
   2  -4   0 1619.25   63.69
   2  -4   0 1619.62   63.77
   2   4   1  486.50   22.24
   2   4   1  558.97   20.17
   2   4   1  545.80   22.55
   2   4   1  519.79   18.55
  -2   4  -1  516.90   16.95
  -2   4  -1  530.39   17.32
  -2   4  -1  537.86   18.18
  -2   4  -1  558.03   17.37
  -2  -4  -1  510.23   19.25
  -2  -4  -1  525.50   19.67
  -2  -4  -1  541.03   18.68
   2  -4   1  539.84   18.71
   2  -4   1  530.51   21.01
   2  -4   1  534.93   19.82
   2  -4   1  532.86   22.84
   2   4   2   16.62    3.91
   2   4   2   24.34    6.19
   2   4   2   15.68    4.04
   2   4   2   22.98    2.85
  -2   4  -2   17.93    2.58
  -2   4  -2   19.86    2.60
  -2   4  -2   14.91    1.73
   2  -4   2   17.15    2.72
  -2  -4  -2   15.54    2.53
  -2  -4  -2   14.58    4.27
   2  -4   2   18.44    3.22
  -2  -4  -2   15.09    2.28
   2  -4   2   18.35    2.37
   2   4   3  127.33    7.08
  -2   4  -3  181.98   11.79
   2   4   3  147.23    9.92
   2   4   3  162.96    7.64
   2  -4   3  150.30    9.10
   2  -4   3  144.55    7.62
  -2  -4  -3  120.88    8.69
  -2  -4  -3  142.05    7.07
  -2  -4  -3  151.98    6.40
   2  -4   3  132.69    6.85
   2   4   4  191.00    9.80
   2   4   4  228.75   12.65
   2  -4   4  221.67   12.58
   2  -4   4  192.81    9.46
  -2  -4  -4  199.75    9.20
  -2  -4  -4  170.64    8.26
   2   4   5  223.54   12.05
   2   4   5  281.42   14.91
   2  -4   5  271.40   15.35
   2  -4   5  217.58   11.67
  -2  -4  -5  236.15   11.39
   2   4   6  361.17   17.78
   2   4   6  430.58   19.13
   2  -4   6  343.33   17.14
   2  -4   6  408.75   20.89
   2   4   7  565.48   26.10
   2  -4   7  591.12   26.55
   2  -4   7  634.10   29.38
   2   4   8   20.03    6.91
   2  -4   8   29.34    5.10
   2  -4   8   32.57    4.29
   2   4   9   39.11    4.40
   2  -4   9   43.06    4.57
   2  -4   9   37.87    4.18
   2   5 -10  286.57   13.91
  -2   5  10  237.61   10.67
   2  -5 -10  255.84   13.37
  -2  -5  10  293.69   13.03
   2   5  -9  194.36   12.56
  -2   5   9  170.62    9.23
   2  -5  -9  191.33   11.66
  -2  -5   9  202.83   12.11
  -2   5   8   79.64    6.13
   2   5  -8   91.90    9.75
  -2   5   8   85.88    8.12
  -2  -5   8   99.29    8.97
   2  -5  -8   91.43    8.17
   2   5  -7  119.39   10.77
  -2   5   7  100.74    6.65
   2  -5  -7  129.07   10.17
  -2  -5   7  127.92   11.13
   2  -5  -7  106.02    9.31
   2  -5  -6 1312.68   61.64
   2  -5  -6 1473.15   68.11
  -2  -5   6 1525.14   75.43
  -2  -5   6 1477.03   67.17
   2  -5  -5  271.41   14.54
   2  -5  -5  295.34   25.33
  -2  -5   5  279.21   15.35
  -2  -5   5  314.58   25.70
   2  -5  -4   94.37   10.97
   2  -5  -4  103.58    9.40
  -2  -5   4   95.46    9.47
  -2  -5   4   99.03    8.09
   2  -5  -3  224.45   11.47
   2  -5  -3  231.27   13.87
  -2  -5   3  236.56   12.24
  -2  -5   3  231.44   13.37
   2   5  -2  312.88   12.34
   2   5  -2  289.51   11.71
  -2   5   2  317.33   13.48
  -2   5   2  290.62   12.33
  -2  -5   2  288.56   13.54
   2  -5  -2  276.00   12.65
   2  -5  -2  281.15   15.73
  -2  -5   2  294.65   14.79
   2   5  -1  322.08   13.40
   2   5  -1  299.69   11.55
   2   5  -1  281.82   12.08
   2   5  -1  282.17   16.84
   2  -5  -1  295.73   16.41
   2  -5  -1  276.06   14.41
  -2  -5   1  306.53   14.51
  -2  -5   1  290.30   13.30
   2   5   0 1283.74   48.36
   2   5   0 1483.46   57.93
   2   5   0 1336.59   49.81
   2   5   0 1201.73   51.77
  -2   5   0 1303.55   46.43
   2  -5   0 1285.92   57.39
   2  -5   0 1225.52   52.43
  -2  -5   0 1231.16   50.20
  -2  -5   0 1233.78   51.64
   2  -5   0 1238.46   50.01
   2   5   1   86.14    4.56
   2   5   1   80.38    7.69
  -2   5  -1   78.91    4.49
   2  -5   1   83.84    8.51
   2  -5   1   94.03    6.12
  -2  -5  -1   88.00    8.24
  -2  -5  -1  100.59    5.22
  -2  -5  -1   89.79    6.22
   2  -5   1   92.82    5.87
   2   5   2  719.29   33.16
   2   5   2  714.41   30.69
  -2   5  -2  785.89   30.80
   2  -5   2  711.22   29.13
   2  -5   2  706.23   29.77
   2  -5   2  680.73   29.20
  -2  -5  -2  700.12   28.50
  -2  -5  -2  668.64   26.55
   2   5   3  120.12    7.00
   2   5   3  121.87   15.11
   2  -5   3  131.51    9.05
   2  -5   3  110.95    6.42
   2  -5   3  112.99    7.73
  -2  -5  -3  120.83    7.48
  -2  -5  -3  100.26    6.21
   2   5   4  463.09   23.52
   2   5   4  414.86   18.45
   2  -5   4  411.26   22.05
   2  -5   4  454.56   22.31
  -2  -5  -4  399.51   17.98
   2   5   5   70.58    6.36
   2   5   5   85.17    8.15
   2  -5   5   60.49    5.66
   2  -5   5   78.12    8.24
  -2  -5  -5   68.70    5.91
   2   5   6  434.36   19.97
   2   5   6  381.13   18.20
   2  -5   6  341.75   21.31
   2  -5   6  430.94   21.49
  -2  -5  -6  333.63   17.20
   2   5   7   12.92    3.39
   2   5   7   11.33    3.13
   2  -5   7   14.03    4.06
   2  -5   7   12.48    3.18
   2   5   8   84.40    6.07
   2  -5   8   89.27   10.53
   2  -5   8   79.41    5.71
   2  -6 -10   73.44    5.35
  -2  -6  10   91.60    8.13
   2   6  -9   45.52    5.54
  -2   6   9   40.26    4.34
   2  -6  -9   36.18    8.08
  -2  -6   9   43.55    5.55
   2   6  -8  341.60   19.12
  -2   6   8  317.79   17.12
  -2  -6   8  349.87   18.65
   2  -6  -8  328.26   17.38
   2   6  -7  442.45   24.57
   2  -6  -7  502.56   24.92
   2  -6  -7  407.21   21.89
  -2  -6   7  460.11   32.00
   2  -6  -6  418.90   22.46
   2  -6  -6  490.87   26.27
  -2  -6   6  462.01   27.43
  -2  -6   6  504.47   26.64
   2  -6  -5  254.25   14.98
   2  -6  -5  268.43   16.93
  -2  -6   5  268.10   15.58
  -2  -6   5  315.44   28.54
   2  -6  -4   62.25   10.46
   2  -6  -4   59.51    8.12
  -2  -6   4   90.56    9.41
  -2  -6   4   54.79    7.25
   2  -6  -3  717.69   45.70
   2  -6  -3  681.32   30.96
  -2  -6   3  708.18   32.31
  -2  -6   3  698.14   34.52
   2   6  -2  769.86   30.75
   2  -6  -2  779.11   37.07
   2  -6  -2  768.17   40.40
  -2  -6   2  771.09   34.01
  -2  -6   2  785.98   36.77
   2   6  -1   61.37    5.74
   2  -6  -1   62.86    5.95
   2  -6  -1   62.83    6.96
  -2  -6   1   59.04    5.94
  -2  -6   1   74.10   11.60
   2   6   0  190.67   11.70
   2  -6   0  210.12   16.41
   2  -6   0  205.94   11.53
  -2  -6   0  213.56   12.83
  -2  -6   0  201.86   10.80
   2   6   1  335.03   24.63
   2  -6   1  309.28   14.65
   2  -6   1  354.18   16.85
  -2  -6  -1  363.28   23.41
  -2  -6  -1  331.50   15.14
   2   6   2 1174.57   54.77
   2  -6   2 1161.90   52.33
   2  -6   2 1210.92   52.47
  -2  -6  -2 1182.77   52.52
  -2  -6  -2 1025.64   50.04
   2   6   3 2460.66  120.89
   2   6   3 2316.93  106.07
   2  -6   3 2385.80  113.99
   2  -6   3 2257.65  112.87
  -2  -6  -3 2282.64  110.60
   2   6   4  146.99    8.52
   2   6   4  173.45   12.70
   2  -6   4  171.19   11.14
  -2  -6  -4  145.40    9.86
   2   6   5   64.13    5.66
   2   6   5   79.67    7.93
   2  -6   5   73.19    7.47
  -2  -6  -5   66.37    6.31
   2   6   6  226.99   11.30
   2   6   6  263.64   13.65
   2  -6   6  255.42   14.05
  -2  -6  -6  198.28   11.57
   2   6   7   39.94    3.90
   2   6   7   38.84    4.38
   2  -6   7   48.35    5.31
   2  -6   8    6.27    2.41
   2  -7  -9   22.81    3.43
  -2  -7   9   27.67    3.71
   2   7  -8    1.03    3.76
  -2   7   8    2.61    2.14
   2  -7  -8    3.11    2.21
  -2  -7   8    0.59    2.42
  -2   7   7   84.19    8.19
   2   7  -7   93.49   13.12
   2  -7  -7   70.17    7.26
  -2  -7   7   87.18    8.28
   2   7  -6   42.19    6.97
   2  -7  -6   32.13    5.72
   2  -7  -6   40.95    7.11
  -2  -7   6   46.89    7.08
   2  -7  -5  363.86   21.30
   2  -7  -5  312.18   17.90
  -2  -7   5  393.50   21.37
  -2  -7   5  371.56   23.49
   2  -7  -4  282.24   18.30
   2  -7  -4  264.68   21.84
  -2  -7   4  267.63   15.69
  -2  -7   4  285.57   19.16
   2  -7  -3  380.13   19.91
   2  -7  -3  362.93   20.33
  -2  -7   3  380.96   21.92
  -2  -7   3  391.39   25.95
   2  -7  -2   72.67   11.21
   2  -7  -2   59.94    7.27
  -2  -7   2   73.46    8.63
  -2  -7   2   77.37    7.05
   2   7  -1  325.98   20.12
   2  -7  -1  291.49   16.08
   2  -7  -1  334.08   17.57
  -2  -7   1  331.53   21.49
  -2  -7   1  337.18   19.37
   2   7   0   93.65    8.25
   2  -7   0   97.14    8.34
  -2  -7   0   95.25    7.09
  -2  -7   0  104.46    9.73
   2   7   1  222.88   14.13
   2  -7   1  241.57   14.05
  -2  -7  -1  238.13   14.84
   2   7   2   74.09    8.45
   2  -7   2   70.88    6.35
   2  -7   2   77.58    7.59
  -2  -7  -2   73.32    7.80
   2   7   3   81.76    8.90
   2  -7   3   86.05    7.02
   2  -7   3   62.93    7.58
  -2  -7  -3   75.13    7.49
   2   7   4   -0.01    2.65
   2  -7   4    1.39    2.11
  -2  -7  -4    2.47    2.20
   2   7   5   55.00    6.21
   2  -7   5   52.04    5.46
  -2  -7  -5   36.41    5.05
   2   7   6   40.42    4.44
   2  -7   6   37.71    4.44
  -2  -7  -6   23.89    3.18
   2   8  -7  130.88    8.46
  -2   8   7  131.46    8.28
   2  -8  -7  100.89    7.26
  -2  -8   7  137.18    8.30
   2   8  -6  140.71   10.11
  -2   8   6  140.55   10.02
  -2  -8   6  142.33    9.61
   2  -8  -6  112.65    8.51
  -2   8   5   13.38    4.56
   2  -8  -5   13.26    3.87
  -2  -8   5   16.51    5.19
  -2  -8   5   17.36    7.11
  -2   8   4   41.89    6.66
   2  -8  -4   43.39    6.23
  -2  -8   4   48.39    6.46
  -2  -8   4   51.30    8.08
   2  -8  -3  130.14   10.11
   2  -8  -3  133.10   10.32
  -2  -8   3  128.19    9.02
  -2  -8   3  134.48   12.00
   2  -8  -2   56.39    6.58
   2  -8  -2   53.81    6.64
  -2  -8   2   54.98    5.94
  -2  -8   2   56.40    7.72
  -2   8   1   72.52    7.01
   2  -8  -1   88.59    7.81
  -2  -8   1   78.06    6.32
  -2  -8   1   82.59    9.01
   2   8   0   64.97    6.12
   2  -8   0   58.28    6.84
  -2  -8   0   62.43    7.36
   2   8   1    7.76    3.33
   2  -8   1    6.50    5.45
  -2  -8  -1   10.83    3.81
   2   8   2   61.03    6.61
   2  -8   2   47.61    9.53
  -2  -8  -2   67.87    6.95
   2   8   3  163.59   10.70
   2  -8   3  149.76    8.04
  -2  -8  -3  157.12   10.40
   2   8   4   70.14    6.66
   2  -8   4   67.59    7.37
  -2  -8  -4   58.94    5.89
   2   8   5  186.50    9.86
   2  -8   5  192.31    8.36
   2   9  -5  108.54    7.43
  -2   9   5   94.50    6.64
  -2  -9   5   99.29    5.74
   2  -9  -5   78.26    6.55
  -2   9   4   23.29    3.42
   2  -9  -4    8.27    3.72
  -2  -9   4    9.58    4.73
  -2  -9   4   22.58    3.03
  -2   9   3   57.44    5.03
   2  -9  -3   52.55    5.85
  -2  -9   3   56.60    4.69
  -2  -9   3   55.68    7.53
   2  -9  -2    9.12    6.63
  -2  -9   2   35.63    5.16
  -2  -9   2   16.70    4.84
   2  -9  -1   61.23    5.95
  -2  -9   1   67.39    7.66
   2  -9   0    4.60    2.82
  -2  -9   0    6.77    3.21
   2   9   1    0.33    2.05
   2  -9   1    6.08    2.42
  -2  -9  -1    8.71    2.77
   2   9   2  111.65    6.35
  -2  -9  -2  104.43    7.50
   2   9   3   46.31    4.09
  -2  -9  -3   38.89    4.01
   3   0 -12   16.05    3.84
   3   0 -12   15.46    3.73
  -3   0  12   16.50    6.30
   3   0 -11   54.82   10.26
   3   0 -11   50.85    6.44
  -3   0  11   41.88    6.69
   3   0 -10  139.63   16.58
   3   0 -10  118.12   10.50
  -3   0  10  137.80   11.23
   3   0  -9  203.46   14.07
   3   0  -9  215.99   14.36
  -3   0   9  204.14   14.09
   3   0  -8  404.17   19.87
   3   0  -8  380.81   19.73
  -3   0   8  407.91   20.91
   3   0  -7  982.74   41.81
   3   0  -7  930.06   40.71
   3   0  -7 1004.47   40.56
  -3   0   7  935.52   41.67
  -3   0   7  960.95   37.29
  -3   0   7 1004.24   38.96
   3   0  -6  161.66    9.51
   3   0  -6  169.17    9.31
   3   0  -6  176.66   13.26
  -3   0   6  156.67    4.58
  -3   0   6  157.69   13.89
  -3   0   6  163.36    7.53
  -3   0   6  179.96    8.04
   3   0  -5   75.40    5.53
   3   0  -5   57.59    1.79
   3   0  -5   65.86    5.09
   3   0  -5   65.85    5.26
  -3   0   5   64.27    2.75
  -3   0   5   63.64    4.33
  -3   0   5   66.83    9.17
  -3   0   5   68.31    4.52
   3   0  -4 1129.02   41.02
   3   0  -4 1066.65   39.60
   3   0  -4 1081.70   39.13
   3   0  -4 1153.69   38.39
   3   0  -4 1004.73   30.16
  -3   0   4 1059.20   34.70
  -3   0   4 1117.95   40.58
  -3   0   4 1155.62   44.00
  -3   0   4 1146.49   39.45
  -3   0   4 1160.66   36.41
   3   0  -3 5634.12  292.41
   3   0  -3 6108.30  310.21
   3   0  -3 6537.18  335.59
   3   0  -3 6194.14  315.93
   3   0  -3 6683.11  343.36
   3   0  -3 5976.69  291.61
  -3   0   3 6275.91  310.24
  -3   0   3 6320.77  318.52
  -3   0   3 6490.33  333.15
  -3   0   3 6672.71  336.08
   3   0  -213251.90  892.98
   3   0  -215263.86 1034.15
   3   0  -216426.97 1113.76
   3   0  -215317.49 1042.33
   3   0  -213993.11  928.01
  -3   0   216579.73 1112.07
  -3   0   214953.18 1009.09
  -3   0   215522.76 1034.03
  -3   0   215373.72 1029.33
   3   0  -122348.34 1748.47
   3   0  -120927.34 1656.97
   3   0  -123740.82 1770.89
   3   0  -123508.56 1841.38
  -3   0   122636.70 1754.12
  -3   0   122426.13 1750.83
  -3   0   123365.35 1815.71
  -3   0   122376.44 1752.57
   3   0   0 1673.55   62.65
   3   0   0 1812.57   63.73
   3   0   0 1762.26   63.21
   3   0   0 1662.10   60.57
  -3   0   0 1778.43   63.32
  -3   0   0 1845.83   67.25
  -3   0   0 1655.33   61.47
   3   0   1 6892.09  370.64
   3   0   1 7373.72  390.34
   3   0   1 6711.15  363.62
   3   0   1 6421.20  351.45
   3   0   1 6956.59  382.05
  -3   0  -1 7612.26  407.51
  -3   0  -1 8002.35  426.03
  -3   0  -1 7512.19  403.83
   3   0   2 3385.82  139.54
   3   0   2 2796.53  123.76
   3   0   2 2983.47  127.92
   3   0   2 2842.45  121.39
   3   0   2 2903.65  127.21
   3   0   2 2423.42  105.81
  -3   0  -2 2557.35   88.16
  -3   0  -2 2955.19  133.56
  -3   0  -2 3134.35  132.06
   3   0   3   77.36    5.84
   3   0   3   77.70    4.95
   3   0   3   80.66    3.86
   3   0   3   80.34    4.64
   3   0   3   81.66    4.11
   3   0   3   86.05    4.93
  -3   0  -3   93.89    6.19
  -3   0  -3   89.27    6.06
   3   0   4   79.48    5.19
   3   0   4   41.47    3.80
   3   0   4   41.58    4.18
   3   0   4   48.82    4.12
  -3   0  -4   60.17    4.97
  -3   0  -4   52.19    5.60
   3   0   5   72.26    5.37
   3   0   5   81.87    6.76
   3   0   5   78.28    5.94
   3   0   6  245.86   13.14
   3   0   6  252.14   12.34
  -3   0  -6  270.28   13.63
   3   0   7   27.02    4.80
   3   0   7   27.90    4.13
  -3   0  -7   33.35    4.65
   3   0   8  299.75   14.08
   3   0   8  325.66   15.67
  -3   0  -8  336.05   16.05
   3   0   9    1.42    1.59
   3   0   9    0.88    1.26
  -3   0  -9    0.03    1.37
   3   1 -12  184.25    9.86
   3   1 -12  173.86   10.37
  -3   1  12  177.28   10.44
   3  -1 -12  157.99   14.53
  -3  -1  12  181.29   10.57
   3  -1 -12  183.79   10.51
   3   1 -11   20.31    4.82
  -3   1  11   22.50    5.14
   3   1 -11   19.80    4.68
   3  -1 -11   22.08    4.88
  -3  -1  11   26.43    5.13
   3  -1 -11   23.51    4.93
   3   1 -10  850.49   39.57
   3   1 -10  774.70   38.40
  -3   1  10  779.32   46.80
   3  -1 -10  822.29   39.01
   3  -1 -10  761.86   37.30
  -3  -1  10  825.45   39.04
   3   1  -9   16.36    4.72
   3   1  -9   14.12    4.30
  -3   1   9   11.32    4.70
   3  -1  -9   13.35    4.68
  -3  -1   9   13.93    4.77
   3  -1  -9   10.72    4.49
   3   1  -8  866.12   45.57
   3   1  -8  891.32   40.78
  -3   1   8  868.13   40.08
   3  -1  -8  923.09   41.02
  -3  -1   8  892.85   40.12
   3  -1  -8  871.09   39.32
  -3   1   7  426.49   17.16
  -3   1   7  390.51   16.21
   3   1  -7  377.52   12.55
   3   1  -7  409.57   19.66
   3   1  -7  415.99   19.15
   3   1  -7  436.14   18.30
  -3   1   7  406.98   19.87
   3  -1  -7  395.18   18.24
   3  -1  -7  410.11   19.18
   3  -1  -7  446.60   19.90
  -3  -1   7  426.48   20.92
  -3  -1   7  457.21   19.30
  -3  -1   7  408.67   18.96
  -3  -1   7  379.71   15.94
  -3   1   6  237.92   12.24
   3   1  -6  249.06   12.17
   3   1  -6  276.33   14.19
   3   1  -6  242.04   10.92
  -3   1   6  238.81   10.12
  -3   1   6  262.31    8.42
   3   1  -6  213.59    7.09
  -3   1   6  249.23   10.34
   3  -1  -6  264.47   12.78
  -3  -1   6  261.25    8.96
  -3  -1   6  245.06   10.01
   3  -1  -6  263.87   12.76
   3  -1  -6  243.15   12.21
  -3  -1   6  240.37    9.83
   3  -1  -6  280.72   10.30
  -3  -1   6  246.36   12.89
   3   1  -5  367.68   20.33
   3   1  -5  329.83   13.24
   3   1  -5  331.11   10.07
  -3   1   5  353.38   17.00
  -3   1   5  349.49   16.01
   3   1  -5  376.36   16.81
  -3   1   5  357.82   15.59
  -3   1   5  363.23   11.83
   3  -1  -5  350.42   15.03
   3  -1  -5  322.09   14.16
  -3  -1   5  321.82    8.96
  -3  -1   5  343.47   12.57
  -3  -1   5  339.70   15.46
  -3  -1   5  343.79   14.37
   3  -1  -5  341.49   14.55
   3  -1  -5  390.47   16.62
  -3  -1   5  377.77   14.74
  -3   1   4   47.79    3.17
   3   1  -4   38.57    2.34
   3   1  -4   45.88    4.06
   3   1  -4   46.16    3.59
   3   1  -4   47.27    2.21
   3   1  -4   44.57    4.34
  -3   1   4   47.21    3.06
  -3   1   4   39.70    3.61
  -3   1   4   40.22    4.12
  -3   1   4   44.34    3.49
   3  -1  -4   39.07    3.31
  -3  -1   4   42.06    5.33
   3  -1  -4   45.17    3.74
  -3  -1   4   40.42    2.65
  -3  -1   4   42.53    3.66
   3  -1  -4   35.09    3.67
  -3  -1   4   32.31    3.11
  -3  -1   4   46.28    2.92
  -3   1   3 2750.10  114.99
   3   1  -3 2957.94  120.26
   3   1  -3 3009.83  123.41
   3   1  -3 3217.42  136.77
  -3   1   3 2863.12  103.59
  -3   1   3 3231.03  133.73
   3   1  -3 3100.62  131.31
  -3   1   3 3193.34  128.92
  -3   1   3 3080.17  128.58
  -3  -1   3 3171.66  131.55
   3  -1  -3 3090.12  132.11
  -3  -1   3 2901.89  119.30
   3  -1  -3 2916.55  123.38
   3  -1  -3 3214.97  137.12
  -3  -1   3 3105.84  125.74
   3  -1  -3 3165.41  131.66
  -3  -1   3 2947.39  121.50
  -3  -1   3 3107.83  133.62
  -3  -1   3 3060.89  132.47
   3   1  -2 2869.24  111.51
   3   1  -2 2801.08  109.93
   3   1  -2 2659.18  107.19
  -3   1   2 2362.09   93.59
   3   1  -2 2697.50  102.90
   3   1  -2 2584.66  104.53
  -3   1   2 2753.44  110.46
  -3   1   2 2785.44  102.78
  -3   1   2 2644.15  100.26
  -3   1   2 2799.13  110.80
   3  -1  -2 2771.81  108.58
   3  -1  -2 2723.22  110.45
   3  -1  -2 2677.13  107.77
  -3  -1   2 2524.77   97.73
  -3  -1   2 2699.68  108.54
   3  -1  -2 2684.39  110.30
  -3  -1   2 2654.27  105.21
  -3  -1   2 2583.40  102.62
   3   1  -1 3256.37  143.47
  -3   1   1 3412.72  142.94
   3   1  -1 3246.49  145.09
   3   1  -1 3245.11  128.35
  -3   1   1 3270.65  130.24
  -3   1   1 3566.98  150.01
  -3   1   1 3170.74  123.23
   3  -1  -1 3233.01  140.15
  -3  -1   1 3430.85  146.71
   3  -1  -1 3373.24  139.39
  -3  -1   1 3203.49  129.30
   3  -1  -1 3290.02  135.88
  -3  -1   1 3172.16  135.39
   3  -1  -1 3467.77  131.72
   3  -1  -1 3306.45  141.80
  -3  -1   1 3384.58  141.41
   3   1   0   23.09    1.69
   3   1   0   23.04    0.84
  -3   1   0   22.15    2.39
   3   1   0   23.07    2.73
   3   1   0   25.41    2.44
   3   1   0   21.86    2.34
  -3   1   0   20.16    2.24
   3  -1   0   21.93    1.35
   3  -1   0   31.11    2.48
   3  -1   0   23.13    2.44
   3  -1   0   23.20    2.31
  -3  -1   0   22.75    2.50
  -3  -1   0   24.85    2.95
  -3  -1   0   25.93    1.62
  -3  -1   0   23.39    2.60
   3  -1   0   21.08    1.32
   3   1   1  383.44   13.33
   3   1   1  337.64   13.25
   3   1   1  363.74   11.27
   3   1   1  426.74   15.70
   3   1   1  370.24    9.50
  -3   1  -1  408.44   12.75
   3   1   1  388.62   13.49
  -3   1  -1  405.66   18.45
   3  -1   1  387.60   10.93
   3  -1   1  371.75   13.43
   3  -1   1  357.46   13.57
  -3  -1  -1  368.74   14.02
   3  -1   1  402.38   11.34
   3  -1   1  363.54   15.05
  -3  -1  -1  416.62   12.93
  -3  -1  -1  375.53   13.54
   3   1   2  378.66   14.00
   3   1   2  344.88   13.46
  -3   1  -2  336.73    6.55
   3   1   2  360.56   13.39
   3   1   2  369.23   17.25
   3   1   2  372.59   14.72
  -3   1  -2  391.39   15.21
  -3   1  -2  422.99   12.97
  -3   1  -2  394.76   14.57
   3  -1   2  349.81   14.24
  -3  -1  -2  421.06   14.39
  -3  -1  -2  370.52   13.92
  -3  -1  -2  340.26   14.01
   3  -1   2  367.72   11.41
   3  -1   2  414.35   15.07
   3  -1   2  339.34   14.36
   3  -1   2  358.45   14.04
   3   1   3  393.01   15.04
   3   1   3  354.20   14.39
   3   1   3  375.05   13.71
   3   1   3  353.69   12.93
   3   1   3  365.58   13.82
  -3   1  -3  394.70   15.42
  -3   1  -3  422.74   17.15
   3  -1   3  357.12   12.36
   3  -1   3  390.13   12.75
   3  -1   3  421.38   12.72
   3  -1   3  384.44   16.27
  -3  -1  -3  396.34   15.25
  -3  -1  -3  414.51   15.35
  -3  -1  -3  349.65   14.82
   3  -1   3  352.40   14.70
   3  -1   3  366.80   11.91
   3   1   4   29.03    4.04
   3   1   4   32.58    3.03
   3   1   4   28.52    2.93
   3   1   4   22.61    3.38
   3   1   4   22.82    2.88
   3  -1   4   27.86    2.63
   3  -1   4   25.59    3.98
   3  -1   4   21.63    3.57
   3  -1   4   23.20    2.61
  -3  -1  -4   32.57    4.03
  -3  -1  -4   18.87    3.46
  -3  -1  -4   22.69    3.20
   3   1   5 1614.12   67.18
   3   1   5 1615.92   68.86
   3  -1   5 1537.09   67.94
   3  -1   5 1789.94   84.39
   3  -1   5 1379.81   58.05
  -3  -1  -5 1731.20   73.50
   3   1   6   51.81    5.23
   3   1   6   53.36    5.72
   3  -1   6   55.06    9.75
   3  -1   6   65.38    6.72
   3  -1   6   50.41    6.80
  -3  -1  -6   62.32    5.85
   3   1   7  819.57   36.01
   3   1   7  869.99   37.48
  -3   1  -7  880.26   39.00
   3  -1   7  868.80   39.17
  -3  -1  -7  917.66   40.12
   3   1   8   57.47    5.39
   3   1   8   59.42    5.45
  -3   1  -8   60.82    5.87
  -3  -1  -8   55.93    5.29
   3  -1   8   60.99    6.18
   3   1   9   69.21    5.14
   3   1   9   68.33    4.94
  -3   1  -9   75.26    5.53
   3  -1   9   71.90    5.93
   3   2 -12  140.89    8.50
   3   2 -12  140.28    7.57
  -3   2  12  147.45   11.62
   3  -2 -12  133.18    8.55
  -3  -2  12  145.35    8.51
   3  -2 -12  137.57    8.30
   3   2 -11  128.51    8.82
   3   2 -11  121.75    9.99
  -3   2  11  130.59   13.76
   3  -2 -11  128.22    9.69
  -3  -2  11  128.32   13.62
   3  -2 -11  134.63    9.78
   3   2 -10  856.82   38.73
   3   2 -10  788.04   47.92
  -3   2  10  821.67   46.49
   3  -2 -10  778.16   46.13
  -3  -2  10  813.17   37.68
   3  -2 -10  842.00   39.27
   3   2  -9  333.42   20.10
   3   2  -9  341.47   17.80
  -3   2   9  331.40   18.17
   3  -2  -9  355.96   18.89
   3  -2  -9  339.92   19.04
  -3  -2   9  350.56   18.31
   3   2  -8  224.53   15.05
   3   2  -8  236.21   13.52
  -3   2   8  220.46   13.59
   3  -2  -8  249.80   14.36
   3  -2  -8  226.23   13.87
  -3  -2   8  232.64   18.35
  -3  -2   8  234.84   11.06
  -3   2   7 1030.76   36.79
   3   2  -7  978.19   44.83
   3   2  -7  926.07   34.12
   3   2  -7  893.55   37.97
  -3   2   7  909.74   40.06
   3  -2  -7  964.69   46.87
  -3  -2   7  945.77   39.01
   3  -2  -7  875.21   38.43
   3  -2  -7  906.88   46.55
  -3  -2   7 1031.64   39.81
   3   2  -6  136.59    7.97
   3   2  -6  134.25    7.57
   3   2  -6  129.29    5.57
  -3   2   6  143.18    6.04
  -3   2   6  124.99    7.85
  -3   2   6  152.13    8.87
   3   2  -6  132.27   13.89
  -3   2   6  138.56    6.61
  -3  -2   6  134.79    7.91
  -3  -2   6  145.97    9.53
   3  -2  -6  155.77    8.08
   3  -2  -6  142.01    8.05
  -3  -2   6  130.08    5.92
   3  -2  -6  116.00    7.97
  -3  -2   6  136.11    6.27
   3   2  -5  221.82    9.99
   3   2  -5  222.71   11.75
   3   2  -5  224.59    9.80
   3   2  -5  216.13    7.86
  -3   2   5  225.20    8.20
  -3   2   5  210.79    8.33
  -3   2   5  213.06    9.89
  -3   2   5  213.49   10.40
  -3  -2   5  222.71   13.67
  -3  -2   5  209.17    9.56
  -3  -2   5  205.42    8.21
  -3  -2   5  222.87    9.07
   3  -2  -5  234.15   10.40
   3  -2  -5  199.84    9.91
   3  -2  -5  227.27   10.28
  -3   2   4 1646.61   63.26
   3   2  -4 1715.34   67.66
   3   2  -4 1661.12   57.96
   3   2  -4 1668.12   64.20
   3   2  -4 1661.07   62.47
  -3   2   4 1830.41   66.26
  -3   2   4 1633.82   63.90
  -3  -2   4 1550.95   58.51
   3  -2  -4 1664.38   67.33
  -3  -2   4 1683.61   65.42
  -3  -2   4 1733.35   66.59
  -3  -2   4 1722.08   72.90
  -3  -2   4 1759.11   62.92
   3  -2  -4 1756.44   67.90
   3  -2  -4 1629.23   65.44
   3   2  -3  602.61   25.08
   3   2  -3  607.12   18.96
   3   2  -3  638.59   20.77
   3   2  -3  587.02   19.65
  -3   2   3  603.37   21.15
  -3   2   3  594.16   19.91
  -3   2   3  608.56   19.43
   3  -2  -3  566.66   18.06
   3  -2  -3  605.84   21.46
  -3  -2   3  578.73   17.72
   3  -2  -3  598.05   20.20
  -3  -2   3  627.88   23.45
  -3  -2   3  594.98   22.76
  -3  -2   3  575.53   17.87
   3  -2  -3  602.68   27.71
  -3  -2   3  573.98   20.04
   3   2  -2 2016.22   76.59
   3   2  -2 1877.49   73.15
   3   2  -2 1821.18   70.54
  -3   2   2 1971.22   72.05
   3   2  -2 2009.82   73.60
  -3   2   2 1918.20   66.62
  -3   2   2 2065.84   68.22
  -3   2   2 2054.26   78.90
   3  -2  -2 1918.59   70.94
   3  -2  -2 1935.95   80.13
   3  -2  -2 1966.50   79.11
  -3  -2   2 1850.59   63.17
   3  -2  -2 2092.21   70.22
  -3  -2   2 1857.42   70.30
  -3  -2   2 2111.95   73.56
   3  -2  -2 1946.80   68.91
  -3  -2   2 1926.59   74.91
  -3  -2   2 1923.66   75.29
   3   2  -1 3273.27  134.21
   3   2  -1 3115.43  141.30
   3   2  -1 3251.43  139.79
   3   2  -1 3137.87  139.58
  -3   2   1 3467.68  153.44
  -3   2   1 3233.77  132.76
  -3   2   1 3333.61  141.67
  -3   2   1 3487.67  133.49
   3  -2  -1 3381.60  131.57
   3  -2  -1 3310.81  147.07
  -3  -2   1 3384.49  142.59
  -3  -2   1 3244.59  139.00
  -3  -2   1 3096.73  120.65
  -3  -2   1 3086.99  135.94
   3  -2  -1 3217.08  133.98
   3  -2  -1 3385.89  137.46
   3  -2  -1 3266.54  142.66
   3   2   0 2021.42   85.36
   3   2   0 2139.15   87.21
   3   2   0 2210.58   87.22
   3   2   0 1987.94   81.51
   3   2   0 2339.52   85.75
  -3   2   0 2106.06   73.92
  -3   2   0 2386.51   91.76
  -3   2   0 2318.65   90.72
   3  -2   0 2229.82   90.02
   3  -2   0 2236.71   75.56
   3  -2   0 2299.22   77.69
  -3  -2   0 2200.27   87.14
  -3  -2   0 2196.81   77.61
  -3  -2   0 2167.46   88.60
   3  -2   0 2048.49   81.73
   3  -2   0 2186.93   88.51
   3  -2   0 2248.87   79.97
   3   2   1  298.59   13.59
   3   2   1  386.07   10.74
   3   2   1  342.65   12.70
  -3   2  -1  382.73   11.72
   3   2   1  331.06   13.07
   3   2   1  314.17   17.42
  -3   2  -1  356.48   13.34
  -3   2  -1  331.86    7.86
   3  -2   1  360.53    8.68
   3  -2   1  337.07   13.03
   3  -2   1  328.92   12.97
   3  -2   1  319.67   11.24
   3  -2   1  353.71   10.37
  -3  -2  -1  343.48   12.60
  -3  -2  -1  345.89   13.49
   3  -2   1  306.36    8.63
  -3  -2  -1  344.28    9.92
   3   2   2  439.14   18.08
   3   2   2  451.12   13.82
   3   2   2  454.80   17.55
   3   2   2  477.67   17.83
   3   2   2  486.94   18.78
   3   2   2  489.78   14.39
  -3   2  -2  515.66   19.19
  -3   2  -2  519.03   15.44
   3  -2   2  460.52   12.87
   3  -2   2  456.18   14.96
   3  -2   2  453.96   13.74
   3  -2   2  455.93   17.79
  -3  -2  -2  496.31   17.66
  -3  -2  -2  439.95   17.54
   3  -2   2  459.34   18.57
  -3  -2  -2  490.37   21.76
   3   2   3  401.70   15.81
   3   2   3  406.99   16.09
   3   2   3  343.87   18.39
   3   2   3  380.47   15.76
   3   2   3  377.21   14.76
  -3   2  -3  428.55   17.71
  -3   2  -3  420.46   20.61
   3  -2   3  340.53   14.76
  -3  -2  -3  399.11   15.05
  -3  -2  -3  380.37   12.63
   3  -2   3  361.20   15.87
  -3  -2  -3  346.86   14.99
   3   2   4   21.59    3.69
   3   2   4   28.64    3.42
   3   2   4   22.38    2.41
   3   2   4   24.74    3.31
   3  -2   4   23.13    3.75
   3  -2   4   14.74    6.64
  -3  -2  -4   22.15    2.56
  -3  -2  -4   22.62    3.48
   3   2   5  258.07   14.08
   3   2   5  303.32   12.97
   3   2   5  268.72   18.55
   3  -2   5  285.63   15.34
   3  -2   5  260.39   13.82
  -3  -2  -5  279.38   12.96
   3   2   6   67.75    5.21
   3   2   6   65.59    6.46
   3  -2   6   68.87   11.58
   3  -2   6   67.25    7.00
  -3  -2  -6   70.95    5.86
   3   2   7  401.99   19.53
   3  -2   7  418.90   20.64
   3  -2   7  456.94   21.94
  -3  -2  -7  396.07   18.38
   3   2   8   42.78    8.02
  -3   2  -8   48.64    5.45
   3  -2   8   48.17    5.74
   3   2   9   91.27    6.06
  -3   2  -9   86.18    5.91
   3  -2   9   86.02    6.48
   3   3 -12   46.58    4.25
  -3   3  12   40.50    3.99
  -3   3  12   41.01    3.43
   3  -3 -12   40.63    4.20
  -3  -3  12   39.96    3.60
   3   3 -11   50.94    4.76
   3   3 -11   62.19    6.55
  -3   3  11   59.14    5.38
   3  -3 -11   56.70    6.27
  -3  -3  11   61.22    5.46
   3  -3 -11   56.78    5.97
   3   3 -10   60.40    9.13
   3   3 -10   56.57    7.83
  -3   3  10   61.86    6.26
   3  -3 -10   53.25    7.38
  -3  -3  10   62.33    6.22
   3  -3 -10   62.61    6.92
  -3   3   9  177.51   11.37
   3   3  -9  186.61   15.64
   3   3  -9  184.87   14.14
   3  -3  -9  205.06   17.32
   3  -3  -9  172.93   12.61
  -3  -3   9  192.85   11.41
  -3  -3   9  192.34   14.86
   3   3  -8  500.04   26.76
   3   3  -8  482.41   27.98
  -3   3   8  455.88   22.15
   3  -3  -8  457.12   23.37
   3  -3  -8  473.56   22.31
   3  -3  -8  457.18   20.10
  -3  -3   8  470.74   21.41
  -3  -3   8  498.78   22.69
   3   3  -7  625.19   26.11
   3   3  -7  634.51   31.00
  -3   3   7  616.76   27.23
   3  -3  -7  576.13   26.80
   3  -3  -7  651.71   27.64
  -3  -3   7  603.78   25.19
   3  -3  -7  616.57   31.32
  -3  -3   7  591.65   24.42
   3   3  -6 1407.46   56.59
   3   3  -6 1256.58   57.98
   3   3  -6 1316.28   51.24
  -3   3   6 1329.24   54.28
  -3   3   6 1463.24   56.60
   3  -3  -6 1430.03   60.89
  -3  -3   6 1399.61   56.67
  -3  -3   6 1386.00   54.66
  -3  -3   6 1366.00   59.12
   3  -3  -6 1405.44   56.73
  -3  -3   6 1295.58   49.09
   3  -3  -6 1211.68   53.33
   3   3  -5  587.65   21.90
   3   3  -5  607.13   22.68
   3   3  -5  566.39   20.70
  -3   3   5  564.06   21.97
  -3   3   5  559.96   21.16
  -3   3   5  607.12   23.77
  -3   3   5  573.55   18.93
  -3  -3   5  590.40   23.20
  -3  -3   5  546.93   18.51
  -3  -3   5  545.69   19.34
  -3  -3   5  587.48   26.91
   3  -3  -5  617.17   26.24
   3  -3  -5  606.67   22.01
   3  -3  -5  560.54   23.17
  -3  -3   5  583.05   18.40
   3   3  -4  449.56   13.26
   3   3  -4  459.87   16.66
   3   3  -4  465.54   17.06
  -3   3   4  458.41   17.01
  -3   3   4  419.49   16.18
   3   3  -4  435.37   16.01
  -3   3   4  472.02   14.20
  -3   3   4  441.95   16.81
  -3  -3   4  442.49   14.54
  -3  -3   4  474.81   18.53
  -3  -3   4  467.89   20.73
   3  -3  -4  458.53   17.94
   3  -3  -4  466.68   20.42
  -3  -3   4  437.04   12.45
   3  -3  -4  449.10   15.13
   3   3  -3 2605.19  105.57
   3   3  -3 2609.30  107.64
  -3   3   3 2610.51  107.70
  -3   3   3 2539.27  107.19
  -3   3   3 2637.37   99.01
   3   3  -3 2611.00  114.40
   3   3  -3 2356.30   98.11
   3  -3  -3 2567.18  108.71
   3  -3  -3 2358.09   95.47
  -3  -3   3 2659.48  114.61
   3  -3  -3 2646.07  118.25
   3  -3  -3 2594.80  109.84
  -3  -3   3 2586.88  114.24
  -3  -3   3 2367.07   96.24
  -3  -3   3 2490.20   92.51
  -3  -3   3 2271.01   86.13
  -3   3   2 2619.90   96.05
  -3   3   2 2678.94  113.08
  -3   3   2 2623.12   92.87
  -3   3   2 2516.09  105.23
   3   3  -2 2523.65  102.37
   3   3  -2 2401.87  101.56
   3   3  -2 2411.59  106.09
   3   3  -2 2424.36  101.64
   3  -3  -2 2560.25   96.34
   3  -3  -2 2455.91  109.18
   3  -3  -2 2494.10  102.57
   3  -3  -2 2542.50  107.16
  -3  -3   2 2292.48   94.17
  -3  -3   2 2533.57  109.32
  -3  -3   2 2573.64  110.79
  -3   3   1  494.84   15.77
   3   3  -1  481.86   15.38
   3   3  -1  460.93   18.01
  -3   3   1  525.77   18.12
   3   3  -1  453.03   20.52
  -3   3   1  491.07   17.07
  -3   3   1  449.73   17.48
   3   3  -1  470.55   17.02
   3  -3  -1  504.75   15.90
   3  -3  -1  490.10   20.68
  -3  -3   1  496.57   17.47
   3  -3  -1  485.47   19.07
   3  -3  -1  481.18   14.88
  -3  -3   1  476.69   18.40
   3   3   0  196.82    6.95
   3   3   0  174.80    9.22
   3   3   0  177.76    9.87
   3   3   0  176.41    7.86
  -3   3   0  190.91    7.10
  -3   3   0  194.14    7.00
  -3   3   0  195.64    6.60
  -3   3   0  185.03    7.19
  -3  -3   0  185.98    8.25
  -3  -3   0  179.57    6.96
  -3  -3   0  168.33    8.21
   3  -3   0  186.50    6.13
   3  -3   0  178.90    8.00
   3  -3   0  186.88    8.07
   3  -3   0  166.44    7.10
   3   3   1  596.08   18.89
   3   3   1  565.72   22.88
   3   3   1  502.98   22.07
   3   3   1  550.03   20.78
  -3   3  -1  551.94   16.06
  -3   3  -1  589.15   20.44
  -3   3  -1  580.29   17.83
  -3   3  -1  499.86   20.74
   3  -3   1  575.62   18.02
  -3  -3  -1  543.64   25.31
  -3  -3  -1  566.30   20.41
   3  -3   1  527.00   19.76
  -3  -3  -1  548.74   18.07
   3  -3   1  529.60   19.00
   3  -3   1  514.97   19.92
   3   3   2  410.78   17.80
   3   3   2  361.59   14.93
   3   3   2  409.49   13.31
   3   3   2  420.28   16.48
  -3   3  -2  428.75   16.38
  -3   3  -2  391.97   11.65
  -3   3  -2  391.43   18.38
   3  -3   2  394.95   16.82
  -3  -3  -2  388.62   15.89
  -3  -3  -2  375.88   12.84
   3  -3   2  385.32   15.52
  -3  -3  -2  370.23   14.27
   3  -3   2  400.60   13.48
   3   3   3   36.56    4.57
   3   3   3   36.13    4.33
   3   3   3   27.81    4.29
   3   3   3   32.66    3.89
   3  -3   3   31.23    5.93
   3  -3   3   27.56    4.34
  -3  -3  -3   34.13    3.44
  -3  -3  -3   31.96    2.64
  -3  -3  -3   27.97    3.74
   3   3   4  220.55   11.15
   3   3   4  187.32   10.72
   3  -3   4  184.41   10.42
   3  -3   4  204.12   12.09
  -3  -3  -4  207.57   10.37
   3   3   5  478.50   20.37
   3   3   5  399.47   19.22
   3  -3   5  448.21   28.21
   3  -3   5  365.70   18.78
  -3  -3  -5  456.88   20.15
   3   3   6   67.86    6.82
   3  -3   6   63.38    6.85
   3  -3   6   71.13    7.77
  -3  -3  -6   68.56    6.10
   3   3   7   55.29    6.14
   3  -3   7   59.99    7.08
   3  -3   7   55.07    6.42
   3   3   8    8.76    2.97
  -3   3  -8   -0.68    2.96
   3  -3   8   12.12    2.97
   3   3   9   66.75    7.73
  -3   3  -9   63.00    7.38
   3  -3   9   65.23    5.34
   3   4 -11   16.85    3.60
  -3   4  11   18.72    2.67
  -3  -4  11    5.82    2.14
   3  -4 -11   14.46    3.41
   3   4 -10  142.90   11.06
  -3   4  10  129.53    8.04
   3  -4 -10  129.92    8.68
  -3  -4  10  153.94   13.04
   3  -4 -10  136.37    9.98
   3   4  -9  716.98   36.27
  -3   4   9  674.31   29.93
   3  -4  -9  674.29   32.85
   3  -4  -9  701.28   37.28
  -3  -4   9  751.12   33.26
   3   4  -8  304.70   19.46
  -3   4   8  292.81   14.80
   3  -4  -8  291.09   15.02
   3  -4  -8  292.61   15.23
  -3  -4   8  306.64   17.02
   3  -4  -8  272.03   15.99
   3   4  -7  355.55   15.85
   3   4  -7  366.84   21.00
  -3   4   7  353.41   16.39
   3  -4  -7  317.19   17.41
   3  -4  -7  382.47   19.84
  -3  -4   7  339.06   17.15
   3  -4  -7  343.94   15.80
   3   4  -6  364.74   14.82
  -3   4   6  333.52   14.25
   3  -4  -6  338.30   14.20
   3  -4  -6  339.31   16.81
  -3  -4   6  358.65   16.97
  -3  -4   6  366.82   21.22
   3  -4  -6  374.61   19.20
   3   4  -5  572.74   21.15
  -3   4   5  558.06   20.96
   3  -4  -5  593.18   28.02
  -3  -4   5  570.68   30.07
  -3  -4   5  611.32   29.31
  -3  -4   5  523.07   20.39
   3  -4  -5  539.33   23.19
   3   4  -4 1677.99   67.59
   3   4  -4 1763.78   70.37
   3   4  -4 1850.03   73.74
  -3   4   4 1690.73   67.63
  -3   4   4 1760.37   72.16
  -3   4   4 1647.16   68.41
   3  -4  -4 1591.91   73.37
  -3  -4   4 1677.75   75.87
   3  -4  -4 1701.54   77.49
  -3  -4   4 1666.19   78.55
  -3  -4   4 1598.15   60.96
   3   4  -3   19.80    2.82
   3   4  -3   16.51    2.23
  -3   4   3   20.12    2.82
   3   4  -3   18.82    2.52
   3   4  -3   17.50    2.79
  -3   4   3   15.89    3.11
   3  -4  -3   28.24    2.70
   3  -4  -3   19.56    4.36
  -3  -4   3   17.15    3.84
  -3  -4   3   18.40    3.57
   3  -4  -3   19.41    2.87
  -3  -4   3   16.47    1.97
  -3   4   2 2492.16  103.77
  -3   4   2 2428.08  103.56
   3   4  -2 2371.65  102.18
   3   4  -2 2481.54  104.06
   3   4  -2 2376.70  101.15
   3   4  -2 2386.16  105.26
  -3   4   2 2255.37   90.90
   3  -4  -2 2565.56  113.45
   3  -4  -2 2558.03  125.96
   3  -4  -2 2438.89  104.99
  -3  -4   2 2444.38  109.17
  -3  -4   2 2387.84  107.83
   3   4  -1  378.92   18.19
   3   4  -1  426.99   15.01
   3   4  -1  382.71   16.30
   3   4  -1  389.49   14.54
  -3   4   1  422.48   15.07
  -3   4   1  401.81   13.03
  -3   4   1  434.56   14.19
  -3   4   1  384.30   12.93
  -3  -4   1  415.96   16.49
  -3  -4   1  396.65   16.87
   3  -4  -1  450.66   15.47
   3  -4  -1  408.29   14.85
   3  -4  -1  399.85   17.47
   3  -4  -1  382.70   12.74
   3   4   0   94.07    5.26
   3   4   0  108.77    5.19
   3   4   0   86.19    6.91
  -3   4   0  103.21    6.72
  -3   4   0   92.06    3.88
  -3   4   0   93.68    6.46
  -3   4   0   96.09    5.57
   3  -4   0   94.66    4.86
  -3  -4   0   87.31    5.95
  -3  -4   0  101.61    8.17
   3  -4   0   86.72    4.91
   3  -4   0   91.30    6.10
   3  -4   0  116.11    5.38
   3   4   1 1775.26   75.59
   3   4   1 1460.99   65.88
   3   4   1 1852.54   71.71
  -3   4  -1 1801.95   66.52
   3   4   1 1538.64   67.90
   3  -4   1 1693.04   70.42
   3  -4   1 1549.42   65.20
   3  -4   1 1560.22   64.22
  -3  -4  -1 1776.24   70.02
  -3  -4  -1 1651.25   66.80
  -3  -4  -1 1539.31   64.81
   3  -4   1 1640.98   72.14
   3   4   2   54.81    4.78
   3   4   2   52.58    6.30
   3   4   2   65.06    4.18
   3  -4   2   54.52    5.26
   3  -4   2   56.62    4.61
  -3  -4  -2   53.21    3.77
  -3  -4  -2   51.99    4.49
   3   4   3  957.70   48.35
   3   4   3  907.89   37.46
   3  -4   3  885.83   36.15
   3  -4   3  982.88   47.74
  -3  -4  -3  867.34   33.48
  -3  -4  -3  818.20   33.89
   3   4   4  114.64    8.90
   3   4   4  110.09   11.87
   3  -4   4  123.17    9.33
   3  -4   4  107.60    7.59
  -3  -4  -4  100.87    6.76
   3   4   5  174.99   14.62
   3   4   5  166.96   14.76
   3  -4   5  169.63   11.64
   3  -4   5  146.92    9.46
  -3  -4  -5  143.16    8.64
   3   4   6   44.71    5.27
   3   4   6   41.35    5.85
   3  -4   6   48.58    6.48
   3  -4   6   41.03    5.52
   3   4   7   18.80    4.03
   3  -4   7   15.83    3.81
   3  -4   7   20.85    4.55
   3   4   8   26.78    4.06
   3  -4   8   29.26    4.51
   3  -4   8   29.77    4.00
   3   5 -11   84.69    5.93
   3  -5 -11   78.56    5.99
   3   5 -10   19.76    4.52
   3  -5 -10   16.76    6.29
  -3  -5  10   15.25    5.84
  -3   5   9   47.89    6.06
   3   5  -9   65.61    7.95
  -3   5   9   53.90    4.62
   3  -5  -9   60.99    6.74
  -3  -5   9   64.78    6.60
   3   5  -8   77.81    9.65
   3  -5  -8   76.34    8.12
   3  -5  -8   69.85    7.84
  -3  -5   8   88.09    8.87
   3   5  -7 1139.05   55.52
   3  -5  -7 1114.00   51.59
   3  -5  -7 1005.48   47.59
  -3  -5   7 1122.29   58.57
   3  -5  -6  796.04   38.65
   3  -5  -6  681.02   32.18
  -3  -5   6  748.09   34.14
  -3  -5   6  784.64   41.25
   3  -5  -5  344.82   17.52
   3  -5  -5  390.81   21.98
  -3  -5   5  379.14   19.38
  -3  -5   5  399.93   30.57
   3  -5  -4  186.68   10.54
   3  -5  -4  195.23   13.81
  -3  -5   4  183.28   11.70
  -3  -5   4  190.31   13.54
   3   5  -3   12.06    3.55
   3   5  -3    8.44    2.23
   3  -5  -3   12.03    4.66
   3  -5  -3   30.61    3.24
  -3  -5   3   13.16    3.71
  -3  -5   3   21.92    4.09
   3   5  -2  791.57   29.03
   3   5  -2  775.18   30.16
   3  -5  -2  813.90   33.97
   3  -5  -2  792.11   36.27
   3  -5  -2  766.78   30.86
  -3  -5   2  826.96   34.63
  -3  -5   2  788.83   34.26
   3   5  -1  208.67   11.22
   3   5  -1  234.27    9.44
  -3   5   1  262.94   10.38
   3  -5  -1  233.44   10.50
   3  -5  -1  234.46   17.92
   3  -5  -1  234.86    9.58
  -3  -5   1  250.16   16.72
  -3  -5   1  233.60   11.90
   3   5   0  272.47   11.24
   3   5   0  279.87   14.08
   3  -5   0  295.27   13.74
   3  -5   0  277.09   11.70
   3  -5   0  254.21   10.52
   3  -5   0  238.79   10.27
  -3  -5   0  282.76   13.13
  -3  -5   0  306.36   13.40
   3   5   1  435.56   17.18
   3   5   1  413.74   20.95
   3  -5   1  405.82   17.11
   3  -5   1  418.07   17.42
   3  -5   1  416.92   16.59
  -3  -5  -1  424.54   18.28
  -3  -5  -1  449.82   18.78
   3   5   2  537.49   26.58
   3   5   2  506.31   21.36
   3  -5   2  529.04   21.55
   3  -5   2  537.18   23.47
  -3  -5  -2  504.30   21.77
  -3  -5  -2  530.63   22.06
   3   5   3  182.87   12.34
   3   5   3  177.16   14.07
   3  -5   3  188.96   15.93
   3  -5   3  180.69    9.69
  -3  -5  -3  152.91   12.67
  -3  -5  -3  163.74    9.06
   3   5   4  294.74   16.59
   3   5   4  265.97   14.04
   3  -5   4  289.54   15.74
   3  -5   4  273.47   13.82
   3   5   5  130.74   13.78
   3   5   5  113.94    8.50
   3  -5   5  125.04    9.83
   3  -5   5   98.99    7.82
   3   5   6  580.09   25.29
   3   5   6  516.59   23.54
   3  -5   6  570.87   26.27
   3  -5   6  488.19   22.78
   3   5   7   31.22    4.10
   3   5   7   24.50    3.42
   3  -5   7   36.43    4.86
   3  -5   7   28.68    3.75
   3   5   8    0.07    1.14
  -3   5  -8    0.42    1.23
   3  -5   8   -0.43    0.86
   3   6 -10  144.29    8.55
   3  -6 -10  120.15    7.69
  -3  -6  10  140.07    7.39
  -3   6   9   94.10    7.78
   3   6  -9  120.49    9.37
   3  -6  -9  109.88    8.38
  -3  -6   9  120.87    8.29
   3   6  -8   66.74    8.43
   3  -6  -8   60.05    7.29
   3  -6  -8   61.94    6.92
  -3  -6   8   69.03    7.38
   3   6  -7   57.24    8.46
   3  -6  -7   73.35   12.78
   3  -6  -7   53.85    6.96
  -3  -6   7   70.45    8.28
   3  -6  -6  160.25   12.68
   3  -6  -6  148.28   10.98
  -3  -6   6  166.14   11.73
  -3  -6   6  166.49   14.79
   3  -6  -5  190.98   11.99
   3  -6  -5  201.91   23.09
  -3  -6   5  191.95   13.13
  -3  -6   5  225.43   24.71
   3  -6  -4 1189.81   54.64
   3  -6  -4 1263.22   62.48
  -3  -6   4 1300.91   59.69
  -3  -6   4 1310.31   64.42
   3  -6  -3  199.10   11.42
   3  -6  -3  216.91   14.92
  -3  -6   3  213.73   13.14
  -3  -6   3  218.14   14.23
   3   6  -2  110.77    6.99
   3  -6  -2  109.99    7.83
   3  -6  -2  102.83    9.98
  -3  -6   2  114.26   13.08
  -3  -6   2  119.03   14.43
   3   6  -1  144.53    9.39
   3  -6  -1  142.77   10.59
   3  -6  -1  149.71    9.24
  -3  -6   1  160.49   10.26
  -3  -6   1  158.91   11.22
   3   6   0    8.62    5.82
   3  -6   0   10.57    3.35
   3  -6   0   10.61    3.02
  -3  -6   0    8.91    5.35
  -3  -6   0    7.76    3.65
   3   6   1  958.22   54.49
   3   6   1 1003.73   40.86
  -3  -6  -1  999.69   44.63
  -3  -6  -1  945.40   41.32
   3   6   2   99.37    9.43
   3   6   2  109.47    7.12
   3  -6   2  106.17   11.34
  -3  -6  -2   91.33    7.05
  -3  -6  -2  115.42    8.19
   3   6   3  225.71   15.19
   3   6   3  230.24   14.73
   3  -6   3  223.85   12.62
  -3  -6  -3  205.96   12.09
   3   6   4  383.79   17.61
   3   6   4  437.40   22.04
   3  -6   4  410.23   19.84
   3   6   5  311.59   15.86
   3   6   5  269.06   13.23
   3  -6   5  304.42   15.30
   3   6   6   -0.41    6.02
   3   6   6   23.23    3.34
   3  -6   6   29.15    4.19
   3   6   7   57.98    4.39
   3  -6   7   68.97    5.42
   3   7  -9   93.94    6.82
  -3   7   9   83.96    4.95
   3  -7  -9   80.31    8.98
  -3  -7   9   96.04    6.40
  -3   7   8   16.40    4.63
   3   7  -8   26.96    5.34
   3  -7  -8   27.05    4.17
  -3  -7   8   33.52    4.73
   3   7  -7  122.87   10.65
   3  -7  -7  134.55   10.43
   3  -7  -7   99.34    8.42
  -3  -7   7  129.07   10.51
   3   7  -6  609.63   32.18
   3  -7  -6  566.10   27.77
   3  -7  -6  674.32   33.03
  -3  -7   6  694.70   33.32
   3  -7  -5  149.97   10.80
   3  -7  -5  161.98   12.83
  -3  -7   5  169.01   12.03
  -3  -7   5  192.90   15.03
   3  -7  -4  112.86    9.19
   3  -7  -4  114.49   10.73
  -3  -7   4  125.69   10.15
  -3  -7   4  128.91   12.26
   3  -7  -3  145.63   11.54
   3  -7  -3  156.08   10.43
  -3  -7   3  178.06   20.06
  -3  -7   3  166.21   11.27
   3  -7  -2  344.60   18.79
   3  -7  -2  408.80   20.41
  -3  -7   2  407.97   22.36
  -3  -7   2  412.28   19.99
   3   7  -1  267.07   13.63
   3  -7  -1  230.89   13.41
   3  -7  -1  254.85   14.50
  -3  -7   1  257.29   21.86
  -3  -7   1  244.56   13.55
   3   7   0   10.76    3.80
   3  -7   0    3.07    5.59
  -3  -7   0   15.18    3.57
  -3  -7   0   14.03    4.28
   3   7   1   71.48    7.83
  -3  -7  -1   73.80    9.57
  -3  -7  -1   86.74    8.18
   3   7   2   62.39    7.63
  -3  -7  -2   65.65   10.64
   3   7   3   41.81    6.35
   3  -7   3   42.10    4.84
  -3  -7  -3   42.87    7.99
   3   7   4  147.50    9.81
   3   7   4  116.64    6.79
   3  -7   4  144.64    8.26
  -3  -7  -4  102.73    7.84
   3   7   5   71.17    6.25
   3   7   5   57.61    4.09
   3  -7   5   68.77    5.31
   3   7   6  106.81    6.26
   3  -7   6  109.37    6.10
   3   8  -7  102.90    8.05
  -3   8   7  100.12    7.57
  -3  -8   7  102.28    7.38
   3  -8  -7   80.38    6.56
   3   8  -6    7.36    3.47
  -3   8   6    4.38    3.23
  -3  -8   6    1.15    5.29
   3  -8  -6    5.57    2.60
   3  -8  -5  106.10   12.55
   3  -8  -5  125.81   10.21
  -3  -8   5  134.27   10.00
  -3  -8   5  107.66   11.39
   3  -8  -4   22.44    4.64
   3  -8  -4   23.91    5.53
  -3  -8   4   29.29    4.72
  -3  -8   4   31.88    6.57
   3  -8  -3  152.56   10.26
   3  -8  -3  152.08   10.95
  -3  -8   3  163.30   10.13
  -3  -8   3  172.46   13.26
   3  -8  -2  227.55   13.51
   3  -8  -2  233.35   13.10
  -3  -8   2  215.12   16.61
  -3  -8   2  243.31   15.90
   3   8  -1   59.76    5.38
   3  -8  -1   50.87    9.51
  -3  -8   1   65.13    7.46
  -3  -8   1   62.08    5.82
   3   8   0  328.78   14.93
   3  -8   0  255.15   14.53
  -3  -8   0  263.38   13.16
  -3  -8   0  325.16   17.11
   3   8   1  114.79    8.06
  -3  -8  -1  109.12   13.11
   3   8   2   46.53    5.51
  -3  -8  -2   39.66    8.27
   3   8   3  108.61    7.87
  -3  -8  -3   90.15   10.04
   3   8   4   23.47    3.94
   3   9  -5    5.66    2.79
   3   9  -4    1.76    2.36
  -3   9   4    1.82    1.79
  -3  -9   4    3.06    2.70
   3  -9  -4    0.66    1.72
   3  -9  -3   38.92    6.70
  -3  -9   3   43.27    6.42
  -3  -9   3   45.82    4.49
   3  -9  -2   20.97    3.41
  -3  -9   2   26.25    3.14
  -3  -9   2   18.37    7.65
   3  -9  -1  157.09    8.65
  -3  -9   1  146.54    6.54
  -3  -9   1  217.54   11.49
  -3  -9   0  130.79    8.85
  -3  -9  -1   40.83    4.56
   4   0 -13  185.44    8.98
   4   0 -13  185.42    9.31
  -4   0  13  179.29    9.14
   4   0 -12   33.68    8.52
   4   0 -12   34.25    5.45
  -4   0  12   33.95    5.38
   4   0 -11  683.76   32.94
   4   0 -11  682.01   33.72
  -4   0  11  696.73   33.43
   4   0 -10   93.69    9.74
   4   0 -10   85.75    9.08
  -4   0  10   94.78    9.67
   4   0  -9  104.48    9.92
   4   0  -9  116.26   10.10
  -4   0   9  101.34   10.59
   4   0  -8 1181.99   53.85
   4   0  -8 1110.98   50.87
  -4   0   8 1142.97   53.39
   4   0  -7  112.13    8.28
   4   0  -7  116.24    8.43
   4   0  -7  128.54    7.92
  -4   0   7  127.03    6.88
  -4   0   7  124.97   14.36
   4   0  -6   58.33    3.38
   4   0  -6   52.48    5.37
   4   0  -6   57.15    5.32
   4   0  -6   55.50    4.59
  -4   0   6   50.31    2.60
  -4   0   6   51.69    5.57
  -4   0   6   52.67    4.17
  -4   0   6   53.95    4.15
   4   0  -5  927.60   28.22
   4   0  -5 1014.23   44.32
   4   0  -5 1103.01   38.27
   4   0  -5  915.45   33.93
   4   0  -5 1037.63   39.79
  -4   0   5 1027.46   36.25
  -4   0   5 1023.93   31.17
  -4   0   5 1070.39   47.45
  -4   0   5  896.25   30.78
  -4   0   5 1026.39   36.24
   4   0  -4 3442.15  162.45
   4   0  -4 3771.31  170.90
   4   0  -4 4046.78  190.02
   4   0  -4 4027.26  188.52
   4   0  -4 3903.90  179.41
  -4   0   4 3754.74  170.88
  -4   0   4 3868.47  174.22
  -4   0   4 3810.36  166.01
  -4   0   4 4029.65  182.11
   4   0  -3 6411.03  336.29
   4   0  -3 5730.61  299.95
   4   0  -3 6019.01  317.75
   4   0  -3 5930.98  301.32
   4   0  -3 6357.62  333.21
  -4   0   3 6202.58  317.08
  -4   0   3 6458.53  334.54
  -4   0   3 6922.01  355.05
  -4   0   3 5990.41  301.72
   4   0  -2 1224.73   35.95
   4   0  -2 1224.78   46.91
   4   0  -2 1286.43   40.20
   4   0  -2 1171.13   43.92
   4   0  -2 1199.54   43.05
  -4   0   2 1211.31   44.11
  -4   0   2 1187.98   40.39
  -4   0   2 1134.29   38.69
  -4   0   2 1215.85   41.93
   4   0  -1  608.84   22.41
   4   0  -1  629.51   21.23
   4   0  -1  595.78   19.71
  -4   0   1  577.25   20.48
  -4   0   1  592.78   20.12
  -4   0   1  600.59   19.52
  -4   0   1  625.42   19.74
   4   0   0 1894.99   77.66
   4   0   0 2163.89   81.70
   4   0   0 2025.22   80.04
   4   0   0 1887.40   73.55
  -4   0   0 1964.03   75.59
  -4   0   0 1803.73   73.23
  -4   0   0 1931.75   76.66
   4   0   1 1003.66   35.41
   4   0   1  990.47   33.63
   4   0   1  861.93   33.24
   4   0   1  874.03   32.58
  -4   0  -1  989.69   36.37
  -4   0  -1 1019.16   36.18
  -4   0  -1 1050.46   37.11
  -4   0  -1  934.30   36.02
   4   0   2  880.87   37.49
   4   0   2 1011.03   36.29
   4   0   2  945.45   33.59
   4   0   2  873.03   33.32
   4   0   2  918.81   33.96
  -4   0  -2  838.18   34.32
  -4   0  -2 1060.04   40.24
  -4   0  -2 1028.83   37.80
   4   0   3   63.39    4.75
   4   0   3   67.24    4.48
   4   0   3   72.62    4.04
   4   0   3   63.14    4.31
   4   0   3   76.87    4.99
  -4   0  -3   61.76    5.58
  -4   0  -3   81.43    6.18
   4   0   4  355.52   15.58
   4   0   4  351.53   14.50
  -4   0  -4  404.59   17.97
   4   0   5 2717.39  129.68
   4   0   5 2546.79  121.60
  -4   0  -5 3000.99  142.73
   4   0   6  675.52   35.92
   4   0   6  677.94   29.36
  -4   0  -6  751.65   33.20
   4   0   7   98.22    7.29
   4   0   7   88.62    6.51
  -4   0  -7  108.18    8.07
   4   0   8   65.85    5.23
  -4   0  -8   60.00    5.23
   4   0   9    3.26    1.34
   4   1 -13  180.69    8.07
   4   1 -13  179.89   12.71
  -4   1  13  187.60    8.90
   4  -1 -13  165.94    8.43
  -4  -1  13  182.72    8.91
   4  -1 -13  179.94    8.86
   4   1 -12   40.00    8.47
   4   1 -12   33.02    4.87
  -4   1  12   33.16    5.13
   4  -1 -12   28.87    5.22
  -4  -1  12   34.80    5.14
   4  -1 -12   38.16    5.38
   4   1 -11  310.67   17.35
   4   1 -11  281.24   16.92
  -4   1  11  297.03   17.20
   4  -1 -11  298.12   17.38
  -4  -1  11  307.61   17.27
   4  -1 -11  287.87   17.02
   4   1 -10  285.74   17.80
   4   1 -10  298.01   24.61
  -4   1  10  290.15   17.81
   4  -1 -10  322.87   18.68
  -4  -1  10  304.67   24.51
   4  -1 -10  303.93   25.05
   4   1  -9 1690.43   79.88
   4   1  -9 1671.68   81.55
  -4   1   9 1665.25   80.88
   4  -1  -9 1781.94   92.96
  -4  -1   9 1689.42   79.34
   4  -1  -9 1660.00   79.86
   4   1  -8 1942.74   91.14
   4   1  -8 1923.73   91.23
  -4   1   8 1891.52   90.71
   4  -1  -8 1801.90   85.37
  -4  -1   8 1910.15   88.96
   4  -1  -8 1910.08   88.25
   4   1  -7  124.24    9.35
   4   1  -7  123.54    8.63
  -4   1   7  124.87    5.20
  -4   1   7  115.33    8.67
   4  -1  -7  127.72    8.80
  -4  -1   7  124.96    9.22
  -4  -1   7  129.65    6.95
   4  -1  -7  141.38    6.91
   4  -1  -7  144.77    9.17
   4   1  -6 1301.21   53.30
   4   1  -6 1342.39   56.85
   4   1  -6 1150.11   40.54
   4   1  -6 1269.81   49.95
  -4   1   6 1175.22   42.70
  -4   1   6 1264.68   52.42
  -4   1   6 1338.02   50.88
  -4   1   6 1314.63   53.50
  -4  -1   6 1337.77   47.74
  -4  -1   6 1238.85   50.94
  -4  -1   6 1290.93   48.99
  -4  -1   6 1267.39   47.61
   4  -1  -6 1301.11   53.48
   4  -1  -6 1237.89   52.12
   4  -1  -6 1435.30   58.58
   4  -1  -6 1288.03   51.59
  -4   1   5  488.94   16.42
   4   1  -5  508.57   20.41
   4   1  -5  464.34   16.86
   4   1  -5  493.66   15.48
   4   1  -5  457.22   14.22
   4   1  -5  511.97   20.87
  -4   1   5  425.76   14.70
  -4   1   5  482.71   19.82
  -4   1   5  471.13   17.03
  -4  -1   5  496.52   15.72
  -4  -1   5  463.36   16.58
  -4  -1   5  488.50   18.78
  -4  -1   5  455.86   14.59
  -4  -1   5  474.62   15.99
   4  -1  -5  482.57   18.71
   4  -1  -5  478.87   17.66
   4  -1  -5  472.90   17.91
   4  -1  -5  425.00   17.20
   4   1  -4  178.55    8.41
   4   1  -4  174.33    6.85
   4   1  -4  166.64    6.59
   4   1  -4  188.87   13.08
  -4   1   4  164.66    7.15
   4   1  -4  175.65    6.21
  -4   1   4  164.84    6.24
  -4   1   4  176.21    3.40
  -4   1   4  167.27   10.51
   4  -1  -4  174.71    7.80
   4  -1  -4  172.00    9.24
  -4  -1   4  157.31    6.68
  -4  -1   4  185.14    8.23
   4  -1  -4  173.39    7.34
  -4  -1   4  178.24    6.31
   4  -1  -4  184.21    7.61
   4  -1  -4  181.90    8.45
  -4  -1   4  166.88    6.82
  -4  -1   4  174.75    8.52
   4   1  -3 1769.99   70.07
   4   1  -3 1795.49   64.19
  -4   1   3 1773.84   60.95
   4   1  -3 1790.08   68.98
   4   1  -3 1844.93   69.75
   4   1  -3 1783.58   66.07
   4   1  -3 1678.28   64.57
  -4   1   3 1795.97   67.68
  -4   1   3 1700.38   65.79
  -4   1   3 1781.92   64.33
   4  -1  -3 1830.77   78.93
   4  -1  -3 1770.92   64.49
  -4  -1   3 1643.41   62.18
  -4  -1   3 1796.81   67.32
  -4  -1   3 1789.25   69.28
  -4  -1   3 1945.85   70.33
   4  -1  -3 1796.34   68.07
   4  -1  -3 1652.06   61.06
   4  -1  -3 1778.77   71.21
   4   1  -2  993.82   36.35
   4   1  -2 1007.65   30.96
   4   1  -2  943.72   30.12
   4   1  -2 1068.12   35.06
   4   1  -2  951.04   34.11
  -4   1   2  995.86   33.43
  -4   1   2  990.65   34.96
  -4   1   2  948.12   32.67
  -4   1   2  990.16   31.30
   4  -1  -2  921.21   27.04
  -4  -1   2  904.55   33.19
  -4  -1   2  999.50   31.81
   4  -1  -2 1051.74   30.27
  -4  -1   2  967.48   33.86
   4  -1  -2 1011.10   36.67
   4  -1  -2 1005.73   37.69
  -4  -1   2  923.06   31.52
   4  -1  -2 1012.05   33.23
   4   1  -1  524.42   16.32
   4   1  -1  497.71   11.59
   4   1  -1  474.44   16.75
   4   1  -1  416.01   10.55
   4   1  -1  472.98   18.21
  -4   1   1  461.46   15.05
  -4   1   1  455.42   15.47
  -4   1   1  466.67   16.51
  -4  -1   1  459.19   17.69
   4  -1  -1  477.76   17.38
  -4  -1   1  487.20   14.57
  -4  -1   1  459.89   15.52
  -4  -1   1  459.87   16.62
   4  -1  -1  472.27   17.83
   4  -1  -1  484.08   14.37
   4   1   0  399.01   12.98
   4   1   0  389.87   14.08
   4   1   0  379.00   14.23
   4   1   0  355.37   15.08
  -4   1   0  374.92   13.85
  -4   1   0  371.88   13.58
   4  -1   0  393.68   14.57
   4  -1   0  405.16   13.97
   4  -1   0  362.84   14.42
  -4  -1   0  362.27   13.79
  -4  -1   0  380.11   15.64
  -4  -1   0  417.07   12.84
  -4  -1   0  386.65   15.52
   4  -1   0  393.66   15.14
   4  -1   0  394.61   12.09
   4   1   1  507.54   18.06
   4   1   1  508.01   16.99
   4   1   1  564.11   21.08
   4   1   1  451.55   18.57
   4   1   1  520.52   19.45
  -4   1  -1  539.93   19.76
  -4   1  -1  529.05   17.83
   4  -1   1  514.03   19.43
   4  -1   1  558.34   16.94
   4  -1   1  462.64   17.33
  -4  -1  -1  533.92   19.60
  -4  -1  -1  552.12   18.11
  -4  -1  -1  502.98   19.97
   4  -1   1  506.29   16.13
   4  -1   1  499.52   19.65
   4   1   2   31.24    3.44
   4   1   2   29.21    2.91
   4   1   2   29.85    5.50
   4   1   2   27.37    3.63
  -4   1  -2   38.47    2.76
  -4   1  -2   34.88    4.12
   4   1   2   33.51    3.56
   4  -1   2   29.95    3.87
   4  -1   2   31.98    2.45
   4  -1   2   29.74    3.85
  -4  -1  -2   40.78    4.00
  -4  -1  -2   38.19    3.43
  -4  -1  -2   28.19    3.93
   4  -1   2   28.12    2.95
   4  -1   2   35.17    3.65
   4   1   3  119.41    7.04
   4   1   3  124.90    6.07
   4   1   3  134.60    7.04
   4   1   3  152.01    7.24
   4  -1   3  129.34    5.85
   4  -1   3  140.11    5.94
   4  -1   3  121.84    7.41
   4  -1   3  123.29    8.27
  -4  -1  -3  130.93    8.16
  -4  -1  -3  153.92    7.80
   4   1   4  295.61   12.26
   4   1   4  260.57   11.31
   4   1   4  252.90   12.17
   4  -1   4  298.85   14.90
   4  -1   4  251.86   12.93
   4  -1   4  236.93   10.18
  -4  -1  -4  294.20   14.33
   4   1   5 1287.45   56.45
   4   1   5 1345.93   57.62
   4  -1   5 1274.25   57.77
   4  -1   5 1515.22   67.45
  -4  -1  -5 1499.93   65.97
   4   1   6  859.87   43.56
   4   1   6  859.41   36.86
  -4   1  -6  885.92   39.60
  -4  -1  -6  939.50   41.33
   4  -1   6  849.78   45.37
   4   1   7  111.58    7.61
   4   1   7  111.63    7.42
  -4   1  -7  113.48   12.22
   4  -1   7  113.54    8.33
  -4  -1  -7  109.88    7.82
   4   1   8    3.17    1.83
   4   1   8    4.12    3.00
  -4   1  -8    4.33    2.17
   4  -1   8    6.27    3.52
  -4  -1  -8   -0.24    1.90
   4  -1   9  139.20    6.84
   4   2 -12   56.61    7.65
   4   2 -12   53.32    6.16
  -4   2  12   54.04    5.59
   4  -2 -12   56.14    5.93
  -4  -2  12   58.95    5.34
   4  -2 -12   58.00    8.93
   4   2 -11  283.39   15.17
   4   2 -11  266.23   16.29
  -4   2  11  267.29   15.23
   4  -2 -11  291.73   21.94
  -4  -2  11  266.86   14.57
   4  -2 -11  264.07   15.63
   4   2 -10  597.75   28.61
   4   2 -10  574.35   29.94
  -4   2  10  569.03   28.31
   4  -2 -10  577.66   29.38
  -4  -2  10  586.61   27.81
   4  -2 -10  602.94   29.07
   4   2  -9 1167.61   63.40
   4   2  -9 1128.10   54.89
  -4   2   9 1066.49   51.39
   4  -2  -9 1186.14   54.25
  -4  -2   9 1110.78   58.18
   4  -2  -9 1122.04   53.40
   4   2  -8   85.57    9.23
   4   2  -8   91.50   12.54
  -4   2   8   80.33    9.13
   4  -2  -8   92.69   12.07
  -4  -2   8   87.33    7.43
   4  -2  -8   87.62    8.12
   4   2  -7  348.95   21.98
   4   2  -7  334.00   12.41
   4   2  -7  345.42   18.86
  -4   2   7  334.27   16.83
  -4   2   7  366.82   13.39
   4  -2  -7  355.20   16.22
  -4  -2   7  354.47   13.46
  -4  -2   7  352.25   15.89
   4  -2  -7  331.03   21.35
   4  -2  -7  386.11   16.47
   4   2  -6  270.64   17.26
   4   2  -6  256.87   11.92
   4   2  -6  276.33   12.00
   4   2  -6  270.57   14.28
  -4   2   6  256.74   12.95
  -4   2   6  271.45   10.52
  -4   2   6  294.52   10.79
   4  -2  -6  278.02   13.24
  -4  -2   6  283.11   14.39
  -4  -2   6  276.18    9.81
  -4  -2   6  282.95   12.89
  -4  -2   6  268.97   14.19
   4  -2  -6  280.17   12.60
   4  -2  -6  226.49   15.56
   4  -2  -6  293.19   13.15
   4   2  -5   92.52    4.44
   4   2  -5  105.02    5.53
   4   2  -5  100.58    3.88
   4   2  -5  102.37    7.15
   4   2  -5   99.89    6.83
  -4   2   5   93.37    5.33
  -4   2   5   99.49    5.68
  -4   2   5  107.20    4.49
  -4   2   5   99.12    6.92
  -4  -2   5   97.21    7.92
  -4  -2   5  103.16    4.23
  -4  -2   5   92.79    4.95
  -4  -2   5  109.37    5.44
   4  -2  -5  102.90    6.56
   4  -2  -5  100.99    5.94
   4  -2  -5  104.75    8.86
   4   2  -4 1155.64   40.32
   4   2  -4 1169.00   41.23
   4   2  -4 1129.40   43.85
   4   2  -4 1195.91   46.17
  -4   2   4  962.02   35.37
  -4   2   4 1129.71   39.98
  -4   2   4 1075.06   40.52
   4  -2  -4 1150.30   41.72
  -4  -2   4 1194.31   39.36
  -4  -2   4 1070.43   38.67
  -4  -2   4 1154.55   44.20
  -4  -2   4 1146.84   45.79
  -4  -2   4 1136.94   41.88
   4  -2  -4 1144.34   51.31
   4  -2  -4 1123.51   44.61
   4  -2  -4 1148.87   42.19
   4   2  -3 2166.39   92.90
   4   2  -3 2098.33   84.55
   4   2  -3 2287.11   88.27
   4   2  -3 2237.01   93.64
  -4   2   3 2288.17   75.86
  -4   2   3 2261.40   74.91
  -4   2   3 2133.30   87.58
  -4   2   3 2170.51   80.27
  -4   2   3 2039.10   79.97
  -4   2   3 2150.87   86.27
   4  -2  -3 2143.57   83.53
  -4  -2   3 2200.89   97.19
  -4  -2   3 1891.52   81.14
   4  -2  -3 2201.47   94.72
   4  -2  -3 2316.94   90.37
   4  -2  -3 2192.58   91.99
  -4  -2   3 2154.20   94.20
  -4  -2   3 2306.78   88.66
  -4  -2   3 2190.13   81.29
   4   2  -2  910.34   33.84
   4   2  -2  958.16   29.70
   4   2  -2  859.55   30.73
   4   2  -2  888.02   33.15
  -4   2   2  925.33   33.23
  -4   2   2  911.06   31.73
  -4   2   2  918.31   26.86
  -4   2   2  895.79   27.33
  -4   2   2  858.75   26.82
  -4  -2   2  840.23   29.74
  -4  -2   2  991.45   33.74
  -4  -2   2  907.17   33.34
   4  -2  -2  948.13   28.85
   4  -2  -2  937.64   34.84
   4  -2  -2  957.97   36.96
   4  -2  -2  947.23   29.41
  -4  -2   2  920.01   27.32
   4   2  -1  605.81   17.32
   4   2  -1  608.95   21.63
   4   2  -1  563.95   22.34
   4   2  -1  593.57   23.38
   4   2  -1  578.17   21.88
  -4   2   1  583.58   24.63
  -4   2   1  602.21   21.11
  -4   2   1  554.73   14.43
   4  -2  -1  603.95   16.30
   4  -2  -1  592.71   23.00
   4  -2  -1  602.44   17.95
  -4  -2   1  605.54   21.85
  -4  -2   1  596.53   16.73
  -4  -2   1  581.66   22.04
   4  -2  -1  623.43   20.27
   4  -2  -1  598.79   15.37
   4  -2  -1  589.46   22.04
   4   2   0 2589.13  101.05
   4   2   0 2440.45  110.04
   4   2   0 2564.15  111.75
   4   2   0 2544.92  111.58
   4   2   0 2716.35  114.91
  -4   2   0 2728.30  112.71
  -4   2   0 2723.37  114.84
   4  -2   0 2580.72  113.55
   4  -2   0 2647.46  100.17
   4  -2   0 2689.15  103.11
  -4  -2   0 2675.44  113.55
  -4  -2   0 2762.50  107.94
  -4  -2   0 2644.33  116.54
   4  -2   0 2524.10  108.81
   4  -2   0 2632.78  115.82
   4   2   1 1973.03   72.94
   4   2   1 1845.47   73.45
   4   2   1 1588.37   69.27
   4   2   1 1734.95   71.48
   4   2   1 1865.28   77.68
  -4   2  -1 1924.26   72.59
  -4   2  -1 2014.34   80.26
   4  -2   1 1817.32   75.60
   4  -2   1 1731.52   75.25
  -4  -2  -1 1878.61   69.35
  -4  -2  -1 1746.90   74.01
   4  -2   1 1712.65   71.92
  -4  -2  -1 1852.70   74.26
   4   2   2  447.63   19.00
   4   2   2  509.95   20.54
   4   2   2  468.56   15.72
  -4   2  -2  564.32   22.02
  -4   2  -2  508.96   18.65
   4   2   2  470.55   19.44
   4   2   2  531.89   20.34
   4  -2   2  461.15   19.20
  -4  -2  -2  533.05   20.26
  -4  -2  -2  524.97   17.44
  -4  -2  -2  440.01   18.84
   4  -2   2  453.40   19.13
   4  -2   2  488.52   17.71
   4   2   3  984.92   40.42
   4   2   3  955.98   35.46
   4   2   3  985.05   40.52
   4  -2   3 1079.32   43.81
   4  -2   3 1013.50   43.00
  -4  -2  -3 1098.45   38.97
  -4  -2  -3  967.48   40.44
   4   2   4   64.36    5.39
   4   2   4   52.88    5.60
   4  -2   4   51.38    5.91
   4  -2   4   55.13   10.24
  -4  -2  -4   52.30    5.72
   4   2   5  416.61   25.42
   4  -2   5  410.18   20.22
   4  -2   5  472.02   22.98
  -4  -2  -5  440.40   20.13
   4   2   6   86.56    7.42
   4  -2   6   87.28    8.62
   4  -2   6   78.76    7.76
  -4  -2  -6   87.09    7.04
   4   2   7  137.54    8.71
  -4   2  -7  139.38    9.30
  -4  -2  -7  128.53    8.33
   4  -2   7  119.55    9.18
   4   2   8   22.07    3.11
  -4   2  -8   14.48    3.43
  -4  -2  -8   15.20    2.25
   4  -2   8   13.85    3.63
   4   3 -12   19.37    3.80
   4   3 -12   18.09    2.31
  -4   3  12   18.69    2.99
   4  -3 -12   19.56    3.70
  -4  -3  12   17.47    2.68
   4  -3 -12   22.14    3.37
   4   3 -11  127.64   10.14
   4   3 -11  131.06    8.27
  -4   3  11  129.28    8.71
   4  -3 -11  128.24    8.86
  -4  -3  11  126.15    8.01
   4  -3 -11  120.81    9.20
   4   3 -10  148.65   12.61
   4   3 -10  158.01   10.33
  -4   3  10  156.29   10.78
   4  -3 -10  154.57   11.35
  -4  -3  10  146.80    9.68
   4  -3 -10  149.37   10.51
   4   3  -9  171.52   13.67
   4   3  -9  165.46   15.50
  -4   3   9  165.49   11.74
   4  -3  -9  171.03   10.89
  -4  -3   9  169.67   10.12
  -4  -3   9  170.45   14.68
   4  -3  -9  169.69   12.36
   4   3  -8  361.35   21.37
   4   3  -8  341.31   23.81
  -4   3   8  328.76   18.36
   4  -3  -8  348.19   22.77
   4  -3  -8  345.17   17.05
  -4  -3   8  365.03   16.88
  -4  -3   8  316.48   15.31
   4  -3  -8  313.59   17.78
   4   3  -7   54.15    7.35
   4   3  -7   53.05    8.72
  -4   3   7   48.60    5.67
   4  -3  -7   44.01    5.73
   4  -3  -7   51.78    5.12
  -4  -3   7   50.34    4.88
  -4  -3   7   46.56    4.49
   4  -3  -7   49.33    5.99
   4   3  -6 1317.67   61.36
   4   3  -6 1372.41   61.37
  -4   3   6 1325.08   55.74
   4  -3  -6 1230.40   54.02
   4  -3  -6 1360.46   59.39
  -4  -3   6 1383.17   62.14
  -4  -3   6 1351.39   53.50
  -4  -3   6 1397.24   51.16
   4  -3  -6 1455.81   63.24
   4   3  -5  451.08   17.94
   4   3  -5  415.78   15.60
   4   3  -5  468.65   17.20
  -4   3   5  456.36   17.88
  -4   3   5  445.10   17.70
  -4   3   5  432.29   17.62
   4  -3  -5  424.53   17.26
  -4  -3   5  425.68   15.48
  -4  -3   5  429.66   20.41
   4  -3  -5  449.03   20.25
  -4  -3   5  431.94   17.42
   4  -3  -5  441.37   16.00
   4   3  -4  261.20    9.14
   4   3  -4  260.32   12.76
   4   3  -4  258.83   11.30
   4   3  -4  238.45    9.74
  -4   3   4  266.80    7.75
  -4   3   4  244.84    9.77
  -4   3   4  263.40   11.22
   4  -3  -4  252.83   10.24
  -4  -3   4  250.56   11.14
  -4  -3   4  251.07   16.97
  -4  -3   4  235.03    9.10
   4  -3  -4  258.80   11.75
   4  -3  -4  245.97    8.47
   4  -3  -4  258.74   12.93
   4   3  -3 1404.00   55.26
   4   3  -3 1391.51   50.94
   4   3  -3 1445.44   54.89
   4   3  -3 1339.92   51.45
  -4   3   3 1302.34   47.68
  -4   3   3 1453.83   56.15
   4  -3  -3 1406.40   59.03
   4  -3  -3 1353.61   50.73
  -4  -3   3 1469.23   58.95
  -4  -3   3 1296.03   48.56
   4  -3  -3 1418.40   56.42
  -4  -3   3 1416.34   56.73
   4   3  -2  262.01   10.64
   4   3  -2  247.71   10.63
   4   3  -2  246.72   10.20
   4   3  -2  244.53   10.38
  -4   3   2  268.01   10.65
  -4   3   2  247.40    9.15
  -4   3   2  261.20    8.36
  -4   3   2  243.15    6.62
  -4  -3   2  269.01   10.51
  -4  -3   2  238.89    9.47
   4  -3  -2  275.41   14.81
  -4  -3   2  253.52   11.45
   4  -3  -2  257.46   12.19
   4  -3  -2  253.42    8.40
   4   3  -1  887.00   28.40
   4   3  -1  772.17   30.90
   4   3  -1  791.94   30.31
  -4   3   1  776.26   24.48
  -4   3   1  851.43   30.03
  -4   3   1  805.47   28.49
  -4   3   1  807.20   24.89
  -4  -3   1  850.20   31.18
  -4  -3   1  829.43   28.85
  -4  -3   1  767.09   35.31
   4  -3  -1  779.51   24.85
   4  -3  -1  750.09   30.12
   4  -3  -1  819.78   27.64
   4  -3  -1  808.45   35.27
   4   3   0   33.23    5.65
   4   3   0   29.71    4.35
   4   3   0   23.56    4.18
   4   3   0   27.07    3.50
  -4   3   0   30.60    2.29
  -4   3   0   31.15    3.25
   4   3   0   32.35    2.08
  -4   3   0   31.62    2.82
   4  -3   0   29.30    3.64
  -4  -3   0   26.19    3.63
  -4  -3   0   26.68    3.67
  -4  -3   0   29.01    2.26
   4  -3   0   25.04    3.35
   4  -3   0   29.02    4.58
   4   3   1  352.22   15.98
   4   3   1  356.20   18.39
   4   3   1  271.72   14.23
   4   3   1  328.70   18.28
  -4   3  -1  342.78   11.26
  -4   3  -1  361.95   14.35
   4  -3   1  315.77   12.64
  -4  -3  -1  350.03   14.04
  -4  -3  -1  317.35   14.03
   4  -3   1  293.19   16.18
   4  -3   1  325.83   14.16
   4   3   2  268.22   13.35
   4   3   2  277.78   13.16
   4  -3   2  254.89   16.46
   4  -3   2  262.40   16.50
  -4  -3  -2  273.52   12.94
   4   3   3  175.37   10.58
   4   3   3  177.01   10.50
   4  -3   3  171.52   10.64
   4  -3   3  164.38   10.01
  -4  -3  -3  172.78   10.23
   4   3   4  305.93   14.78
   4   3   4  285.68   15.03
   4  -3   4  304.57   16.30
   4  -3   4  258.21   14.19
  -4  -3  -4  299.83   14.90
   4   3   5 1089.39   49.18
   4   3   5 1191.59   51.72
   4  -3   5 1159.07   61.29
   4  -3   5  969.62   45.53
  -4  -3  -5 1173.02   52.22
   4   3   6  125.82    9.21
   4  -3   6  131.61   10.22
   4  -3   6  115.62    8.89
  -4  -3  -6  118.47    8.35
   4   3   7   12.55    3.58
  -4   3  -7   12.39    3.64
   4  -3   7   14.12    3.68
   4   3   8  107.20    6.52
  -4   3  -8   98.33   10.04
   4  -3   8  104.30    6.95
   4   4 -12   95.92    6.00
   4  -4 -12   99.92    9.01
   4   4 -11   49.59    9.50
  -4   4  11   41.29    6.00
   4  -4 -11   41.67    5.33
   4  -4 -11   41.30    4.39
   4   4 -10   60.18    7.76
  -4   4  10   50.96    5.54
   4  -4 -10   54.18    5.44
  -4  -4  10   51.98    5.06
   4  -4 -10   48.48    6.60
   4   4  -9  291.30   18.64
   4   4  -9  272.76   14.08
  -4   4   9  290.94   15.13
   4  -4  -9  281.63   16.27
   4  -4  -9  279.76   19.50
  -4  -4   9  298.00   15.32
   4  -4  -9  277.26   14.50
   4   4  -8  339.86   16.86
   4   4  -8  334.64   20.89
  -4   4   8  316.26   17.04
   4  -4  -8  286.74   16.78
   4  -4  -8  353.07   18.66
  -4  -4   8  333.16   17.58
   4  -4  -8  302.59   15.13
   4   4  -7  506.21   21.96
   4   4  -7  512.85   26.78
  -4   4   7  472.54   26.44
   4  -4  -7  438.05   21.88
  -4  -4   7  496.11   22.52
   4  -4  -7  545.41   33.55
   4   4  -6  125.61    7.78
   4   4  -6  121.05   10.59
  -4   4   6  120.43   11.37
   4  -4  -6  118.63    8.37
  -4  -4   6  124.14    8.77
   4  -4  -6  134.30   10.94
   4   4  -5  153.19    8.25
  -4   4   5  151.86    8.02
   4  -4  -5  146.70   11.18
  -4  -4   5  145.62    9.22
  -4  -4   5  142.33   11.17
   4  -4  -5  137.37    8.06
   4   4  -4 1768.87   70.36
   4   4  -4 1793.11   79.54
  -4   4   4 1826.52   73.55
   4  -4  -4 1599.22   68.16
   4  -4  -4 1785.66   82.23
  -4  -4   4 1733.54   75.48
  -4  -4   4 1711.22   77.40
  -4  -4   4 1652.08   65.63
   4  -4  -4 1656.75   70.35
   4   4  -3 1173.11   43.93
   4   4  -3 1205.30   46.15
   4   4  -3 1137.12   44.90
  -4   4   3 1108.83   41.63
  -4   4   3 1269.64   49.45
   4  -4  -3 1160.19   51.13
   4  -4  -3 1186.62   46.39
  -4  -4   3 1128.61   47.17
  -4  -4   3 1125.53   42.09
   4  -4  -3 1134.77   45.20
  -4  -4   3 1136.40   47.76
   4   4  -2   48.04    3.31
   4   4  -2   43.19    4.13
   4   4  -2   41.45    4.35
   4   4  -2   43.00    3.87
  -4   4   2   44.45    4.26
  -4   4   2   44.85    2.96
   4  -4  -2   47.12    5.43
  -4  -4   2   45.84    5.01
  -4  -4   2   44.57    4.48
   4  -4  -2   42.76    3.22
   4  -4  -2   46.62    4.02
   4   4  -1  507.72   20.08
   4   4  -1  410.87   18.09
   4   4  -1  415.39   16.74
   4  -4  -1  417.96   16.89
   4  -4  -1  417.78   18.72
  -4  -4   1  426.28   23.62
  -4  -4   1  497.92   19.33
  -4  -4   1  473.01   18.48
   4   4   0 1041.34   36.77
   4   4   0  838.14   36.57
   4   4   0  873.92   35.45
  -4   4   0 1006.49   35.69
   4  -4   0  858.52   35.72
   4  -4   0  907.25   35.89
  -4  -4   0  886.23   36.64
  -4  -4   0  922.72   35.11
   4  -4   0  876.26   33.65
   4   4   1  165.37   11.13
   4   4   1  175.20    9.36
  -4   4  -1  199.13    7.35
   4  -4   1  188.03    9.00
   4  -4   1  187.65    9.59
  -4  -4  -1  183.48   14.14
   4  -4   1  178.96    8.92
   4   4   2   29.51    4.63
   4   4   2   34.66    5.55
   4  -4   2   33.29    4.49
   4  -4   2   34.30    4.48
  -4  -4  -2   29.52    4.26
   4   4   3  396.93   19.53
   4   4   3  380.90   18.43
   4  -4   3  377.25   17.81
   4  -4   3  386.11   18.34
  -4  -4  -3  341.44   16.36
   4   4   4   72.38    7.15
   4   4   4   67.12    6.89
   4  -4   4   63.01    7.22
   4  -4   4   65.76    6.62
  -4  -4  -4   60.86    5.80
   4   4   5 1262.91   58.12
   4   4   5 1462.00   64.50
   4  -4   5 1202.35   55.73
   4  -4   5 1411.52   63.27
  -4  -4  -5 1207.41   60.99
   4   4   6   99.63    7.15
   4   4   6   99.55   11.95
   4  -4   6  111.59    8.90
   4  -4   6   99.86    8.06
   4   4   7   94.83    7.02
  -4   4  -7   92.21    7.07
   4  -4   7   93.19    6.84
   4   5 -11  284.68   13.52
   4  -5 -11  242.74   12.13
   4   5 -10   64.83   11.53
   4  -5 -10   58.82    6.23
  -4  -5  10   58.37    5.36
   4   5  -9  354.72   21.06
   4  -5  -9  347.57   18.43
   4  -5  -9  391.15   18.77
  -4  -5   9  378.34   18.44
   4   5  -8  291.87   18.97
   4  -5  -8  254.82   15.31
   4  -5  -8  287.19   16.11
  -4  -5   8  310.01   17.20
   4   5  -7  959.82   47.75
   4  -5  -7  834.83   39.62
   4  -5  -7 1027.19   48.47
  -4  -5   7  949.11   42.78
  -4   5   6   93.87    6.51
   4  -5  -6   90.57   15.88
  -4  -5   6   94.14    8.51
  -4  -5   6  104.51   11.05
   4  -5  -6   90.11    7.64
   4   5  -5   11.77    2.93
  -4   5   5   11.59    2.86
   4  -5  -5   19.12    5.66
  -4  -5   5   16.93    4.33
  -4  -5   5   17.34    5.34
   4  -5  -5   21.25    5.81
   4   5  -4  560.24   22.25
  -4   5   4  542.51   21.35
   4  -5  -4  579.96   30.56
  -4  -5   4  570.88   26.46
  -4  -5   4  561.65   28.13
   4  -5  -4  539.17   23.60
   4   5  -3  263.02   11.26
   4   5  -3  271.44   11.66
   4  -5  -3  273.46   16.60
   4  -5  -3  254.88   11.83
   4  -5  -3  247.73   11.48
  -4  -5   3  271.98   14.93
  -4  -5   3  267.35   14.34
   4   5  -2  660.88   27.19
   4   5  -2  670.97   26.33
   4  -5  -2  647.62   26.17
   4  -5  -2  666.42   31.43
   4  -5  -2  622.85   24.83
  -4  -5   2  673.34   29.72
  -4  -5   2  689.50   30.18
   4   5  -1  119.60    8.72
   4   5  -1  128.33    7.26
   4  -5  -1  127.24    7.30
   4  -5  -1  119.41    9.18
  -4  -5   1  124.95   13.29
  -4  -5   1  143.80    8.34
   4   5   0  181.36   11.72
   4   5   0  187.81    9.97
   4  -5   0  191.45   11.00
   4  -5   0  191.89    9.58
  -4  -5   0  183.97   11.17
  -4  -5   0  193.32   10.32
   4   5   1  234.52   14.59
   4   5   1  245.43   12.46
   4  -5   1  226.30   11.12
   4  -5   1  252.40   16.04
  -4  -5  -1  227.84   11.23
  -4  -5  -1  242.21   12.90
   4   5   2  163.90   11.68
   4   5   2  157.08    9.54
   4  -5   2  163.27    9.39
   4  -5   2  153.28    9.47
  -4  -5  -2  145.95   13.54
   4   5   3  321.72   16.12
   4   5   3  343.57   18.38
   4  -5   3  326.13   16.16
   4  -5   3  312.99   15.59
  -4  -5  -3  300.52   15.19
   4   5   4  231.11   13.71
   4   5   4  205.90   12.06
   4  -5   4  226.50   12.91
   4  -5   4  198.49   11.33
  -4  -5  -4  203.35   15.41
   4   5   5  124.93    8.48
   4   5   5  135.20    9.13
   4  -5   5  126.39   13.63
   4  -5   5  109.38    7.97
   4   5   6    4.43    3.81
   4   5   6    3.48    2.64
   4  -5   6    4.83    2.38
   4  -5   6   10.31    2.93
   4   5   7   -0.24    1.84
  -4   5  -7    2.90    1.85
   4  -5   7    2.67    1.49
   4   6 -10  119.35    8.65
   4  -6 -10  100.22   10.81
  -4  -6  10  126.96    6.72
   4   6  -9  130.47   10.42
  -4   6   9  127.40    9.13
  -4  -6   9  149.15    9.04
   4  -6  -9  119.61    8.87
   4   6  -8   22.18    5.40
   4  -6  -8   14.46    4.18
   4  -6  -8   18.73    4.81
  -4  -6   8   16.57    4.83
   4   6  -7  336.94   20.69
   4  -6  -7  299.02   16.81
   4  -6  -7  349.02   19.28
  -4  -6   7  339.79   18.05
   4  -6  -6  139.69    9.95
   4  -6  -6  167.48   13.35
  -4  -6   6  150.22   16.44
   4  -6  -5  592.77   28.05
   4  -6  -5  661.68   34.04
  -4  -6   5  636.67   31.12
  -4  -6   5  675.48   35.86
   4  -6  -4  182.80   11.08
   4  -6  -4  184.91   14.83
  -4  -6   4  188.11   13.20
  -4  -6   4  200.69   14.30
   4  -6  -3   82.42    9.00
   4  -6  -3   58.51    5.81
  -4  -6   3   61.36   11.72
  -4  -6   3   76.67   12.59
   4   6  -2  136.52    8.48
   4   6  -2  133.39    7.73
   4  -6  -2  128.93   10.96
   4  -6  -2  124.75    8.22
  -4  -6   2  146.81   10.50
  -4  -6   2  140.22   10.43
   4   6  -1   76.92    7.37
   4   6  -1   83.94    6.09
   4  -6  -1   94.56    8.47
  -4  -6   1   86.50   11.77
  -4  -6   1   81.24   11.76
   4   6   0  222.02   11.05
   4   6   0  205.59   13.16
  -4  -6   0  216.73   12.52
  -4  -6   0  223.94   12.97
   4   6   1 1639.37   77.88
   4   6   1 1774.62   83.87
  -4  -6  -1 1579.59   73.01
  -4  -6  -1 1711.27   79.05
   4   6   2  276.65   22.28
   4   6   2  283.99   13.64
   4  -6   2  235.90   12.51
  -4  -6  -2  248.64   13.27
   4   6   3  520.96   25.13
   4   6   3  517.99   22.34
   4  -6   3  491.58   21.99
   4  -6   3  419.35   20.23
  -4  -6  -3  448.81   21.03
   4   6   4   30.32    4.85
   4   6   4   21.53    3.94
   4  -6   4   24.88    3.97
   4  -6   4   15.11    3.44
   4   6   5  261.76   13.25
   4   6   5  244.82   11.90
   4  -6   5  252.34   12.32
   4   6   6   98.24    5.63
   4   6   6   91.60    5.65
   4   7  -9   13.97    3.48
  -4   7   9    6.14    2.73
  -4  -7   9   22.62    2.94
   4  -7  -9    4.29    4.56
   4   7  -8   76.58    7.82
   4  -7  -8   58.44    5.95
  -4  -7   8   80.88    6.97
   4   7  -7   83.16   13.91
   4  -7  -7   70.72    6.64
   4  -7  -7   98.27    9.01
  -4  -7   7   97.43    8.61
   4   7  -6   50.14    7.56
   4  -7  -6   42.47    8.50
   4  -7  -6   50.07    7.04
  -4  -7   6   48.19    6.45
   4  -7  -5  407.21   20.45
   4  -7  -5  425.74   23.18
  -4  -7   5  459.50   29.20
  -4  -7   5  477.30   26.52
   4  -7  -4   20.45    4.36
   4  -7  -4   27.39    5.63
  -4  -7   4   27.88    5.33
  -4  -7   4   22.95    9.84
   4  -7  -3  122.78   16.25
   4  -7  -3  110.30    8.50
  -4  -7   3  124.12    9.80
  -4  -7   3  117.86   11.11
   4   7  -2  260.15   13.65
   4  -7  -2  306.74   24.09
   4  -7  -2  294.57   20.08
  -4  -7   2  350.72   17.50
  -4  -7   2  331.41   18.06
   4   7  -1  121.40    8.54
   4  -7  -1  102.93    8.19
  -4  -7   1  115.30    8.94
  -4  -7   1  122.87    9.59
   4   7   0   38.10    5.40
  -4  -7   0   34.46    5.31
  -4  -7   0   39.64    5.71
   4   7   1    4.98    3.02
  -4  -7  -1    3.91    2.52
  -4  -7  -1    2.16    4.37
   4   7   2   30.63    5.10
   4   7   2   27.36    3.54
  -4  -7  -2   23.21    3.80
   4   7   3  156.28   10.33
   4   7   3  151.72    7.78
   4  -7   3  134.58    7.74
   4   7   4   24.84    3.02
   4   7   4   27.54    4.53
   4  -7   4   26.18    3.18
   4   7   5   20.95    3.29
   4   8  -7  277.11   14.01
  -4   8   7  271.02   13.51
  -4  -8   7  275.78   12.89
   4  -8  -7  208.38   10.74
   4   8  -6   67.86    6.95
   4  -8  -6   41.96    5.08
   4  -8  -6   67.05    6.93
  -4  -8   6   68.22    6.70
   4   8  -5  188.03   12.16
   4  -8  -5  143.53    9.09
   4  -8  -5  173.54   11.72
  -4  -8   5  172.60   10.36
   4  -8  -4   40.69    5.00
   4  -8  -4   54.08    6.35
  -4  -8   4   47.26    5.68
  -4  -8   4   45.64    7.41
   4  -8  -3   57.04    5.74
   4  -8  -3   67.48    6.81
  -4  -8   3   88.11   12.30
  -4  -8   3   72.64    6.56
   4  -8  -2   20.53    4.17
  -4  -8   2   26.75    4.20
  -4  -8   2   21.61    5.11
   4   8  -1   52.51    4.94
  -4  -8   1   49.37    5.23
  -4  -8   1   45.89    6.21
   4   8   0    1.04    3.39
  -4  -8   0    2.56    1.87
  -4  -8   0    0.86    3.79
   4   8   1  149.56   12.41
  -4  -8  -1  117.91   11.61
   4   8   2    9.99    3.20
   4   8   3   22.96    3.77
   4   9  -4   10.11    2.97
  -4  -9   4    7.87    2.50
  -4  -9   3  172.21    8.12
  -4  -9   3  149.82    9.78
  -4  -9   2  260.39   10.76
  -4  -9   2  283.85   14.05
  -4  -9   1    5.77    2.34
   5   0 -13   24.49    3.73
   5   0 -13   22.66    3.78
  -5   0  13   24.31    3.71
   5   0 -12  223.28   13.14
   5   0 -12  221.03   13.32
  -5   0  12  223.56   13.38
   5   0 -11  364.16   20.48
   5   0 -11  343.11   19.60
  -5   0  11  356.38   19.89
   5   0 -10  121.96   10.87
   5   0 -10  120.25   10.46
  -5   0  10  115.29   16.85
   5   0  -9    6.94    4.12
   5   0  -9    6.51    3.78
  -5   0   9    6.20    3.98
   5   0  -8  223.94   13.31
   5   0  -8  224.06   20.25
  -5   0   8  235.27   15.47
   5   0  -7   28.70    4.59
   5   0  -7   33.14    4.94
  -5   0   7   30.48    4.98
   5   0  -6  117.92    7.58
   5   0  -6  112.98    7.07
   5   0  -6  125.49    6.11
   5   0  -6  115.31    8.42
  -5   0   6  108.79    5.16
  -5   0   6  112.80    7.84
  -5   0   6  117.94    6.33
  -5   0   6  114.59    6.00
   5   0  -5   29.59    3.47
   5   0  -5   36.40    2.78
   5   0  -5   40.30    3.69
   5   0  -5   41.34    4.49
  -5   0   5   39.86    4.50
  -5   0   5   35.89    3.50
  -5   0   5   35.71    3.09
  -5   0   5   31.83    4.74
   5   0  -4 2605.55  113.96
   5   0  -4 2436.10  102.92
   5   0  -4 2569.31  103.04
   5   0  -4 2556.45  111.66
   5   0  -4 2675.19  116.50
  -5   0   4 2438.49  103.83
  -5   0   4 2572.62  105.13
  -5   0   4 2640.39  114.48
  -5   0   4 2559.43  110.17
   5   0  -3 1449.34   48.86
   5   0  -3 1454.06   55.67
   5   0  -3 1369.90   45.59
   5   0  -3 1418.44   56.66
   5   0  -3 1493.16   62.71
  -5   0   3 1329.86   48.04
  -5   0   3 1378.52   49.23
  -5   0   3 1298.70   50.29
  -5   0   3 1386.51   50.86
   5   0  -2  980.23   35.86
   5   0  -2  984.81   39.66
   5   0  -2  977.67   38.10
  -5   0   2  936.62   34.87
  -5   0   2  953.79   32.38
  -5   0   2  943.43   33.09
  -5   0   2  950.56   32.98
   5   0  -1  416.93   17.32
   5   0  -1  445.89   16.37
   5   0  -1  441.80   14.69
   5   0  -1  419.30   18.17
  -5   0   1  420.94   15.72
  -5   0   1  436.67   17.00
  -5   0   1  425.39   14.72
   5   0   0 2192.93   91.93
   5   0   0 2090.10   92.94
   5   0   0 2333.96  104.41
   5   0   0 2264.26   91.58
  -5   0   0 2142.67   92.88
  -5   0   0 2299.15   96.38
  -5   0   0 2364.51   96.49
   5   0   1 3381.45  147.59
   5   0   1 3097.39  142.42
   5   0   1 3567.38  158.87
   5   0   1 2988.03  135.36
   5   0   1 2583.03  123.76
  -5   0  -1 3336.45  154.92
  -5   0  -1 2697.27  136.52
   5   0   2  627.05   22.37
   5   0   2  537.10   21.62
   5   0   2  629.34   27.22
   5   0   2  528.25   20.28
   5   0   2  537.00   25.90
  -5   0  -2  509.53   22.73
   5   0   3   10.07    2.43
   5   0   3    0.01    2.15
   5   0   3    3.39    3.46
  -5   0  -3   14.81    4.75
   5   0   4   42.70    4.69
   5   0   4   49.15    5.29
  -5   0  -4   57.95    6.58
   5   0   5   64.76    6.16
   5   0   5   57.98    5.31
  -5   0  -5   74.10    7.41
   5   0   6  470.38   21.52
  -5   0  -6  480.56   22.83
   5   0   7    3.12    1.94
  -5   0  -7    0.77    2.11
   5   0   8    0.24    0.77
  -5   0  -8    0.13    1.04
   5   1 -13    2.63    1.93
   5   1 -13    1.88    1.72
  -5   1  13    1.09    1.90
   5  -1 -13    2.08    3.03
  -5  -1  13    1.30    1.71
   5  -1 -13    0.97    1.88
   5   1 -12  185.55   11.08
   5   1 -12  176.02   11.67
  -5   1  12  174.22   11.48
   5  -1 -12  184.85   11.45
  -5  -1  12  187.78   11.01
   5  -1 -12  178.98   11.47
   5   1 -11   21.14    5.09
   5   1 -11   20.37    5.39
  -5   1  11   20.28    5.44
   5  -1 -11   22.04    8.65
  -5  -1  11   22.23    4.94
   5  -1 -11   22.00    5.23
   5   1 -10  112.70   10.91
   5   1 -10  112.41   10.51
  -5   1  10  118.19   11.26
   5  -1 -10  128.44   10.70
  -5  -1  10  124.82   10.27
   5  -1 -10  113.57   15.63
   5   1  -9  670.49   33.26
   5   1  -9  656.83   32.68
  -5   1   9  646.49   34.23
   5  -1  -9  616.77   30.61
  -5  -1   9  642.43   31.72
   5  -1  -9  663.07   31.70
   5   1  -8  452.79   23.04
   5   1  -8  491.62   24.11
  -5   1   8  439.09   23.20
   5  -1  -8  459.78   22.15
  -5  -1   8  484.90   24.50
   5  -1  -8  502.17   24.59
   5   1  -7  606.84   27.18
   5   1  -7  617.48   27.43
  -5   1   7  618.01   34.99
  -5   1   7  631.69   25.30
   5  -1  -7  602.49   26.44
  -5  -1   7  580.59   30.91
   5  -1  -7  547.10   24.10
   5  -1  -7  661.79   25.26
  -5   1   6  101.43    5.31
   5   1  -6   99.40    7.13
   5   1  -6  100.16    5.43
   5   1  -6  102.50    5.04
   5   1  -6  109.01    7.00
  -5   1   6   97.90    5.13
  -5   1   6  103.59   11.48
   5   1  -6   86.06    3.61
  -5   1   6  106.38    9.23
   5  -1  -6  108.64    6.18
  -5  -1   6  105.57    4.51
  -5  -1   6   97.46    4.34
  -5  -1   6   96.84    6.54
  -5  -1   6   93.05    5.37
   5  -1  -6   92.03    5.71
   5  -1  -6   97.67    9.97
  -5  -1   6  103.33    5.20
   5  -1  -6   77.26    5.66
   5   1  -5  105.53    4.85
   5   1  -5   94.24    3.86
   5   1  -5  108.83    7.14
   5   1  -5  104.34    6.30
   5   1  -5  107.56    5.35
  -5   1   5  103.05    4.82
  -5   1   5  106.15    5.90
  -5   1   5  101.12    5.55
   5  -1  -5   99.14    5.04
   5  -1  -5   95.72    5.29
  -5  -1   5  101.08    4.38
  -5  -1   5  108.85    6.49
   5  -1  -5  107.13    6.45
  -5  -1   5  103.05    4.93
  -5  -1   5   92.00    5.05
   5  -1  -5  102.51    7.40
  -5  -1   5   92.85    4.79
   5  -1  -5  106.29    6.41
   5   1  -4 4220.57  206.17
   5   1  -4 4113.69  186.61
   5   1  -4 4092.64  196.39
   5   1  -4 3969.03  191.68
  -5   1   4 3973.51  181.88
  -5   1   4 4069.39  200.43
  -5   1   4 4228.58  198.19
   5  -1  -4 4176.58  199.85
   5  -1  -4 3986.86  186.12
  -5  -1   4 4039.57  188.69
  -5  -1   4 3626.08  173.79
  -5  -1   4 4127.75  189.63
  -5  -1   4 3897.68  182.88
   5  -1  -4 3950.83  186.10
   5  -1  -4 4179.86  204.89
   5  -1  -4 4174.67  205.75
  -5   1   3 5344.40  259.17
   5   1  -3 5243.04  272.11
   5   1  -3 5600.30  282.07
   5   1  -3 4724.38  241.25
   5   1  -3 5383.87  278.89
  -5   1   3 5137.01  261.49
  -5   1   3 5464.68  273.87
  -5   1   3 5139.33  255.15
   5   1  -3 5598.42  266.13
   5  -1  -3 5293.24  278.96
  -5  -1   3 5233.85  267.67
  -5  -1   3 5274.38  259.71
  -5  -1   3 5114.07  256.38
   5  -1  -3 5473.85  263.20
   5  -1  -3 5094.19  242.21
   5  -1  -3 5568.50  289.41
   5  -1  -3 5446.19  275.50
  -5  -1   3 5223.01  263.83
   5   1  -2 1303.61   52.16
   5   1  -2 1349.91   49.32
   5   1  -2 1289.17   49.79
  -5   1   2 1318.77   49.69
  -5   1   2 1249.53   42.77
  -5   1   2 1279.28   47.37
  -5   1   2 1253.92   48.02
  -5  -1   2 1263.04   46.49
  -5  -1   2 1293.80   49.09
   5  -1  -2 1339.76   51.50
  -5  -1   2 1249.44   43.65
   5  -1  -2 1341.89   52.49
   5  -1  -2 1331.26   53.71
  -5  -1   2 1322.67   51.73
   5   1  -1    9.06    2.66
   5   1  -1    6.43    2.20
   5   1  -1   11.98    1.84
  -5   1   1    7.38    2.27
  -5   1   1    5.99    2.00
  -5   1   1   13.17    2.91
   5   1  -1    6.69    2.07
   5  -1  -1    6.64    2.38
  -5  -1   1    7.42    1.50
  -5  -1   1    5.38    2.81
  -5  -1   1    6.11    2.19
   5  -1  -1    7.79    1.36
   5  -1  -1    8.41    2.42
   5   1   0  121.24    7.55
   5   1   0  131.39    6.00
   5   1   0  134.79    8.18
   5   1   0  124.42    6.55
  -5   1   0  127.63    6.65
  -5   1   0  120.26    6.47
   5   1   0  134.10    6.43
  -5   1   0  127.01    6.69
   5  -1   0  125.21    6.88
   5  -1   0  126.97    7.41
  -5  -1   0  116.40    7.20
  -5  -1   0  144.19    5.77
   5  -1   0  134.71    4.85
   5  -1   0  110.52    6.98
   5   1   1   97.95    6.03
   5   1   1   88.78    6.43
   5   1   1  111.30   10.30
   5   1   1  110.93    5.76
  -5   1  -1  122.66    7.11
  -5   1  -1  115.39    5.92
  -5   1  -1   91.95    6.16
   5   1   1  116.15    6.27
   5  -1   1  103.72    4.86
  -5  -1  -1   96.60    7.00
  -5  -1  -1  115.01    7.12
  -5  -1  -1  112.72    5.49
   5  -1   1   88.76    5.80
   5  -1   1  105.90    6.86
   5  -1   1  106.27    4.46
   5   1   2   81.67    5.12
   5   1   2   77.48    8.59
   5   1   2   78.92    5.93
  -5   1  -2   70.63    6.34
   5  -1   2   96.37    5.44
   5  -1   2   84.81    9.22
   5  -1   2   73.17    7.46
  -5  -1  -2   72.59    6.71
  -5  -1  -2   97.32    6.04
   5   1   3   29.58    5.30
   5   1   3   27.42    4.08
   5   1   3   24.82    3.95
  -5   1  -3   30.81    4.84
   5  -1   3   26.71    4.33
  -5  -1  -3   32.64    5.00
   5   1   4  635.75   26.71
   5   1   4  607.75   26.93
  -5   1  -4  658.14   29.83
  -5  -1  -4  714.05   31.77
   5  -1   4  592.73   27.23
   5   1   5   29.60    4.57
   5   1   5   38.44    6.86
  -5   1  -5   32.57    5.53
  -5  -1  -5   37.92    5.32
   5  -1   5   30.55    5.01
   5   1   6   43.08    4.90
   5   1   6   42.34    4.77
  -5   1  -6   46.52    6.08
   5  -1   6   47.96    5.65
  -5  -1  -6   43.40    5.48
   5   1   7   45.56    4.26
   5   1   7   42.63    6.21
  -5   1  -7   53.86    8.63
   5  -1   7   51.59    5.22
  -5  -1  -7   58.75    4.93
  -5   1  -8   20.10    2.77
   5  -1   8   18.85    2.66
   5   2 -12  493.88   23.81
   5   2 -12  540.11   23.10
  -5   2  12  548.74   24.12
   5  -2 -12  550.12   23.97
  -5  -2  12  534.30   22.56
   5  -2 -12  537.42   24.36
   5   2 -11  139.25   10.51
   5   2 -11  135.10   11.05
  -5   2  11  137.39   10.53
   5  -2 -11  143.05   10.08
  -5  -2  11  139.70   13.68
   5  -2 -11  136.50   10.47
   5   2 -10   80.63    8.56
   5   2 -10   93.47    9.77
  -5   2  10   88.71    9.53
   5  -2 -10   90.86    8.84
  -5  -2  10   86.70    7.74
   5  -2 -10   91.21    8.98
   5   2  -9  130.66   11.02
   5   2  -9  132.65   11.47
  -5   2   9  130.05   11.95
   5  -2  -9  129.17   10.01
  -5  -2   9  129.39    9.61
   5  -2  -9  124.46   10.31
   5   2  -8   72.06    7.65
   5   2  -8   72.71    8.50
  -5   2   8   65.43    8.11
   5  -2  -8   62.87    6.90
   5  -2  -8   82.28    9.73
  -5  -2   8   69.73    6.98
   5  -2  -8   67.90    6.91
   5   2  -7  164.82   10.67
   5   2  -7  166.69   16.04
  -5   2   7  157.97   10.73
   5  -2  -7  132.01    8.91
   5  -2  -7  169.27   10.00
  -5  -2   7  159.81    7.41
  -5  -2   7  165.39   13.96
   5  -2  -7  168.90   13.48
   5   2  -6  858.89   31.91
   5   2  -6  836.93   35.33
   5   2  -6  753.20   27.23
   5   2  -6  819.80   35.47
  -5   2   6  794.91   33.86
  -5   2   6  862.81   30.11
  -5   2   6  823.58   31.31
   5  -2  -6  707.04   29.79
  -5  -2   6  811.04   29.95
  -5  -2   6  826.63   33.19
  -5  -2   6  824.60   29.08
   5  -2  -6  831.40   33.36
   5  -2  -6  823.82   33.21
   5  -2  -6  794.49   38.72
   5   2  -5  808.80   28.40
   5   2  -5  772.25   27.46
   5   2  -5  765.19   36.45
   5   2  -5  746.98   29.45
   5   2  -5  803.38   32.64
  -5   2   5  807.43   34.08
  -5   2   5  779.87   29.56
  -5   2   5  773.99   25.97
   5  -2  -5  778.89   29.52
   5  -2  -5  761.01   28.76
  -5  -2   5  764.86   28.22
  -5  -2   5  774.18   28.47
  -5  -2   5  792.78   26.75
  -5  -2   5  742.81   27.60
   5  -2  -5  752.84   31.07
   5  -2  -5  773.97   29.57
   5  -2  -5  798.92   32.72
   5   2  -4   85.22    4.92
   5   2  -4   85.59    3.79
   5   2  -4   74.24    4.25
   5   2  -4   79.80    5.27
   5   2  -4   78.47    6.18
  -5   2   4   76.71    3.19
  -5   2   4   74.46    5.53
  -5   2   4   80.60    5.02
   5  -2  -4   78.66    6.29
   5  -2  -4   80.85    6.13
  -5  -2   4   83.61    5.05
  -5  -2   4   93.83    4.62
  -5  -2   4   83.39    3.36
  -5  -2   4   80.01    4.69
   5  -2  -4   86.03    4.10
   5  -2  -4   84.40    4.46
   5  -2  -4   73.49    3.92
   5   2  -3  319.30   12.94
   5   2  -3  325.07    9.74
   5   2  -3  325.46   11.57
   5   2  -3  342.04   14.35
  -5   2   3  329.53   12.51
  -5   2   3  331.35    9.50
  -5   2   3  342.43   13.67
   5  -2  -3  308.31   10.36
  -5  -2   3  328.92   11.05
  -5  -2   3  312.19   10.97
  -5  -2   3  314.78   15.43
  -5  -2   3  312.76   12.72
   5  -2  -3  324.88   14.05
   5  -2  -3  334.08   15.29
   5   2  -2  980.80   39.06
   5   2  -2  925.58   36.43
  -5   2   2  972.56   32.70
  -5   2   2  959.05   35.35
  -5   2   2  966.41   41.98
   5  -2  -2  989.46   38.81
  -5  -2   2  927.13   36.00
  -5  -2   2  992.66   31.80
  -5  -2   2  977.47   35.70
   5  -2  -2  983.65   40.29
   5  -2  -2 1038.02   32.59
   5  -2  -2  964.54   31.97
   5   2  -1  895.90   35.91
   5   2  -1  824.18   32.49
  -5   2   1  845.27   29.98
   5   2  -1  823.16   33.92
   5   2  -1  917.49   38.73
  -5   2   1  901.69   32.74
  -5   2   1  893.26   32.79
   5  -2  -1  838.43   33.24
  -5  -2   1  952.02   30.31
  -5  -2   1  826.72   32.81
   5  -2  -1  877.72   35.44
   5   2   0 1709.76   72.58
   5   2   0 1853.15   77.49
   5   2   0 1805.61   69.93
   5   2   0 1939.18   83.67
  -5   2   0 1892.28   74.58
   5   2   0 1617.89   71.90
  -5   2   0 1962.66   79.29
   5  -2   0 1819.16   75.30
  -5  -2   0 1893.44   76.70
   5  -2   0 1767.37   75.32
   5  -2   0 1618.66   70.24
  -5  -2   0 1735.82   74.74
   5   2   1 1716.60   73.29
  -5   2  -1 1869.16   72.57
   5   2   1 1587.87   70.93
   5  -2   1 1640.63   69.52
   5  -2   1 1811.85   77.45
   5  -2   1 1664.46   71.29
  -5  -2  -1 1711.67   73.79
   5   2   2  977.20   46.82
   5   2   2  998.34   42.34
   5  -2   2  953.79   40.78
   5  -2   2 1002.05   42.54
  -5  -2  -2  934.81   40.60
   5   2   3  426.54   20.06
   5   2   3  455.50   25.75
   5  -2   3  431.09   27.27
   5  -2   3  435.64   21.10
  -5  -2  -3  422.03   20.43
   5   2   4  404.65   18.36
   5   2   4  373.03   18.59
   5  -2   4  347.12   24.08
  -5  -2  -4  394.54   19.38
   5   2   5  558.53   31.76
  -5   2  -5  563.41   26.50
  -5  -2  -5  600.92   27.25
   5  -2   5  542.54   26.32
   5   2   6    1.42    2.23
  -5   2  -6    2.70    2.59
  -5  -2  -6    4.52    2.27
   5  -2   6    0.85    2.59
   5   2   7   25.41    3.25
  -5   2  -7   14.26    3.87
  -5  -2  -7   23.61    3.30
   5  -2   7   13.62    3.85
   5   3 -12    4.67    2.05
   5   3 -12    9.21    2.75
  -5   3  12    5.13    2.35
   5  -3 -12    7.78    2.67
  -5  -3  12   -0.01    2.64
   5  -3 -12    6.17    2.20
   5   3 -11   19.97    3.91
   5   3 -11   19.09    4.83
  -5   3  11   16.83    4.22
   5  -3 -11   18.41    3.80
  -5  -3  11   14.48    5.29
   5  -3 -11   20.52    4.27
   5   3 -10   47.89    8.15
   5   3 -10   51.70    6.54
  -5   3  10   51.03    7.02
   5  -3 -10   82.49    6.67
  -5  -3  10   49.26    5.49
   5  -3 -10   51.40    7.02
   5   3  -9 1518.11   74.34
   5   3  -9 1496.07   69.79
  -5   3   9 1411.78   68.60
   5  -3  -9 1472.10   66.73
  -5  -3   9 1427.96   63.67
   5  -3  -9 1391.58   66.97
   5   3  -8  226.29   13.72
   5   3  -8  234.15   22.44
  -5   3   8  212.60   13.47
   5  -3  -8  247.95   13.90
   5  -3  -8  239.27   12.52
  -5  -3   8  222.73   11.22
   5  -3  -8  198.51   12.76
   5   3  -7  548.89   25.28
   5   3  -7  566.42   28.25
  -5   3   7  521.20   24.76
   5  -3  -7  465.28   22.62
   5  -3  -7  574.73   27.16
  -5  -3   7  551.28   22.54
   5  -3  -7  530.98   27.16
   5   3  -6   10.35    3.12
   5   3  -6    9.74    3.36
  -5   3   6    9.70    5.04
  -5   3   6    7.22    1.66
   5  -3  -6    9.94    3.49
  -5  -3   6    0.01    2.64
   5  -3  -6    8.80    2.20
   5  -3  -6   10.01    2.63
   5   3  -5  911.31   33.56
   5   3  -5 1005.23   36.55
   5   3  -5  936.14   38.87
   5   3  -5  907.08   38.50
  -5   3   5  912.57   34.54
   5  -3  -5  867.77   34.44
   5  -3  -5  925.12   38.79
  -5  -3   5  929.13   37.12
   5  -3  -5  961.53   42.21
   5   3  -4  576.56   21.23
   5   3  -4  611.10   20.85
   5   3  -4  570.02   21.12
   5   3  -4  563.33   23.09
  -5   3   4  515.76   18.13
   5  -3  -4  556.30   23.10
   5  -3  -4  557.10   24.89
  -5  -3   4  553.59   22.12
  -5  -3   4  543.79   22.81
  -5  -3   4  581.84   21.38
   5  -3  -4  574.40   23.71
   5   3  -3  640.61   26.19
   5   3  -3  681.83   22.55
   5   3  -3  654.84   24.90
   5   3  -3  648.47   25.18
  -5   3   3  679.65   24.73
  -5   3   3  718.12   27.10
   5  -3  -3  653.73   28.38
  -5  -3   3  699.50   31.20
  -5  -3   3  671.11   25.10
   5  -3  -3  657.97   26.60
  -5  -3   3  627.08   25.44
   5   3  -2  227.68   10.18
   5   3  -2  221.64    7.32
   5   3  -2  193.90    9.94
   5   3  -2  183.82    9.53
  -5   3   2  220.00    9.39
  -5   3   2  221.11   10.01
   5  -3  -2  191.19   10.62
  -5  -3   2  237.94   10.34
  -5  -3   2  190.55    8.10
   5  -3  -2  196.14   13.77
  -5  -3   2  199.85   10.22
   5   3  -1   27.21    3.67
   5   3  -1   25.95    6.69
  -5   3   1   26.66    3.29
   5  -3  -1   28.80    2.73
   5  -3  -1   29.92    3.88
  -5  -3   1   26.67    3.93
   5  -3  -1   21.48    3.82
   5   3   0  125.15    8.81
   5   3   0  146.43    8.59
  -5   3   0  175.15    9.93
   5  -3   0  141.26    7.00
   5  -3   0  140.67    8.26
  -5  -3   0  133.99    8.38
   5  -3   0  125.73    7.54
   5   3   1   96.47    7.20
   5   3   1   98.65   11.71
   5  -3   1   88.85    5.78
   5  -3   1   94.36    6.50
   5  -3   1  105.50   11.19
  -5  -3  -1  110.52   11.41
   5   3   2  176.13   11.07
   5   3   2  160.14   10.25
   5  -3   2  153.43    9.80
   5  -3   2  169.09   10.57
  -5  -3  -2  161.80   10.60
   5   3   3  249.91   13.69
   5   3   3  231.12   13.20
   5  -3   3  239.01   13.63
   5  -3   3  229.18   13.51
  -5  -3  -3  235.86   13.71
   5   3   4  405.41   24.44
   5   3   4  352.06   18.19
   5  -3   4  335.25   18.36
   5  -3   4  377.30   19.58
  -5  -3  -4  389.30   19.08
   5   3   5  294.94   14.70
   5   3   5  286.76   15.28
  -5   3  -5  289.61   15.49
  -5  -3  -5  299.03   15.16
   5  -3   5  291.37   15.82
   5   3   6   29.70    4.39
  -5   3  -6   25.42    4.55
   5  -3   6   24.80    4.60
  -5  -3  -6   26.40    3.93
   5   3   7   55.62    7.19
  -5   3  -7   56.63    4.82
  -5  -3  -7   37.30    2.97
   5  -3   7   49.51    4.82
   5   4 -12   61.66    8.31
   5  -4 -12   59.46    4.87
   5   4 -11    0.97    2.44
   5   4 -11    5.30    4.22
  -5   4  11    1.95    1.82
   5  -4 -11    3.23    2.18
   5  -4 -11    0.72    1.60
   5   4 -10   12.90    4.56
   5   4 -10    9.42    3.14
  -5   4  10   11.56    3.36
   5  -4 -10   11.60    3.68
   5  -4 -10    6.23    4.62
   5   4  -9  385.62   19.43
   5   4  -9  382.99   22.52
  -5   4   9  373.91   18.76
   5  -4  -9  335.12   18.54
  -5  -4   9  396.75   19.02
   5  -4  -9  368.96   18.10
   5   4  -8  617.05   32.25
   5   4  -8  586.86   27.02
  -5   4   8  590.32   28.43
   5  -4  -8  498.91   25.24
  -5  -4   8  599.07   26.22
   5  -4  -8  615.75   29.91
   5   4  -7  169.93   10.60
   5   4  -7  178.30   19.49
  -5   4   7  168.28   10.70
   5  -4  -7  142.20    9.82
  -5  -4   7  170.49   10.45
   5  -4  -7  183.43   13.31
   5   4  -6   36.17    4.98
   5   4  -6   36.25    6.07
  -5   4   6   31.72    5.04
   5  -4  -6   37.97    7.11
  -5  -4   6   36.73    5.24
   5  -4  -6   41.03    6.82
   5   4  -5   63.44    6.00
  -5   4   5   65.50    6.01
   5  -4  -5   59.67    4.89
  -5  -4   5   61.59    6.30
  -5  -4   5   62.35    7.22
   5  -4  -5   66.63    8.25
   5   4  -4    8.74    2.18
   5  -4  -4   11.18    3.98
   5  -4  -4    5.95    2.12
   5  -4  -4    9.45    2.99
  -5  -4   4    9.64    3.23
  -5  -4   4    9.83    3.26
   5   4  -3  653.39   26.43
   5   4  -3  636.86   26.66
   5  -4  -3  672.33   30.98
   5  -4  -3  652.12   27.08
  -5  -4   3  651.47   34.26
  -5  -4   3  643.36   27.03
   5   4  -2    4.14    1.73
   5   4  -2    4.90    4.44
   5   4  -2    5.96    2.43
   5  -4  -2   34.66    5.25
   5  -4  -2    5.63    2.56
  -5  -4   2    7.24    3.03
  -5  -4   2    4.32    3.50
   5   4  -1  299.13   14.80
   5   4  -1  304.76   14.19
   5  -4  -1  288.54   19.50
   5  -4  -1  305.12   14.23
  -5  -4   1  310.82   15.37
   5   4   0  313.68   16.67
   5   4   0  333.12   15.95
   5  -4   0  333.94   20.38
   5  -4   0  302.86   16.54
   5  -4   0  325.76   20.33
  -5  -4   0  323.75   16.31
   5   4   1  368.51   19.60
   5   4   1  419.42   25.26
   5  -4   1  356.94   20.70
   5  -4   1  400.96   18.45
  -5  -4  -1  377.61   24.64
   5   4   2   88.77    8.26
   5   4   2   84.44    7.45
   5  -4   2   83.16   10.34
   5  -4   2   89.62    7.48
  -5  -4  -2   78.46    7.06
   5   4   3   42.67    6.10
   5   4   3   41.98    5.55
   5  -4   3   44.40    5.42
   5  -4   3   41.14    8.70
  -5  -4  -3   33.92    5.17
   5   4   4  258.50   13.85
   5   4   4  225.52   13.33
   5  -4   4  233.99   13.63
   5  -4   4  208.20   18.17
   5   4   5  359.16   16.40
   5   4   5  326.83   16.42
   5  -4   5  315.36   16.13
  -5  -4  -5  325.16   15.73
   5   4   6  249.97   16.72
  -5   4  -6  251.95   12.24
  -5  -4  -6  219.10   13.11
   5  -4   6  247.90   12.23
   5   5 -11   81.02    9.93
   5  -5 -11   62.78    5.69
   5   5 -10   50.59    6.92
   5  -5 -10   42.21    8.40
  -5  -5  10   52.16    4.66
   5   5  -9    2.04    3.35
  -5   5   9   -0.05    2.19
   5  -5  -9    5.13    2.54
  -5  -5   9    6.52    2.73
   5  -5  -9    2.07    2.62
   5   5  -8  148.41   12.44
  -5   5   8  136.93    9.36
   5  -5  -8  114.63    9.11
  -5  -5   8  144.51    9.54
   5  -5  -8  148.12   11.75
   5   5  -7   25.59    4.23
   5   5  -7   26.36    5.88
  -5   5   7   19.72    4.07
   5  -5  -7   21.03    4.24
  -5  -5   7   28.54    4.75
   5  -5  -7   28.24    6.19
   5   5  -6  404.17   23.46
   5   5  -6  393.96   21.70
  -5   5   6  369.86   17.25
   5  -5  -6  345.02   17.90
  -5  -5   6  387.21   26.26
   5  -5  -6  402.37   24.23
   5   5  -5   40.34    7.39
  -5   5   5   35.58    4.53
   5  -5  -5   36.48   11.67
  -5  -5   5   37.76    5.83
  -5  -5   5   37.40    6.41
   5  -5  -5   26.78    4.24
   5   5  -4   40.18    4.78
   5  -5  -4   42.20    7.44
   5  -5  -4   34.88    4.05
  -5  -5   4   42.72    6.00
  -5  -5   4   46.79    9.34
   5   5  -3  117.28    7.84
   5   5  -3  122.34    7.51
   5  -5  -3  114.32   10.98
   5  -5  -3  116.13   11.34
  -5  -5   3  109.79    9.60
  -5  -5   3  105.89    8.53
   5   5  -2  125.82   12.94
   5   5  -2  128.68    8.34
   5  -5  -2  127.87   10.74
   5  -5  -2  126.17    8.31
  -5  -5   2  130.24    9.91
  -5  -5   2  124.75   11.70
   5   5  -1   49.67    5.28
   5   5  -1   44.95    6.03
   5  -5  -1   54.07    6.56
   5  -5  -1   45.20    5.24
  -5  -5   1   52.52    6.34
   5   5   0  731.59   34.82
   5   5   0  783.87   40.20
   5  -5   0  794.01   35.83
   5  -5   0  773.46   33.39
  -5  -5   0  788.73   35.35
   5   5   1  243.11   15.23
   5   5   1  263.71   13.94
   5  -5   1  253.66   13.21
  -5  -5  -1  249.17   14.00
   5   5   2   30.11    5.69
   5   5   2   29.50    4.90
   5  -5   2   28.02    4.28
   5  -5   2   26.08    7.01
  -5  -5  -2   21.58    7.30
   5   5   3  333.70   17.62
   5   5   3  294.51   15.77
   5  -5   3  303.68   15.34
   5  -5   3  280.56   14.72
  -5  -5  -3  286.56   20.19
   5   5   4  133.73    9.41
   5   5   4  130.38    9.08
   5  -5   4  125.00    8.48
   5  -5   4  108.81    8.02
  -5  -5  -4  122.89    8.05
   5   5   5    6.59    2.59
   5   5   5    8.91    2.76
  -5   5  -5    4.85    2.50
  -5  -5  -5    4.28    1.87
   5  -5   5    5.59    3.88
   5   5   6   67.96    5.20
  -5   5  -6   63.07    4.74
   5  -5   6   63.87    4.56
   5   6 -10   38.69    5.29
   5  -6 -10   31.30    4.14
  -5  -6  10   45.61    3.53
   5   6  -9   37.32    5.92
   5  -6  -9   14.49    6.82
   5  -6  -9   41.42    5.02
  -5  -6   9   37.36    4.70
   5   6  -8    9.77    4.15
   5  -6  -8    4.82    2.98
   5  -6  -8    7.24    3.59
  -5  -6   8   11.07    3.60
   5   6  -7   36.14    6.37
   5  -6  -7   26.10    7.18
   5  -6  -7   36.35   10.91
  -5  -6   7   34.39    5.31
   5   6  -6   73.03    8.49
   5  -6  -6   52.08    5.99
   5  -6  -6   71.24    9.25
  -5  -6   6   67.18    7.45
   5  -6  -5  231.67   12.81
   5  -6  -5  262.89   25.92
  -5  -6   5  271.00   15.70
  -5  -6   5  273.79   17.50
   5   6  -4  147.19    8.74
   5  -6  -4  157.72   13.66
  -5  -6   4  151.09   11.40
  -5  -6   4  146.94   12.12
   5   6  -3  126.71    8.11
   5   6  -3  129.60    8.08
   5  -6  -3  135.19   11.73
  -5  -6   3  132.20   10.56
  -5  -6   3  123.94   10.17
   5   6  -2  814.81   34.61
   5   6  -2  838.83   36.70
   5  -6  -2  739.40   37.89
  -5  -6   2  838.57   38.93
  -5  -6   2  829.19   38.81
   5   6  -1   37.18    4.74
   5   6  -1   33.69    5.39
   5  -6  -1   37.74    5.91
  -5  -6   1   31.65    5.67
   5   6   0  210.94   13.34
   5   6   0  227.89   11.86
   5  -6   0  218.24   11.63
  -5  -6   0  225.09   13.06
   5   6   1  482.89   24.26
   5   6   1  518.98   22.68
   5  -6   1  463.39   21.61
  -5  -6  -1  454.76   22.04
   5   6   2  114.37   14.22
   5   6   2  111.15    7.82
   5  -6   2   96.04    7.27
  -5  -6  -2  101.07    7.68
   5   6   3  380.64   18.55
   5   6   3  343.86   20.48
   5  -6   3  314.55   14.48
   5  -6   3  285.07   18.52
  -5  -6  -3  327.54   15.38
   5   6   4  206.86   10.45
   5   6   4  218.65   11.70
  -5   6  -4  198.20    9.36
   5  -6   4  165.88   12.26
   5   6   5  240.96   10.30
   5   6   5  231.14   10.14
   5   7  -9   35.65    4.44
  -5   7   9   28.42    3.75
  -5  -7   9   39.50    5.85
   5  -7  -9   27.51    3.16
   5   7  -8  133.03   14.16
   5  -7  -8   84.88    6.57
   5  -7  -8  133.45    8.96
  -5  -7   8  137.24    8.63
   5   7  -7  268.71   15.08
   5  -7  -7  190.43   11.13
   5  -7  -7  242.86   14.09
  -5  -7   7  273.20   20.47
   5   7  -6  351.45   18.33
   5  -7  -6  276.75   14.50
   5  -7  -6  307.73   17.71
  -5  -7   6  332.94   17.13
   5  -7  -5   99.10    7.49
   5  -7  -5  121.71   15.27
  -5  -7   5  135.08    9.90
   5  -7  -4   63.29    8.22
  -5  -7   4   65.95    7.55
  -5  -7   4   67.34    8.13
   5  -7  -3  198.72   13.71
  -5  -7   3  215.02   13.50
  -5  -7   3  219.92   20.81
   5   7  -2  268.93   13.46
   5  -7  -2  252.81   15.23
  -5  -7   2  269.63   14.98
  -5  -7   2  250.64   15.05
   5   7  -1   53.84    5.69
  -5  -7   1   51.23    6.09
  -5  -7   1   43.19    5.80
   5   7   0   36.97    5.40
   5   7   0   38.03    6.32
  -5  -7   0   35.27    5.02
   5   7   1   62.28    6.65
   5   7   1   61.90    5.04
  -5  -7  -1   59.69    5.76
   5   7   2    6.63    2.60
   5   7   2    1.15    1.85
  -5  -7  -2    2.37    1.89
   5   7   3  115.99    6.08
   5   7   3  118.17    8.14
   5   8  -7   39.11    4.83
  -5   8   7   38.73    4.89
  -5  -8   7   43.56    7.53
   5   8  -6   37.85    5.12
   5  -8  -6   40.23    5.47
  -5  -8   6   38.16    5.18
   5   8  -5  313.80   15.74
   5  -8  -5  313.99   16.15
  -5  -8   5  305.89   14.83
   5   8  -4   95.96    7.85
   5  -8  -4   96.17   11.89
  -5  -8   4   98.59    7.53
   5  -8  -3  161.75   14.35
  -5  -8   3  177.87   10.20
  -5  -8   3  163.33   11.20
   5  -8  -2  130.13    7.58
  -5  -8   2  137.76    8.35
  -5  -8   2  127.23    9.22
   5   8  -1  214.60    9.57
  -5  -8   1  193.03    9.66
  -5  -8   1  127.52    9.60
   5   8   0   51.98    7.15
  -5  -8   0   47.44    4.27
   5   8   1   75.82    8.62
   6   0 -13    5.61    4.52
   6   0 -13    6.45    2.83
  -6   0  13   12.41    2.74
   6   0 -12    6.94    5.80
   6   0 -12    8.29    3.44
  -6   0  12    7.41    3.40
   6   0 -11  148.99   11.60
   6   0 -11  137.83   10.90
  -6   0  11  144.00   11.17
   6   0 -10  108.18   10.27
   6   0 -10  102.91    9.30
  -6   0  10  118.80   10.68
   6   0  -9  566.33   35.55
   6   0  -9  605.80   30.54
  -6   0   9  572.57   30.82
   6   0  -8  794.23   36.01
   6   0  -8  808.87   37.75
  -6   0   8  788.12   37.13
   6   0  -7   31.23    4.19
   6   0  -7   27.72    5.02
   6   0  -7   24.62    5.51
  -6   0   7   28.66    4.99
   6   0  -6  111.49    6.72
   6   0  -6   90.77    5.91
   6   0  -6  108.60    7.59
   6   0  -6  111.56    7.45
  -6   0   6  107.13    5.87
  -6   0   6  120.37   11.88
   6   0  -5 1113.15   50.62
   6   0  -5 1155.59   53.34
  -6   0   5 1083.81   42.61
  -6   0   5 1221.36   45.93
  -6   0   5 1200.82   44.44
   6   0  -4  342.46   18.44
   6   0  -4  331.42   13.84
   6   0  -4  324.19   14.35
  -6   0   4  319.28   11.61
  -6   0   4  338.35   11.17
  -6   0   4  325.85   13.66
  -6   0   4  336.20   12.41
   6   0  -3 3053.93  146.19
   6   0  -3 3144.57  152.33
   6   0  -3 3181.03  147.16
  -6   0   3 3114.36  138.59
  -6   0   3 3227.11  148.61
  -6   0   3 3033.26  133.78
  -6   0   3 3176.81  141.11
   6   0  -2  341.15   15.53
   6   0  -2  351.54   12.66
   6   0  -2  341.34   14.08
   6   0  -2  340.89   13.62
  -6   0   2  352.57   15.56
  -6   0   2  334.74   12.60
  -6   0   2  347.33   13.22
   6   0  -1   31.70    2.95
   6   0  -1   30.24    3.41
   6   0  -1   24.46    3.01
   6   0  -1   29.37    6.60
  -6   0   1   30.27    3.18
  -6   0   1   23.66    3.28
   6   0   0  232.11   16.66
   6   0   0  289.32   11.13
   6   0   0  292.86   12.48
   6   0   0  262.37   11.01
  -6   0   0  251.03   16.14
   6   0   1  661.05   26.63
   6   0   1  623.45   24.36
   6   0   1  588.99   25.51
  -6   0  -1  588.00   26.02
   6   0   2  342.13   16.22
   6   0   2  333.50   15.01
   6   0   2  368.98   16.96
  -6   0  -2  348.52   18.02
   6   0   3  179.30    9.83
   6   0   3  202.80   11.40
  -6   0  -3  206.83   12.60
   6   0   4 1926.19   90.44
  -6   0  -4 2002.04  104.46
   6   0   5  225.75   16.72
  -6   0  -5  228.64   13.18
   6   0   6  331.71   14.65
  -6   0  -6  326.56   15.35
  -6   0  -7    6.15    2.15
   6   1 -13  154.35    8.16
   6   1 -13  143.63    8.22
  -6   1  13  141.02    8.05
   6  -1 -13  150.20   11.93
  -6  -1  13  146.81    7.45
   6  -1 -13  146.11    8.19
   6   1 -12  162.30   10.85
   6   1 -12  142.39   10.11
  -6   1  12  144.28   15.20
   6  -1 -12  148.49    9.94
  -6  -1  12  150.37    9.49
   6  -1 -12  140.91    9.95
   6   1 -11    9.32    4.21
   6   1 -11    8.53    3.91
  -6   1  11    8.94    4.11
   6  -1 -11   13.95    4.10
  -6  -1  11    8.73    3.84
   6  -1 -11    8.41    3.73
   6   1 -10  440.06   23.53
   6   1 -10  469.96   25.23
  -6   1  10  420.38   24.04
   6  -1 -10  437.38   22.50
  -6  -1  10  432.51   29.31
   6  -1 -10  453.72   23.39
   6   1  -9 1212.38   68.58
   6   1  -9 1192.44   56.21
  -6   1   9 1205.45   59.76
   6  -1  -9 1340.63   71.07
  -6  -1   9 1153.50   54.45
   6  -1  -9 1142.67   53.93
   6   1  -8  212.16   12.76
   6   1  -8  192.60   13.25
  -6   1   8  201.68   13.75
   6  -1  -8  214.06   13.57
  -6  -1   8  201.13   13.65
   6  -1  -8  191.41   11.63
   6   1  -7   35.05    4.75
   6   1  -7   29.48    5.38
  -6   1   7   38.07    5.67
   6  -1  -7   35.18    4.23
   6  -1  -7   28.29    4.93
  -6  -1   7   34.22    4.79
   6  -1  -7   25.86    4.01
   6   1  -6  272.99   12.74
   6   1  -6  304.54   14.83
   6   1  -6  296.22   11.03
   6   1  -6  303.41   12.32
  -6   1   6  303.72   15.32
   6  -1  -6  269.32   11.63
   6  -1  -6  291.72   13.53
   6  -1  -6  297.61   13.56
  -6  -1   6  289.36   13.42
  -6  -1   6  254.39   14.20
   6  -1  -6  270.57   10.75
   6   1  -5 1419.37   64.45
   6   1  -5 1648.95   61.79
   6   1  -5 1610.03   66.07
   6   1  -5 1621.08   69.44
  -6   1   5 1688.68   63.93
   6  -1  -5 1565.68   64.70
   6  -1  -5 1553.10   67.56
   6  -1  -5 1626.68   70.74
  -6  -1   5 1620.58   66.82
  -6  -1   5 1649.03   63.44
  -6  -1   5 1417.25   63.39
  -6  -1   5 1561.14   60.55
   6   1  -4  488.98   20.06
   6   1  -4  521.49   21.51
   6   1  -4  523.93   20.00
  -6   1   4  505.15   19.85
  -6   1   4  486.64   16.24
  -6   1   4  532.13   19.82
   6  -1  -4  513.06   22.44
  -6  -1   4  530.55   18.04
  -6  -1   4  507.51   25.39
  -6  -1   4  491.41   18.24
  -6  -1   4  502.87   18.13
   6  -1  -4  528.63   23.86
   6  -1  -4  567.21   22.82
   6   1  -3 1579.60   67.80
   6   1  -3 1691.34   67.76
   6   1  -3 1557.11   65.85
  -6   1   3 1706.81   67.71
  -6   1   3 1589.09   59.42
  -6   1   3 1617.19   61.50
  -6   1   3 1637.41   67.19
  -6  -1   3 1681.38   63.78
  -6  -1   3 1749.07   72.50
  -6  -1   3 1666.99   65.37
  -6  -1   3 1620.64   65.13
   6  -1  -3 1650.24   70.00
   6  -1  -3 1704.02   67.95
   6  -1  -3 1590.89   69.32
   6   1  -2  295.51   11.89
  -6   1   2  260.22    9.81
   6   1  -2  257.86   12.77
   6   1  -2  244.89   11.11
   6   1  -2  290.22   11.29
  -6   1   2  278.82   12.40
  -6   1   2  287.47   11.67
   6  -1  -2  255.88   12.99
   6  -1  -2  254.89   11.88
  -6  -1   2  301.84   14.08
  -6  -1   2  253.65   11.15
   6  -1  -2  268.62   10.41
  -6  -1   2  288.26    9.99
   6  -1  -2  289.55    9.75
   6   1  -1   37.84    4.03
   6   1  -1   41.28    4.02
   6   1  -1   38.24    4.91
   6   1  -1   40.44    3.12
  -6   1   1   37.06    3.61
   6  -1  -1   38.05    4.36
   6  -1  -1   42.38    2.81
   6  -1  -1   38.74    3.10
  -6  -1   1   41.84    4.81
  -6  -1   1   34.40    4.23
   6  -1  -1   28.73    4.60
   6   1   0   19.21    6.51
   6   1   0   26.34    3.46
   6   1   0   24.02    4.62
  -6   1   0   21.23    3.47
   6  -1   0   15.68    3.63
   6  -1   0   24.23    3.79
  -6  -1   0   19.88    3.78
  -6  -1   0   28.05    3.00
   6   1   1   26.82    4.83
   6   1   1   32.93    3.71
  -6   1  -1   32.31    7.17
   6   1   1   36.72    4.31
   6  -1   1   32.01    4.65
  -6  -1  -1   28.24    4.89
   6  -1   1   34.78    4.14
   6   1   2   85.39    7.19
   6   1   2   92.01    6.14
  -6   1  -2   79.27   11.53
   6   1   2   87.76    6.60
   6  -1   2   78.60    6.09
  -6  -1  -2   79.63    7.47
   6  -1   2   87.83    7.41
   6   1   3   43.26    7.38
   6   1   3   41.99    4.93
   6   1   3   44.58    5.16
  -6   1  -3   43.76    6.00
   6  -1   3   41.18    5.72
  -6  -1  -3   43.20    5.90
   6   1   4   89.50    7.02
   6   1   4   89.82    6.84
  -6   1  -4  102.17    8.69
   6  -1   4  100.72    8.03
  -6  -1  -4   93.95    8.43
   6   1   5  128.11    8.19
  -6   1  -5  139.29    9.77
   6  -1   5  127.52    8.95
  -6  -1  -5  131.33   13.51
   6   1   6  105.51    6.38
  -6   1  -6  118.44    8.01
  -6  -1  -6  122.05    7.98
   6  -1   6  123.38    7.48
   6   2 -12  137.39    9.02
   6   2 -12  129.59    9.02
  -6   2  12  128.67   13.58
   6  -2 -12  131.36   12.15
  -6  -2  12  129.99    7.83
   6  -2 -12  133.44    8.48
   6   2 -11  620.58   29.28
   6   2 -11  640.53   30.67
  -6   2  11  618.67   37.86
   6  -2 -11  630.85   29.60
  -6  -2  11  633.86   28.23
   6  -2 -11  647.18   28.96
   6   2 -10  204.80   14.27
   6   2 -10  203.43   19.85
  -6   2  10  192.47   13.94
   6  -2 -10  190.05   12.70
  -6  -2  10  198.26   11.87
   6  -2 -10  199.89   12.63
   6   2  -9  705.47   34.33
   6   2  -9  654.63   32.68
  -6   2   9  697.92   35.85
   6  -2  -9  678.96   31.17
  -6  -2   9  693.02   37.25
   6  -2  -9  631.70   30.67
   6   2  -8  392.21   20.88
   6   2  -8  408.84   27.59
  -6   2   8  389.44   21.68
   6  -2  -8  346.93   18.03
   6  -2  -8  449.37   21.20
  -6  -2   8  395.35   19.13
   6  -2  -8  412.11   19.51
   6   2  -7  154.80   16.85
   6   2  -7  161.66   10.80
  -6   2   7  162.21   11.78
   6  -2  -7  133.95    8.70
   6  -2  -7  167.45   10.79
  -6  -2   7  160.23    9.87
   6  -2  -7  160.69    9.99
   6   2  -6  243.68   13.42
   6   2  -6  214.33    9.02
   6   2  -6  220.78   11.43
  -6   2   6  224.30   12.93
   6  -2  -6  223.29   12.10
   6  -2  -6  215.99   10.52
  -6  -2   6  219.59    9.27
  -6  -2   6  184.15    9.26
   6  -2  -6  200.78    9.71
   6   2  -5  524.85   23.18
   6   2  -5  518.02   20.29
   6   2  -5  503.57   19.34
   6   2  -5  487.10   20.30
  -6   2   5  504.35   16.70
   6  -2  -5  479.81   18.64
   6  -2  -5  491.38   22.17
  -6  -2   5  498.97   18.88
  -6  -2   5  505.08   19.12
  -6  -2   5  521.08   19.79
   6  -2  -5  523.64   23.88
   6   2  -4  591.67   25.24
   6   2  -4  579.35   22.98
  -6   2   4  565.62   18.14
   6  -2  -4  576.03   25.81
   6  -2  -4  602.52   21.92
  -6  -2   4  585.73   22.63
  -6  -2   4  645.69   23.10
  -6  -2   4  584.04   21.18
   6  -2  -4  589.91   25.38
   6   2  -3   37.90    6.96
   6   2  -3   38.02    4.60
   6  -2  -3   40.40    4.76
   6  -2  -3   39.75    5.23
  -6  -2   3   38.22    3.98
   6   2  -2   86.49    6.93
   6   2  -2   81.99    6.05
   6  -2  -2   83.62    6.51
   6  -2  -2   91.25    7.17
  -6  -2   2   84.77    5.94
   6   2  -1  284.87   14.65
   6   2  -1  295.24   18.03
  -6   2   1  295.72   11.55
   6  -2  -1  304.94   14.50
  -6  -2   1  295.93   18.22
   6  -2  -1  295.10   14.30
   6   2   0 1575.28   72.20
  -6   2   0 1655.77   69.83
   6   2   0 1771.59   76.94
   6  -2   0 1779.22   78.14
  -6  -2   0 1769.86   77.85
   6  -2   0 1605.76   72.33
   6   2   1   14.31    3.95
   6   2   1   16.30    3.76
  -6   2  -1   10.45    3.27
   6  -2   1   17.40    3.96
  -6  -2  -1   17.65    4.13
   6  -2   1   12.31    3.26
   6   2   2   56.98    6.24
   6   2   2   54.59    5.83
  -6   2  -2   52.78    5.88
  -6  -2  -2   55.01    6.55
   6  -2   2   56.97   10.05
   6   2   3  361.44   17.60
   6   2   3  310.40   15.91
  -6   2  -3  326.25   16.84
  -6  -2  -3  357.32   18.26
   6  -2   3  315.99   17.05
   6   2   4  125.58    8.62
   6   2   4  128.28    8.81
  -6   2  -4  131.81   14.11
   6  -2   4  126.71    9.85
  -6  -2  -4  145.56   10.18
   6   2   5   37.35    4.78
  -6   2  -5   33.81    5.52
  -6  -2  -5   42.46    5.36
   6  -2   5   37.39    5.30
   6   2   6  170.88    8.56
  -6   2  -6  175.53   14.01
  -6  -2  -6  163.33    9.04
   6  -2   6  167.12    9.21
   6   3 -12   13.29    4.59
   6   3 -12   12.43    3.60
  -6   3  12   14.25    3.20
   6  -3 -12   12.69    5.16
   6  -3 -12   21.19    2.76
   6   3 -11   89.65    7.41
   6   3 -11   94.44    8.51
  -6   3  11   88.20    7.77
   6  -3 -11   87.77    7.22
   6  -3 -11   95.92    6.88
   6   3 -10  164.88   12.50
   6   3 -10  183.86   12.03
  -6   3  10  162.28   11.54
   6  -3 -10  144.64   10.23
   6  -3 -10  157.84    9.89
   6   3  -9  287.52   16.82
   6   3  -9  297.20   25.19
  -6   3   9  306.20   18.50
   6  -3  -9  288.41   15.04
   6  -3  -9  325.72   22.70
   6  -3  -9  273.06   20.91
   6   3  -8   53.85    6.85
   6   3  -8   50.81    7.28
  -6   3   8   51.75    7.17
   6  -3  -8   52.67    5.44
   6  -3  -8   60.67   10.76
   6  -3  -8   41.84    8.86
   6   3  -7  468.74   23.62
  -6   3   7  430.78   22.16
   6  -3  -7  475.26   24.22
   6  -3  -7  384.71   18.25
   6   3  -6   67.37    7.23
   6   3  -6   66.45    6.74
  -6   3   6   66.61    7.16
   6  -3  -6   61.00    7.75
  -6  -3   6   64.67    5.47
   6  -3  -6   62.92    5.00
   6   3  -5  799.21   35.07
   6   3  -5  778.40   38.83
   6   3  -5  877.27   38.32
   6  -3  -5  815.09   37.92
   6  -3  -5  871.42   38.33
  -6  -3   5  821.73   33.68
   6   3  -4  185.40    9.44
   6   3  -4  188.07   11.20
   6  -3  -4  187.36   12.22
   6  -3  -4  188.87   11.36
  -6  -3   4  180.36    9.88
   6   3  -3  238.30   11.89
   6   3  -3  237.47   12.67
   6  -3  -3  236.40   18.60
   6  -3  -3  244.81   12.76
  -6  -3   3  240.45   12.21
   6   3  -2   74.35    6.85
   6   3  -2   78.99    6.65
   6  -3  -2   87.70    7.23
   6  -3  -2   79.25    6.98
  -6  -3   2   77.48    6.80
   6   3  -1  259.49   13.20
   6   3  -1  281.34   14.82
   6  -3  -1  239.35   13.02
   6  -3  -1  266.12   13.61
  -6  -3   1  255.96   13.50
   6   3   0  162.40   11.37
   6   3   0  171.56   10.58
  -6   3   0  163.01    8.20
   6  -3   0  169.92    9.80
  -6  -3   0  168.94   10.75
   6  -3   0  178.47   15.59
   6   3   1  133.91   15.05
   6   3   1  138.17    9.50
  -6   3  -1  128.17    7.93
  -6  -3  -1  123.54    9.51
   6  -3   1  138.08    9.72
   6   3   2  219.82   13.03
   6   3   2  231.87   13.28
  -6   3  -2  207.10   11.60
   6  -3   2  207.85   12.87
  -6  -3  -2  212.26   12.90
   6   3   3  161.03   10.17
   6   3   3  141.32   14.62
  -6   3  -3  144.35    9.62
  -6  -3  -3  149.52   10.25
   6  -3   3  139.66   10.26
   6   3   4   47.90    5.40
   6   3   4   53.55    9.31
  -6   3  -4   45.94    5.63
  -6  -3  -4   50.64    5.85
   6  -3   4   42.32    5.98
   6   3   5   76.84    6.58
  -6   3  -5   78.90    6.71
   6  -3   5   72.25    6.70
  -6  -3  -5   75.79    6.20
   6   3   6   11.72    3.00
  -6   3  -6   23.59    3.31
  -6  -3  -6   20.22    2.67
   6  -3   6   11.28    3.26
   6   4 -11   67.50    5.12
   6   4 -11   67.93    6.78
  -6   4  11   59.73    5.35
   6  -4 -11   63.58    5.58
   6   4 -10  146.95   11.33
   6   4 -10  142.18    8.93
  -6   4  10  147.56    9.59
   6  -4 -10  127.00    8.76
   6   4  -9  425.83   21.07
   6   4  -9  425.79   22.94
  -6   4   9  416.91   21.70
   6  -4  -9  331.00   22.90
  -6  -4   9  424.88   19.69
   6  -4  -9  435.01   21.78
   6   4  -8   35.22    5.67
   6   4  -8   38.05   10.17
  -6   4   8   40.75    5.76
   6  -4  -8   34.18    4.77
  -6  -4   8   34.28    4.76
   6  -4  -8   38.97    6.77
   6   4  -7  937.03   42.18
   6   4  -7  919.91   43.72
  -6   4   7  866.46   39.51
   6  -4  -7  931.16   45.67
  -6  -4   7  963.80   41.05
   6  -4  -7  779.10   35.80
   6   4  -6  570.34   26.80
   6   4  -6  540.21   33.29
  -6   4   6  550.47   25.85
  -6  -4   6  572.53   25.86
   6  -4  -6  593.39   31.39
   6   4  -5    2.50    2.55
   6   4  -5    4.49    2.80
  -6   4   5    0.38    2.80
  -6  -4   5    4.08    2.68
   6  -4  -5    5.35    3.62
   6   4  -4  779.46   32.42
   6   4  -4  820.55   36.36
   6  -4  -4  841.62   40.99
   6  -4  -4  847.73   37.70
  -6  -4   4  810.57   35.98
   6   4  -3  692.40   29.91
   6   4  -3  692.65   30.79
   6  -4  -3  701.10   34.73
   6  -4  -3  710.65   31.93
  -6  -4   3  703.08   31.74
   6   4  -2  946.46   42.10
   6   4  -2  962.63   49.61
   6  -4  -2  890.66   42.20
   6  -4  -2  962.49   42.32
  -6  -4   2  956.07   42.99
   6   4  -1  354.08   18.61
   6   4  -1  368.24   17.79
   6  -4  -1  346.96   18.06
   6  -4  -1  367.27   23.37
  -6  -4   1  372.94   18.74
   6   4   0  150.85   11.33
   6   4   0  158.77   15.03
   6  -4   0  150.45   10.17
   6  -4   0  161.91   10.54
  -6  -4   0  163.79   10.98
   6   4   1  185.16   12.61
   6   4   1  191.75   11.88
  -6   4  -1  168.31    9.28
  -6  -4  -1  184.25   11.84
   6  -4   1  195.45   11.80
   6   4   2    6.09    3.35
   6   4   2    6.47    3.17
  -6   4  -2    0.02    2.53
  -6  -4  -2    5.67    3.05
   6  -4   2    7.90    3.04
   6   4   3  641.50   28.87
   6   4   3  584.00   27.58
  -6   4  -3  590.52   25.71
  -6  -4  -3  624.38   27.70
   6  -4   3  567.43   26.69
   6   4   4  455.68   25.29
   6   4   4  420.86   20.02
  -6   4  -4  413.45   18.37
  -6  -4  -4  420.84   18.96
   6  -4   4  389.71   19.05
   6   4   5  133.00    9.66
   6   4   5  157.99    9.08
  -6   4  -5  158.13    8.45
  -6  -4  -5  151.26   11.17
   6  -4   5  149.98   12.66
   6   5 -11  111.16    7.12
   6  -5 -11   81.39    5.57
   6   5 -10  291.02   15.51
  -6   5  10  251.73   11.18
   6  -5 -10  235.02   12.13
  -6  -5  10  270.56   11.50
   6  -5 -10  283.52   12.64
   6   5  -9  476.88   20.93
   6   5  -9  488.81   24.09
  -6   5   9  449.59   20.21
   6  -5  -9  387.13   19.98
  -6  -5   9  515.93   22.38
   6  -5  -9  460.59   21.05
   6   5  -8  208.85   11.86
   6   5  -8  236.87   14.79
  -6   5   8  227.41   12.84
   6  -5  -8  164.31   11.11
  -6  -5   8  211.52   11.64
   6  -5  -8  221.83   14.36
   6   5  -7  404.05   19.10
   6   5  -7  394.46   21.65
  -6   5   7  377.07   18.03
   6  -5  -7  318.62   16.87
  -6  -5   7  413.80   19.49
   6  -5  -7  434.30   24.63
   6   5  -6   91.37    7.66
   6   5  -6   88.92    8.56
  -6   5   6   91.17    7.42
  -6  -5   6   83.34    8.29
   6  -5  -6   88.21   11.03
   6   5  -5  370.14   18.99
   6   5  -5  372.78   18.45
  -6   5   5  370.69   17.96
  -6  -5   5  376.04   26.09
   6  -5  -5  386.78   23.39
   6   5  -4  118.80    7.69
   6   5  -4  129.86   13.16
   6  -5  -4  129.71   12.14
   6  -5  -4  127.17    8.96
  -6  -5   4  124.79    9.99
  -6  -5   4  111.74    9.26
   6   5  -3  101.99    7.67
   6   5  -3  107.78    8.19
   6  -5  -3  102.90   10.66
   6  -5  -3   97.58    7.80
  -6  -5   3  102.91    9.20
   6   5  -2  409.12   20.49
   6   5  -2  437.12   20.38
   6  -5  -2  412.69   22.53
   6  -5  -2  428.57   20.30
  -6  -5   2  437.61   22.04
   6   5  -1  276.48   15.74
   6   5  -1  280.09   19.93
   6  -5  -1  287.49   16.83
   6  -5  -1  281.52   14.83
  -6  -5   1  302.11   16.42
   6   5   0  370.04   20.74
   6   5   0  413.47   19.73
   6  -5   0  406.54   19.62
  -6  -5   0  406.21   20.50
   6   5   1  171.13   12.32
   6   5   1  181.80   11.25
   6  -5   1  173.99   10.55
  -6  -5  -1  170.82   11.41
   6   5   2   32.89    5.55
   6   5   2   24.37    7.62
  -6   5  -2   21.89    3.66
  -6  -5  -2   31.67    4.69
   6  -5   2   31.03    4.44
   6   5   3  341.51   16.40
   6   5   3  308.92   20.78
  -6   5  -3  288.61   13.25
  -6  -5  -3  307.73   14.85
   6  -5   3  273.69   14.17
   6   5   4   47.96    7.45
   6   5   4   51.16    5.15
  -6   5  -4   49.41    6.23
  -6  -5  -4   45.78    4.39
   6  -5   4   41.98    4.68
   6   5   5    4.61    2.06
   6  -5   5    3.79    2.96
   6   6 -10    2.21    1.67
   6  -6 -10   -0.24    0.98
   6   6  -9    6.12    2.78
   6  -6  -9    2.34    1.93
   6  -6  -9    3.38    4.18
  -6  -6   9    4.72    3.49
   6   6  -8  266.33   20.89
   6  -6  -8  226.56   13.63
  -6  -6   8  238.96   17.03
   6   6  -7   88.27    8.26
   6  -6  -7   63.26    5.76
   6  -6  -7   97.12    9.50
  -6  -6   7   93.28    7.40
   6   6  -6   94.10    7.07
   6   6  -6   99.10    8.95
   6  -6  -6   90.70   10.38
  -6  -6   6   96.57    8.69
   6   6  -5  202.15   11.13
   6   6  -5  190.04   12.53
   6  -6  -5  196.34   15.79
  -6  -6   5  205.14   13.03
   6   6  -4   83.48    6.61
  -6   6   4   72.57    5.99
   6  -6  -4   78.25    9.54
  -6  -6   4   63.34    7.54
  -6  -6   4   76.32   12.58
   6   6  -3   70.39    6.09
   6   6  -3   71.71    6.35
   6  -6  -3   63.29    8.63
   6  -6  -3   61.01    5.97
  -6  -6   3   70.26    7.84
   6   6  -2  407.40   25.15
   6   6  -2  408.52   18.79
   6  -6  -2  384.02   21.43
   6  -6  -2  363.43   17.90
  -6  -6   2  400.11   20.93
   6   6  -1  336.78   17.39
   6   6  -1  353.55   16.57
   6  -6  -1  332.06   17.91
   6  -6  -1  319.37   16.23
  -6  -6   1  342.56   18.08
   6   6   0  476.25   23.41
   6   6   0  529.30   22.93
   6  -6   0  470.67   22.12
  -6  -6   0  498.40   23.61
   6   6   1  218.93   13.37
   6   6   1  222.16   16.07
   6  -6   1  213.42   11.52
  -6  -6  -1  214.49   11.95
   6   6   2  271.91   14.06
   6   6   2  259.95   12.35
   6  -6   2  226.82   11.66
  -6  -6  -2  251.46   12.36
   6   6   3   14.97    3.37
   6   6   3    9.94    2.82
   6  -6   3    7.84    2.54
  -6  -6  -3   13.78    2.48
   6   6   4   76.25    5.06
   6   7  -8  285.64   13.62
   6  -7  -8  301.27   15.04
  -6  -7   8  299.24   13.63
   6   7  -7  403.23   18.58
   6  -7  -7  351.09   18.06
  -6  -7   7  372.34   17.05
   6   7  -6  187.85   11.44
   6  -7  -6  171.35   11.83
  -6  -7   6  185.63   11.16
   6   7  -5   95.74    7.70
   6  -7  -5  100.36    9.58
  -6  -7   5   95.78    8.34
   6   7  -4   54.61    5.68
   6  -7  -4   56.86    7.17
  -6  -7   4   57.47    6.67
   6  -7  -3   31.31    5.27
  -6  -7   3   31.64    5.39
   6   7  -2   29.12    4.28
   6   7  -2   28.67    3.69
   6  -7  -2   31.53    4.76
  -6  -7   2   35.24    5.15
   6   7  -1  103.62    7.39
   6   7  -1  102.41    6.34
  -6  -7   1  103.93    7.97
   6   7   0   32.76    4.60
   6   7   0   34.17    3.74
  -6  -7   0   29.53    4.36
   6   7   1   13.25    3.24
   6   7   1    6.64    2.43
  -6  -7  -1   12.84    2.67
   6   7   2  121.89    7.61
   6   7   2  126.61    8.29
   6  -8  -6    4.87    2.58
   6   8  -5   30.72    3.12
   6  -8  -5   32.81    4.60
  -6  -8   5   38.91    4.26
   6  -8  -4   15.45    3.17
  -6  -8   4   14.45    5.31
   6  -8  -3   98.62    5.96
  -6  -8   3  102.02    6.95
  -6  -8   2   61.08    5.15
   6   8  -1  158.30    6.95
  -6  -8   1  150.38    7.49
   7   0 -12  228.36   13.07
   7   0 -12  206.80   11.67
  -7   0  12  224.57   17.18
   7   0 -11  276.13   15.83
   7   0 -11  254.84   14.20
  -7   0  11  265.05   21.36
   7   0 -10  495.47   33.52
   7   0 -10  435.65   22.12
  -7   0  10  454.14   24.23
   7   0  -9 1873.47   91.12
   7   0  -9 2097.16  101.75
  -7   0   9 2082.53  102.74
   7   0  -8   35.80    6.13
   7   0  -8   34.93    4.68
  -7   0   8   38.70    6.13
   7   0  -7    3.17    2.94
   7   0  -7    2.33    2.29
  -7   0   7    5.04    3.11
   7   0  -6   18.52    3.61
   7   0  -6    0.03    3.46
  -7   0   6   15.54    3.72
   7   0  -5  158.03   14.44
   7   0  -5  151.16    9.45
   7   0  -5  147.42   12.86
   7   0  -4    2.09    3.31
   7   0  -4    2.04    2.36
   7   0  -4    1.48    2.00
   7   0  -3  407.90   17.60
   7   0  -3  398.12   25.53
   7   0  -3  396.32   16.60
  -7   0   3  372.71   14.39
   7   0  -2   27.63    4.12
   7   0  -2   27.72    4.84
   7   0  -2   29.06    3.58
  -7   0   2   23.42    3.40
   7   0  -1   12.35    2.81
   7   0  -1    8.60    3.50
   7   0  -1    8.55    2.55
  -7   0   1   -0.03    4.32
   7   0   0   67.25    7.11
   7   0   0   78.93    6.22
   7   0   0   74.23    5.45
  -7   0   0   71.36    6.38
   7   0   1  522.57   24.19
   7   0   1  524.01   21.81
   7   0   1  554.20   29.20
  -7   0  -1  505.72   23.59
   7   0   2  344.21   16.63
   7   0   2  349.17   16.99
  -7   0  -2  324.48   17.35
   7   0   3  134.04    8.77
  -7   0  -3  136.28    9.81
   7   0   4  814.57   39.68
  -7   0  -4  805.08   35.53
   7   0   5   49.40    4.13
  -7   0  -5   55.60    5.52
   7   1 -12  183.92   11.17
   7   1 -12  164.39    9.98
  -7   1  12  165.74   10.99
   7  -1 -12  186.40   10.49
  -7  -1  12  175.21    9.71
   7  -1 -12  166.56    9.78
   7   1 -11  318.28   17.73
   7   1 -11  306.50   16.17
  -7   1  11  331.77   18.69
   7  -1 -11  351.00   17.88
  -7  -1  11  319.01   16.27
   7  -1 -11  313.11   21.32
   7   1 -10  397.42   21.98
   7   1 -10  366.80   19.44
  -7   1  10  393.57   23.16
   7  -1 -10  412.31   20.67
  -7  -1  10  394.39   20.30
   7  -1 -10  365.67   19.27
   7   1  -9  180.50   13.07
   7   1  -9  180.92   11.78
  -7   1   9  195.18   22.15
   7  -1  -9  195.78   13.14
  -7  -1   9  176.86   12.83
   7  -1  -9  154.73   10.66
   7   1  -8  446.56   22.80
   7   1  -8  405.99   20.25
  -7   1   8  449.10   23.31
   7  -1  -8  350.48   17.88
   7  -1  -8  490.47   21.76
  -7  -1   8  461.36   22.86
   7  -1  -8  459.45   29.44
   7   1  -7   32.56    4.20
   7   1  -7   35.64    5.92
  -7   1   7   34.06    6.10
   7  -1  -7   37.35    5.22
  -7  -1   7   34.82    5.12
   7  -1  -7   34.12    5.17
   7   1  -6  390.24   19.59
   7   1  -6  388.53   17.25
  -7   1   6  383.39   19.60
   7  -1  -6  371.67   17.36
  -7  -1   6  375.80   17.94
   7  -1  -6  373.05   18.65
   7   1  -5 1215.86   53.34
   7   1  -5 1133.23   49.31
   7  -1  -5 1146.09   47.96
   7  -1  -5 1203.92   53.55
   7  -1  -5 1180.24   53.04
  -7  -1   5 1255.85   51.69
   7   1  -4  192.45   11.46
   7   1  -4  202.32    9.70
   7   1  -4  214.42   11.55
   7  -1  -4  201.90   12.92
   7  -1  -4  208.45   11.55
   7  -1  -4  209.49   12.77
  -7  -1   4  194.01    8.72
   7   1  -3  287.31   15.60
   7   1  -3  313.80   13.01
   7   1  -3  308.80   19.21
   7  -1  -3  321.94   15.42
   7  -1  -3  303.78   16.01
   7  -1  -3  304.84   12.43
  -7  -1   3  293.22   12.50
   7   1  -2  304.38   21.79
   7   1  -2  321.75   16.55
   7   1  -2  307.57   14.56
  -7   1   2  302.92   15.61
   7  -1  -2  320.94   15.48
  -7  -1   2  311.98   13.81
   7  -1  -2  294.88   15.93
   7   1  -1  697.07   27.37
   7   1  -1  642.81   26.96
  -7   1   1  641.17   25.55
   7   1  -1  626.78   29.41
   7  -1  -1  592.52   27.93
  -7  -1   1  673.00   28.53
   7  -1  -1  675.07   29.03
   7   1   0  196.87    9.37
   7   1   0  182.15   11.83
  -7   1   0  193.53   10.30
   7   1   0  193.06   10.34
   7  -1   0  213.56   11.86
  -7  -1   0  203.51   11.72
   7  -1   0  176.23   11.01
   7   1   1  191.49   16.74
   7   1   1  196.11    9.84
   7   1   1  200.73   15.04
  -7   1  -1  186.15   11.47
   7  -1   1  195.11   11.56
  -7  -1  -1  194.11   12.11
   7  -1   1  190.86   11.22
   7   1   2   55.28    5.58
   7   1   2   54.91    6.23
  -7   1  -2   58.20    6.49
   7  -1   2   51.75    6.13
  -7  -1  -2   57.54    6.81
   7   1   3  255.97   13.04
   7   1   3  273.94   18.32
  -7   1  -3  276.99   14.60
   7  -1   3  257.86   13.91
  -7  -1  -3  278.87   15.53
   7   1   4    0.97    1.50
  -7   1  -4    2.13    1.98
  -7  -1  -4    0.47    2.10
   7  -1   4   -1.06    1.77
   7   1   5  124.74    6.33
  -7   1  -5  165.12    9.09
   7  -1   5  167.89    8.28
  -7  -1  -5  181.98    9.52
   7   2 -12   85.19    6.79
   7   2 -12   79.26    6.22
  -7   2  12   77.60    6.99
   7  -2 -12   74.41    5.55
  -7  -2  12   71.62    4.86
   7  -2 -12   82.83    8.69
   7   2 -11  131.44   10.00
   7   2 -11  126.58    8.96
  -7   2  11  126.65   10.55
   7  -2 -11  130.65    8.49
  -7  -2  11  131.98    8.09
   7  -2 -11  121.67   12.26
   7   2 -10  193.49   13.25
   7   2 -10  169.57   11.38
  -7   2  10  171.97   13.74
   7  -2 -10  158.82   10.71
  -7  -2  10  163.52   10.07
   7  -2 -10  182.13   11.32
   7   2  -9  533.81   27.53
   7   2  -9  591.41   34.99
  -7   2   9  520.93   27.56
   7  -2  -9  592.42   26.48
  -7  -2   9  570.04   25.79
   7  -2  -9  483.15   23.67
   7   2  -8   58.68    7.64
   7   2  -8   57.08    6.54
  -7   2   8   59.44   12.48
   7  -2  -8   61.40   10.09
  -7  -2   8   55.08    9.32
   7  -2  -8   59.89    6.87
   7   2  -7   83.86    8.42
  -7   2   7   78.09    8.93
   7  -2  -7   79.68   12.53
   7  -2  -7   85.35    7.07
   7   2  -6   98.80   13.39
   7   2  -6   86.35    6.00
  -7   2   6   92.28    8.84
   7  -2  -6   79.46    6.19
  -7  -2   6   79.77    5.41
   7  -2  -6   82.10    8.30
   7   2  -5  254.23   15.00
   7   2  -5  260.06   12.88
   7  -2  -5  260.97   15.34
   7  -2  -5  267.14   15.77
  -7  -2   5  253.76   11.33
   7   2  -4  246.85   12.95
   7   2  -4  254.30   13.90
   7  -2  -4  250.39   14.92
   7  -2  -4  268.53   14.88
  -7  -2   4  249.04   11.86
   7   2  -3  611.32   27.77
   7   2  -3  641.11   28.31
   7  -2  -3  649.15   29.65
   7  -2  -3  639.46   30.39
  -7  -2   3  634.08   26.67
   7   2  -2  779.46   35.78
   7   2  -2  800.20   34.83
   7  -2  -2  827.00   36.65
   7  -2  -2  804.63   37.03
  -7  -2   2  778.35   33.10
   7   2  -1    3.48    2.86
   7   2  -1    4.29    2.39
  -7   2   1    0.02    2.79
   7  -2  -1    1.44    2.62
  -7  -2   1    3.47    2.48
   7  -2  -1    2.61    2.76
   7   2   0   36.05    5.90
   7   2   0   40.41    5.27
  -7   2   0   41.21    4.71
   7  -2   0   43.24    5.73
  -7  -2   0   36.32    8.86
   7  -2   0   40.22    5.58
   7   2   1  400.57   19.27
  -7   2  -1  406.68   18.93
   7   2   1  402.27   20.59
   7  -2   1  431.39   26.63
  -7  -2  -1  396.07   20.72
   7  -2   1  409.59   19.62
   7   2   2   84.73    7.34
   7   2   2   91.08    7.82
  -7   2  -2   85.37    7.63
  -7  -2  -2   81.47    8.21
   7  -2   2   86.05    7.82
   7   2   3  160.10    9.88
   7   2   3  144.14    9.27
  -7   2  -3  155.89   10.09
  -7  -2  -3  165.38   16.06
   7  -2   3  139.22    9.94
   7   2   4  181.09   13.67
  -7   2  -4  184.34   15.12
   7  -2   4  185.40   14.86
  -7  -2  -4  195.54   11.31
   7   2   5   70.78    4.83
  -7   2  -5   72.61    5.74
  -7  -2  -5   77.74    5.84
   7  -2   5   73.36    5.55
   7   3 -12   30.78    3.64
   7   3 -12   27.20    3.61
  -7   3  12   23.47    6.15
   7  -3 -12   25.20    3.02
   7   3 -11  259.21   13.04
   7   3 -11  247.06   13.17
  -7   3  11  253.00   13.91
   7  -3 -11  214.86   10.62
   7  -3 -11  237.94   15.97
   7   3 -10   72.48    7.64
   7   3 -10   74.11   10.89
  -7   3  10   73.93    8.44
   7  -3 -10   60.52    5.90
   7  -3 -10   65.63    5.59
   7   3  -9   35.26    5.79
   7   3  -9   32.48    5.67
  -7   3   9   30.51    9.47
   7  -3  -9   32.77    5.41
   7  -3  -9   23.79    4.18
   7   3  -8   75.79    8.66
   7   3  -8   82.04   11.85
  -7   3   8   71.98    8.66
   7  -3  -8   88.23    8.92
   7   3  -7  695.10   33.75
   7   3  -7  685.97   31.86
  -7   3   7  642.47   32.09
  -7  -3   7  709.77   29.51
   7  -3  -7  724.86   35.24
   7   3  -6  159.75   16.74
  -7   3   6  148.17   11.40
  -7  -3   6  146.20    8.97
   7  -3  -6  149.42   12.07
   7   3  -5  510.07   21.96
   7   3  -5  531.86   26.03
   7  -3  -5  524.16   26.58
   7  -3  -5  523.56   26.33
  -7  -3   5  488.86   21.94
   7   3  -4  596.92   26.12
   7   3  -4  618.98   28.88
   7  -3  -4  576.62   29.39
   7  -3  -4  617.60   29.12
  -7  -3   4  577.34   25.73
   7   3  -3  172.87   11.15
   7   3  -3  173.35   11.39
   7  -3  -3  167.24   17.75
   7  -3  -3  178.99   11.93
  -7  -3   3  181.26   10.78
   7   3  -2   50.00    6.48
   7   3  -2   42.83    6.11
   7  -3  -2   63.77    6.47
   7  -3  -2   51.10    6.52
  -7  -3   2   46.11    6.13
   7   3  -1  344.81   18.40
   7   3  -1  358.33   17.39
   7  -3  -1  302.70   16.57
   7  -3  -1  354.48   17.78
  -7  -3   1  354.05   18.02
   7   3   0  336.96   18.76
   7   3   0  366.33   18.25
  -7   3   0  348.49   15.84
   7  -3   0  370.08   23.79
  -7  -3   0  369.51   18.52
   7  -3   0  368.56   19.04
   7   3   1  281.73   22.06
   7   3   1  289.34   20.94
  -7   3  -1  273.50   13.52
  -7  -3  -1  266.53   15.07
   7  -3   1  278.56   15.62
   7   3   2  213.61   12.44
   7   3   2  220.07   12.76
  -7   3  -2  212.09   11.42
   7  -3   2  199.85   12.79
  -7  -3  -2  202.62   12.44
   7   3   3  105.05   11.93
   7   3   3  117.45    8.21
  -7   3  -3  106.97    7.57
   7  -3   3   97.47    8.27
  -7  -3  -3  107.70    8.25
   7   3   4  224.85   10.83
   7   3   4  242.68   11.82
  -7   3  -4  249.24   16.08
  -7  -3  -4  248.27   12.39
   7  -3   4  217.81   11.96
   7   3   5   48.68    3.89
  -7   3  -5   44.82    4.03
  -7  -3  -5   49.83    3.96
   7  -3   5   46.41    4.40
   7   4 -11    7.50    3.44
   7   4 -11    8.83    2.62
  -7   4  11    6.55    2.30
   7  -4 -11    1.34    1.99
   7   4 -10    5.68    2.95
   7   4 -10    7.25    3.13
  -7   4  10    7.30    2.98
   7  -4 -10    4.99    2.28
   7  -4 -10    3.15    2.25
   7   4  -9  362.55   19.16
   7   4  -9  323.91   17.51
  -7   4   9  355.14   19.25
   7  -4  -9  364.44   19.08
   7   4  -8  173.41   11.89
   7   4  -8  184.50   12.27
  -7   4   8  177.83   12.01
  -7  -4   8  175.96   13.81
   7  -4  -8  195.03   13.62
   7   4  -7  155.20   16.06
   7   4  -7  140.45   10.18
  -7   4   7  141.75   10.80
  -7  -4   7  158.49   13.81
   7  -4  -7  155.78   12.96
   7   4  -6  217.06   13.62
  -7   4   6  196.38   12.76
  -7  -4   6  198.52   16.72
   7  -4  -6  207.37   22.98
   7   4  -5  144.25    8.54
   7   4  -5  155.09   11.01
   7  -4  -5  147.72   12.75
   7  -4  -5  142.43   10.93
  -7  -4   5  141.10    9.96
   7   4  -4  135.69    9.04
   7   4  -4  143.45   10.61
   7  -4  -4  145.61   12.14
   7  -4  -4  149.86   10.85
  -7  -4   4  135.16    9.83
   7   4  -3  332.86   22.47
   7   4  -3  344.69   24.28
   7  -4  -3  348.46   20.07
   7  -4  -3  345.83   18.31
  -7  -4   3  335.38   17.77
   7   4  -2  552.17   26.53
   7   4  -2  579.67   27.18
   7  -4  -2  505.06   33.83
   7  -4  -2  584.53   27.22
  -7  -4   2  572.11   27.18
   7   4  -1  126.28   10.11
   7   4  -1  129.21   14.03
   7  -4  -1  126.90   10.10
   7  -4  -1  137.07    9.99
  -7  -4   1  137.93   15.08
   7   4   0   43.54    6.89
   7   4   0   52.93    6.48
   7  -4   0   55.20    9.71
  -7  -4   0   55.02    6.45
   7   4   1  161.84   11.33
   7   4   1  154.58   10.29
   7  -4   1  159.15   10.59
  -7  -4  -1  146.43   10.75
   7   4   2   64.58    6.60
  -7   4  -2   65.63    5.46
  -7  -4  -2   68.29    6.73
   7  -4   2   61.66    6.73
   7   4   3  192.60   10.49
   7   4   3  180.98   10.31
  -7   4  -3  184.90    9.53
  -7  -4  -3  185.28   10.45
   7  -4   3  163.67   10.39
   7   4   4   92.82    5.41
   7   4   4   93.47    6.19
  -7   4  -4   80.81    5.11
  -7  -4  -4   85.58    5.74
   7  -4   4   85.35    6.10
   7   5 -10   74.52    5.93
   7   5 -10   67.46    4.16
  -7   5  10   63.23    6.86
   7  -5 -10   71.40    7.43
   7  -5 -10   43.97    3.87
   7   5  -9  178.62   11.20
   7   5  -9  170.51   10.00
  -7   5   9  168.81   14.91
  -7  -5   9  174.80    9.40
   7  -5  -9  172.02   11.28
   7   5  -8   28.96    4.49
   7   5  -8   26.41    4.83
  -7   5   8    0.00    6.81
  -7  -5   8   29.52    4.09
   7  -5  -8   28.25    5.67
   7   5  -7   44.15    5.60
   7   5  -7   33.89    8.75
  -7   5   7   38.74    5.49
  -7  -5   7   46.03    5.48
   7  -5  -7   48.46    7.76
   7   5  -6  156.00   10.48
  -7   5   6  139.15    9.78
  -7  -5   6  145.56   10.32
   7  -5  -6  157.09   19.99
   7   5  -5  712.24   32.85
  -7   5   5  722.40   32.52
  -7  -5   5  721.15   33.53
   7  -5  -5  724.06   38.22
   7   5  -4  215.45   11.51
   7   5  -4  229.71   18.61
   7  -5  -4  221.64   16.05
   7  -5  -4  208.77   12.93
  -7  -5   4  228.65   13.95
   7   5  -3   16.26    7.49
   7   5  -3   32.21    5.20
   7  -5  -3   29.86    6.34
   7  -5  -3   31.20    8.20
  -7  -5   3   33.45    5.60
   7   5  -2  155.31   10.35
   7   5  -2  155.67   10.41
   7  -5  -2  140.98   11.54
   7  -5  -2  144.18   10.22
  -7  -5   2  148.03   11.05
   7   5  -1  122.31   10.00
   7   5  -1  138.23    9.80
   7  -5  -1  126.41   10.12
   7  -5  -1  141.26   13.81
  -7  -5   1  136.32   10.26
   7   5   0   39.50    6.19
   7   5   0   43.42    5.75
   7  -5   0   42.41    5.52
  -7  -5   0   44.08    5.93
   7   5   1    0.03    4.78
   7   5   1   27.29    4.32
   7  -5   1   25.72    4.20
  -7  -5  -1   31.79    4.47
   7   5   2    0.30    6.20
   7   5   2   18.55    3.68
   7  -5   2   15.54    3.50
  -7  -5  -2   16.40    3.54
   7   5   3   66.64    5.31
   7   5   3   56.75    5.19
   7  -5   3   57.13    4.99
  -7  -5  -3   57.02    7.33
   7   6  -9  266.05   12.03
   7  -6  -9  258.48   12.09
  -7  -6   9  279.31   14.19
   7   6  -8    3.93    1.69
   7   6  -8    0.01    2.53
   7  -6  -8    5.55    4.65
  -7  -6   8    7.14    2.21
   7   6  -7  168.35    9.05
   7   6  -7  162.88    9.74
   7  -6  -7  177.73   12.79
  -7  -6   7  168.36   14.61
   7   6  -6   79.19    6.46
  -7   6   6   72.69    5.78
  -7  -6   6   83.42    7.27
   7  -6  -6   80.48   14.72
   7   6  -5   42.56    5.14
  -7   6   5   36.60    4.50
  -7  -6   5   38.99    5.88
   7  -6  -5   46.39    7.35
   7   6  -4  122.18    8.32
  -7   6   4  122.12    7.88
  -7  -6   4  129.30   14.45
   7  -6  -4  120.73   11.16
   7   6  -3   28.99    4.33
   7   6  -3   25.82    4.47
   7  -6  -3   28.09    5.68
  -7  -6   3   28.83    5.50
   7   6  -2  829.83   36.29
   7   6  -2  873.20   36.86
   7  -6  -2  818.52   38.72
   7  -6  -2  830.84   36.79
  -7  -6   2  846.14   38.65
   7   6  -1   98.12    8.05
   7   6  -1  110.08    7.60
   7  -6  -1  105.29    7.33
  -7  -6   1  102.05    8.39
   7   6   0  416.70   19.94
   7   6   0  445.58   19.29
   7  -6   0  425.76   18.78
  -7  -6   0  430.23   19.72
   7   6   1  128.27   12.81
   7   6   1  130.16    7.75
   7  -6   1  122.91    7.36
  -7  -6  -1  134.86    7.91
   7   6   2   99.74    6.54
   7   6   2   90.08    5.74
   7  -6   2   75.04    4.79
  -7  -6  -2   94.65    8.20
   7  -7  -7   32.80    4.82
  -7  -7   7   36.36    3.99
   7  -7  -6   51.35    6.01
  -7  -7   6   55.07    8.40
   7  -7  -5   10.46    3.93
  -7  -7   5   11.83    3.43
   7   7  -4   23.13    2.88
   7  -7  -4   30.28    4.55
  -7  -7   4   25.19    7.30
   7   7  -3  169.15    8.10
   7   7  -3  149.04    7.61
   7  -7  -3  159.10    9.69
  -7  -7   3  172.85   10.11
   7   7  -2    0.90    1.52
   7   7  -2    0.17    1.44
   7  -7  -2    0.59    1.22
  -7  -7   2    3.75    2.03
   7   7  -1   53.97    4.70
   7   7  -1   53.17    4.10
  -7  -7   1   53.11    5.36
   7   7   0  131.02    7.43
   7   7   0  137.66    8.74
  -7  -7   0  145.96    7.58
   8   0 -12    2.45    2.55
   8   0 -12    3.56    1.79
  -8   0  12    3.52    2.41
   8   0 -11   29.86    4.99
   8   0 -11   20.50    6.03
  -8   0  11   29.36    5.20
   8   0 -10   -0.57    1.89
  -8   0  10    1.30    3.01
   8   0  -9  102.66   14.74
  -8   0   9  102.83   10.16
   8   0  -8    1.84    2.37
   8   0  -8    0.33    1.92
  -8   0   8    0.39    2.37
   8   0  -7    5.82    3.28
   8   0  -7    6.17    2.95
  -8   0   7    4.21    3.35
   8   0  -6  962.80   43.05
   8   0  -6 1002.17   45.68
  -8   0   6  980.63   44.16
   8   0  -5  319.88   16.00
   8   0  -5  330.89   18.37
   8   0  -4 1270.96   59.75
   8   0  -4 1317.42   58.45
   8   0  -4 1329.59   57.91
   8   0  -3 1220.04   57.23
   8   0  -3 1267.29   54.81
   8   0  -3 1220.40   52.13
  -8   0   3 1181.46   48.33
   8   0  -2   16.87    5.33
   8   0  -2   14.68    4.04
   8   0  -2   16.87    2.97
  -8   0   2   -0.08    2.89
   8   0  -1   66.45    7.43
   8   0  -1   78.30    6.70
   8   0  -1   73.03    8.59
  -8   0   1   70.49    6.38
   8   0   0  430.65   21.50
   8   0   0  475.06   21.66
  -8   0   0  447.58   20.99
   8   0   1  316.88   20.02
   8   0   1  306.81   15.99
  -8   0  -1  308.20   16.11
   8   0   2  492.60   22.73
   8   0   2  484.05   26.20
  -8   0  -2  514.87   23.48
   8   0   3  300.87   13.89
  -8   0  -3  318.45   15.71
  -8   0  -4  104.29    6.95
   8   1 -12   29.82    5.20
   8   1 -12   30.02    4.68
  -8   1  12   32.93    4.43
   8  -1 -12   30.38    3.97
  -8  -1  12   28.88    3.41
   8  -1 -12   23.68    2.87
   8   1 -11  213.39   12.69
   8   1 -11  201.16   10.86
  -8   1  11  219.93   13.60
   8  -1 -11  178.86   10.12
  -8  -1  11  216.47   11.49
   8  -1 -11  224.46   11.86
   8   1 -10  397.79   21.46
   8   1 -10  340.06   17.31
  -8   1  10  403.05   22.59
  -8  -1  10  415.80   20.02
   8  -1 -10  405.39   19.18
   8   1  -9  150.45   11.67
  -8   1   9  144.35   11.84
  -8  -1   9  160.37   11.61
   8  -1  -9  154.51   11.02
   8   1  -8  326.45   18.58
  -8   1   8  337.12   26.43
   8  -1  -8  322.89   23.39
  -8  -1   8  322.56   22.30
   8  -1  -8  357.36   18.02
   8   1  -7   50.02    7.17
   8   1  -7   51.69    5.82
  -8   1   7   54.78    7.38
   8  -1  -7   54.97    6.08
  -8  -1   7   55.97    6.08
   8  -1  -7   53.57    6.63
  -8   1   6  486.10   24.44
   8   1  -6  482.43   22.84
   8   1  -6  480.12   23.84
   8  -1  -6  456.27   23.44
   8  -1  -6  464.14   21.24
  -8  -1   6  481.45   22.33
   8   1  -5  537.53   25.56
   8   1  -5  577.80   26.61
   8  -1  -5  536.81   28.34
   8  -1  -5  580.88   27.80
   8  -1  -5  569.98   35.77
  -8  -1   5  546.25   23.97
   8   1  -4  800.28   37.46
   8   1  -4  831.64   34.73
   8   1  -4  813.72   43.21
   8  -1  -4  833.01   45.57
   8  -1  -4  822.99   39.57
  -8  -1   4  816.90   37.86
   8   1  -3   78.96    8.19
   8   1  -3   78.15    6.14
   8   1  -3   76.34    6.82
   8  -1  -3   82.02    7.54
   8  -1  -3   81.01    8.64
  -8  -1   3   75.57    6.22
   8   1  -2  932.01   43.97
   8   1  -2  976.93   41.09
   8   1  -2  955.99   41.30
   8  -1  -2 1028.63   45.14
   8  -1  -2  922.50   44.61
  -8  -1   2  947.89   40.22
   8   1  -1  170.53    9.86
   8   1  -1  143.78   11.28
  -8   1   1  171.00    9.41
   8  -1  -1  157.25   11.44
  -8  -1   1  155.79    9.95
   8  -1  -1  170.84   10.91
   8   1   0    7.20    3.54
   8   1   0    8.39    2.89
  -8   1   0    0.14    4.45
   8  -1   0    7.94    5.05
  -8  -1   0    8.22    5.30
   8  -1   0    6.98    3.39
   8   1   1  325.09   20.64
  -8   1  -1  334.16   16.34
   8   1   1  356.08   23.40
   8  -1   1  352.22   17.06
  -8  -1  -1  344.19   17.81
   8  -1   1  360.99   17.97
  -8   1  -2   26.21    4.25
   8   1   2   23.65    4.12
   8   1   2   22.00    3.68
  -8  -1  -2   29.41    4.85
   8  -1   2   21.31    4.12
   8   1   3   17.90    2.70
  -8   1  -3   22.96    3.82
  -8  -1  -3   25.43    3.94
   8  -1   3   12.77    3.33
  -8   1  -4    4.16    2.36
  -8  -1  -4    5.11    2.34
   8  -1   4    5.71    1.89
   8   2 -12   91.12    5.36
   8   2 -12  108.94    7.29
  -8   2  12  100.41    7.18
   8  -2 -12  101.50    7.55
   8   2 -11  104.56    8.03
   8   2 -11   97.66    6.49
  -8   2  11  100.77    8.62
   8  -2 -11  109.10    6.62
  -8  -2  11   89.24    5.47
   8  -2 -11   74.03    5.61
   8   2 -10   71.41    6.35
   8   2 -10   87.83    8.62
  -8   2  10   90.64    9.26
   8  -2 -10   83.14    6.69
   8   2  -9  239.78   15.49
  -8   2   9  255.89   15.87
   8  -2  -9  281.60   15.31
   8  -2  -9  264.27   13.58
   8   2  -8  135.37   11.12
  -8   2   8  139.53   11.50
   8  -2  -8  144.74   10.76
   8   2  -7   26.46    5.64
  -8   2   7   27.49    5.99
   8  -2  -7   24.53    5.45
   8   2  -6  293.16   14.78
   8   2  -6  299.47   17.35
  -8   2   6  304.11   17.67
   8  -2  -6  296.30   17.51
   8   2  -5   39.23    5.51
   8   2  -5   44.56    6.50
   8  -2  -5   47.93    6.76
   8  -2  -5   49.32    6.95
  -8  -2   5   40.86    4.52
   8   2  -4 2165.44  104.98
   8   2  -4 2297.68  109.94
   8  -2  -4 2174.71  108.79
   8  -2  -4 2306.41  111.74
  -8  -2   4 2240.59  103.09
   8   2  -3  375.55   20.17
   8   2  -3  394.56   19.62
   8  -2  -3  375.30   21.03
   8  -2  -3  376.76   20.52
  -8  -2   3  383.68   17.71
   8   2  -2  157.51   12.12
   8   2  -2  174.39   10.85
   8  -2  -2  161.47   11.95
   8  -2  -2  178.15   11.82
  -8  -2   2  171.07   10.56
   8   2  -1   95.24   13.89
   8   2  -1  102.24    7.97
   8  -2  -1   93.36    8.51
   8  -2  -1  101.14    8.89
  -8  -2   1   98.14    8.00
   8   2   0  606.39   28.96
   8   2   0  599.96   32.00
  -8   2   0  562.91   24.31
   8  -2   0  615.71   28.49
  -8  -2   0  582.13   26.92
   8  -2   0  610.66   34.98
   8   2   1   57.17    6.42
   8   2   1   50.70    5.45
  -8   2  -1   50.65    5.22
  -8  -2  -1   54.01    6.26
   8  -2   1   54.25    6.16
   8   2   2   66.51    6.08
   8   2   2   57.22    5.26
  -8   2  -2   60.79    5.37
  -8  -2  -2   60.32    6.22
   8  -2   2   56.81    6.05
   8   2   3    8.30    2.81
   8   2   3   15.79    2.42
  -8   2  -3    9.84    2.90
   8  -2   3   10.27    3.12
  -8  -2  -3   14.06    3.37
  -8   2  -4   26.73    3.40
  -8  -2  -4   34.11    3.80
   8  -2   4   31.67    3.43
   8   3 -11  226.43   11.86
   8   3 -11  216.79   10.14
  -8   3  11  237.59   12.91
   8   3 -10   36.05    5.84
   8   3 -10   30.26    4.36
  -8   3  10   37.06    6.23
   8   3  -9  211.62   13.69
  -8   3   9  208.73   13.81
   8  -3  -9  231.01   13.88
   8   3  -8   65.96    8.22
  -8   3   8   71.64   13.00
   8  -3  -8   78.77    8.46
   8   3  -7    4.56    3.44
  -8   3   7    3.38    3.39
   8  -3  -7    3.48    3.54
   8   3  -6   -0.08    3.28
   8   3  -6   21.15    7.58
  -8   3   6   20.42    4.64
   8  -3  -6   17.94    4.95
  -8  -3   6   18.81    3.26
   8   3  -5  249.37   13.39
   8   3  -5  262.50   16.01
   8  -3  -5  244.64   16.20
   8  -3  -5  268.37   16.49
  -8  -3   5  250.84   12.93
   8   3  -4   80.74    7.42
   8   3  -4   71.18    7.91
   8  -3  -4   71.87    8.83
   8  -3  -4   76.08   13.14
  -8  -3   4   72.95    9.96
   8   3  -3   31.48    5.58
   8   3  -3   32.47    5.61
   8  -3  -3   29.93    6.15
   8  -3  -3   31.55    5.94
  -8  -3   3   33.54    5.14
   8   3  -2   47.94    6.92
   8   3  -2   59.63    6.30
   8  -3  -2   46.29    6.69
   8  -3  -2   49.65    6.79
  -8  -3   2   51.09    6.20
   8   3  -1    0.19    2.88
   8   3  -1    3.05    2.60
   8  -3  -1    3.03    2.70
   8  -3  -1    5.11    2.85
  -8  -3   1    0.52    2.65
   8   3   0  219.14   13.82
   8   3   0  233.54   18.26
   8  -3   0  225.32   12.83
   8  -3   0  230.53   13.77
  -8  -3   0  220.94   13.18
   8   3   1   31.61    4.81
  -8   3  -1   32.40    3.88
  -8  -3  -1   34.37    5.24
   8  -3   1   40.21    8.37
   8   3   2   32.14    4.41
   8   3   2   25.24    6.57
  -8   3  -2   27.60    3.68
  -8  -3  -2   34.50    4.77
   8  -3   2   26.85    7.41
   8   3   3   58.62    4.45
   8   3   3   61.87    4.91
  -8   3  -3   56.93    6.44
  -8  -3  -3   63.95    5.52
   8  -3   3   61.60    5.45
   8   4 -11  473.07   17.59
  -8   4  11  441.50   17.29
   8   4 -10  605.84   25.20
   8   4 -10  502.07   21.36
  -8   4  10  569.40   24.37
   8  -4 -10  552.81   25.92
   8   4  -9  300.52   15.92
  -8   4   9  321.80   17.80
   8  -4  -9  328.54   23.16
   8   4  -8  170.92   11.47
  -8   4   8  165.37   11.50
   8  -4  -8  190.38   13.20
   8   4  -7   24.13    8.19
  -8   4   7   23.56    5.04
  -8  -4   7   22.72    6.28
   8  -4  -7   25.11    6.09
  -8   4   6  105.70    9.47
   8   4  -6  114.96   10.13
   8  -4  -6  121.39   17.66
  -8  -4   6  122.88   12.15
   8   4  -5   14.10    3.29
   8   4  -5   13.85    4.45
  -8   4   5    3.17    4.31
  -8  -4   5   15.28    3.70
   8  -4  -5   13.06    5.08
   8   4  -4  571.50   26.13
   8   4  -4  572.64   28.09
   8  -4  -4  574.44   30.62
   8  -4  -4  612.95   29.70
  -8  -4   4  585.08   26.87
   8   4  -3  590.82   27.77
   8   4  -3  616.21   29.07
   8  -4  -3  559.32   29.47
   8  -4  -3  627.20   29.56
  -8  -4   3  602.19   34.75
   8   4  -2   71.05    7.57
   8   4  -2   67.74    7.45
   8  -4  -2   67.24    7.50
   8  -4  -2   76.53    7.73
  -8  -4   2   71.35    7.40
   8   4  -1  149.11   11.14
   8   4  -1  160.30   10.65
   8  -4  -1  169.46   11.10
   8  -4  -1  173.65   11.27
  -8  -4   1  166.72   11.18
   8   4   0   72.20    7.52
   8   4   0   75.96    7.04
   8  -4   0   81.61    7.32
  -8  -4   0   72.91    7.19
   8   4   1   -0.54    3.51
   8   4   1   10.09    3.22
   8  -4   1   13.78    3.34
  -8  -4  -1   13.39    3.39
   8   4   2  192.87   10.09
   8   4   2  182.73    9.55
   8  -4   2  159.15    9.58
  -8  -4  -2  189.78   10.03
   8   5  -9    6.74    2.33
   8   5  -9    0.05    1.60
  -8   5   9    7.97    2.53
  -8  -5   9    5.49    1.41
   8  -5  -9    8.37    2.80
   8   5  -8   66.29    6.21
  -8   5   8   64.62    6.01
  -8  -5   8   67.68    5.14
   8  -5  -8   76.41   12.49
   8   5  -7  147.68    9.88
  -8   5   7  144.05   13.80
  -8  -5   7  153.05    9.09
   8  -5  -7  158.61   12.73
  -8   5   6  230.26   12.86
   8   5  -6  245.43   13.61
   8  -5  -6  230.30   23.52
  -8  -5   6  239.36   12.73
   8   5  -5   52.36    9.08
  -8   5   5   38.87    5.66
  -8  -5   5   42.86    5.53
   8  -5  -5   40.56    7.30
   8   5  -4  214.83   11.54
   8   5  -4  221.23   13.08
   8  -5  -4  208.00   15.01
   8  -5  -4  220.26   12.80
  -8  -5   4  219.93   12.91
   8   5  -3   73.59    6.83
   8   5  -3   78.54    7.39
   8  -5  -3   72.49    8.19
   8  -5  -3   80.77    7.50
  -8  -5   3   77.28    7.40
   8   5  -2  185.81   11.35
   8   5  -2  192.11   11.76
   8  -5  -2  190.96   12.37
   8  -5  -2  196.47   11.68
  -8  -5   2  185.27   11.69
   8   5  -1  263.21   14.91
   8   5  -1  298.74   20.01
   8  -5  -1  295.00   14.70
  -8  -5   1  282.11   14.92
   8   5   0   38.32    5.10
   8   5   0   33.24    4.80
   8  -5   0   34.70    4.80
  -8  -5   0   40.86    5.08
   8   5   1    9.14    2.90
   8   5   1    4.86    2.63
   8  -5   1    4.27    2.60
  -8  -5  -1   10.53    2.70
   8  -6  -8   11.91    6.36
  -8  -6   8   23.69    2.86
   8   6  -7    1.05    1.67
   8  -6  -7    1.66    2.52
  -8  -6   7    1.91    1.73
   8   6  -6  150.21    8.47
   8  -6  -6  141.91   16.50
  -8  -6   6  155.14    8.98
   8   6  -5   24.72    3.75
  -8   6   5   21.26    3.50
  -8  -6   5   20.47    4.20
   8  -6  -5   21.86    5.23
   8   6  -4   57.08    8.06
   8   6  -4   41.10    3.99
  -8   6   4   46.54    4.76
  -8  -6   4   46.34    5.72
   8  -6  -4   46.47    6.27
   8   6  -3  147.75    8.23
   8   6  -3  156.71    9.14
  -8   6   3  163.20    8.85
  -8  -6   3  158.41   10.12
   8  -6  -3  147.45   10.25
   8   6  -2  261.34   12.27
   8   6  -2  264.56   16.83
   8  -6  -2  239.24   15.54
   8  -6  -2  255.34   11.92
  -8  -6   2  270.18   13.69
   8   6  -1   51.70    5.09
   8   6  -1   54.67    4.86
   8  -6  -1   49.08    4.50
  -8  -6   1   55.47    5.33
   8   6   0  319.68   13.88
   8   6   0  320.62   12.96
   8  -6   0  294.96   12.13
  -8  -6   0  347.05   14.44
   8  -7  -5  108.43    6.77
  -8  -7   5  128.89    7.18
   8  -7  -4    0.11    1.03
  -8  -7   4    0.33    1.46
  -8  -7   3    2.63    2.01
   9   0 -12   89.61    5.89
  -9   0  12   79.50    7.74
   9   0 -11  386.02   17.39
  -9   0  11  382.00   22.84
   9   0 -10  234.09   13.34
  -9   0  10  215.76   12.89
   9   0  -9  212.37   12.98
  -9   0   9  198.20   13.40
   9   0  -8   65.92    6.90
   9   0  -8   65.08    6.36
  -9   0   8   60.15    6.92
   9   0  -7    7.43    3.35
   9   0  -7    6.08    3.37
  -9   0   7    7.33    3.43
   9   0  -6   77.18    7.39
   9   0  -6   84.20    8.44
  -9   0   6   84.68   11.83
   9   0  -5    4.79    2.87
   9   0  -5    5.08    3.58
  -9   0   5    5.11    3.05
   9   0  -4 1264.90   63.08
   9   0  -4 1353.32   60.19
   9   0  -4 1314.79   63.60
   9   0  -3    4.74    2.29
   9   0  -3   -0.06    3.01
   9   0  -3    0.20    2.02
   9   0  -2   -0.68    1.57
   9   0  -2   -0.15    3.28
  -9   0   2    0.15    1.39
   9   0  -1   48.24    5.15
   9   0  -1   42.72    6.45
  -9   0   1   42.01    4.83
   9   0   0   33.23    4.25
   9   0   0   35.63    5.30
  -9   0   0   35.07    4.31
   9   0   1  548.70   23.07
   9   0   1  625.40   26.49
  -9   0  -1  564.19   23.87
   9   0   2  168.43    7.15
  -9   0  -2  211.97    9.76
   9   1 -11   90.89    7.27
  -9   1  11   94.67    7.79
  -9  -1  11   88.55    5.68
   9  -1 -11   91.13    6.19
   9   1 -10   99.43    8.61
  -9   1  10  101.29    9.44
  -9  -1  10   96.45    7.27
   9  -1 -10   99.42    7.27
   9   1  -9   53.91    6.94
  -9   1   9   53.42    7.23
   9  -1  -9   66.62    6.50
  -9  -1   9   63.61    6.56
   9  -1  -9   57.90    6.02
   9   1  -8  112.97   14.28
  -9   1   8  115.25    9.81
   9  -1  -8  113.31    8.68
  -9  -1   8  106.72    8.81
   9  -1  -8  127.42    9.42
   9   1  -7  284.35   16.01
   9   1  -7  281.96   14.99
  -9   1   7  285.58   16.48
   9  -1  -7  267.60   13.92
  -9  -1   7  267.42   14.12
   9  -1  -7  279.48   16.08
   9   1  -6  531.29   25.60
   9   1  -6  557.51   26.81
  -9   1   6  552.00   26.76
  -9  -1   6  525.67   23.88
   9  -1  -6  521.46   26.45
   9   1  -5  105.45   13.18
   9   1  -5  109.79    9.68
   9  -1  -5  100.41    9.82
   9   1  -4  390.74   20.88
   9   1  -4  404.93   19.47
   9  -1  -4  401.43   20.56
   9  -1  -4  399.05   29.45
   9   1  -3   76.88    8.46
   9   1  -3   83.72   10.82
   9  -1  -3   81.78    7.60
   9  -1  -3   77.30    8.53
  -9  -1   3   81.27    6.24
   9   1  -2   49.39    6.95
   9   1  -2   60.36    5.89
   9  -1  -2   68.10    6.41
   9  -1  -2   50.02    7.30
  -9  -1   2   58.85    5.66
   9   1  -1  110.60    7.49
  -9   1   1  100.97    6.71
   9   1  -1   98.61    8.82
   9  -1  -1  111.15    8.94
  -9  -1   1  110.39    7.63
   9  -1  -1  112.76    8.28
   9   1   0   29.07    4.67
   9   1   0   26.10    3.67
  -9   1   0    0.19    6.01
   9  -1   0   26.70    4.73
  -9  -1   0   33.28    4.23
   9  -1   0   29.60    4.29
   9   1   1    6.58    2.35
  -9   1  -1   10.16    4.59
   9   1   1   23.67    5.40
   9  -1   1   12.80    2.73
  -9  -1  -1   14.92    3.24
   9  -1   1   14.69    3.03
   9   1   2  246.53   10.71
  -9   1  -2  270.20   11.38
   9  -1   2  264.67   14.52
  -9  -1  -2  276.38   12.27
   9   2 -11   99.07    7.23
  -9   2  11  101.78    7.86
   9   2 -10  132.61    9.82
  -9   2  10  128.24   10.86
   9   2  -9  269.27   15.52
  -9   2   9  262.08   16.21
   9  -2  -9  313.12   15.72
   9   2  -8   69.76    7.92
  -9   2   8   75.55   12.78
   9  -2  -8   77.66    7.75
   9   2  -7  123.07   15.43
   9   2  -7  119.76   12.28
  -9   2   7  122.98   10.50
   9  -2  -7  117.52   15.44
   9   2  -6  288.02   16.33
   9   2  -6  274.21   15.19
  -9   2   6  274.57   16.33
   9  -2  -6  257.25   16.54
   9   2  -5    9.03    3.70
   9   2  -5   11.76    4.00
   9  -2  -5    9.26    4.45
   9  -2  -5    8.97    4.33
   9   2  -4  659.84   31.62
   9   2  -4  689.94   31.66
   9  -2  -4  646.94   32.76
   9  -2  -4  711.92   33.76
  -9  -2   4  666.03   28.49
   9   2  -3  155.64   16.56
   9   2  -3  162.27   10.40
   9  -2  -3  135.65   11.21
   9  -2  -3  158.85   11.15
  -9  -2   3  156.91    9.68
   9   2  -2  122.91   10.00
   9   2  -2  131.22    8.96
   9  -2  -2  113.97    9.81
   9  -2  -2  134.19    9.83
  -9  -2   2  134.08    8.69
   9   2  -1  211.47   13.31
   9   2  -1  222.41   11.93
   9  -2  -1  215.95   12.68
   9  -2  -1  229.68   17.99
  -9  -2   1  229.44   12.21
   9   2   0  124.68    8.80
   9   2   0  120.02   10.95
   9  -2   0  117.77    8.01
   9  -2   0  121.38    8.52
  -9  -2   0  118.57    8.33
   9   2   1   15.40    3.15
   9   2   1   10.42    4.50
   9  -2   1   10.65    3.24
  -9  -2  -1   12.07    3.36
   9   2   2   11.99    2.22
   9   2   2   13.65    1.86
   9  -2   2    5.08    4.24
  -9  -2  -2    8.14    2.87
   9   3 -11   75.06    5.78
  -9   3  11   72.15    6.22
   9   3 -10    9.40    3.58
  -9   3  10   16.26    4.05
   9  -3 -10    8.43    2.29
   9   3  -9   27.20    5.21
  -9   3   9   26.32    5.21
   9  -3  -9   29.44    5.02
   9   3  -8  125.05   10.18
  -9   3   8  125.51   15.73
   9  -3  -8  147.38   10.97
   9   3  -7   13.17    6.97
  -9   3   7   12.57    4.48
   9  -3  -7   12.65    4.60
   9   3  -6  166.27   11.74
   9   3  -6  152.35   13.83
  -9   3   6  156.28   11.56
  -9  -3   6  143.85    8.47
   9  -3  -6  157.51   12.61
   9   3  -5  149.14    9.93
   9   3  -5  161.55   11.40
   9  -3  -5  150.40   17.73
  -9  -3   5  150.93   12.90
   9   3  -4  297.52   21.92
   9   3  -4  317.44   17.28
   9  -3  -4  293.38   18.09
   9  -3  -4  311.06   18.13
  -9  -3   4  319.39   15.32
   9   3  -3   53.17    6.44
   9   3  -3   50.15    6.45
   9  -3  -3   49.53    6.92
   9  -3  -3   54.14    6.77
  -9  -3   3   54.63    5.70
   9   3  -2    9.83    3.58
   9   3  -2    9.43    3.28
   9  -3  -2    6.64    3.46
   9  -3  -2    8.05    3.62
  -9  -3   2    5.83    3.14
   9   3  -1   57.06    6.76
   9   3  -1   60.30    6.10
   9  -3  -1   58.34    9.26
   9  -3  -1   55.42    6.67
  -9  -3   1   62.96    6.11
   9   3   0   48.71    5.72
   9   3   0   44.48    7.69
   9  -3   0   50.34    8.77
  -9  -3   0   48.83    8.49
   9   3   1    1.29    1.75
   9   3   1    1.19    2.70
   9  -3   1    1.71    3.00
  -9  -3  -1   -0.40    3.02
   9   4 -10  198.26    9.96
  -9   4  10  198.01   10.21
   9   4  -9   69.46    6.40
  -9   4   9   77.82    7.47
   9  -4  -9   79.09   10.37
   9   4  -8  113.26    8.78
  -9   4   8  108.79    8.70
   9  -4  -8  118.03    9.81
   9   4  -7  100.89    8.63
  -9   4   7   91.63    8.18
  -9  -4   7   86.51    5.92
   9  -4  -7   97.00    9.64
   9   4  -6   14.34    4.25
  -9   4   6   13.59    4.10
  -9  -4   6   12.37    3.12
   9  -4  -6   11.81    4.90
   9   4  -5  263.29   13.12
   9   4  -5  253.50   15.16
  -9   4   5  264.10   15.23
  -9  -4   5  264.93   12.89
   9  -4  -5  270.05   16.69
   9   4  -4   43.42    5.29
   9   4  -4   43.21    6.28
   9  -4  -4   43.60    6.81
   9  -4  -4   48.95    6.55
  -9  -4   4   47.05    7.99
   9   4  -3   69.46    6.58
   9   4  -3   70.61    7.06
   9  -4  -3   58.73    7.26
   9  -4  -3   75.34    7.67
  -9  -4   3   72.07    6.41
   9   4  -2   57.23    6.44
   9   4  -2   58.24    6.33
   9  -4  -2   57.62    6.43
   9  -4  -2   66.80    6.73
  -9  -4   2   64.25    6.09
   9   4  -1   53.87    6.05
   9   4  -1   62.03    5.73
   9  -4  -1   57.44    5.29
   9  -4  -1   57.81    6.15
  -9  -4   1   57.83    5.90
   9   4   0  183.30   10.05
   9   4   0  173.69    9.25
   9  -4   0  166.92    9.60
  -9  -4   0  173.49    9.49
   9   4   1   27.30    3.36
   9   4   1   25.15    3.25
   9  -4   1   21.64    3.49
  -9  -4  -1   23.89    5.52
   9   5  -8   38.41    4.05
  -9   5   8   12.31    6.27
   9  -5  -8   35.19    4.99
   9   5  -7  125.32    8.21
  -9   5   7  115.23    7.82
  -9  -5   7  123.75    6.64
   9  -5  -7  130.74   10.17
   9   5  -6   94.85   11.30
  -9   5   6   88.11    7.02
  -9  -5   6   90.70    6.18
   9  -5  -6   93.95    9.03
   9   5  -5   53.35    5.69
   9   5  -5   38.57    3.88
  -9   5   5   50.77    5.33
  -9  -5   5   44.76    4.99
   9  -5  -5   44.65   10.43
   9   5  -4   53.71    5.76
   9   5  -4   15.13    4.58
  -9   5   4   27.07    4.45
  -9  -5   4   25.60    4.18
   9  -5  -4   18.40    4.90
   9   5  -3  257.24   12.30
   9   5  -3  273.91   13.76
   9  -5  -3  248.34   13.43
   9  -5  -3  277.70   13.89
  -9  -5   3  268.56   13.32
   9   5  -2  346.10   15.64
   9   5  -2  353.55   21.40
   9  -5  -2  357.95   16.10
   9  -5  -2  378.77   17.02
  -9  -5   2  359.52   21.16
   9   5  -1   26.86    3.88
   9   5  -1   24.50    3.79
   9  -5  -1   29.25    3.95
  -9  -5   1   26.29    3.71
   9   6  -6  139.10    6.67
   9  -6  -6  146.85    9.11
  -9  -6   6  157.14    7.05
   9   6  -5   25.93    3.41
   9  -6  -5   23.80    4.08
  -9  -6   5   25.50    3.40
   9   6  -4   23.14    3.26
   9  -6  -4   20.59    3.35
  -9  -6   4   23.14    3.41
   9   6  -3   10.46    2.56
  -9  -6   3    9.70    2.74
  10   0 -11  385.36   14.41
  10   0 -10  471.54   19.12
 -10   0  10  491.04   20.01
  10   0  -9    4.45    2.79
 -10   0   9    6.11    3.02
  10   0  -8    0.64    1.96
  10   0  -8    0.99    1.94
 -10   0   8    1.39    1.97
  10   0  -7   17.80    3.91
  10   0  -7   19.56    4.33
 -10   0   7   20.53    4.16
  10   0  -6  197.33   10.85
  10   0  -6  206.16   12.82
 -10   0   6  212.36   11.71
  10   0  -5   51.12    5.18
  10   0  -5   54.34    7.08
 -10   0   5   52.92    5.62
  10   0  -4  286.61   17.30
 -10   0   4  298.17   14.34
  10   0  -3    0.03    3.76
 -10   0   3   10.52    2.67
  10   0  -2    1.40    1.53
  10   0  -2   -0.59    2.22
  10   0  -1   98.64   11.05
  10   0  -1   82.84    5.23
 -10   0   1   90.65    5.50
  10   0   0  147.63    7.89
 -10   0   0  132.73    6.75
  10   1 -10   14.82    3.83
 -10   1  10   15.63    6.73
  10  -1 -10   19.85    2.38
  10   1  -9   10.94    7.27
 -10   1   9   30.99    5.41
  10  -1  -9   33.69    4.09
  10  -1  -9   28.94    3.22
  10   1  -8  194.65   11.60
  10   1  -8  201.74   10.53
 -10   1   8  209.18   12.13
  10  -1  -8  205.47   11.76
  10   1  -7  169.31   10.64
  10   1  -7  180.22   10.56
 -10   1   7  180.12   11.39
  10  -1  -7  166.46   11.12
  10   1  -6  372.87   18.02
  10   1  -6  370.63   18.81
 -10   1   6  367.14   24.13
  10  -1  -6  366.86   19.47
  10   1  -5   97.85    7.76
  10   1  -5   99.48    8.78
 -10   1   5   94.85    7.95
  10  -1  -5   98.50    9.09
  10   1  -4  635.73   27.34
  10   1  -4  622.89   29.98
  10  -1  -4  585.79   29.38
  10   1  -3  216.28   13.27
  10   1  -3  212.81   10.77
  10  -1  -3  191.59   12.66
  10  -1  -3  225.85   11.82
 -10  -1   3  195.35    9.73
  10   1  -2  280.16   15.71
  10   1  -2  259.98   12.27
  10  -1  -2  274.93   14.81
  10  -1  -2  315.61   14.26
 -10  -1   2  289.05   12.80
  10   1  -1   42.28    3.65
  10   1  -1   64.92    6.04
  10  -1  -1   63.57    5.17
  10  -1  -1   61.21    5.47
 -10  -1   1   52.58    4.73
  10   1   0   36.53    4.14
  10  -1   0   34.97    3.37
  10  -1   0   35.95    3.44
 -10  -1   0   31.53    3.51
  10   2 -10   41.06    5.01
 -10   2  10   41.12    5.64
  10   2  -9   31.45    5.06
 -10   2   9   33.00    8.18
  10  -2  -9   36.77    4.67
  10   2  -8  331.38   23.06
 -10   2   8  335.84   17.39
  10  -2  -8  370.64   23.35
  10   2  -7    1.78    2.58
  10   2  -7    2.04    2.04
 -10   2   7    1.53    2.79
  10  -2  -7    4.03    2.75
  10   2  -6  489.33   23.03
  10   2  -6  498.53   22.70
 -10   2   6  503.59   23.68
  10  -2  -6  479.98   24.09
  10   2  -5  193.38   11.62
  10   2  -5  184.79   11.69
 -10   2   5  184.90   12.01
  10  -2  -5  176.88   12.59
  10   2  -4   86.54   12.39
  10   2  -4   91.46    7.18
  10  -2  -4   86.55    8.44
  10  -2  -4   95.87    7.94
 -10  -2   4   81.17    5.52
  10   2  -3   17.15    4.42
  10   2  -3   22.13    3.71
  10  -2  -3   17.32    4.43
  10  -2  -3   22.18    4.41
 -10  -2   3   14.70    5.06
  10   2  -2    0.36    3.30
  10   2  -2    7.81    2.70
  10  -2  -2    8.98    3.17
  10  -2  -2   11.05    3.22
 -10  -2   2   10.73    2.55
  10   2  -1    5.14    6.98
  10   2  -1   27.39    3.43
  10  -2  -1   31.69    3.94
  10  -2  -1   37.85    6.42
 -10  -2   1   29.75    3.65
  10   2   0  199.27    9.62
  10  -2   0  183.95   12.02
 -10  -2   0  179.87    8.49
  10   3  -9   71.99    6.23
 -10   3   9   80.17    7.32
  10  -3  -9   80.67    6.14
  10   3  -8    2.07    3.29
 -10   3   8    0.75    2.14
  10  -3  -8    0.47    2.18
  10   3  -7   22.28    4.61
 -10   3   7   27.49    4.74
  10  -3  -7   18.48    8.44
  10   3  -6   61.00    6.72
  10   3  -6   67.22    5.68
 -10   3   6   63.48   10.72
  10  -3  -6   58.68    7.47
  10   3  -5  125.74    9.09
  10   3  -5  129.85    8.48
 -10   3   5  126.28    9.33
 -10  -3   5  110.22    6.50
  10  -3  -5  120.97    9.80
  10   3  -4  202.37   11.29
  10   3  -4  211.66   11.68
  10  -3  -4  193.70   12.48
 -10  -3   4  199.51   13.16
  10   3  -3   67.89    6.69
  10   3  -3   76.66    6.51
  10  -3  -3   68.79    6.87
  10  -3  -3   77.49    7.05
 -10  -3   3   73.28    5.28
  10   3  -2  230.38   12.62
  10   3  -2  269.98   12.33
  10  -3  -2  261.71   12.69
  10  -3  -2  277.59   13.61
 -10  -3   2  260.71   11.64
  10   3  -1   22.47    3.54
  10   3  -1   22.00    2.96
  10  -3  -1   11.87    3.63
 -10  -3   1   17.07    4.87
  10   4  -8   15.90    3.61
 -10   4   8   15.24    3.69
  10  -4  -8   24.82    3.98
  10   4  -7    7.74    3.12
 -10   4   7   10.18    5.09
  10  -4  -7    8.59    5.90
  10   4  -6   90.68   11.01
  10   4  -6   85.38    7.01
 -10   4   6   86.87    7.37
 -10  -4   6   86.26    6.71
  10  -4  -6   90.02    7.94
  10   4  -5  119.93    8.43
  10   4  -5  115.20    6.81
 -10   4   5  117.37    8.34
 -10  -4   5  117.90    6.47
  10  -4  -5  120.68    9.41
  10   4  -4  140.65   12.82
  10   4  -4  129.69    7.50
 -10   4   4  130.87    8.78
 -10  -4   4  124.12    6.81
  10  -4  -4  119.17    9.07
  10   4  -3   37.86    4.27
  10   4  -3   37.79    4.55
  10  -4  -3   36.28    4.61
 -10  -4   3   41.22    3.96
  10   4  -2  109.92    6.87
  10   4  -2  119.81    6.92
  10  -4  -2  112.90    7.29
 -10  -4   2  108.90    8.99
  11   0  -8   33.57    3.79
 -11   0   8   30.30    3.10
  11   0  -7  375.23   16.34
 -11   0   7  340.23   16.64
  11   0  -6   93.72    7.13
 -11   0   6   79.15    5.06
  11   0  -5  156.12    9.61
 -11   0   5  138.11    8.87
  11   0  -4  170.10   10.12
  11   0  -3   16.99    3.59
  11   0  -2  143.99   11.17
  11   1  -9    2.71    1.60
 -11   1   9    3.42    1.87
  11   1  -8    9.58    4.87
 -11   1   8   11.44    5.88
  11  -1  -8   26.79    3.32
  11   1  -7  157.65    8.09
  11   1  -7  160.50    8.36
 -11   1   7  156.54    8.51
  11  -1  -7  158.14    9.46
  11   1  -6   96.84    8.80
  11   1  -6  101.86    7.17
 -11   1   6  103.63    6.70
  11  -1  -6  102.98    7.95
  11   1  -5   52.98    4.03
  11   1  -5   51.10    5.56
 -11   1   5   56.79    4.88
  11  -1  -5   45.94    5.84
  11   1  -4   38.62    4.88
 -11   1   4   37.93    5.95
  11  -1  -4   31.37    4.92
  11   1  -3  122.70    7.97
 -11   1   3  119.78    5.90
  11  -1  -3  129.62    7.91
  11   2  -8   37.39    4.02
 -11   2   8   38.06    4.42
  11  -2  -8   40.21    4.49
  11   2  -7  265.27   11.75
  11   2  -7  245.28   10.36
 -11   2   7  259.55   12.52
  11  -2  -7  270.52   13.10
  11   2  -6  104.56    6.75
  11   2  -6  108.68    6.57
 -11   2   6  111.08    7.43
  11  -2  -6  108.05    8.04
  11   2  -5  132.69    7.24
  11   2  -5  138.64    8.16
 -11   2   5  134.22    8.11
  11  -2  -5  124.89    8.93
  11   2  -4   35.57    4.97
  11   2  -4   22.60    7.00
 -11   2   4   31.50    3.85
  11  -2  -4   33.43    4.48
  11   2  -3   92.38   10.09
 -11   2   3   98.44    5.77
  11  -2  -3   99.65    6.44
  11   3  -6   46.54    4.46
 -11   3   6   44.14    4.74
  11  -3  -6   44.68    5.33
  11  -3  -5  156.67    9.39
;
_shelx_hkl_checksum              94324
loop_
_space_group_symop_id
_space_group_symop_operation_xyz
1 +X,+Y,+Z
2 -X,1/2+Y,-Z
loop_
_atom_site_label
_atom_site_type_symbol
_atom_site_fract_x
_atom_site_fract_y
_atom_site_fract_z
_atom_site_U_iso_or_equiv
_atom_site_adp_type
_atom_site_occupancy
_atom_site_site_symmetry_order
_atom_site_calc_flag
_atom_site_refinement_flags_posn
_atom_site_refinement_flags_adp
_atom_site_refinement_flags_occupancy
_atom_site_disorder_assembly
_atom_site_disorder_group
O1 O 0.63014(19) 0.3835(3) 0.21277(16) 0.0360(4) Uani 1 1 d . . . . .
O2 O 0.4884(2) 0.4638(3) -0.00032(18) 0.0358(4) Uani 1 1 d . . . . .
O3 O -0.0226(2) -0.0351(2) -0.31130(18) 0.0407(5) Uani 1 1 d . . . . .
C1 C 0.6119(3) 0.2982(4) 0.3205(2) 0.0346(6) Uani 1 1 d . . . . .
H1A H 0.6517 0.3662 0.4040 0.042 Uiso 1 1 calc R U . . .
H1B H 0.6689 0.1923 0.3417 0.042 Uiso 1 1 calc R U . . .
C2 C 0.4399(3) 0.2691(3) 0.2673(2) 0.0293(5) Uani 1 1 d . . . . .
C3 C 0.3699(3) 0.3084(3) 0.1218(2) 0.0285(5) Uani 1 1 d . . . . .
C4 C 0.4929(3) 0.3966(3) 0.0987(2) 0.0312(5) Uani 1 1 d . . . . .
C5 C 0.2306(3) 0.2591(3) 0.0211(2) 0.0275(5) Uani 1 1 d . . . . .
C6 C 0.1562(2) 0.3316(3) -0.1164(2) 0.0264(5) Uani 1 1 d . . . . .
C7 C 0.1595(3) 0.5015(3) -0.1382(3) 0.0299(5) Uani 1 1 d . . . . .
H7 H 0.2169 0.5714 -0.0631 0.036 Uiso 1 1 calc R U . . .
C8 C 0.0812(3) 0.5693(3) -0.2662(3) 0.0319(6) Uani 1 1 d . . . . .
H8 H 0.0847 0.6849 -0.2781 0.038 Uiso 1 1 calc R U . . .
C9 C -0.0033(3) 0.4689(4) -0.3783(3) 0.0342(6) Uani 1 1 d . . . . .
H9 H -0.0555 0.5153 -0.4668 0.041 Uiso 1 1 calc R U . . .
C10 C -0.0103(3) 0.3019(3) -0.3594(2) 0.0311(6) Uani 1 1 d . . . . .
H10 H -0.0678 0.2330 -0.4353 0.037 Uiso 1 1 calc R U . . .
C11 C 0.0662(3) 0.2329(3) -0.2300(2) 0.0268(5) Uani 1 1 d . . . . .
C12 C 0.0493(3) 0.0527(3) -0.2132(2) 0.0287(5) Uani 1 1 d . . . . .
C13 C 0.1234(3) -0.0143(3) -0.0711(2) 0.0300(5) Uani 1 1 d . . . . .
H13A H 0.2267 -0.0596 -0.0521 0.036 Uiso 1 1 calc R U . . .
H13B H 0.0590 -0.1063 -0.0652 0.036 Uiso 1 1 calc R U . . .
C14 C 0.1434(3) 0.1135(3) 0.0388(2) 0.0297(5) Uani 1 1 d . . . . .
H14A H 0.0405 0.1491 0.0293 0.036 Uiso 1 1 calc R U . . .
H14B H 0.2023 0.0650 0.1304 0.036 Uiso 1 1 calc R U . . .
C15 C 0.3644(3) 0.2459(3) 0.3438(2) 0.0311(6) Uani 1 1 d . . . . .
H15 H 0.2547 0.2337 0.2963 0.037 Uiso 1 1 calc R U . . .
C16 C 0.4330(3) 0.2374(3) 0.4928(2) 0.0292(5) Uani 1 1 d . . . . .
C17 C 0.3435(3) 0.2932(3) 0.5564(2) 0.0314(5) Uani 1 1 d . . . . .
H17 H 0.2386 0.3249 0.5022 0.038 Uiso 1 1 calc R U . . .
C18 C 0.4054(3) 0.3028(3) 0.6966(2) 0.0319(6) Uani 1 1 d . . . . .
H18 H 0.3440 0.3437 0.7380 0.038 Uiso 1 1 calc R U . . .
C19 C 0.5564(3) 0.2528(3) 0.7764(2) 0.0325(6) Uani 1 1 d . . . . .
H19 H 0.5997 0.2608 0.8726 0.039 Uiso 1 1 calc R U . . .
C20 C 0.6447(3) 0.1911(4) 0.7157(3) 0.0358(6) Uani 1 1 d . . . . .
H20 H 0.7476 0.1537 0.7707 0.043 Uiso 1 1 calc R U . . .
C21 C 0.5839(3) 0.1835(3) 0.5751(2) 0.0343(6) Uani 1 1 d . . . . .
H21 H 0.6456 0.1411 0.5346 0.041 Uiso 1 1 calc R U . . .
loop_
_atom_site_aniso_label
_atom_site_aniso_U_11
_atom_site_aniso_U_22
_atom_site_aniso_U_33
_atom_site_aniso_U_23
_atom_site_aniso_U_13
_atom_site_aniso_U_12
O1 0.0291(8) 0.0486(12) 0.0318(9) 0.0002(8) 0.0149(7) -0.0035(8)
O2 0.0353(9) 0.0468(11) 0.0301(8) -0.0015(8) 0.0189(7) -0.0059(8)
O3 0.0419(10) 0.0332(10) 0.0359(10) -0.0070(8) 0.0074(8) -0.0030(9)
C1 0.0320(12) 0.0447(16) 0.0286(12) 0.0005(11) 0.0148(10) 0.0017(11)
C2 0.0302(12) 0.0317(14) 0.0269(11) -0.0039(10) 0.0136(10) 0.0002(10)
C3 0.0313(12) 0.0308(13) 0.0286(11) -0.0018(10) 0.0179(10) 0.0026(10)
C4 0.0309(12) 0.0368(14) 0.0296(12) -0.0066(11) 0.0167(10) -0.0008(11)
C5 0.0310(12) 0.0286(13) 0.0286(11) -0.0036(10) 0.0184(10) 0.0008(10)
C6 0.0243(11) 0.0310(14) 0.0293(11) -0.0025(10) 0.0170(10) -0.0003(10)
C7 0.0303(12) 0.0307(14) 0.0345(12) -0.0070(10) 0.0195(10) -0.0028(10)
C8 0.0353(13) 0.0271(13) 0.0395(13) 0.0028(11) 0.0223(11) 0.0023(11)
C9 0.0327(12) 0.0398(15) 0.0319(13) 0.0063(12) 0.0159(11) 0.0055(12)
C10 0.0288(12) 0.0351(14) 0.0293(12) -0.0036(11) 0.0129(10) -0.0007(11)
C11 0.0239(11) 0.0311(13) 0.0283(11) -0.0001(10) 0.0141(9) 0.0014(9)
C12 0.0236(11) 0.0314(13) 0.0315(12) -0.0049(11) 0.0127(10) -0.0001(10)
C13 0.0311(12) 0.0269(14) 0.0343(12) 0.0002(11) 0.0165(10) -0.0023(10)
C14 0.0301(12) 0.0349(14) 0.0283(12) -0.0003(10) 0.0167(10) -0.0012(10)
C15 0.0288(12) 0.0374(15) 0.0273(12) -0.0036(11) 0.0128(10) 0.0002(11)
C16 0.0314(12) 0.0317(14) 0.0267(11) -0.0008(10) 0.0149(10) -0.0025(10)
C17 0.0277(12) 0.0372(14) 0.0304(12) 0.0048(11) 0.0140(10) 0.0020(11)
C18 0.0349(12) 0.0371(15) 0.0298(12) -0.0004(11) 0.0199(10) 0.0007(11)
C19 0.0379(13) 0.0352(14) 0.0242(11) 0.0008(11) 0.0136(10) -0.0017(11)
C20 0.0319(13) 0.0413(16) 0.0328(12) 0.0062(12) 0.0131(11) 0.0075(11)
C21 0.0375(14) 0.0384(15) 0.0328(12) 0.0006(12) 0.0207(11) 0.0067(11)
loop_
_atom_type_symbol
_atom_type_description
_atom_type_scat_dispersion_real
_atom_type_scat_dispersion_imag
_atom_type_scat_source
C C 0.0181 0.0091
;
International Tables for Crystallography
(Vol. C, Tables 4.2.6.8 and 6.1.1.4)
;
H H 0.0000 0.0000
;
International Tables for Crystallography
(Vol. C, Table 6.1.1.4)
;
O O 0.0492 0.0322
;
International Tables for Crystallography
(Vol. C, Tables 4.2.6.8 and 6.1.1.4)
;
loop_
_geom_angle_atom_site_label_1
_geom_angle_atom_site_label_2
_geom_angle_atom_site_label_3
_geom_angle
_geom_angle_site_symmetry_1
_geom_angle_site_symmetry_3
_geom_angle_publ_flag
C4 O1 C1 111.68(18) . . ?
O1 C1 C2 105.63(19) . . ?
O1 C1 H1A 110.6 . . ?
C2 C1 H1A 110.6 . . ?
O1 C1 H1B 110.6 . . ?
C2 C1 H1B 110.6 . . ?
H1A C1 H1B 108.7 . . ?
C15 C2 C3 126.7(2) . . ?
C15 C2 C1 125.7(2) . . ?
C3 C2 C1 106.27(19) . . ?
C5 C3 C2 128.9(2) . . ?
C5 C3 C4 124.5(2) . . ?
C2 C3 C4 106.0(2) . . ?
O2 C4 O1 119.9(2) . . ?
O2 C4 C3 131.2(2) . . ?
O1 C4 C3 108.8(2) . . ?
C3 C5 C6 124.5(2) . . ?
C3 C5 C14 121.7(2) . . ?
C6 C5 C14 113.6(2) . . ?
C7 C6 C11 117.4(2) . . ?
C7 C6 C5 122.0(2) . . ?
C11 C6 C5 120.3(2) . . ?
C8 C7 C6 121.5(2) . . ?
C8 C7 H7 119.2 . . ?
C6 C7 H7 119.2 . . ?
C7 C8 C9 120.3(2) . . ?
C7 C8 H8 119.9 . . ?
C9 C8 H8 119.9 . . ?
C10 C9 C8 119.3(2) . . ?
C10 C9 H9 120.3 . . ?
C8 C9 H9 120.3 . . ?
C9 C10 C11 120.7(2) . . ?
C9 C10 H10 119.7 . . ?
C11 C10 H10 119.7 . . ?
C10 C11 C6 120.7(2) . . ?
C10 C11 C12 118.9(2) . . ?
C6 C11 C12 120.4(2) . . ?
O3 C12 C11 121.0(2) . . ?
O3 C12 C13 121.9(2) . . ?
C11 C12 C13 117.2(2) . . ?
C12 C13 C14 114.0(2) . . ?
C12 C13 H13A 108.7 . . ?
C14 C13 H13A 108.7 . . ?
C12 C13 H13B 108.7 . . ?
C14 C13 H13B 108.7 . . ?
H13A C13 H13B 107.6 . . ?
C5 C14 C13 108.03(19) . . ?
C5 C14 H14A 110.1 . . ?
C13 C14 H14A 110.1 . . ?
C5 C14 H14B 110.1 . . ?
C13 C14 H14B 110.1 . . ?
H14A C14 H14B 108.4 . . ?
C2 C15 C16 127.1(2) . . ?
C2 C15 H15 116.5 . . ?
C16 C15 H15 116.5 . . ?
C21 C16 C17 118.0(2) . . ?
C21 C16 C15 123.9(2) . . ?
C17 C16 C15 117.9(2) . . ?
C18 C17 C16 121.2(2) . . ?
C18 C17 H17 119.4 . . ?
C16 C17 H17 119.4 . . ?
C19 C18 C17 119.9(2) . . ?
C19 C18 H18 120.1 . . ?
C17 C18 H18 120.1 . . ?
C18 C19 C20 119.8(2) . . ?
C18 C19 H19 120.1 . . ?
C20 C19 H19 120.1 . . ?
C19 C20 C21 120.4(2) . . ?
C19 C20 H20 119.8 . . ?
C21 C20 H20 119.8 . . ?
C20 C21 C16 120.6(2) . . ?
C20 C21 H21 119.7 . . ?
C16 C21 H21 119.7 . . ?
loop_
_geom_bond_atom_site_label_1
_geom_bond_atom_site_label_2
_geom_bond_distance
_geom_bond_site_symmetry_2
_geom_bond_publ_flag
O1 C4 1.360(3) . ?
O1 C1 1.447(3) . ?
O2 C4 1.200(3) . ?
O3 C12 1.217(3) . ?
C1 C2 1.507(3) . ?
C1 H1A 0.9900 . ?
C1 H1B 0.9900 . ?
C2 C15 1.346(3) . ?
C2 C3 1.466(3) . ?
C3 C5 1.363(3) . ?
C3 C4 1.497(3) . ?
C5 C6 1.476(3) . ?
C5 C14 1.511(4) . ?
C6 C7 1.403(4) . ?
C6 C11 1.409(3) . ?
C7 C8 1.380(4) . ?
C7 H7 0.9500 . ?
C8 C9 1.397(4) . ?
C8 H8 0.9500 . ?
C9 C10 1.378(4) . ?
C9 H9 0.9500 . ?
C10 C11 1.394(3) . ?
C10 H10 0.9500 . ?
C11 C12 1.493(4) . ?
C12 C13 1.500(3) . ?
C13 C14 1.538(3) . ?
C13 H13A 0.9900 . ?
C13 H13B 0.9900 . ?
C14 H14A 0.9900 . ?
C14 H14B 0.9900 . ?
C15 C16 1.468(3) . ?
C15 H15 0.9500 . ?
C16 C21 1.395(4) . ?
C16 C17 1.402(3) . ?
C17 C18 1.385(3) . ?
C17 H17 0.9500 . ?
C18 C19 1.381(4) . ?
C18 H18 0.9500 . ?
C19 C20 1.385(4) . ?
C19 H19 0.9500 . ?
C20 C21 1.388(3) . ?
C20 H20 0.9500 . ?
C21 H21 0.9500 . ?
loop_
_geom_torsion_atom_site_label_1
_geom_torsion_atom_site_label_2
_geom_torsion_atom_site_label_3
_geom_torsion_atom_site_label_4
_geom_torsion
_geom_torsion_site_symmetry_1
_geom_torsion_site_symmetry_2
_geom_torsion_site_symmetry_3
_geom_torsion_site_symmetry_4
_geom_torsion_publ_flag
C4 O1 C1 C2 -5.1(3) . . . . ?
O1 C1 C2 C15 -156.1(3) . . . . ?
O1 C1 C2 C3 11.3(3) . . . . ?
C15 C2 C3 C5 -33.9(4) . . . . ?
C1 C2 C3 C5 158.8(3) . . . . ?
C15 C2 C3 C4 154.2(3) . . . . ?
C1 C2 C3 C4 -13.0(3) . . . . ?
C1 O1 C4 O2 -179.7(2) . . . . ?
C1 O1 C4 C3 -3.2(3) . . . . ?
C5 C3 C4 O2 14.0(5) . . . . ?
C2 C3 C4 O2 -173.7(3) . . . . ?
C5 C3 C4 O1 -162.0(2) . . . . ?
C2 C3 C4 O1 10.3(3) . . . . ?
C2 C3 C5 C6 166.9(2) . . . . ?
C4 C3 C5 C6 -22.6(4) . . . . ?
C2 C3 C5 C14 -17.7(4) . . . . ?
C4 C3 C5 C14 152.8(2) . . . . ?
C3 C5 C6 C7 -39.5(3) . . . . ?
C14 C5 C6 C7 144.8(2) . . . . ?
C3 C5 C6 C11 146.6(2) . . . . ?
C14 C5 C6 C11 -29.2(3) . . . . ?
C11 C6 C7 C8 -1.7(3) . . . . ?
C5 C6 C7 C8 -175.8(2) . . . . ?
C6 C7 C8 C9 -0.4(3) . . . . ?
C7 C8 C9 C10 1.3(4) . . . . ?
C8 C9 C10 C11 -0.1(4) . . . . ?
C9 C10 C11 C6 -2.0(3) . . . . ?
C9 C10 C11 C12 177.1(2) . . . . ?
C7 C6 C11 C10 2.8(3) . . . . ?
C5 C6 C11 C10 177.1(2) . . . . ?
C7 C6 C11 C12 -176.2(2) . . . . ?
C5 C6 C11 C12 -2.0(3) . . . . ?
C10 C11 C12 O3 4.1(3) . . . . ?
C6 C11 C12 O3 -176.8(2) . . . . ?
C10 C11 C12 C13 -175.5(2) . . . . ?
C6 C11 C12 C13 3.7(3) . . . . ?
O3 C12 C13 C14 -154.1(2) . . . . ?
C11 C12 C13 C14 25.4(3) . . . . ?
C3 C5 C14 C13 -120.3(2) . . . . ?
C6 C5 C14 C13 55.6(3) . . . . ?
C12 C13 C14 C5 -54.0(3) . . . . ?
C3 C2 C15 C16 -167.5(3) . . . . ?
C1 C2 C15 C16 -2.7(4) . . . . ?
C2 C15 C16 C21 -28.4(4) . . . . ?
C2 C15 C16 C17 148.9(3) . . . . ?
C21 C16 C17 C18 3.3(4) . . . . ?
C15 C16 C17 C18 -174.1(2) . . . . ?
C16 C17 C18 C19 -1.7(4) . . . . ?
C17 C18 C19 C20 -0.9(4) . . . . ?
C18 C19 C20 C21 1.8(4) . . . . ?
C19 C20 C21 C16 -0.2(4) . . . . ?
C17 C16 C21 C20 -2.4(4) . . . . ?
C15 C16 C21 C20 174.9(3) . . . . ?
