#------------------------------------------------------------------------------
#$Date: 2021-01-07 06:30:17 +0200 (Thu, 07 Jan 2021) $
#$Revision: 260598 $
#$URL: file:///home/coder/svn-repositories/cod/cif/7/12/72/7127292.cif $
#------------------------------------------------------------------------------
#
# This file is available in the Crystallography Open Database (COD),
# http://www.crystallography.net/
#
# All data on this site have been placed in the public domain by the
# contributors.
#
data_7127292
loop_
_publ_author_name
'Tao, Mengna'
'Li, Wenbo'
'Zhang, Junliang'
_publ_section_title
;
 Pd/Xiang-Phos-catalyzed enantioselective intermolecular
 carboheterofunctionalization of norbornene and norbornadiene.
;
_journal_issue                   86
_journal_name_full
'Chemical communications (Cambridge, England)'
_journal_page_first              13125
_journal_page_last               13128
_journal_paper_doi               10.1039/d0cc04996d
_journal_volume                  56
_journal_year                    2020
_chemical_absolute_configuration ad
_chemical_formula_moiety         'C20 H21 N O2 S'
_chemical_formula_sum            'C20 H21 N O2 S'
_chemical_formula_weight         339.44
_space_group_crystal_system      triclinic
_space_group_IT_number           1
_space_group_name_Hall           'P 1'
_space_group_name_H-M_alt        'P 1'
_atom_sites_solution_hydrogens   geom
_atom_sites_solution_primary     dual
_audit_creation_date             2019-01-07
_audit_creation_method
;
Olex2 1.2
(compiled 2018.05.29 svn.r3508 for OlexSys, GUI svn.r5506)
;
_audit_update_record
;
2020-02-02 deposited with the CCDC.	2020-09-16 downloaded from the CCDC.
;
_cell_angle_alpha                107.436(5)
_cell_angle_beta                 107.421(7)
_cell_angle_gamma                90.517(6)
_cell_formula_units_Z            1
_cell_length_a                   6.0451(5)
_cell_length_b                   8.3029(4)
_cell_length_c                   9.2867(5)
_cell_measurement_reflns_used    4404
_cell_measurement_temperature    293(2)
_cell_measurement_theta_max      73.9950
_cell_measurement_theta_min      5.5960
_cell_volume                     421.80(5)
_computing_cell_refinement       'CrysAlisPro 1.171.39.32a (Rigaku OD, 2017)'
_computing_data_collection       'CrysAlisPro 1.171.39.32a (Rigaku OD, 2017)'
_computing_data_reduction        'CrysAlisPro 1.171.39.32a (Rigaku OD, 2017)'
_computing_molecular_graphics    'Olex2 (Dolomanov et al., 2009)'
_computing_publication_material  'Olex2 (Dolomanov et al., 2009)'
_computing_structure_refinement  'ShelXL (Sheldrick, 2015)'
_computing_structure_solution    'ShelXT (Sheldrick, 2015)'
_diffrn_ambient_temperature      293(2)
_diffrn_detector                 'CCD plate'
_diffrn_measured_fraction_theta_full 0.984
_diffrn_measured_fraction_theta_max 0.984
_diffrn_measurement_details
;
List of Runs (angles in degrees, time in seconds):

  # Type    Start    End  Width  t~exp~   \w     \q     \k     \f   Frames
#--------------------------------------------------------------------------
  1  \w     -1.00  29.00   1.00    1.00    --    0.00  38.00  60.00   30
  2  \w     23.00  69.00   1.00    1.00    --    0.00  38.00 -60.00   46
  3  \w     56.00  84.00   1.00    1.00    --    0.00  77.00 -60.00   28
  4  \w    -22.00  88.00   1.00    1.00    --    0.00  19.00-150.00  110
  5  \w    -22.00  37.00   1.00    1.00    --    0.00  57.00  90.00   59
  6  \w    -27.00   3.00   1.00    1.00    --    0.00  77.00 -60.00   30
  7  \w      9.00  56.00   1.00    1.00    --    0.00  77.00 -30.00   47
  8  \w    -29.00   2.00   1.00    1.00    --    0.00  77.00 -30.00   31
  9  \w    -18.00   7.00   1.00    1.00    --    0.00  38.00 -60.00   25
 10  \w     49.00  87.00   1.00    1.00    --    0.00  57.00  90.00   38
 11  \w     52.00 123.00   1.00    1.00    --   95.80 -82.00-120.00   71
 12  \w    129.00 178.00   1.00    1.00    --   95.80  45.00  90.00   49
 13  \w     64.00  92.00   1.00    1.00    --   95.80  82.00 -90.00   28
 14  \w     65.00 108.00   1.00    1.00    --   95.80  77.00-150.00   43
 15  \w     77.00 105.00   1.00    1.00    --   95.80  45.00  90.00   28
 16  \w     71.00  97.00   1.00    1.00    --   95.80  61.00 -30.00   26
 17  \w     63.00  91.00   1.00    1.00    --   95.80  82.00  30.00   28
 18  \w    123.00 177.00   1.00    1.00    --   95.80  61.00   0.00   54
 19  \w      9.00  53.00   1.00    1.00    --   95.80 -82.00  90.00   44
 20  \w     63.00 105.00   1.00    1.00    --   95.80  82.00-180.00   42
 21  \w     67.00 126.00   1.00    1.00    --   95.80 -82.00  90.00   59
 22  \w     65.00  92.00   1.00    1.00    --   95.80  77.00 -30.00   27
 23  \w    115.00 184.00   1.00    1.00    --   95.80  77.00 -30.00   69
 24  \w     71.00 140.00   1.00    1.00    --   95.80  61.00 150.00   69
 25  \w     63.00  99.00   1.00    1.00    --   95.80  82.00  60.00   36
 26  \w     66.00  92.00   1.00    1.00    --   95.80  77.00 150.00   26
 27  \w    100.00 184.00   1.00    1.00    --   95.80  82.00 -90.00   84
 28  \w     63.00  89.00   1.00    1.00    --   95.80  82.00   0.00   26
 29  \w     65.00  90.00   1.00    1.00    --   95.80  77.00 -60.00   25
 30  \w     72.00 108.00   1.00    1.00    --   95.80  61.00 120.00   36
 31  \w     71.00  97.00   1.00    1.00    --   95.80  61.00   0.00   26
 32  \w      7.00 100.00   1.00    1.00    --   95.80 -82.00  60.00   93
 33  \w     76.00 146.00   1.00    1.00    --   95.80  45.00-150.00   70
 34  \w     74.00 128.00   1.00    1.00    --   95.80 -82.00-180.00   54
 35  \w     40.00  66.00   1.00    1.00    --   95.80 -82.00-180.00   26
 36  \w    112.00 185.00   1.00    1.00    --   95.80  77.00 120.00   73
 37  \w     64.00  91.00   1.00    1.00    --   95.80  82.00 150.00   27
 38  \w     75.00 107.00   1.00    1.00    --   95.80  45.00 -90.00   32
 39  \w    119.00 180.00   1.00    1.00    --   95.80  45.00 -90.00   61
 40  \w     75.00 118.00   1.00    1.00    --   95.80  45.00 -30.00   43
 41  \w     76.00 111.00   1.00    1.00    --   95.80  45.00   0.00   35
 42  \w     75.00 108.00   1.00    1.00    --   95.80  45.00  60.00   33
 43  \w    136.00 185.00   1.00    1.00    --   95.80  45.00  60.00   49
 44  \w     71.00  97.00   1.00    1.00    --   95.80  61.00 -90.00   26
 45  \w     66.00  92.00   1.00    1.00    --   95.80  77.00  60.00   26
 46  \w     66.00  92.00   1.00    1.00    --   95.80  77.00  90.00   26
 47  \w     66.00  91.00   1.00    1.00    --   95.80  82.00-150.00   25
 48  \w     82.00 107.00   1.00    1.00    --   95.80  30.00 -60.00   25
 49  \w    138.00 163.00   1.00    1.00    --   95.80  30.00 -60.00   25
 50  \w     75.00 104.00   1.00    1.00    --   95.80  45.00  30.00   29
 51  \w    141.00 180.00   1.00    1.00    --   95.80  45.00  30.00   39
 52  \w     65.00  91.00   1.00    1.00    --   95.80  77.00  30.00   26
 53  \w     66.00  92.00   1.00    1.00    --   95.80  77.00 120.00   26
 54  \w    125.00 179.00   1.00    1.00    --   95.80  77.00 150.00   54
 55  \w     65.00  91.00   1.00    1.00    --   95.80  77.00 -90.00   26
 56  \w    136.00 162.00   1.00    1.00    --   95.80  77.00-150.00   26
 57  \w     79.00 116.00   1.00    1.00    --   95.80 -82.00 -30.00   37
 58  \w    156.00 181.00   1.00    1.00    --   95.80  82.00  30.00   25
;
_diffrn_measurement_device       'four-circle diffractometer'
_diffrn_measurement_device_type  'XtaLAB AFC12 (RINC): Kappa dual home/near'
_diffrn_measurement_method       '\w scans'
_diffrn_orient_matrix_type
'CrysAlisPro convention (1999,Acta A55,543-557)'
_diffrn_orient_matrix_UB_11      -0.1044239000
_diffrn_orient_matrix_UB_12      0.1334403000
_diffrn_orient_matrix_UB_13      -0.0781817000
_diffrn_orient_matrix_UB_21      -0.0914335000
_diffrn_orient_matrix_UB_22      -0.1399386000
_diffrn_orient_matrix_UB_23      -0.1626203000
_diffrn_orient_matrix_UB_31      -0.2300545000
_diffrn_orient_matrix_UB_32      -0.0297218000
_diffrn_orient_matrix_UB_33      0.0323288000
_diffrn_radiation_monochromator  graphite
_diffrn_radiation_probe          x-ray
_diffrn_radiation_type           CuK\a
_diffrn_radiation_wavelength     1.54184
_diffrn_reflns_av_R_equivalents  0.0688
_diffrn_reflns_av_unetI/netI     0.0600
_diffrn_reflns_Laue_measured_fraction_full 0.984
_diffrn_reflns_Laue_measured_fraction_max 0.984
_diffrn_reflns_limit_h_max       7
_diffrn_reflns_limit_h_min       -7
_diffrn_reflns_limit_k_max       9
_diffrn_reflns_limit_k_min       -9
_diffrn_reflns_limit_l_max       11
_diffrn_reflns_limit_l_min       -11
_diffrn_reflns_number            5537
_diffrn_reflns_point_group_measured_fraction_full 0.861
_diffrn_reflns_point_group_measured_fraction_max 0.861
_diffrn_reflns_theta_full        67.049
_diffrn_reflns_theta_max         67.048
_diffrn_reflns_theta_min         5.263
_diffrn_source                   'fine-focus sealed X-ray tube'
_diffrn_source_type              'Enhance (Cu) X-ray Source'
_exptl_absorpt_coefficient_mu    1.793
_exptl_absorpt_correction_T_max  1.00000
_exptl_absorpt_correction_T_min  0.34004
_exptl_absorpt_correction_type   multi-scan
_exptl_absorpt_process_details
;
CrysAlisPro 1.171.39.32a (Rigaku Oxford Diffraction, 2017)
Empirical absorption correction using spherical harmonics,
 implemented in SCALE3 ABSPACK scaling algorithm.
;
_exptl_crystal_colour            'clear light colourless'
_exptl_crystal_colour_lustre     clear
_exptl_crystal_colour_modifier   light
_exptl_crystal_colour_primary    colourless
_exptl_crystal_density_diffrn    1.336
_exptl_crystal_description       block
_exptl_crystal_F_000             180
_exptl_crystal_size_max          0.28
_exptl_crystal_size_mid          0.26
_exptl_crystal_size_min          0.18
_refine_diff_density_max         0.742
_refine_diff_density_min         -0.331
_refine_diff_density_rms         0.081
_refine_ls_abs_structure_details
;
 Classical Flack method preferred over Parsons because s.u. lower.
;
_refine_ls_abs_structure_Flack   0.00(3)
_refine_ls_extinction_method     none
_refine_ls_goodness_of_fit_ref   1.073
_refine_ls_hydrogen_treatment    constr
_refine_ls_matrix_type           full
_refine_ls_number_parameters     218
_refine_ls_number_reflns         2596
_refine_ls_number_restraints     3
_refine_ls_restrained_S_all      1.072
_refine_ls_R_factor_all          0.0674
_refine_ls_R_factor_gt           0.0645
_refine_ls_shift/su_max          0.000
_refine_ls_shift/su_mean         0.000
_refine_ls_structure_factor_coef Fsqd
_refine_ls_weighting_details
'w=1/[\s^2^(Fo^2^)+(0.1441P)^2^] where P=(Fo^2^+2Fc^2^)/3'
_refine_ls_weighting_scheme      calc
_refine_ls_wR_factor_gt          0.1717
_refine_ls_wR_factor_ref         0.1754
_reflns_Friedel_coverage         0.749
_reflns_Friedel_fraction_full    0.737
_reflns_Friedel_fraction_max     0.737
_reflns_number_gt                2458
_reflns_number_total             2596
_reflns_threshold_expression     'I > 2\s(I)'
_cod_data_source_file            d0cc04996d2.cif
_cod_data_source_block           exp_623
_cod_depositor_comments
'Adding full bibliography for 7127292--7127293.cif.'
_cod_database_code               7127292
_shelx_shelxl_version_number     2016/6
_shelx_space_group_comment
;
The symmetry employed for this shelxl refinement is uniquely defined
by the following loop, which should always be used as a source of
symmetry information in preference to the above space-group names.
They are only intended as comments.
;
_reflns_odcompleteness_completeness 98.67
_reflns_odcompleteness_iscentric 1
_reflns_odcompleteness_theta     66.97
_olex2_refinement_description
;
1. Fixed Uiso
 At 1.2 times of:
  All C(H) groups, All C(H,H) groups
 At 1.5 times of:
  All C(H,H,H) groups
2.a Ternary CH refined with riding coordinates:
 C1(H1), C2(H2), C5(H5), C6(H6)
2.b Secondary CH2 refined with riding coordinates:
 C3(H3A,H3B), C4(H4A,H4B), C13(H13A,H13B)
2.c Aromatic/amide H refined with riding coordinates:
 C8(H8), C9(H9), C10(H10), C11(H11), C15(H15), C16(H16), C18(H18), C19(H19)
2.d Idealised Me refined as rotating group:
 C20(H20A,H20B,H20C)
;
_shelx_res_file
;
TITL exp_623_a.res in P1
    exp_623.res
    created by SHELXL-2016/6 at 10:09:32 on 07-Jan-2019
REM Old TITL exp_623 in P1
REM SHELXT solution in P1
REM R1 0.095, Rweak 0.040, Alpha 0.000, Orientation as input
REM Flack x = 0.105 ( 0.033 ) from Parsons' quotients
REM Formula found by SHELXT: C19 N2 O2 S
CELL 1.54184 6.0451 8.3029 9.2867 107.436 107.421 90.517
ZERR 1 0.0005 0.0004 0.0005 0.005 0.007 0.006
LATT -1
SFAC C H N O S
UNIT 20 21 1 2 1

L.S. 64
PLAN  6
BOND $H
list 4
fmap 2 53
ACTA
SHEL 999 0.837
OMIT 1 -2 1
OMIT -1 2 -1
OMIT -3 0 1
OMIT 1 1 3
OMIT 1 4 1
OMIT 0 -1 4
OMIT -2 1 0
OMIT -2 2 -1
OMIT 2 2 -3
OMIT 2 -2 1
OMIT 2 -1 0
OMIT -5 -4 1
OMIT 3 2 4
OMIT 4 3 0
OMIT 3 3 0
OMIT -3 -1 2
OMIT 2 -1 8
OMIT -4 4 -3
REM <olex2.extras>
REM <HklSrc "%.\\exp_623.hkl">
REM </olex2.extras>

WGHT    0.144100
FVAR       1.25955
S1    5    0.669980    0.596589    0.346419    11.00000    0.02033    0.01794 =
         0.01825   -0.00017    0.00759   -0.00229
O1    4    0.908832    0.567476    0.376006    11.00000    0.02337    0.02256 =
         0.02475   -0.00268    0.00978   -0.00512
O2    4    0.573115    0.698394    0.248540    11.00000    0.03258    0.02030 =
         0.02311   -0.00077    0.01092    0.00180
N1    3    0.634218    0.691844    0.518509    11.00000    0.02155    0.01651 =
         0.02061    0.00260    0.00314    0.00095
C1    1    0.370304    0.786664    0.672447    11.00000    0.01746    0.02398 =
         0.02047   -0.00008    0.00610   -0.00489
AFIX  13
H1    2    0.206566    0.742876    0.643740    11.00000   -1.20000
AFIX   0
C2    1    0.423706    0.973809    0.783542    11.00000    0.02978    0.02263 =
         0.02186    0.00021    0.01376    0.00585
AFIX  13
H2    2    0.445962    0.987836    0.895741    11.00000   -1.20000
AFIX   0
C3    1    0.236590    1.075963    0.709715    11.00000    0.04036    0.03769 =
         0.03644    0.01428    0.02178    0.01894
AFIX  23
H3A   2    0.244273    1.188469    0.783508    11.00000   -1.20000
H3B   2    0.081408    1.017991    0.678407    11.00000   -1.20000
AFIX   0
C4    1    0.300795    1.085462    0.562473    11.00000    0.03492    0.03322 =
         0.03567    0.01349    0.01569    0.01752
AFIX  23
H4A   2    0.175129    1.030838    0.464730    11.00000   -1.20000
H4B   2    0.336014    1.202290    0.569429    11.00000   -1.20000
AFIX   0
C5    1    0.519541    0.988553    0.570851    11.00000    0.02613    0.02270 =
         0.02814    0.00557    0.01456    0.00259
AFIX  13
H5    2    0.618693    1.014292    0.512483    11.00000   -1.20000
AFIX   0
C6    1    0.436132    0.798671    0.526371    11.00000    0.01431    0.02154 =
         0.01953   -0.00082    0.00458   -0.00130
AFIX  13
H6    2    0.303565    0.760044    0.428060    11.00000   -1.20000
AFIX   0
C7    1    0.684028    0.618397    0.645260    11.00000    0.02586    0.01727 =
         0.01372   -0.00143    0.00628   -0.00479
C8    1    0.860324    0.519423    0.684692    11.00000    0.02557    0.02174 =
         0.02010   -0.00090    0.00898    0.00147
AFIX  43
H8    2    0.960444    0.487177    0.624613    11.00000   -1.20000
AFIX   0
C9    1    0.881505    0.469722    0.819559    11.00000    0.02801    0.01973 =
         0.02404    0.00385    0.00545    0.00314
AFIX  43
H9    2    0.997326    0.402024    0.848863    11.00000   -1.20000
AFIX   0
C10   1    0.735191    0.518721    0.909278    11.00000    0.03231    0.02040 =
         0.02189    0.00247    0.00722   -0.00352
AFIX  43
H10   2    0.753361    0.484207    0.998244    11.00000   -1.20000
AFIX   0
C11   1    0.559384    0.619973    0.867861    11.00000    0.02503    0.02323 =
         0.02076    0.00062    0.00960   -0.00518
AFIX  43
H11   2    0.460054    0.653133    0.928409    11.00000   -1.20000
AFIX   0
C12   1    0.535399    0.670298    0.734745    11.00000    0.01818    0.01556 =
         0.01956   -0.00556    0.00667   -0.00612
C13   1    0.635614    1.035364    0.751290    11.00000    0.02762    0.01950 =
         0.02702    0.00112    0.00908   -0.00262
AFIX  23
H13A  2    0.767943    0.972933    0.779587    11.00000   -1.20000
H13B  2    0.680727    1.156371    0.802415    11.00000   -1.20000
AFIX   0
C14   1    0.503560    0.396388    0.267637    11.00000    0.02351    0.01936 =
         0.01773   -0.00095    0.00852   -0.00213
C15   1    0.613651    0.251821    0.280727    11.00000    0.02008    0.02899 =
         0.01972    0.00474    0.00654    0.00252
AFIX  43
H15   2    0.774063    0.259605    0.328288    11.00000   -1.20000
AFIX   0
C16   1    0.477416    0.095600    0.220821    11.00000    0.02953    0.01838 =
         0.02184    0.00112    0.00836    0.00364
AFIX  43
H16   2    0.548834   -0.001720    0.227941    11.00000   -1.20000
AFIX   0
C17   1    0.237375    0.082111    0.150740    11.00000    0.02893    0.02046 =
         0.01655   -0.00024    0.00610   -0.00490
C18   1    0.132664    0.228852    0.140101    11.00000    0.02031    0.03018 =
         0.02407   -0.00061    0.00373   -0.00449
AFIX  43
H18   2   -0.028047    0.221833    0.094275    11.00000   -1.20000
AFIX   0
C19   1    0.265208    0.385033    0.196997    11.00000    0.02081    0.02057 =
         0.01935   -0.00080    0.00215    0.00012
AFIX  43
H19   2    0.194019    0.481879    0.187679    11.00000   -1.20000
AFIX   0
C20   1    0.093125   -0.088031    0.088692    11.00000    0.03447    0.02649 =
         0.03316    0.00288    0.00835   -0.00987
AFIX 137
H20A  2    0.054532   -0.130733   -0.025002    11.00000   -1.50000
H20B  2   -0.047593   -0.075363    0.116873    11.00000   -1.50000
H20C  2    0.180669   -0.166237    0.134731    11.00000   -1.50000
AFIX   0
HKLF 4




REM  exp_623_a.res in P1
REM R1 =  0.0645 for    2458 Fo > 4sig(Fo)  and  0.0674 for all    2596 data
REM    218 parameters refined using      3 restraints

END

WGHT      0.1441      0.0000

REM Highest difference peak  0.742,  deepest hole -0.331,  1-sigma level  0.081
Q1    1   0.6658  0.6371  0.4528  11.00000  0.05    0.74
Q2    1   0.6747  0.5749  0.2428  11.00000  0.05    0.67
Q3    1   0.5813  0.6600  0.1424  11.00000  0.05    0.50
Q4    1   0.5846  0.7005  0.3345  11.00000  0.05    0.44
Q5    1   0.4099  0.8046  0.5917  11.00000  0.05    0.38
Q6    1   0.8905  0.5970  0.4828  11.00000  0.05    0.38
;
_shelx_res_checksum              41754
_shelx_hkl_file
;
  -7   0   5   26.13    2.65
  -7   0   6    7.41    1.58
  -7   1   3    9.16    2.09
  -7   1   4   15.98    2.51
  -7   1   5   18.03    2.54
  -7   1   6    6.53    1.55
  -7   2   3    5.77    1.91
  -7   2   4    8.68    2.00
  -7   2   5   27.53    2.79
  -7   3   3   21.77    2.60
  -7   3   4  103.33    5.08
  -6  -6   4   51.17    2.66
  -6  -6   5   12.51    1.32
  -6  -6   6   13.00    1.16
  -6  -5   1   41.68    3.02
  -6  -5   1   88.47    5.19
  -6  -5   2   14.92    2.21
  -6  -5   3   51.40    3.61
  -6  -5   3   70.51    5.14
  -6  -5   4   57.40    4.49
  -6  -5   4   39.92    2.99
  -6  -5   5   55.47    3.17
  -6  -5   6    4.87    1.14
  -6  -5   7   34.86    1.82
  -6  -4   2   59.53    5.64
  -6  -4   2   37.27    3.48
  -6  -4   3   89.61    6.32
  -6  -4   3   65.79    4.41
  -6  -4   4   52.06    4.68
  -6  -4   4   41.04    3.33
  -6  -4   5   48.88    4.05
  -6  -4   5   43.54    3.09
  -6  -4   6   22.97    2.00
  -6  -4   7   60.59    3.40
  -6  -4   7  114.85    3.53
  -6  -4   8   75.49    2.37
  -6  -4   8   74.23    3.29
  -6  -3   0   21.75    4.47
  -6  -3   1   94.46    7.75
  -6  -3   3    3.83    2.55
  -6  -3   3    2.33    1.63
  -6  -3   4    0.99    1.98
  -6  -3   4    0.69    1.30
  -6  -3   5  113.38    4.79
  -6  -3   5  111.91    6.03
  -6  -3   6  415.30   10.28
  -6  -3   7   41.01    2.96
  -6  -3   8   54.05    3.13
  -6  -3   9    7.91    0.98
  -6  -2  -1    3.92    3.67
  -6  -2  -1   72.97    6.86
  -6  -2   0  104.03    8.53
  -6  -2   1   68.87    6.81
  -6  -2   2    1.91    2.61
  -6  -2   3   33.19    3.02
  -6  -2   3   55.02    5.07
  -6  -2   4  232.87    9.50
  -6  -2   6   48.36    3.42
  -6  -2   7   18.43    2.76
  -6  -2   7   25.26    2.42
  -6  -2   8   22.59    2.64
  -6  -2   8   31.04    2.42
  -6  -2   9   18.69    1.55
  -6  -1  -3   33.67    3.74
  -6  -1  -2   61.35    6.29
  -6  -1  -2    3.39    2.98
  -6  -1  -1    2.24    3.29
  -6  -1   0   63.01    6.95
  -6  -1   1   72.54    6.91
  -6  -1   2    9.20    3.08
  -6  -1   3   45.98    4.29
  -6  -1   4  105.42    6.98
  -6  -1   5   48.13    3.33
  -6  -1   5   91.38    6.64
  -6  -1   6  132.20    8.02
  -6  -1   6   97.39    5.06
  -6  -1   7   16.96    2.00
  -6  -1   7   15.07    2.89
  -6  -1   8   13.21    1.65
  -6  -1   8   13.35    2.36
  -6  -1   9    2.31    0.67
  -6  -1   9    2.21    1.04
  -6   0  -3   35.16    4.54
  -6   0  -2   15.35    4.20
  -6   0  -1    6.33    3.53
  -6   0   0    3.72    3.08
  -6   0   1  224.76    9.96
  -6   0   1  218.79   11.02
  -6   0   2   21.34    3.52
  -6   0   3  194.90   10.14
  -6   0   4  167.10    9.59
  -6   0   5   30.51    4.34
  -6   0   5   15.28    1.98
  -6   0   6   44.34    4.97
  -6   0   6   34.40    2.92
  -6   0   7   12.37    1.78
  -6   0   7   13.65    2.82
  -6   0   8   35.56    3.58
  -6   0   8   29.94    2.27
  -6   0   9   91.94    3.33
  -6   0   9   98.40    4.51
  -6   1  -3   43.52    4.88
  -6   1  -2   43.36    5.41
  -6   1  -1   31.28    4.89
  -6   1   0  118.52    7.99
  -6   1   1   34.01    4.31
  -6   1   2  175.82    9.70
  -6   1   3  173.05    9.87
  -6   1   4   15.37    3.47
  -6   1   5    3.52    2.38
  -6   1   5    1.33    0.87
  -6   1   6   33.77    2.80
  -6   1   6   52.92    5.30
  -6   1   7   40.03    4.20
  -6   1   7   30.55    2.47
  -6   1   8   47.83    2.65
  -6   2  -3   39.96    4.15
  -6   2  -2    9.02    2.77
  -6   2   0   24.26   13.49
  -6   2   0   14.57    3.28
  -6   2   1   12.45    3.25
  -6   2   2   16.12    3.60
  -6   2   3   11.89    3.19
  -6   2   4    1.62    0.83
  -6   2   4    2.27    2.32
  -6   2   5   18.62    2.05
  -6   2   5   39.73    4.65
  -6   2   6   23.90    2.23
  -6   2   7  117.70    4.69
  -6   2   8  119.15    4.91
  -6   2   8  103.23    3.62
  -6   3  -2    5.12   10.92
  -6   3  -1   32.79   14.66
  -6   3   0   18.05   11.91
  -6   3   1   60.26    5.59
  -6   3   1   91.79   15.01
  -6   3   2    3.10    2.56
  -6   3   5  150.99    7.76
  -6   3   5   68.33    3.77
  -6   3   6   79.00    3.81
  -6   3   6  138.69    6.66
  -6   3   7   65.70    3.78
  -6   4  -3    0.23    7.00
  -6   4  -2  131.18   18.78
  -6   4  -1   66.43   14.30
  -6   4   0   32.49   10.53
  -6   4   3   75.48    5.69
  -6   4   4  142.71    7.41
  -6   4   5    9.55    2.05
  -6   4   6   55.48    3.22
  -6   5  -2   18.27    7.48
  -6   5  -1    0.18    4.83
  -6   5   2   67.55    4.75
  -6   5   3    3.14    1.64
  -6   5   4   25.42    2.42
  -5  -7   2   31.11    2.48
  -5  -7   3   95.15    4.56
  -5  -7   4   13.87    1.91
  -5  -7   5   84.02    3.91
  -5  -7   6    0.92    0.85
  -5  -7   7   60.09    2.51
  -5  -6   1  212.69    9.69
  -5  -6   2   90.42    6.68
  -5  -6   3   26.76    4.19
  -5  -6   7  200.76    6.24
  -5  -6   8   45.99    2.18
  -5  -6   9   23.89    1.25
  -5  -6   9   21.52    1.71
  -5  -5  -1   91.48    6.21
  -5  -5   0   39.85    5.42
  -5  -5   1  251.26   12.88
  -5  -5   3   44.60    5.97
  -5  -5   4   47.53    5.25
  -5  -5   4   37.20    3.85
  -5  -5   5   71.37    4.73
  -5  -5   5   90.10    6.33
  -5  -5   6   12.42    2.00
  -5  -5   7   99.61    4.34
  -5  -5   8   72.92    3.11
  -5  -5   9   40.29    2.82
  -5  -5   9   35.86    1.77
  -5  -4  -2   14.99    3.76
  -5  -4  -2   11.39    4.13
  -5  -4  -1  135.42   10.68
  -5  -4  -1  139.43   10.02
  -5  -4   0   52.02    7.18
  -5  -4   1   17.48    5.47
  -5  -4   3   72.72    6.89
  -5  -4   4   38.77    4.03
  -5  -4   4   52.67    5.34
  -5  -4   5  262.07    9.45
  -5  -4   5  267.30   11.06
  -5  -4   6   32.67    2.89
  -5  -4   7  261.63    7.98
  -5  -4   8   41.76    2.39
  -5  -4   9   38.68    1.94
  -5  -4   9   49.25    3.42
  -5  -3  -3   42.46    5.34
  -5  -3  -3   31.64    5.11
  -5  -3  -2   24.75    6.05
  -5  -3  -2   22.93    5.53
  -5  -3  -1   25.10    6.45
  -5  -3  -1   23.08    5.63
  -5  -3   0   55.78    7.38
  -5  -3   1   45.52    6.51
  -5  -3   1   36.90    6.49
  -5  -3   2  275.60   14.14
  -5  -3   3  458.38   17.45
  -5  -3   4  401.64   14.80
  -5  -3   4  384.85   12.52
  -5  -3   5  145.66    6.56
  -5  -3   5  145.29    7.72
  -5  -3   6  148.42    6.07
  -5  -3   7  107.86    7.42
  -5  -3   7  113.07    4.57
  -5  -3   8   39.40    3.66
  -5  -3   8   27.43    1.89
  -5  -3   8   36.10    4.18
  -5  -3   9   55.40    4.49
  -5  -3  10    2.22    1.07
  -5  -3  10    3.34    0.83
  -5  -2  -4   14.66    3.59
  -5  -2  -4   30.07    4.47
  -5  -2  -3  132.18    9.89
  -5  -2  -3  188.78   12.62
  -5  -2  -2   37.27    6.15
  -5  -2  -1  100.70    9.20
  -5  -2   0  230.37   13.40
  -5  -2   0  251.93   15.42
  -5  -2   1  480.47   20.41
  -5  -2   1  499.13   19.64
  -5  -2   2  335.67   15.13
  -5  -2   3  113.07    7.75
  -5  -2   4  130.57    7.18
  -5  -2   4  137.59    6.07
  -5  -2   5  135.07    8.79
  -5  -2   5  149.95    7.42
  -5  -2   6  149.23    5.68
  -5  -2   6  146.60    9.66
  -5  -2   7   21.80    3.04
  -5  -2   7   22.70    4.13
  -5  -2   7   17.25    1.65
  -5  -2   8   17.01    2.50
  -5  -2   8   11.54    1.21
  -5  -2   8   17.38    3.55
  -5  -2   9   45.99    4.58
  -5  -2  10    5.79    1.58
  -5  -2  10    7.12    1.03
  -5  -1  -5   33.98    3.63
  -5  -1  -4   18.35    3.90
  -5  -1  -4   32.25    5.96
  -5  -1  -3   14.43    4.23
  -5  -1  -2  101.58   11.55
  -5  -1  -2   76.36    7.75
  -5  -1  -1   92.63   10.90
  -5  -1  -1   78.79    7.58
  -5  -1   0   78.15    7.16
  -5  -1   0   86.39    9.35
  -5  -1   1  190.24   11.84
  -5  -1   2   71.41    5.49
  -5  -1   2   98.48    7.56
  -5  -1   3  186.45    7.40
  -5  -1   3  201.90   10.16
  -5  -1   4  126.01    8.25
  -5  -1   4  131.46    6.55
  -5  -1   5  102.12    8.12
  -5  -1   5   73.55    5.32
  -5  -1   6  153.99   10.32
  -5  -1   6  150.94    7.88
  -5  -1   7   44.54    4.12
  -5  -1   7   48.54    5.94
  -5  -1   8   65.36    6.31
  -5  -1   9  118.09    7.25
  -5  -1  10   18.59    1.50
  -5  -1  10   16.46    2.23
  -5   0  -4    4.05    2.43
  -5   0  -3   27.77    4.66
  -5   0  -3   38.07    8.17
  -5   0  -3   31.01    4.97
  -5   0  -2   18.78   21.75
  -5   0  -2    5.42    5.80
  -5   0  -2    2.71    2.53
  -5   0  -1  143.42   12.40
  -5   0   0  206.32    9.67
  -5   0   0  231.53   14.13
  -5   0   1   39.79    4.42
  -5   0   1   52.84    6.15
  -5   0   2   41.96    4.65
  -5   0   2   51.76    5.14
  -5   0   3    5.84    1.30
  -5   0   3    9.56    2.89
  -5   0   4  145.60    7.13
  -5   0   4  242.52   11.97
  -5   0   5  180.71    8.55
  -5   0   5  258.53   13.13
  -5   0   6  278.72   11.01
  -5   0   6  293.57   14.69
  -5   0   7  141.36    9.72
  -5   0   7  130.58    6.80
  -5   0   7  133.20    9.73
  -5   0   8  118.66    8.45
  -5   0   8  128.45    8.49
  -5   0   9   53.32    3.18
  -5   0  10   40.12    1.93
  -5   1  -5    4.81    3.93
  -5   1  -4   15.51    6.07
  -5   1  -3  107.79   11.75
  -5   1  -3  286.83   39.43
  -5   1  -2  313.64   19.15
  -5   1  -1  170.48   31.46
  -5   1  -1   87.21    9.42
  -5   1   0   71.01    7.70
  -5   1   0   70.96    5.99
  -5   1   1  129.03    8.46
  -5   1   1  128.90    8.13
  -5   1   2  154.01    9.22
  -5   1   2  354.80   30.16
  -5   1   3  358.87   14.42
  -5   1   3  243.68    8.85
  -5   1   4  387.56   15.89
  -5   1   4  255.63    9.80
  -5   1   5   60.31    4.45
  -5   1   5   75.64    7.24
  -5   1   6   99.39    5.88
  -5   1   6  108.87    9.61
  -5   1   7   43.73    3.67
  -5   1   7   46.70    6.25
  -5   1   8  143.96    9.04
  -5   1   8  153.61    8.74
  -5   1   9   67.42    4.63
  -5   1   9   69.58    3.30
  -5   2  -5   11.31    4.48
  -5   2  -4   90.47   23.05
  -5   2  -4   28.39    6.73
  -5   2  -3  173.43   13.91
  -5   2  -2  121.48   30.58
  -5   2  -2   80.75    9.58
  -5   2  -1   22.27    3.76
  -5   2  -1   23.99   18.24
  -5   2  -1   14.41    4.55
  -5   2   0  187.91    9.99
  -5   2   0  219.62   29.91
  -5   2   1   18.30    3.61
  -5   2   1   23.02   12.26
  -5   2   2  163.81    9.56
  -5   2   2  112.00    5.10
  -5   2   3  150.78    6.61
  -5   2   3  209.46   11.11
  -5   2   4   35.96    3.28
  -5   2   5  170.03    7.65
  -5   2   6  213.12    8.66
  -5   2   6  224.45   11.90
  -5   2   7  182.60    9.80
  -5   2   8   37.68    3.77
  -5   2   8   37.26    2.66
  -5   2   9   85.14    3.02
  -5   2   9   57.05    3.29
  -5   3  -5    2.74    3.26
  -5   3  -5    3.43   10.39
  -5   3  -4   14.02   15.25
  -5   3  -4    4.81    4.29
  -5   3  -3   52.67    7.56
  -5   3  -2    2.90    3.53
  -5   3  -2    8.30   17.11
  -5   3  -1   41.62   18.58
  -5   3  -1   55.39    5.50
  -5   3   0   19.20   12.60
  -5   3   0   24.22    4.22
  -5   3   1  124.53   19.31
  -5   3   2   11.10    1.63
  -5   3   3  402.91   12.22
  -5   3   4  150.00    9.44
  -5   3   4  116.37    6.01
  -5   3   5   14.80    2.26
  -5   3   5   18.33    3.77
  -5   3   6  117.47    7.63
  -5   3   6  107.41    5.54
  -5   3   7   68.54    5.03
  -5   3   8   85.81    4.29
  -5   3   8  113.42    4.08
  -5   4  -5    4.57    2.51
  -5   4  -5   22.34   11.18
  -5   4  -4   11.59    3.59
  -5   4  -3   36.97   19.53
  -5   4  -2   16.49   16.39
  -5   4  -1   27.74   15.12
  -5   4   0  173.07   23.92
  -5   4   1  247.98   11.87
  -5   4   2  345.95   14.51
  -5   4   3   81.18    6.58
  -5   4   3   57.73    3.95
  -5   4   4   44.21    4.86
  -5   4   4   36.67    3.21
  -5   4   5   51.08    4.83
  -5   4   5   41.61    3.36
  -5   4   6   31.94    3.38
  -5   4   7   28.32    2.25
  -5   5  -5   32.31    9.81
  -5   5  -3   18.29   13.96
  -5   5  -2   28.60   14.48
  -5   5  -1   50.49   15.06
  -5   5   0    7.54    2.73
  -5   5   0    2.14    7.28
  -5   5   1   90.67    6.64
  -5   5   2   31.31    4.17
  -5   5   3   12.94    2.86
  -5   5   4   72.36    5.20
  -5   5   5   29.96    2.91
  -5   6  -4   -0.23    7.21
  -5   6  -3    7.74   10.24
  -5   6  -2   13.36    9.90
  -5   6  -1    9.65    7.82
  -5   6   1   47.62    4.26
  -5   6   2   15.55    2.62
  -5   6   3   41.45    3.23
  -5   7  -2    8.78    5.24
  -4  -8   2    0.66    1.64
  -4  -8   3   83.63    6.70
  -4  -8   3   70.48    3.47
  -4  -8   4   94.22    7.35
  -4  -8   4   68.54    3.44
  -4  -8   5   18.20    3.71
  -4  -8   5   13.35    1.55
  -4  -8   6   11.28    1.28
  -4  -8   6   11.00    1.86
  -4  -8   7   17.45    2.12
  -4  -8   7   11.73    1.05
  -4  -7   1   23.23    4.19
  -4  -7   1   40.26    4.10
  -4  -7   2   16.52    3.43
  -4  -7   2    8.89    3.59
  -4  -7   2    7.86    2.26
  -4  -7   3   38.53    4.72
  -4  -7   3   25.84    3.19
  -4  -7   3   31.90    5.66
  -4  -7   4   36.64    3.45
  -4  -7   5   44.42    3.49
  -4  -7   5   37.50    4.37
  -4  -7   6    9.03    1.72
  -4  -7   6   11.42    2.72
  -4  -7   6    9.74    3.72
  -4  -7   7   44.08    2.66
  -4  -7   7   60.26    5.15
  -4  -7   8   43.91    2.24
  -4  -7   8   62.16    4.49
  -4  -7   9   29.70    1.49
  -4  -6   0   60.98    5.92
  -4  -6   1   37.60    5.75
  -4  -6   1   61.07    6.35
  -4  -6   2    8.55    3.54
  -4  -6   2    2.80    3.28
  -4  -6   3   78.05    6.98
  -4  -6   3   75.90    8.43
  -4  -6   4   95.04    7.75
  -4  -6   4  168.81   11.95
  -4  -6   4  192.81   10.00
  -4  -6   4  125.38    6.83
  -4  -6   5   49.99    4.20
  -4  -6   5   58.02    7.25
  -4  -6   5   49.80    5.74
  -4  -6   6   41.41    3.36
  -4  -6   6   35.72    6.09
  -4  -6   6   43.26    5.43
  -4  -6   7  166.82    9.82
  -4  -6   8   34.49    3.33
  -4  -6   8   39.35    4.30
  -4  -6   9   44.11    3.30
  -4  -5  -3   58.15    6.24
  -4  -5  -2   90.21    6.79
  -4  -5  -2   87.74    8.67
  -4  -5  -1   42.23    6.06
  -4  -5  -1   47.33    7.42
  -4  -5   0  207.93   14.00
  -4  -5   0  193.58   12.06
  -4  -5   1   50.59    6.52
  -4  -5   1   78.79    8.01
  -4  -5   2  116.60    8.81
  -4  -5   2  115.62    9.79
  -4  -5   3   37.45    6.20
  -4  -5   4    9.50    2.87
  -4  -5   4   19.55    4.87
  -4  -5   5  148.71    8.42
  -4  -5   5  113.78    8.98
  -4  -5   5  126.92   10.74
  -4  -5   6    6.33    2.03
  -4  -5   6    6.81    3.94
  -4  -5   6   11.95    3.29
  -4  -5   7  166.95    6.54
  -4  -5   7  177.52    8.93
  -4  -5   7  184.03   10.77
  -4  -5   8   57.00    5.44
  -4  -5   8   41.60    2.75
  -4  -5   8   58.41    4.93
  -4  -5   9   29.66    1.97
  -4  -5   9   41.52    3.79
  -4  -4  -3   85.43    7.34
  -4  -4  -2   51.12    7.14
  -4  -4  -1  205.35   13.75
  -4  -4   0   20.74    5.48
  -4  -4   1   86.20    7.89
  -4  -4   1  134.31   10.40
  -4  -4   2  232.38   13.37
  -4  -4   3   45.37    6.38
  -4  -4   3   47.06    5.63
  -4  -4   4  144.24   10.78
  -4  -4   4  143.04    8.20
  -4  -4   5   95.43    6.47
  -4  -4   5   83.60    8.60
  -4  -4   5   77.81    7.15
  -4  -4   5   71.53    4.88
  -4  -4   5   58.41    4.89
  -4  -4   6   19.71    2.54
  -4  -4   6   21.91    3.37
  -4  -4   6   19.36    3.85
  -4  -4   6   18.60    3.12
  -4  -4   7  244.05   10.98
  -4  -4   7  229.95   12.16
  -4  -4   8  116.19    7.23
  -4  -4   8   77.14    3.81
  -4  -4   9   59.29    2.90
  -4  -4   9   88.45    5.80
  -4  -4  10   33.38    3.28
  -4  -4  10   27.98    2.40
  -4  -3  -4   27.91    5.36
  -4  -3  -4   24.37    5.86
  -4  -3  -3   17.65    6.22
  -4  -3  -3   15.12    5.79
  -4  -3  -3   18.62    6.16
  -4  -3  -2   12.64    5.63
  -4  -3  -2    0.90    3.47
  -4  -3  -2   13.55    5.62
  -4  -3  -2   13.70    6.25
  -4  -3  -1  134.51   11.20
  -4  -3  -1  139.88   12.35
  -4  -3  -1  132.65   11.36
  -4  -3   0  364.87   17.47
  -4  -3   1 1015.45   30.92
  -4  -3   2  459.59   19.44
  -4  -3   2  566.26   20.07
  -4  -3   3  212.81   10.27
  -4  -3   3  185.27   11.45
  -4  -3   4   37.85    5.77
  -4  -3   4   36.27    4.25
  -4  -3   4   27.37    4.01
  -4  -3   5  181.39    8.48
  -4  -3   5  172.86    7.16
  -4  -3   5  178.99   10.39
  -4  -3   6   29.78    4.49
  -4  -3   6   25.17    2.63
  -4  -3   6   27.30    3.81
  -4  -3   7  286.44   13.26
  -4  -3   7  277.80   11.99
  -4  -3   8  159.30    8.60
  -4  -3   8   97.74    4.24
  -4  -3   9    3.07    1.02
  -4  -3  10   44.49    3.06
  -4  -3  11   17.78    1.97
  -4  -2  -6   10.77    2.63
  -4  -2  -5   50.48    6.06
  -4  -2  -5   41.21    6.23
  -4  -2  -5   49.09    6.64
  -4  -2  -4   20.18    6.72
  -4  -2  -4   17.15    5.68
  -4  -2  -4   12.14    5.51
  -4  -2  -3  175.39   15.31
  -4  -2  -3  148.38   12.67
  -4  -2  -3  146.46   12.78
  -4  -2  -2  251.82   15.66
  -4  -2  -2  257.38   16.01
  -4  -2  -2  272.74   18.48
  -4  -2  -1  499.73   20.84
  -4  -2  -1  494.40   21.12
  -4  -2   0  302.82   16.77
  -4  -2   0  323.77   15.06
  -4  -2   0  328.25   15.37
  -4  -2   1  517.59   19.92
  -4  -2   1  532.70   18.80
  -4  -2   2  584.48   18.17
  -4  -2   2  477.94   17.21
  -4  -2   3   89.98    7.51
  -4  -2   3   88.70    6.32
  -4  -2   4  214.38   10.44
  -4  -2   4  226.58    9.37
  -4  -2   4  214.51    7.79
  -4  -2   5    1.17    1.64
  -4  -2   5    1.54    1.72
  -4  -2   5    1.61    1.31
  -4  -2   5    3.11    2.48
  -4  -2   5    1.89    2.01
  -4  -2   6   29.43    3.94
  -4  -2   6   23.50    4.15
  -4  -2   6   25.50    2.43
  -4  -2   7   99.45    4.39
  -4  -2   7  112.71    8.37
  -4  -2   8   56.06    2.97
  -4  -2   8   76.49    6.59
  -4  -2   9   49.41    3.99
  -4  -2   9   59.46    5.26
  -4  -2  10   14.12    1.65
  -4  -2  11   14.51    1.89
  -4  -1  -6   43.77    5.21
  -4  -1  -6   55.07    5.47
  -4  -1  -6   51.82    5.83
  -4  -1  -5   28.26    6.14
  -4  -1  -5   33.97    7.22
  -4  -1  -5   25.16    5.68
  -4  -1  -4  108.94   10.63
  -4  -1  -4  133.78   14.06
  -4  -1  -4  111.24   10.82
  -4  -1  -3  125.06   11.22
  -4  -1  -3  155.97   15.64
  -4  -1  -3  120.74   11.18
  -4  -1  -2   26.71    5.53
  -4  -1  -2   29.20    5.69
  -4  -1  -1  265.73   13.80
  -4  -1  -1  242.70   16.23
  -4  -1  -1  253.85   13.44
  -4  -1   0  291.38   13.35
  -4  -1   0  289.84   13.09
  -4  -1   0  303.91   16.03
  -4  -1   1  520.66   17.38
  -4  -1   1  495.93   19.13
  -4  -1   2   88.33    5.59
  -4  -1   2  134.05    7.90
  -4  -1   3  190.78    8.47
  -4  -1   3  155.90    8.37
  -4  -1   4  118.61    5.94
  -4  -1   4  132.70    5.47
  -4  -1   4  121.15    8.11
  -4  -1   4  114.73    8.18
  -4  -1   5   29.17    2.41
  -4  -1   5   27.57    4.82
  -4  -1   6  121.11    4.80
  -4  -1   6  144.30   10.02
  -4  -1   7   56.62    2.90
  -4  -1   7   72.75    7.38
  -4  -1   8   85.22    5.75
  -4  -1   8   99.15    8.17
  -4  -1   9   21.67    3.82
  -4  -1   9   17.88    2.34
  -4  -1  10   26.99    2.06
  -4  -1  10   35.76    3.55
  -4  -1  11   29.56    2.27
  -4   0  -6   39.29    5.33
  -4   0  -6   47.90    5.93
  -4   0  -5   19.21    7.89
  -4   0  -5   13.76    4.74
  -4   0  -5   13.43    4.76
  -4   0  -4   24.22    5.86
  -4   0  -4   33.28    6.21
  -4   0  -3  171.97   12.32
  -4   0  -3  161.21   11.87
  -4   0  -2   55.01    9.93
  -4   0  -2   55.02    6.57
  -4   0  -2   55.02    6.49
  -4   0  -1  185.85   13.85
  -4   0  -1  193.71   10.60
  -4   0  -1  174.61    9.92
  -4   0  -1  172.46    8.13
  -4   0   0  153.18    7.44
  -4   0   0  162.74    8.56
  -4   0   1   90.80    7.12
  -4   0   1   61.46    4.64
  -4   0   2  127.70    6.97
  -4   0   2   82.06    4.32
  -4   0   3  169.70    7.34
  -4   0   3  273.12   11.30
  -4   0   4  345.06   14.40
  -4   0   4  348.39   14.88
  -4   0   5  341.07   12.50
  -4   0   5  375.83   16.13
  -4   0   5  362.65   16.35
  -4   0   6  351.05   16.85
  -4   0   7   91.78    8.72
  -4   0   8   15.61    2.41
  -4   0   8   14.87    4.10
  -4   0   9   38.35    4.78
  -4   0   9   34.19    2.82
  -4   0  10    7.26    2.20
  -4   0  10    4.79    1.77
  -4   0  10    5.01    0.85
  -4   1  -7   20.08    3.84
  -4   1  -6  102.37    7.74
  -4   1  -6  116.73    8.72
  -4   1  -5   55.70    6.85
  -4   1  -5   68.13    7.58
  -4   1  -4  125.82   10.16
  -4   1  -4  121.83    9.70
  -4   1  -3   63.20    6.95
  -4   1  -3   68.88   11.51
  -4   1  -3   55.01    6.47
  -4   1  -2   69.89    6.39
  -4   1  -2   67.87   10.24
  -4   1  -1  462.30   14.95
  -4   1  -1  440.57   21.23
  -4   1   0  158.50   10.62
  -4   1   0  160.72   24.16
  -4   1   0  137.70    7.23
  -4   1   1  365.94   13.78
  -4   1   1  417.24   32.03
  -4   1   2  103.65    6.57
  -4   1   2   79.38    4.08
  -4   1   3  165.48    9.10
  -4   1   3  184.98   10.38
  -4   1   4  406.13   13.26
  -4   1   4  431.80   17.01
  -4   1   5  244.21   13.71
  -4   1   5  260.00   10.22
  -4   1   6  214.00   13.25
  -4   1   7   31.36    3.43
  -4   1   7   34.86    5.37
  -4   1   7   27.27    5.47
  -4   1   8  100.87    7.94
  -4   1   8   97.60    8.24
  -4   1   8   84.45    5.01
  -4   1   9   89.41    4.23
  -4   1   9   84.64    6.14
  -4   1  10   50.42    3.62
  -4   1  10   17.74    1.96
  -4   2  -6   29.97    4.23
  -4   2  -6  106.99   17.42
  -4   2  -5    6.89    3.03
  -4   2  -5    9.64    7.86
  -4   2  -5   26.89   17.54
  -4   2  -4   43.72   21.94
  -4   2  -4   25.87    9.07
  -4   2  -4   22.22    5.16
  -4   2  -3  275.13   40.29
  -4   2  -3  208.30   17.39
  -4   2  -2  292.26   19.17
  -4   2  -2  434.99   14.41
  -4   2  -1  130.04   10.82
  -4   2  -1  115.55   25.47
  -4   2  -1  152.51    7.89
  -4   2   0   11.88    2.59
  -4   2   0    5.31   10.52
  -4   2   1   70.67    5.46
  -4   2   1   59.45    3.16
  -4   2   1   69.92   14.86
  -4   2   2   55.96    3.47
  -4   2   3  530.11   23.08
  -4   2   3  586.29   15.60
  -4   2   4  226.69   11.63
  -4   2   4  235.30   12.16
  -4   2   4  246.78    9.30
  -4   2   5  126.30    8.49
  -4   2   5  153.37    7.36
  -4   2   5  135.63    9.58
  -4   2   6   87.05    7.72
  -4   2   6   68.15    6.03
  -4   2   7  269.72   13.08
  -4   2   7  257.66    9.67
  -4   2   8  147.59    8.42
  -4   2   8  142.20    6.11
  -4   2   9   30.12    2.96
  -4   2   9   41.08    2.30
  -4   3  -7    4.92    3.66
  -4   3  -6    6.76   11.03
  -4   3  -6    8.69    6.09
  -4   3  -5   10.12    7.17
  -4   3  -5   13.23   16.64
  -4   3  -5    6.89    3.29
  -4   3  -4   66.31   10.98
  -4   3  -4   91.16   26.67
  -4   3  -3  167.64   14.74
  -4   3  -2   56.64    8.37
  -4   3  -2   43.47   23.09
  -4   3  -1   53.12    5.02
  -4   3  -1   37.50   17.85
  -4   3   0  129.34   22.38
  -4   3   1  343.88    9.95
  -4   3   2  150.19    8.65
  -4   3   2  144.83    6.13
  -4   3   2  160.30   12.93
  -4   3   3  147.32   12.13
  -4   3   3  141.16    8.73
  -4   3   3  140.00    6.50
  -4   3   4  121.17    9.34
  -4   3   4   99.52    7.95
  -4   3   4  115.48    6.12
  -4   3   4   98.49    9.53
  -4   3   4  107.07    7.93
  -4   3   5  158.79   10.82
  -4   3   5  149.21    9.60
  -4   3   5  141.72   10.52
  -4   3   5  155.41    9.72
  -4   3   6  149.06    9.19
  -4   3   6  134.74    8.80
  -4   3   6  142.27   10.11
  -4   3   6  147.54    7.04
  -4   3   7   45.10    5.60
  -4   3   7   33.11    4.01
  -4   3   7   39.40    3.29
  -4   3   7   41.64    4.49
  -4   3   8   28.20    2.82
  -4   3   8   42.41    4.54
  -4   3   8   27.51    2.84
  -4   3   8   36.89    2.54
  -4   4  -7   -0.06    2.67
  -4   4  -6    4.70    4.80
  -4   4  -6   12.59   11.56
  -4   4  -5   17.62   18.07
  -4   4  -5    8.27    5.96
  -4   4  -4   21.22    6.70
  -4   4  -3  160.21   13.29
  -4   4  -3  125.55   30.47
  -4   4  -1  404.57   14.91
  -4   4   0  422.89   15.43
  -4   4   1   81.22    6.23
  -4   4   1   66.13    3.96
  -4   4   2  103.80    7.20
  -4   4   2   96.20    5.16
  -4   4   2  102.94   10.93
  -4   4   3  462.43   22.79
  -4   4   3  440.75   16.56
  -4   4   3  443.95   13.57
  -4   4   4  130.19   11.27
  -4   4   4  134.72    6.69
  -4   4   4  119.91    8.04
  -4   4   4  111.60    8.74
  -4   4   5    2.55    2.39
  -4   4   5    2.60    1.96
  -4   4   5    3.44    2.35
  -4   4   5    4.03    3.00
  -4   4   6   76.20    4.75
  -4   4   6   76.15    6.71
  -4   4   6   74.62    5.53
  -4   4   6   69.52    6.03
  -4   4   7  114.27    5.01
  -4   4   7  103.92    6.35
  -4   5  -6    4.72   10.30
  -4   5  -6    0.40    3.20
  -4   5  -5   30.86   17.16
  -4   5  -5   20.31    5.71
  -4   5  -4   62.38    7.95
  -4   5  -1   95.76    6.79
  -4   5   0  106.87    7.20
  -4   5   1  120.48    7.68
  -4   5   1   90.78   10.57
  -4   5   2   45.87    7.87
  -4   5   2   52.83    5.11
  -4   5   3  182.95   14.21
  -4   5   3  207.38    9.97
  -4   5   4   10.44    2.44
  -4   5   4   11.56    3.97
  -4   5   5   77.21    7.34
  -4   5   6   69.23    5.47
  -4   6  -6    4.61    7.91
  -4   6  -4   14.51   15.61
  -4   6   0   85.81    6.17
  -4   6   1  157.19    8.16
  -4   6   2   11.52    2.51
  -4   6   2   10.90    4.71
  -4   6   3  138.70   11.59
  -4   6   4   80.41    7.93
  -4   6   5   44.32    4.78
  -4   7  -3    2.47   10.76
  -4   7  -1    6.62    7.72
  -4   8  -4    4.15    5.68
  -4   8  -3    2.11    5.84
  -3  -9   2    4.26    2.26
  -3  -9   3   35.34    4.47
  -3  -9   5   59.79    4.23
  -3  -9   5  124.55    7.32
  -3  -9   6   62.31    4.28
  -3  -9   7    3.98    1.21
  -3  -8   0    4.41    2.58
  -3  -8   1   29.57    2.95
  -3  -8   1   22.74    4.59
  -3  -8   2    0.58    1.17
  -3  -8   2    2.90    3.25
  -3  -8   3  112.06    5.14
  -3  -8   3  158.76   10.94
  -3  -8   4   40.67    2.94
  -3  -8   5   45.54    2.89
  -3  -8   6   14.29    3.55
  -3  -8   6    9.64    1.39
  -3  -8   7   43.71    4.50
  -3  -8   7   33.80    1.93
  -3  -8   8   45.29    1.91
  -3  -8   9    3.83    1.07
  -3  -7  -1   10.52    1.97
  -3  -7  -1    9.69    3.15
  -3  -7   0   33.44    3.48
  -3  -7   0   32.25    5.51
  -3  -7   1    8.73    2.88
  -3  -7   1    8.72    4.06
  -3  -7   1   11.16    2.34
  -3  -7   2    5.67    2.93
  -3  -7   2    4.14    3.62
  -3  -7   2    8.35    2.14
  -3  -7   3   15.32    2.59
  -3  -7   3   14.90    3.64
  -3  -7   3   13.40    4.99
  -3  -7   3    9.25    2.38
  -3  -7   4   21.26    2.96
  -3  -7   5   82.89    4.74
  -3  -7   6   39.88    5.91
  -3  -7   6   37.00    2.94
  -3  -7   7   14.32    1.75
  -3  -7   7   14.14    3.78
  -3  -7   7   20.15    2.84
  -3  -7   7   14.80    3.37
  -3  -7   8   16.28    1.53
  -3  -7   8   28.73    3.08
  -3  -7   9   38.28    3.09
  -3  -7   9   35.48    3.31
  -3  -7  10  138.13    4.93
  -3  -6  -2   73.28    4.83
  -3  -6  -2  106.01    8.96
  -3  -6  -1   17.16    5.14
  -3  -6  -1   17.90    2.82
  -3  -6  -1   12.72    4.03
  -3  -6   0    4.57    4.18
  -3  -6   0    1.62    2.79
  -3  -6   0    2.85    1.64
  -3  -6   0    1.74    3.04
  -3  -6   1    5.47    3.17
  -3  -6   1    8.00    3.89
  -3  -6   1    7.67    2.06
  -3  -6   2   79.30    5.32
  -3  -6   2   78.83    8.25
  -3  -6   2   73.16    6.81
  -3  -6   3  217.77   11.13
  -3  -6   3  218.37   13.37
  -3  -6   3  220.63    9.29
  -3  -6   4  341.26   13.50
  -3  -6   4  313.35   15.92
  -3  -6   5   15.53    2.57
  -3  -6   6    6.49    3.67
  -3  -6   6   10.27    2.51
  -3  -6   6    9.08    1.94
  -3  -6   7   92.08    4.63
  -3  -6   7   92.33    8.54
  -3  -6   8  220.33    9.56
  -3  -6   8  150.74    5.49
  -3  -6   9   45.24    3.96
  -3  -6   9   39.33    3.92
  -3  -6   9   32.33    2.11
  -3  -6  10   38.62    3.06
  -3  -5  -4   34.38    5.39
  -3  -5  -3  116.11   10.11
  -3  -5  -2  376.32   18.33
  -3  -5  -2  363.42   14.96
  -3  -5  -1  123.72    7.17
  -3  -5  -1  163.41   12.18
  -3  -5  -1  105.28    8.94
  -3  -5  -1  151.98   10.20
  -3  -5   0  224.68   13.24
  -3  -5   0  257.47   13.31
  -3  -5   0  260.43   14.72
  -3  -5   0  222.61    9.52
  -3  -5   1   54.44    4.31
  -3  -5   1   55.23    6.39
  -3  -5   1   58.65    7.08
  -3  -5   1   57.74    6.69
  -3  -5   2   77.97    7.63
  -3  -5   2   73.82    6.75
  -3  -5   2   69.99    4.60
  -3  -5   3   99.86    8.45
  -3  -5   3   99.43    7.35
  -3  -5   3  106.13    5.67
  -3  -5   4  111.65    9.15
  -3  -5   5   12.30    2.55
  -3  -5   5   12.95    2.47
  -3  -5   6    9.47    2.06
  -3  -5   6    8.14    3.87
  -3  -5   6   14.93    3.02
  -3  -5   7  282.74   12.30
  -3  -5   8  114.12    8.22
  -3  -5   8  138.16    8.06
  -3  -5   9   69.51    5.28
  -3  -5   9   60.03    5.03
  -3  -4  -5   35.61    5.53
  -3  -4  -5   48.46    6.24
  -3  -4  -4   72.92    9.07
  -3  -4  -4   80.62    9.08
  -3  -4  -3   90.33    8.67
  -3  -4  -3   88.23   10.22
  -3  -4  -3   83.95    9.97
  -3  -4  -2   43.96    7.64
  -3  -4  -2   47.42    7.67
  -3  -4  -2   48.40    7.01
  -3  -4  -1   79.78    7.02
  -3  -4  -1  117.96   10.48
  -3  -4  -1   87.86    5.49
  -3  -4  -1  112.52   10.14
  -3  -4  -1  121.18    9.96
  -3  -4   0  240.28   13.30
  -3  -4   0  242.26   13.83
  -3  -4   0  209.64    8.53
  -3  -4   0  201.38   11.35
  -3  -4   0  244.74   13.28
  -3  -4   1   67.38    6.64
  -3  -4   1   58.56    3.93
  -3  -4   1   75.44    7.05
  -3  -4   1   70.65    6.55
  -3  -4   2  142.91    9.07
  -3  -4   2  133.56    8.25
  -3  -4   2  131.53    5.79
  -3  -4   3   60.09    3.78
  -3  -4   3   56.90    5.91
  -3  -4   4   13.10    3.01
  -3  -4   4   11.12    2.24
  -3  -4   4   13.71    3.73
  -3  -4   5  151.39    8.21
  -3  -4   5  185.07    8.75
  -3  -4   6   85.33    6.29
  -3  -4   6   59.22    6.24
  -3  -4   7  267.10   10.26
  -3  -4   7  308.88   12.66
  -3  -4   8   13.67    2.50
  -3  -4   8   11.93    3.08
  -3  -4   8   11.39    1.77
  -3  -4   8   14.48    3.11
  -3  -4   9   91.79    6.31
  -3  -4   9  101.27    5.65
  -3  -4  10   11.56    1.99
  -3  -4  10   12.88    2.36
  -3  -3  -6   63.38    6.55
  -3  -3  -6   71.69    6.85
  -3  -3  -5    1.96    4.54
  -3  -3  -5    6.50    4.83
  -3  -3  -4    7.48    4.75
  -3  -3  -4   10.50    5.68
  -3  -3  -3  204.47   14.57
  -3  -3  -2  327.55   18.20
  -3  -3  -1  391.47   18.68
  -3  -3   0  529.40   20.02
  -3  -3   0  479.00   16.76
  -3  -3   1  241.69   11.20
  -3  -3   1  207.47   10.15
  -3  -3   2   24.26    3.59
  -3  -3   2   26.34    3.79
  -3  -3   3  245.06   10.07
  -3  -3   3  254.02   11.71
  -3  -3   4    9.04    2.28
  -3  -3   4    6.70    1.76
  -3  -3   4    6.14    2.64
  -3  -3   5  181.89    8.61
  -3  -3   5  177.67    6.83
  -3  -3   6    5.48    1.75
  -3  -3   6    5.62    1.59
  -3  -3   6    7.82    2.44
  -3  -3   7  122.97    6.71
  -3  -3   7  106.71    4.91
  -3  -3   7  117.81    8.20
  -3  -3   7  132.23    7.88
  -3  -3   8   87.78    5.76
  -3  -3   8   68.45    3.60
  -3  -3   8   82.10    6.61
  -3  -3   9    4.17    2.02
  -3  -3   9    4.09    2.20
  -3  -3  10   66.80    4.37
  -3  -3  10   65.74    4.53
  -3  -2  -7   15.11    3.31
  -3  -2  -6    0.71    2.74
  -3  -2  -5  145.64   12.21
  -3  -2  -4  202.94   16.22
  -3  -2  -3  318.58   19.93
  -3  -2  -3  276.13   17.18
  -3  -2  -2  109.39    9.75
  -3  -2  -2  109.38    9.57
  -3  -2  -2  109.63   11.31
  -3  -2  -1  118.81    8.76
  -3  -2  -1   94.61    9.16
  -3  -2  -1  106.01    8.30
  -3  -2   0  326.28   12.91
  -3  -2   0  313.71   12.70
  -3  -2   1  185.62    8.65
  -3  -2   1  124.89    6.96
  -3  -2   1  160.02    8.83
  -3  -2   1  177.50    8.62
  -3  -2   1  144.76    7.54
  -3  -2   2  284.59   11.22
  -3  -2   2  284.57   11.79
  -3  -2   3   67.54    5.22
  -3  -2   3   57.05    3.76
  -3  -2   3  100.25    5.50
  -3  -2   3   96.74    6.78
  -3  -2   4  251.31   12.15
  -3  -2   4  209.78   10.45
  -3  -2   4  184.55    8.20
  -3  -2   4  240.54    7.84
  -3  -2   4  273.26    9.30
  -3  -2   5  156.26    5.99
  -3  -2   5  116.71    5.98
  -3  -2   5  144.28    7.40
  -3  -2   5  174.81    7.20
  -3  -2   5  145.84    8.37
  -3  -2   5  143.55    8.62
  -3  -2   6  146.74    7.20
  -3  -2   6  162.28    5.96
  -3  -2   7  235.06    9.73
  -3  -2   7  251.61   11.75
  -3  -2   8  223.69    9.68
  -3  -2   8  229.44   10.45
  -3  -2   9   29.87    3.08
  -3  -2   9   39.35    4.18
  -3  -2   9   35.31    3.94
  -3  -2  10  146.30    7.40
  -3  -2  10   91.22    4.33
  -3  -1  -7   39.84    4.31
  -3  -1  -7   60.95    6.77
  -3  -1  -6   90.35   10.25
  -3  -1  -6  107.47   10.76
  -3  -1  -5  138.90   14.28
  -3  -1  -4   23.47    8.36
  -3  -1  -3  118.02   24.41
  -3  -1  -3   52.46    9.97
  -3  -1  -2   19.41    6.46
  -3  -1  -2   38.79   16.34
  -3  -1  -1  246.07   11.25
  -3  -1  -1  161.37    6.96
  -3  -1   0   35.57    3.89
  -3  -1   0   34.15    4.85
  -3  -1   0   32.59    3.69
  -3  -1   1  697.11   19.14
  -3  -1   1  704.62   21.00
  -3  -1   1  706.68   18.98
  -3  -1   2  635.92   17.14
  -3  -1   2  560.10   16.95
  -3  -1   3  167.84    7.87
  -3  -1   3  180.52    8.10
  -3  -1   3  123.19    6.01
  -3  -1   3  229.48    7.76
  -3  -1   3  275.11   11.62
  -3  -1   4  458.00   11.70
  -3  -1   4  417.09   14.00
  -3  -1   4  283.42   10.16
  -3  -1   4  301.92   11.24
  -3  -1   4  421.62   14.46
  -3  -1   4  458.12   10.71
  -3  -1   5   10.65    2.07
  -3  -1   5   16.11    2.61
  -3  -1   5   14.96    1.76
  -3  -1   6    7.72    2.29
  -3  -1   6    5.01    1.87
  -3  -1   6    5.33    1.25
  -3  -1   6    3.69    1.88
  -3  -1   7   41.58    4.32
  -3  -1   7   33.68    2.43
  -3  -1   7   41.79    4.61
  -3  -1   7   42.36    4.06
  -3  -1   8  207.62    9.29
  -3  -1   8  199.39    9.62
  -3  -1   8  191.90    9.26
  -3  -1   9  177.86    8.46
  -3  -1   9  161.00    7.12
  -3  -1  10  127.83    4.69
  -3  -1  10  155.53    6.28
  -3  -1  11   20.87    2.31
  -3  -1  11   64.18    3.39
  -3   0  -8    7.08    2.42
  -3   0  -8    7.14    2.41
  -3   0  -7   52.00    7.05
  -3   0  -7   59.39    7.68
  -3   0  -6  131.80   13.91
  -3   0  -5   86.96   13.47
  -3   0  -5  117.20   12.94
  -3   0  -4   53.46   11.54
  -3   0  -4   70.35    9.69
  -3   0  -3  154.32   26.57
  -3   0  -3  142.92   12.18
  -3   0  -2   18.37    5.81
  -3   0  -2   24.30   13.59
  -3   0  -2   21.54    4.31
  -3   0  -1   88.53    4.64
  -3   0  -1   97.22    8.75
  -3   0  -1   89.56    4.79
  -3   0   0  522.32   32.41
  -3   0   0  492.67   16.82
  -3   0   1  944.39   40.97
  -3   0   2  722.74   19.36
  -3   0   2  695.56   18.72
  -3   0   3  289.71   11.28
  -3   0   4  165.71    7.33
  -3   0   4  178.90    7.15
  -3   0   5   35.56    2.21
  -3   0   5   26.71    3.03
  -3   0   5   31.09    3.32
  -3   0   6    5.14    2.11
  -3   0   6    4.79    2.08
  -3   0   6    4.68    1.03
  -3   0   6    5.10    2.05
  -3   0   7  366.10   13.57
  -3   0   7  397.54   14.27
  -3   0   7  375.68   13.24
  -3   0   8   24.22    2.86
  -3   0   8   28.51    3.76
  -3   0   9  131.21    7.05
  -3   0   9  112.06    5.24
  -3   0  10   18.21    3.17
  -3   1  -8   19.12    3.49
  -3   1  -8   17.07    3.71
  -3   1  -8   28.41    4.10
  -3   1  -7  223.67   16.22
  -3   1  -6  213.39   24.48
  -3   1  -6  190.82   16.46
  -3   1  -5  108.68   12.89
  -3   1  -5   79.74   13.83
  -3   1  -5  109.55   22.54
  -3   1  -4  121.20   12.52
  -3   1  -4  118.52   24.93
  -3   1  -3  127.72   11.41
  -3   1  -3  111.78   23.59
  -3   1  -2  133.39    9.70
  -3   1  -2  111.68    5.78
  -3   1  -1  208.14    7.92
  -3   1  -1  229.70    7.30
  -3   1   0  436.13   13.22
  -3   1   0  380.30   29.22
  -3   1   1  330.37    8.74
  -3   1   1  296.97   10.48
  -3   1   2  156.85    6.03
  -3   1   2  165.56    5.53
  -3   1   2  187.12    8.44
  -3   1   2  179.67    7.93
  -3   1   3    0.77    0.70
  -3   1   3    0.50    0.60
  -3   1   3    0.59    1.12
  -3   1   3    0.50    1.85
  -3   1   4  145.63    7.11
  -3   1   4  160.89    6.78
  -3   1   5   31.67    3.72
  -3   1   5   28.51    3.49
  -3   1   6  208.47   10.06
  -3   1   6  207.13    9.99
  -3   1   7   85.38    5.38
  -3   1   7   83.99    6.43
  -3   1   7   77.39    5.91
  -3   1   8   18.71    2.82
  -3   1   8   19.96    3.39
  -3   1   8   20.72    2.45
  -3   1   9   39.20    2.65
  -3   1   9   48.09    4.26
  -3   1  10   -0.03    0.91
  -3   2  -8    1.77    2.04
  -3   2  -8    2.07    3.51
  -3   2  -7  104.32   12.86
  -3   2  -7  153.10   13.02
  -3   2  -6  207.89   26.48
  -3   2  -6  249.34   18.38
  -3   2  -5   40.69   18.80
  -3   2  -5   55.94    9.56
  -3   2  -4  134.45   13.34
  -3   2  -3  120.80   11.26
  -3   2  -2   74.18    4.83
  -3   2  -1  827.86   19.33
  -3   2  -1  729.36   19.58
  -3   2   0  577.11   14.70
  -3   2   0  780.65   17.05
  -3   2   1  215.57    6.65
  -3   2   1  206.78    7.14
  -3   2   1  179.05   10.87
  -3   2   1  158.10    5.58
  -3   2   2    3.76    0.95
  -3   2   2    5.38    1.04
  -3   2   2    5.65    1.22
  -3   2   2    3.36    1.56
  -3   2   2    5.63    2.13
  -3   2   2    4.70    1.72
  -3   2   2    4.67    2.42
  -3   2   3   75.24    5.99
  -3   2   3   70.03    5.28
  -3   2   3   67.51    3.91
  -3   2   3   70.15    5.45
  -3   2   3   81.46    6.80
  -3   2   4  432.44   15.44
  -3   2   4  427.13   16.07
  -3   2   5  422.76   15.65
  -3   2   5  415.54   16.70
  -3   2   6   89.71    6.76
  -3   2   6  102.80    7.30
  -3   2   6  107.30    6.05
  -3   2   7   85.89    6.66
  -3   2   7   93.67    5.43
  -3   2   7  100.83    7.04
  -3   2   8   42.04    4.14
  -3   2   8   37.07    4.51
  -3   2   8   37.82    2.98
  -3   2   9    0.14    1.11
  -3   2   9    1.52    1.10
  -3   2   9    2.76    2.22
  -3   2  10   11.37    1.78
  -3   3  -8   20.33    5.53
  -3   3  -8   34.93    5.10
  -3   3  -7  106.93   10.96
  -3   3  -7   96.61   15.38
  -3   3  -6  172.96   26.42
  -3   3  -6  240.31   17.87
  -3   3  -5   39.71    8.26
  -3   3  -4   94.52   11.41
  -3   3  -3  173.85   13.62
  -3   3   0   21.74    2.72
  -3   3   0   26.34    2.24
  -3   3   0   18.57    1.61
  -3   3   0   20.98    4.50
  -3   3   1   39.80    5.57
  -3   3   1   29.96    3.24
  -3   3   1   44.43    2.99
  -3   3   1   31.18    2.33
  -3   3   2   94.31    6.50
  -3   3   2   87.07    6.23
  -3   3   2   98.40    4.68
  -3   3   2   88.79    5.80
  -3   3   3  290.24   12.11
  -3   3   3  296.82   12.71
  -3   3   3  294.77   12.85
  -3   3   3  327.19   10.22
  -3   3   4  121.49    6.03
  -3   3   4  102.39    7.95
  -3   3   4   90.90    6.98
  -3   3   4   95.80    7.23
  -3   3   4  107.05    8.61
  -3   3   5   16.91    4.32
  -3   3   5   15.41    3.53
  -3   3   5   18.48    3.54
  -3   3   5   16.62    3.66
  -3   3   5   19.75    2.69
  -3   3   6   30.83    4.32
  -3   3   6   31.50    4.35
  -3   3   6   34.42    4.51
  -3   3   6   33.73    3.33
  -3   3   7   54.27    5.10
  -3   3   7   65.17    5.77
  -3   3   7   65.32    4.20
  -3   3   7   69.56    7.02
  -3   3   8   17.98    2.78
  -3   3   8   15.85    3.45
  -3   3   8   13.67    1.59
  -3   3   9   42.03    2.86
  -3   3   9   73.58    4.58
  -3   4  -8   15.44    3.41
  -3   4  -7    5.69    3.75
  -3   4  -7   -0.27    8.66
  -3   4  -6  115.29   12.27
  -3   4  -5  120.93   12.86
  -3   4  -4  419.41   23.66
  -3   4  -2   88.48    5.79
  -3   4  -1   90.30    5.71
  -3   4   0   94.47    5.81
  -3   4   0   89.15    8.78
  -3   4   1   32.36    3.56
  -3   4   1   34.90    5.63
  -3   4   1   27.69    2.50
  -3   4   2   52.98    3.64
  -3   4   2   49.77    5.15
  -3   4   2   46.01    4.86
  -3   4   2   59.32    7.05
  -3   4   2   50.92    4.60
  -3   4   3   96.64    6.55
  -3   4   3   93.48    7.17
  -3   4   3   88.01    7.24
  -3   4   4   88.42    7.46
  -3   4   4   93.81    7.56
  -3   4   4  113.70    9.52
  -3   4   4   98.36    6.85
  -3   4   4  121.57    6.23
  -3   4   5  202.94   10.14
  -3   4   5  194.83   11.27
  -3   4   5  197.48   11.31
  -3   4   5  237.21    9.30
  -3   4   5  254.73   13.86
  -3   4   6   30.08    4.60
  -3   4   6   32.99    4.53
  -3   4   6   31.41    3.10
  -3   4   6   29.12    4.30
  -3   4   7   15.34    2.66
  -3   4   7   20.15    3.69
  -3   4   8  101.20    5.52
  -3   4   8  110.23    5.73
  -3   5  -8   25.57    3.42
  -3   5  -8   15.43    4.28
  -3   5  -7   33.78    5.44
  -3   5  -7   31.85   12.18
  -3   5  -6  156.48   12.82
  -3   5  -6   73.92   20.51
  -3   5  -5   38.27    7.25
  -3   5  -2  232.97   10.20
  -3   5  -1   80.25    5.67
  -3   5  -1   52.90    7.74
  -3   5   0   46.64    4.37
  -3   5   1  205.28    9.34
  -3   5   1  184.93   13.48
  -3   5   2    7.88    3.98
  -3   5   2    9.97    2.40
  -3   5   3  421.00   14.54
  -3   5   3  413.27   20.10
  -3   5   4  241.21    9.48
  -3   5   4  262.86   15.08
  -3   5   5    7.28    2.92
  -3   5   5    6.08    2.61
  -3   5   5    5.69    2.66
  -3   5   6   95.40    6.82
  -3   5   6   87.03    5.89
  -3   5   6   82.93    6.80
  -3   5   7  279.65   10.44
  -3   6  -7   10.63    8.94
  -3   6  -1  118.95    6.95
  -3   6  -1   63.66    8.40
  -3   6   0  251.05   16.81
  -3   6   0  379.62   12.99
  -3   6   2   31.07    6.37
  -3   6   3  193.74   11.30
  -3   6   3  244.65   15.06
  -3   6   4   41.77    6.08
  -3   6   5  117.10    8.54
  -3   6   6  104.46    6.47
  -3   7  -7   16.46    7.16
  -3   7   0  151.25   12.42
  -3   7   3  139.90   10.59
  -3   7   4   17.65    3.64
  -3   7   5   10.80    2.34
  -3   8  -6    3.68    6.75
  -3   8   1   62.12    7.05
  -2  -9   0   10.98    2.73
  -2  -9   0   16.32    1.89
  -2  -9   1   74.37    6.55
  -2  -9   1   97.08    5.09
  -2  -9   3   59.17    6.35
  -2  -9   4  149.47    9.19
  -2  -9   5   37.74    4.58
  -2  -9   6   56.72    4.80
  -2  -9   8    2.77    1.07
  -2  -8  -2    5.83    1.34
  -2  -8  -1   55.38    6.13
  -2  -8  -1   63.36    4.42
  -2  -8   0   36.13    5.86
  -2  -8   0   43.96    4.07
  -2  -8   1   80.84    4.32
  -2  -8   1  103.46    6.27
  -2  -8   1   95.97    8.88
  -2  -8   2    3.21    1.15
  -2  -8   2    5.27    2.11
  -2  -8   3  219.01    9.46
  -2  -8   4   87.89    8.13
  -2  -8   5   98.95    8.23
  -2  -8   6   62.87    6.19
  -2  -8   6   51.68    2.66
  -2  -8   6   69.06    4.87
  -2  -8   7   36.76    3.54
  -2  -8   7   24.26    1.60
  -2  -8   8   28.66    2.86
  -2  -8   8   18.88    2.88
  -2  -8   9   93.40    4.28
  -2  -8   9   77.63    4.27
  -2  -7  -3   60.71    4.08
  -2  -7  -2   64.59    6.75
  -2  -7  -2   73.34    5.33
  -2  -7  -1   25.97    5.34
  -2  -7  -1   17.66    2.09
  -2  -7  -1   31.06    3.84
  -2  -7   0   11.21    4.39
  -2  -7   0    7.85    1.57
  -2  -7   0   12.59    2.93
  -2  -7   1    2.84    3.34
  -2  -7   1    0.62    0.89
  -2  -7   1    0.84    1.66
  -2  -7   2   20.30    2.35
  -2  -7   2   24.09    3.33
  -2  -7   3  215.77    7.79
  -2  -7   3  238.06    9.70
  -2  -7   4   39.59    5.87
  -2  -7   4   40.46    3.98
  -2  -7   5   66.06    7.10
  -2  -7   5   67.56    5.72
  -2  -7   5   63.20    3.86
  -2  -7   6   87.90    4.28
  -2  -7   6   91.21    8.06
  -2  -7   7  126.65    8.80
  -2  -7   7  114.96    4.59
  -2  -7   8  173.59    9.50
  -2  -7   8  179.00    5.62
  -2  -7   9   86.24    5.05
  -2  -7   9   66.88    4.72
  -2  -7  10   22.90    2.13
  -2  -6  -4   53.07    4.15
  -2  -6  -3   82.95    7.30
  -2  -6  -3   76.89    7.09
  -2  -6  -3   93.51    6.36
  -2  -6  -2    5.47    3.67
  -2  -6  -2    4.60    3.20
  -2  -6  -2    5.57    2.31
  -2  -6  -1   41.97    6.18
  -2  -6  -1   40.65    6.07
  -2  -6  -1   43.21    4.69
  -2  -6   0   52.69    5.29
  -2  -6   0   62.84    7.07
  -2  -6   0   61.36    7.13
  -2  -6   0   63.11    5.36
  -2  -6   1   93.25    7.03
  -2  -6   1  112.84    9.08
  -2  -6   1  104.07    6.40
  -2  -6   2   15.11    1.93
  -2  -6   2   17.62    3.65
  -2  -6   2   20.55    4.43
  -2  -6   2   16.60    2.69
  -2  -6   3  123.18    6.47
  -2  -6   3  130.43    7.95
  -2  -6   3  107.69    5.09
  -2  -6   4  245.16   11.31
  -2  -6   4  223.45    8.86
  -2  -6   5  248.94   13.36
  -2  -6   5  241.26    8.71
  -2  -6   6  172.79   11.20
  -2  -6   6  188.86    7.11
  -2  -6   7   43.49    4.91
  -2  -6   7   37.79    5.31
  -2  -6   7   39.51    2.90
  -2  -6   8  161.87    5.69
  -2  -6   8  146.21    9.21
  -2  -6   9   52.53    3.40
  -2  -6   9   44.70    4.14
  -2  -6  10   33.36    2.29
  -2  -5  -5    1.92    2.76
  -2  -5  -5    1.75    1.46
  -2  -5  -4    7.17    4.33
  -2  -5  -4    8.33    2.50
  -2  -5  -4    8.95    3.96
  -2  -5  -3   38.96    6.62
  -2  -5  -3   42.41    6.73
  -2  -5  -3   33.51    5.01
  -2  -5  -3   36.44    4.57
  -2  -5  -2  403.68   18.43
  -2  -5  -2  391.49   14.86
  -2  -5  -1   33.47    4.81
  -2  -5  -1   39.84    6.15
  -2  -5  -1   33.50    3.99
  -2  -5  -1   33.93    5.13
  -2  -5  -1   36.41    6.10
  -2  -5   0  115.13    7.85
  -2  -5   0  132.09    8.86
  -2  -5   0  119.23    8.87
  -2  -5   0  116.70    6.69
  -2  -5   1  116.50    7.95
  -2  -5   1  106.51    7.31
  -2  -5   1  110.10    6.03
  -2  -5   1  113.05    8.16
  -2  -5   2   61.88    5.35
  -2  -5   2   48.03    2.96
  -2  -5   2   53.90    3.92
  -2  -5   2   65.04    5.87
  -2  -5   3  354.64   10.01
  -2  -5   3  382.06   11.65
  -2  -5   4  327.43   14.15
  -2  -5   4  334.07   12.90
  -2  -5   4  357.48   11.05
  -2  -5   5   41.71    4.46
  -2  -5   5   30.80    4.74
  -2  -5   5   33.14    3.02
  -2  -5   6   47.79    6.03
  -2  -5   6   62.86    5.65
  -2  -5   6   52.72    3.56
  -2  -5   7  398.96   14.91
  -2  -5   7  379.05   11.60
  -2  -5   8  257.79    8.00
  -2  -5   8  237.45   12.11
  -2  -5   9    4.30    1.62
  -2  -5   9    2.93    1.53
  -2  -5  10   65.15    3.91
  -2  -5  10   60.17    4.19
  -2  -5  11   10.09    1.32
  -2  -5  11   10.16    1.28
  -2  -4  -6   13.72    3.90
  -2  -4  -6   14.42    3.73
  -2  -4  -6    9.66    1.84
  -2  -4  -5    5.05    4.46
  -2  -4  -5    7.58    4.38
  -2  -4  -5    6.54    2.39
  -2  -4  -4   63.68    8.50
  -2  -4  -4   53.56    8.18
  -2  -4  -4   52.57    5.29
  -2  -4  -3  149.62   12.13
  -2  -4  -3  157.36   12.17
  -2  -4  -3  143.01    8.48
  -2  -4  -2  478.27   20.37
  -2  -4  -2  445.74   18.05
  -2  -4  -2  503.45   20.83
  -2  -4  -2  452.78   15.55
  -2  -4  -1  486.66   18.99
  -2  -4  -1  465.42   17.57
  -2  -4  -1  464.28   14.82
  -2  -4  -1  456.91   16.66
  -2  -4  -1  494.32   19.25
  -2  -4   0  701.60   19.24
  -2  -4   0  668.94   18.17
  -2  -4   0  756.83   18.41
  -2  -4   0  740.61   20.13
  -2  -4   0  670.07   14.62
  -2  -4   1   54.44    4.84
  -2  -4   1   54.23    5.31
  -2  -4   1   56.53    3.60
  -2  -4   1   63.58    4.96
  -2  -4   1   67.37    5.48
  -2  -4   2  189.71    8.65
  -2  -4   2  171.12    7.92
  -2  -4   2  179.37    8.33
  -2  -4   2  161.21    5.83
  -2  -4   3  201.66    6.16
  -2  -4   3  206.89    7.20
  -2  -4   4  130.29    7.00
  -2  -4   4  138.25    6.99
  -2  -4   4  126.35    7.74
  -2  -4   4  111.79    5.30
  -2  -4   5  116.96    8.28
  -2  -4   5  128.47    5.64
  -2  -4   6  184.55    7.20
  -2  -4   6  193.38    9.51
  -2  -4   6  179.63    6.69
  -2  -4   7  166.37   10.10
  -2  -4   7  197.85    6.96
  -2  -4   8   39.53    3.59
  -2  -4   8   33.07    4.25
  -2  -4   9   93.92    6.10
  -2  -4   9   97.49    5.60
  -2  -4   9   91.32    6.14
  -2  -4  10   85.80    4.90
  -2  -4  10   79.21    4.98
  -2  -4  11   56.92    3.15
  -2  -3  -7   47.07    5.46
  -2  -3  -7   47.65    5.21
  -2  -3  -6   19.34    5.40
  -2  -3  -6   18.72    5.81
  -2  -3  -6   16.82    2.81
  -2  -3  -5  107.13   11.44
  -2  -3  -5  111.56   11.38
  -2  -3  -4  173.36   12.51
  -2  -3  -3  110.09   10.02
  -2  -3  -2  103.12    8.93
  -2  -3  -2  102.33    8.49
  -2  -3  -2   95.09    6.06
  -2  -3  -1  261.25   12.19
  -2  -3  -1  233.87   12.12
  -2  -3  -1  256.50   12.18
  -2  -3  -1  243.96    8.76
  -2  -3  -1  250.83   10.03
  -2  -3   0 1237.96   29.89
  -2  -3   0 1175.33   30.17
  -2  -3   0 1270.89   28.25
  -2  -3   0 1212.19   29.90
  -2  -3   1  457.55   14.99
  -2  -3   1  465.46   15.73
  -2  -3   1  531.22   15.93
  -2  -3   1  527.43   14.93
  -2  -3   1  523.74   15.50
  -2  -3   2  378.16   11.95
  -2  -3   2  344.14   11.59
  -2  -3   3  693.40   20.49
  -2  -3   3  716.96   17.17
  -2  -3   4   26.39    2.93
  -2  -3   4   25.34    2.53
  -2  -3   4   22.12    2.73
  -2  -3   5   51.31    3.24
  -2  -3   5   46.32    5.00
  -2  -3   5   54.57    4.45
  -2  -3   6   84.40    4.64
  -2  -3   7  215.49    8.40
  -2  -3   7  191.03   10.27
  -2  -3   8  154.42    8.35
  -2  -3   8  145.95    8.57
  -2  -3   8  153.69    7.42
  -2  -3   8  147.77    5.83
  -2  -3   9   93.67    5.79
  -2  -3   9  101.64    5.35
  -2  -3   9   86.18    6.01
  -2  -3  10   39.74    3.54
  -2  -3  10   40.45    3.55
  -2  -3  11   17.87    1.95
  -2  -2  -8    2.32    2.28
  -2  -2  -8    2.43    1.92
  -2  -2  -7   44.43    6.96
  -2  -2  -7   40.69    6.40
  -2  -2  -5   95.00   10.53
  -2  -2  -4   53.82    8.69
  -2  -2  -3   17.25    5.80
  -2  -2  -2  189.37   12.19
  -2  -2  -1  122.30    8.28
  -2  -2  -1  102.34    7.70
  -2  -2   0 1254.27   31.61
  -2  -2   1   13.39    2.03
  -2  -2   1    7.07    0.59
  -2  -2   3   22.14    1.72
  -2  -2   4  457.15   12.25
  -2  -2   4  416.84   11.37
  -2  -2   4  357.09   11.88
  -2  -2   4  390.18   10.65
  -2  -2   5  288.76   10.13
  -2  -2   5  267.62   11.73
  -2  -2   6    9.05    1.92
  -2  -2   6    9.43    1.56
  -2  -2   7  262.57    9.90
  -2  -2   7  266.03   10.96
  -2  -2   7  243.20    7.86
  -2  -2   7  261.66   11.66
  -2  -2   8  242.88    9.99
  -2  -2   8  245.79   10.82
  -2  -2   9  245.95    9.28
  -2  -2   9  203.53    9.07
  -2  -2  10  245.84    8.82
  -2  -2  11  136.22    4.71
  -2  -1  -8   87.07    7.59
  -2  -1  -7  100.74    9.03
  -2  -1  -6   50.30    9.07
  -2  -1  -5    9.77    6.94
  -2  -1  -5    8.30    2.44
  -2  -1  -4   13.76    5.24
  -2  -1  -4    9.93    6.56
  -2  -1  -4   15.88   11.32
  -2  -1  -4    8.95    2.18
  -2  -1  -3  102.51   17.22
  -2  -1  -3   86.75    8.73
  -2  -1  -2   40.87    5.14
  -2  -1  -2   28.20    5.29
  -2  -1  -2   43.28   11.11
  -2  -1  -1  100.92    6.74
  -2  -1   0  352.71   11.41
  -2  -1   0  332.39    8.60
  -2  -1   1   24.14    2.20
  -2  -1   3 1027.46   20.49
  -2  -1   4  244.69    7.37
  -2  -1   5  242.48    8.28
  -2  -1   5  245.23    8.20
  -2  -1   5  272.49    9.71
  -2  -1   5  233.30    8.36
  -2  -1   5  274.93    7.63
  -2  -1   5  264.25   10.66
  -2  -1   6  139.92    6.54
  -2  -1   6  149.77    7.38
  -2  -1   6  168.15    6.93
  -2  -1   6  129.66    4.97
  -2  -1   6  153.90    8.14
  -2  -1   7  730.24   17.71
  -2  -1   7  798.32   21.96
  -2  -1   8   70.85    4.79
  -2  -1   8   83.68    5.93
  -2  -1   9  236.69    9.83
  -2  -1  10   18.18    2.62
  -2  -1  10   23.66    2.84
  -2  -1  11   97.36    3.93
  -2   0  -9    1.15    1.96
  -2   0  -8   58.69    6.14
  -2   0  -7   56.27    9.30
  -2   0  -6   57.38   10.89
  -2   0  -5   66.04   10.05
  -2   0  -4  119.47   11.61
  -2   0  -4   90.90   16.89
  -2   0  -3   20.48    4.72
  -2   0  -3   14.25    9.54
  -2   0  -3    8.99    2.57
  -2   0  -3   10.60    1.96
  -2   0  -2   75.16    2.89
  -2   0  -2   88.49    4.76
  -2   0  -1  551.80   16.06
  -2   0  -1  566.50   11.66
  -2   0   0  488.15   12.35
  -2   0   0  607.59   12.12
  -2   0   1  838.53   17.84
  -2   0   2   29.54    1.84
  -2   0   3  171.07    4.33
  -2   0   3  209.26    4.71
  -2   0   4  427.09   13.45
  -2   0   4  772.62   16.05
  -2   0   4  541.66   13.56
  -2   0   4  566.38   15.02
  -2   0   4  720.79   17.38
  -2   0   5  719.39   18.56
  -2   0   5  690.10   15.17
  -2   0   6  359.92   12.02
  -2   0   6  344.22   12.22
  -2   0   7  261.72   10.37
  -2   0   7  248.70   10.31
  -2   0   8  144.68    7.89
  -2   0   8  161.98    8.42
  -2   0   8  161.81    7.99
  -2   0   9   32.33    3.72
  -2   0   9   34.46    3.30
  -2   0   9   37.89    4.06
  -2   0  10   87.76    5.02
  -2   0  11   67.95    3.52
  -2   1  -8   34.46    7.24
  -2   1  -6  113.04   13.44
  -2   1  -5    9.10   11.30
  -2   1  -5    4.40    5.69
  -2   1  -5    7.22    5.80
  -2   1  -4   13.11    5.46
  -2   1  -4   15.13    5.55
  -2   1  -3  305.03   16.54
  -2   1  -3  347.77   17.90
  -2   1  -3  231.30    9.59
  -2   1  -3  248.55    7.82
  -2   1  -2   87.77    3.71
  -2   1  -2   76.25    4.29
  -2   1  -1  317.51    7.36
  -2   1  -1  348.54    9.67
  -2   1   0  148.87    4.30
  -2   1   0  149.42    3.59
  -2   1   0  151.03    4.74
  -2   1   1  162.94    4.85
  -2   1   1  149.49    4.90
  -2   1   2  387.67    8.69
  -2   1   2  299.64    6.87
  -2   1   3  429.90    9.94
  -2   1   3  438.58   11.47
  -2   1   4  355.42   10.31
  -2   1   4  325.59   10.40
  -2   1   4  313.14   11.26
  -2   1   4  331.65   11.01
  -2   1   4  374.08   10.70
  -2   1   5   17.97    2.27
  -2   1   5   13.89    2.30
  -2   1   5   17.09    2.59
  -2   1   5   15.16    2.47
  -2   1   6   51.47    3.96
  -2   1   6   43.98    4.17
  -2   1   6   50.51    4.58
  -2   1   6   57.59    4.89
  -2   1   7  220.79    9.97
  -2   1   7  262.64   11.27
  -2   1   7  273.16   11.53
  -2   1   7  234.29    8.95
  -2   1   8   98.52    6.90
  -2   1   8   98.85    6.54
  -2   1   9  126.54    7.05
  -2   1   9  107.23    6.10
  -2   1  10   80.69    4.45
  -2   2  -9    6.86    3.42
  -2   2  -7  111.00   13.51
  -2   2  -6   71.22   17.20
  -2   2  -6   94.83   13.83
  -2   2  -5  262.29   20.03
  -2   2  -5  202.16   17.78
  -2   2  -4   88.90   11.11
  -2   2  -4   74.69    9.68
  -2   2  -3  184.83   14.16
  -2   2  -3  189.87   12.48
  -2   2  -3  173.85    7.01
  -2   2  -2  273.18   22.03
  -2   2  -2  272.07    8.31
  -2   2  -1  283.99    8.40
  -2   2   0  304.53    7.28
  -2   2   0  260.90    9.65
  -2   2   1  568.88   13.49
  -2   2   1  578.17   13.03
  -2   2   2  493.93   11.96
  -2   2   2  483.66   12.40
  -2   2   2  456.63   12.08
  -2   2   3  260.90    7.88
  -2   2   3  232.10    8.90
  -2   2   4  276.80   10.84
  -2   2   4  316.12   11.88
  -2   2   5  123.25    7.53
  -2   2   5  145.21    6.46
  -2   2   6  125.70    7.90
  -2   2   6  119.79    6.03
  -2   2   7   28.28    3.84
  -2   2   7   25.52    2.60
  -2   2   8    1.26    1.57
  -2   2   9   64.62    4.38
  -2   2  10   88.70    4.43
  -2   3  -9    2.21    2.55
  -2   3  -9    2.08    3.72
  -2   3  -8   15.70    5.69
  -2   3  -7   45.86   13.38
  -2   3  -7  108.09   13.59
  -2   3  -6  409.86   26.19
  -2   3  -6  524.21   29.63
  -2   3  -5   24.52    8.35
  -2   3  -5   18.19    6.74
  -2   3  -4  207.62   28.04
  -2   3  -4  216.88   15.62
  -2   3  -4  261.55   19.70
  -2   3  -3  142.74   20.41
  -2   3  -3  139.73    5.79
  -2   3  -3  119.60   12.58
  -2   3  -3  158.10    7.09
  -2   3  -2  180.51    6.97
  -2   3  -2  200.91    7.63
  -2   3  -1 1012.26   24.53
  -2   3  -1 1251.00   25.62
  -2   3  -1 1283.62   29.94
  -2   3  -1  936.75   28.84
  -2   3   0  946.94   20.98
  -2   3   0 1037.21   23.75
  -2   3   1  123.61    7.42
  -2   3   1  127.06    5.06
  -2   3   1  134.42    4.99
  -2   3   2   97.24    4.77
  -2   3   2   98.03    4.62
  -2   3   2   74.05    4.97
  -2   3   2   70.92    4.56
  -2   3   2   94.50    6.70
  -2   3   2   91.96    4.31
  -2   3   3   18.75    2.70
  -2   3   3   15.99    2.67
  -2   3   3   25.40    3.77
  -2   3   3   21.49    2.22
  -2   3   4  130.99    7.90
  -2   3   4  143.72    8.01
  -2   3   5   32.24    4.17
  -2   3   5   36.74    3.25
  -2   3   6   84.29    4.95
  -2   3   6   92.62    7.04
  -2   3   6   80.07    6.35
  -2   3   7   54.95    5.25
  -2   3   7   59.51    5.52
  -2   3   7   48.97    3.35
  -2   3   9   79.19    4.37
  -2   3   9   90.31    5.07
  -2   4  -9    3.08    2.58
  -2   4  -8   72.05    9.35
  -2   4  -7  123.67   20.13
  -2   4  -7  432.51   24.88
  -2   4  -6  379.62   25.26
  -2   4  -6  311.63   21.34
  -2   4  -5  315.58   37.48
  -2   4  -5  297.04   22.74
  -2   4  -5  270.17   18.45
  -2   4  -4  219.57   29.48
  -2   4  -4  246.68   19.94
  -2   4  -3   81.17   17.24
  -2   4  -3   81.80   11.25
  -2   4  -2  207.15   21.03
  -2   4  -2  329.30   10.20
  -2   4  -2  333.07   15.63
  -2   4  -2  199.33   11.67
  -2   4  -1  105.12    4.73
  -2   4  -1   98.35    5.12
  -2   4   0   41.21    3.21
  -2   4   0   48.10    3.11
  -2   4   0   53.78    4.12
  -2   4   1   52.49    3.71
  -2   4   1   42.11    3.55
  -2   4   1   43.92    4.05
  -2   4   1   66.27    4.47
  -2   4   1   60.43    3.67
  -2   4   1   51.20    3.12
  -2   4   2    4.20    2.26
  -2   4   2    4.35    1.91
  -2   4   2    3.57    1.44
  -2   4   2    4.17    1.95
  -2   4   2    4.79    1.27
  -2   4   3   79.52    7.23
  -2   4   3   81.93    4.68
  -2   4   4   97.16    8.22
  -2   4   4   86.67    5.17
  -2   4   5  124.36    9.35
  -2   4   5   97.42    5.57
  -2   4   6   95.60    7.37
  -2   4   6  104.31    8.08
  -2   4   6   86.90    4.89
  -2   4   7    4.48    2.52
  -2   4   7    3.45    1.72
  -2   4   7    5.32    2.18
  -2   4   8   74.62    4.67
  -2   4   8   88.77    5.27
  -2   5  -9   71.90    6.41
  -2   5  -8  135.80   11.74
  -2   5  -7   41.71    8.62
  -2   5  -6   38.13    9.12
  -2   5  -5    1.06    5.54
  -2   5  -5   -4.78   14.82
  -2   5  -4  121.79   23.20
  -2   5  -4  135.60   15.44
  -2   5  -3   73.80   16.48
  -2   5  -3   84.83   11.79
  -2   5  -2   14.65    3.81
  -2   5  -2   28.29    3.19
  -2   5  -1  294.31    9.97
  -2   5  -1  208.30   12.50
  -2   5   0  246.35    8.75
  -2   5   0  211.72   12.09
  -2   5   1    6.58    4.38
  -2   5   1   22.92    3.41
  -2   5   2   37.04    5.51
  -2   5   2   30.87    4.14
  -2   5   3   81.72    8.00
  -2   5   3   62.69    5.98
  -2   5   4  115.57    7.39
  -2   5   4  128.54    8.72
  -2   5   5  321.59   15.26
  -2   5   5  217.54   10.53
  -2   5   6  123.67    8.43
  -2   5   7  172.09    8.11
  -2   5   8  114.63    4.71
  -2   6  -9    8.27    2.14
  -2   6  -8   12.66    4.08
  -2   6  -8    4.22    6.37
  -2   6  -7    2.90    4.32
  -2   6  -6   63.79   10.35
  -2   6  -5   10.52    6.05
  -2   6  -5    8.62   12.01
  -2   6  -4  182.91   24.84
  -2   6  -4  206.11   18.18
  -2   6  -3   98.87   12.40
  -2   6  -2  239.50   13.82
  -2   6  -1   58.60    6.94
  -2   6   0  169.49   11.88
  -2   6   1  191.73   10.31
  -2   6   1  226.67   13.68
  -2   6   2    3.53    2.29
  -2   6   3  431.70   19.67
  -2   6   3  338.12   14.93
  -2   6   4   16.61    4.12
  -2   6   4   13.04    3.23
  -2   6   5  185.19    9.79
  -2   6   5  210.55   11.57
  -2   6   6   68.18    5.47
  -2   6   6   73.22    5.16
  -2   6   7   15.85    1.74
  -2   7  -8    0.84    1.68
  -2   7  -8    0.40    4.37
  -2   7  -7    1.96    3.17
  -2   7  -6   32.37    6.81
  -2   7  -5   35.35    7.50
  -2   7  -4  102.48   11.82
  -2   7  -2   22.90    4.78
  -2   7  -1  188.98   12.74
  -2   7   0  231.64   14.36
  -2   7   1   78.31    8.55
  -2   7   2   59.94    5.75
  -2   7   2   62.10    7.49
  -2   7   3   31.31    4.14
  -2   7   4   69.08    5.53
  -2   7   4   88.97    7.40
  -2   7   5   20.11    2.60
  -2   7   5   20.80    3.22
  -2   8  -1   58.95    6.95
  -2   8   0   26.77    5.03
  -2   8   1  123.59    9.81
  -2   8   2    0.66    2.28
  -2   8   3  159.41    9.51
  -2   9   1   10.98    2.60
  -2   9   2    5.76    1.79
  -1 -10   2   70.64    4.76
  -1 -10   3   43.65    3.79
  -1  -9  -1  105.23    6.87
  -1  -9  -1  117.70    5.24
  -1  -9   0   86.86    4.04
  -1  -9   1   67.91    6.65
  -1  -9   1   65.67    3.75
  -1  -9   2  126.81    8.87
  -1  -9   2  138.90    5.83
  -1  -9   3   59.03    6.75
  -1  -9   4  254.39   11.90
  -1  -9   5   60.35    5.21
  -1  -9   6    2.18    1.22
  -1  -9   7    7.14    1.54
  -1  -9   8   24.76    2.03
  -1  -9   8   16.91    1.96
  -1  -8  -3   31.42    3.64
  -1  -8  -3   41.62    3.04
  -1  -8  -2   90.94    7.27
  -1  -8  -2   98.54    5.69
  -1  -8  -1   83.00    7.79
  -1  -8  -1   89.94    5.97
  -1  -8   0   16.92    2.35
  -1  -8   1  184.33    7.89
  -1  -8   1  234.64   13.30
  -1  -8   2  101.37    8.74
  -1  -8   2   83.59    5.01
  -1  -8   3   86.39    4.93
  -1  -8   3   90.72    8.21
  -1  -8   4  234.19   12.40
  -1  -8   5  110.85    7.34
  -1  -8   5   75.64    6.80
  -1  -8   6    1.85    1.98
  -1  -8   6    5.22    2.08
  -1  -8   7   98.85    6.37
  -1  -8   8   84.70    5.17
  -1  -8   9   34.64    2.67
  -1  -8   9   25.75    2.12
  -1  -7  -4   75.41    5.57
  -1  -7  -4  107.90    5.71
  -1  -7  -3   56.08    6.24
  -1  -7  -3   56.42    5.00
  -1  -7  -2   56.26    5.40
  -1  -7  -2   54.31    6.88
  -1  -7  -1   23.73    5.25
  -1  -7  -1   20.39    3.65
  -1  -7   0   57.38    5.34
  -1  -7   2   13.95    2.13
  -1  -7   2   17.28    4.17
  -1  -7   3  135.20    6.29
  -1  -7   3  152.37   10.07
  -1  -7   4  240.21   12.66
  -1  -7   4  263.98    9.19
  -1  -7   4  249.97   12.30
  -1  -7   5  311.16    9.12
  -1  -7   5  345.14   14.94
  -1  -7   6  202.08   10.97
  -1  -7   6  182.00    6.06
  -1  -7   7   90.74    6.69
  -1  -7   7   63.53    3.07
  -1  -7   8   47.73    4.58
  -1  -7   8   49.82    3.18
  -1  -7   9    0.49    0.79
  -1  -7   9   -0.03    0.77
  -1  -7  10   36.63    2.52
  -1  -6  -5   20.95    2.83
  -1  -6  -4  114.69    8.51
  -1  -6  -4  126.43    7.84
  -1  -6  -3   34.36    5.66
  -1  -6  -3   39.00    4.90
  -1  -6  -2   84.79    8.40
  -1  -6  -2   80.96    6.72
  -1  -6  -1  121.34    9.53
  -1  -6  -1  106.94    7.31
  -1  -6   0   11.72    3.79
  -1  -6   0   10.32    2.64
  -1  -6   1   91.93    4.41
  -1  -6   2  356.03   12.76
  -1  -6   2  354.24   14.25
  -1  -6   2  332.06    9.65
  -1  -6   3  530.74   17.86
  -1  -6   3  487.11   13.00
  -1  -6   3  547.36   17.81
  -1  -6   4  346.44   14.10
  -1  -6   4  334.14   14.00
  -1  -6   4  335.95   10.12
  -1  -6   4  299.86    9.69
  -1  -6   5  105.18    7.75
  -1  -6   5  116.15    7.90
  -1  -6   5  101.33    4.70
  -1  -6   6   94.37    4.41
  -1  -6   6   88.02    7.27
  -1  -6   7   51.27    3.70
  -1  -6   7   45.62    5.01
  -1  -6   7   38.43    2.65
  -1  -6   8   35.32    3.09
  -1  -6   9   29.20    2.64
  -1  -6   9   24.97    3.13
  -1  -6   9   21.76    2.63
  -1  -6  10   15.89    1.78
  -1  -6  10   13.48    1.87
  -1  -5  -6    2.96    1.70
  -1  -5  -5   39.42    4.86
  -1  -5  -5   46.51    5.07
  -1  -5  -4  210.20   12.29
  -1  -5  -4  197.45   11.86
  -1  -5  -4  231.05   11.68
  -1  -5  -3  167.10   11.10
  -1  -5  -3  190.29   11.77
  -1  -5  -3  205.22   12.23
  -1  -5  -3  207.92   10.93
  -1  -5  -2   92.84    7.94
  -1  -5  -2  113.28    8.69
  -1  -5  -2  123.44    9.05
  -1  -5  -2  112.85    7.70
  -1  -5  -1  170.59    9.77
  -1  -5  -1  182.85    9.01
  -1  -5   0  197.05    9.71
  -1  -5   0  208.51    8.76
  -1  -5   1   46.07    2.70
  -1  -5   1   48.10    4.61
  -1  -5   1   49.04    4.17
  -1  -5   1   50.07    3.77
  -1  -5   2   18.43    2.89
  -1  -5   2   19.40    2.93
  -1  -5   2   16.36    1.62
  -1  -5   3  366.25   10.14
  -1  -5   3  322.41   10.43
  -1  -5   4  292.94    8.77
  -1  -5   4  299.93   12.18
  -1  -5   4  311.59   12.25
  -1  -5   4  281.16    9.06
  -1  -5   5  249.89   11.67
  -1  -5   5  262.65   11.64
  -1  -5   5  273.24    8.50
  -1  -5   6  183.35    9.65
  -1  -5   6  160.72    9.75
  -1  -5   6  172.74    6.38
  -1  -5   7   55.90    3.93
  -1  -5   7   50.64    3.18
  -1  -5   8  239.13   10.87
  -1  -5   8  250.06    8.87
  -1  -5   9   45.00    4.17
  -1  -5   9   46.39    3.54
  -1  -5  10   35.45    3.01
  -1  -5  10   37.31    2.90
  -1  -5  11   68.47    3.07
  -1  -4  -7   35.88    3.43
  -1  -4  -6   37.19    5.94
  -1  -4  -6   50.38    4.67
  -1  -4  -6   37.46    5.32
  -1  -4  -6   49.34    5.06
  -1  -4  -5    2.42    3.91
  -1  -4  -5    5.50    2.63
  -1  -4  -5    5.45    2.72
  -1  -4  -5    2.19    3.59
  -1  -4  -4  192.89    9.75
  -1  -4  -4  181.42   11.01
  -1  -4  -4  168.92   12.06
  -1  -4  -3  212.90   12.70
  -1  -4  -3  241.18   10.29
  -1  -4  -3  228.90   11.95
  -1  -4  -2  267.68   13.11
  -1  -4  -2  311.98   13.02
  -1  -4  -2  274.77   13.24
  -1  -4  -2  296.72   10.83
  -1  -4  -1    6.03    2.60
  -1  -4  -1    3.99    2.19
  -1  -4  -1    3.41    1.43
  -1  -4  -1    5.50    1.61
  -1  -4  -1    3.82    1.88
  -1  -4   0   27.20    3.34
  -1  -4   0   24.38    4.14
  -1  -4   0   30.27    3.51
  -1  -4   0   35.22    3.52
  -1  -4   0   28.22    2.65
  -1  -4   1  624.13   15.54
  -1  -4   2  720.02   18.47
  -1  -4   2  675.44   16.44
  -1  -4   3  393.18   12.78
  -1  -4   3  486.46   13.34
  -1  -4   3  494.03   10.83
  -1  -4   3  429.15   13.59
  -1  -4   3  347.86    9.47
  -1  -4   3  308.22    9.92
  -1  -4   4  350.97   12.92
  -1  -4   4  362.19   12.81
  -1  -4   4  367.54   10.41
  -1  -4   5   27.91    3.90
  -1  -4   5   29.43    3.53
  -1  -4   5   36.06    2.70
  -1  -4   6   47.58    3.41
  -1  -4   6   41.62    2.86
  -1  -4   7  255.39    9.02
  -1  -4   7  232.17   10.74
  -1  -4   7  236.61    7.65
  -1  -4   8  384.41   11.95
  -1  -4   8  369.86   13.71
  -1  -4   9   78.74    4.85
  -1  -4   9   82.97    5.51
  -1  -4  10   91.18    4.81
  -1  -4  10   96.61    4.34
  -1  -4  10   87.62    4.79
  -1  -3  -8    3.37    1.78
  -1  -3  -8    6.29    1.47
  -1  -3  -7   19.86    4.95
  -1  -3  -7   25.46    3.36
  -1  -3  -7   19.22    4.47
  -1  -3  -6   10.85    3.17
  -1  -3  -5  118.39    7.83
  -1  -3  -4  129.40    7.61
  -1  -3  -4  134.84    8.20
  -1  -3  -3  166.75    7.84
  -1  -3  -3  162.43    8.13
  -1  -3  -2 1296.11   38.51
  -1  -3  -2 1382.30   30.36
  -1  -3  -1  969.45   28.34
  -1  -3   0 4748.29   96.67
  -1  -3   1  347.19   10.45
  -1  -3   2   52.04    3.28
  -1  -3   3  300.49   10.04
  -1  -3   4  272.12   11.01
  -1  -3   4  262.50   10.17
  -1  -3   5   60.21    4.74
  -1  -3   5   46.68    4.74
  -1  -3   5   53.75    3.16
  -1  -3   6  434.18   12.11
  -1  -3   6  409.81   14.12
  -1  -3   6  419.01   11.08
  -1  -3   7  188.41    9.13
  -1  -3   7  201.33    7.91
  -1  -3   8  213.13    8.54
  -1  -3   8  209.04    9.60
  -1  -3   8  214.83    9.56
  -1  -3   9   64.62    4.79
  -1  -3  10   35.46    2.87
  -1  -3  10   45.40    3.35
  -1  -3  11   16.69    1.77
  -1  -3  11   14.68    1.46
  -1  -2  -8   28.42    2.98
  -1  -2  -7   65.23    5.57
  -1  -2  -6  211.43   11.21
  -1  -2  -5  127.46    8.21
  -1  -2  -5  151.53    8.91
  -1  -2  -4   83.17    8.60
  -1  -2  -4  115.36    6.88
  -1  -2  -4   97.00    6.29
  -1  -2  -4   90.95    5.96
  -1  -2  -4  107.72    6.73
  -1  -2  -3  257.72   13.59
  -1  -2  -3  270.71   14.36
  -1  -2  -3  316.49   10.90
  -1  -2  -3  307.44   10.74
  -1  -2  -3  284.98   10.32
  -1  -2  -3  326.30   10.86
  -1  -2  -2  378.79   14.92
  -1  -2  -1  933.79   24.94
  -1  -2   0 3012.77   61.59
  -1  -2   1  650.55   15.25
  -1  -2   1  619.77   14.28
  -1  -2   2  612.81   14.31
  -1  -2   3  290.89    8.89
  -1  -2   4  331.89   10.79
  -1  -2   5   91.29    4.23
  -1  -2   5   90.63    5.27
  -1  -2   5   96.46    5.68
  -1  -2   6  274.31    8.83
  -1  -2   6  271.14   10.32
  -1  -2   7  774.71   21.66
  -1  -2   7  825.81   22.44
  -1  -2   8  248.52   10.20
  -1  -2   9   27.29    3.35
  -1  -2   9   33.89    3.44
  -1  -2   9   30.81    3.20
  -1  -2  10   65.09    4.29
  -1  -2  10   67.87    4.20
  -1  -2  11   54.08    2.90
  -1  -1  -8   12.48    2.84
  -1  -1  -7   57.53    5.73
  -1  -1  -6  101.70   11.22
  -1  -1  -6  122.61    7.91
  -1  -1  -5    6.31    4.27
  -1  -1  -5    3.26    2.09
  -1  -1  -5    4.74    2.24
  -1  -1  -4  117.44    6.07
  -1  -1  -4  162.10   13.71
  -1  -1  -4  129.55    6.78
  -1  -1  -4  151.17    7.19
  -1  -1  -3  135.40    9.18
  -1  -1  -3   80.61    6.60
  -1  -1  -3   94.96    4.27
  -1  -1  -3  105.08    9.20
  -1  -1  -3   48.48    2.05
  -1  -1  -1 1165.35   27.52
  -1  -1   0 9999.00  186.90
  -1  -1   1  955.34   18.51
  -1  -1   1  916.32   19.13
  -1  -1   2   30.09    1.76
  -1  -1   3  339.62    9.41
  -1  -1   4  347.12   10.90
  -1  -1   5 1806.62   40.88
  -1  -1   5 1944.09   42.51
  -1  -1   5 1823.47   42.13
  -1  -1   6  692.48   19.48
  -1  -1   6  810.25   20.96
  -1  -1   7   57.20    4.34
  -1  -1   7   61.15    4.63
  -1  -1   8   15.95    2.55
  -1  -1   8   14.97    2.69
  -1  -1   9  161.12    7.72
  -1  -1   9  182.94    8.12
  -1  -1  10  101.18    5.19
  -1  -1  10  112.70    5.67
  -1  -1  11   65.12    3.07
  -1   0  -8  115.47   11.11
  -1   0  -8   90.02    6.50
  -1   0  -7  102.16   11.66
  -1   0  -7   73.25    6.29
  -1   0  -6  151.82    8.64
  -1   0  -6  120.87    7.57
  -1   0  -5   66.20    9.29
  -1   0  -4  107.09    5.45
  -1   0  -3   24.29    3.30
  -1   0  -2  506.74   11.50
  -1   0  -2  487.70   10.87
  -1   0  -1  720.23   14.83
  -1   0  -1  762.24   14.61
  -1   0   0 3706.59   65.76
  -1   0   0 3820.97   67.74
  -1   0   1 1181.86   20.23
  -1   0   1  930.85   20.10
  -1   0   2 4073.36   82.52
  -1   0   2 4468.29   81.10
  -1   0   3 3087.49   71.52
  -1   0   3 3887.43   69.07
  -1   0   4 2106.15   49.19
  -1   0   4 2362.26   46.16
  -1   0   5   37.19    2.86
  -1   0   5   40.07    3.91
  -1   0   5   40.03    3.22
  -1   0   6   17.77    2.14
  -1   0   6   17.28    2.42
  -1   0   6   20.58    2.68
  -1   0   7  203.68    8.88
  -1   0   7  218.23    9.05
  -1   0   8   48.06    4.40
  -1   0   8   56.06    4.76
  -1   0   9   84.24    5.37
  -1   0   9  100.84    6.13
  -1   0  10   65.80    4.12
  -1   0  10   39.60    2.79
  -1   1  -9   47.10    6.33
  -1   1  -9   34.72    3.38
  -1   1  -8  179.81   15.14
  -1   1  -8  125.78    7.70
  -1   1  -7   20.61    7.10
  -1   1  -6   91.48   14.02
  -1   1  -6   87.04   12.06
  -1   1  -5  102.54    5.94
  -1   1  -5  120.14   13.32
  -1   1  -4  503.36   34.43
  -1   1  -4  317.06   11.76
  -1   1  -4  454.84   21.38
  -1   1  -4  522.51   24.19
  -1   1  -3  139.29    3.70
  -1   1  -3  154.03    7.14
  -1   1  -3  157.08    4.22
  -1   1  -2   73.03    4.23
  -1   1  -2   72.16    3.22
  -1   1  -2   70.08    2.31
  -1   1  -1  926.20   18.90
  -1   1   0 1445.13   28.02
  -1   1   0 1444.38   28.22
  -1   1   1 1433.84   28.34
  -1   1   1 1513.10   28.50
  -1   1   2  122.60    4.23
  -1   1   2  157.27    4.27
  -1   1   3  643.59   13.90
  -1   1   4  193.02    6.68
  -1   1   5  253.95    8.50
  -1   1   5  266.63    8.46
  -1   1   5  243.45    8.75
  -1   1   6   58.56    4.41
  -1   1   7   93.06    5.96
  -1   1   8   65.69    4.93
  -1   1   9   89.58    5.44
  -1   1  10  106.49    4.41
  -1   2  -9   19.64    5.03
  -1   2  -9   12.93    2.38
  -1   2  -8  131.87   13.48
  -1   2  -8  106.57   14.62
  -1   2  -8  100.68    6.76
  -1   2  -7  230.52   21.53
  -1   2  -6   72.46   11.77
  -1   2  -6   97.08   14.27
  -1   2  -6   87.43   22.12
  -1   2  -5  126.93   23.01
  -1   2  -5  186.44   16.11
  -1   2  -5  141.75   15.44
  -1   2  -5  146.77   14.29
  -1   2  -4   49.34    8.67
  -1   2  -4   38.52    3.39
  -1   2  -4   41.63    7.23
  -1   2  -4   36.27    2.41
  -1   2  -4   47.81    8.38
  -1   2  -4   32.18    3.25
  -1   2  -3  156.78    6.26
  -1   2  -3  141.52    5.37
  -1   2  -3  149.63    4.98
  -1   2  -3  143.79    6.43
  -1   2  -2   38.56    2.12
  -1   2  -2   30.47    2.28
  -1   2  -2   36.22    2.51
  -1   2  -1  161.11    5.80
  -1   2  -1  159.47    5.10
  -1   2   0  369.47    9.21
  -1   2   1  384.65    9.36
  -1   2   1  367.34    8.79
  -1   2   2  366.41    9.94
  -1   2   2  406.54    9.74
  -1   2   3  240.03    8.44
  -1   2   3  208.47    7.81
  -1   2   4  471.51   13.49
  -1   2   4  488.68   14.19
  -1   2   4  453.92   14.63
  -1   2   5  175.74    8.15
  -1   2   5  191.78    6.97
  -1   2   6    2.11    1.77
  -1   2   6    3.15    2.22
  -1   2   7  485.84   16.79
  -1   2   8  167.47    8.80
  -1   2   8  184.05    9.03
  -1   2   9  297.79   10.39
  -1   2   9  280.07   10.02
  -1   3 -10   31.82    4.21
  -1   3  -9    4.03    3.77
  -1   3  -9    1.41    1.45
  -1   3  -8   93.57   13.71
  -1   3  -7   23.81    9.27
  -1   3  -6  115.27   14.85
  -1   3  -6   89.77   23.42
  -1   3  -6   97.25   12.91
  -1   3  -6  101.41   14.59
  -1   3  -5   64.96   11.38
  -1   3  -5   49.36    9.09
  -1   3  -5   65.03   11.04
  -1   3  -4   48.04    3.74
  -1   3  -4   46.40    9.07
  -1   3  -4   40.89    8.10
  -1   3  -4   43.11    3.17
  -1   3  -4   35.20    3.52
  -1   3  -4   40.16    7.14
  -1   3  -4   34.94    2.76
  -1   3  -3  388.76   10.94
  -1   3  -3  425.97   17.12
  -1   3  -3  406.57   12.50
  -1   3  -2   23.43    2.69
  -1   3  -2   23.02    2.14
  -1   3  -1 1525.14   32.29
  -1   3   0   67.91    3.21
  -1   3   0   54.48    2.81
  -1   3   1   63.80    3.72
  -1   3   1   58.02    3.05
  -1   3   2  123.80    5.64
  -1   3   2  100.42    4.91
  -1   3   2  108.56    5.54
  -1   3   2  134.12    4.72
  -1   3   2  133.01    5.28
  -1   3   2  121.46    4.62
  -1   3   3  312.06    8.35
  -1   3   3  294.24   10.83
  -1   3   3  253.64    9.92
  -1   3   3  240.67    9.31
  -1   3   3  324.85    9.03
  -1   3   4  672.29   20.63
  -1   3   4  925.73   20.00
  -1   3   5   58.85    5.15
  -1   3   5   69.51    4.08
  -1   3   6  590.84   19.49
  -1   3   6  660.68   20.92
  -1   3   7  201.50   10.08
  -1   3   7  217.24   10.68
  -1   3   8    3.43    1.45
  -1   3   8    5.45    1.98
  -1   3   8    4.63    2.09
  -1   3   9   46.31    3.21
  -1   4 -10   25.57    3.89
  -1   4  -9   63.57    9.03
  -1   4  -8   39.61    9.02
  -1   4  -7  190.48   18.40
  -1   4  -7  168.44   17.56
  -1   4  -7  151.86   15.56
  -1   4  -6  388.88   26.27
  -1   4  -6  310.97   21.44
  -1   4  -6  336.69   24.50
  -1   4  -5   19.30   17.85
  -1   4  -5   39.66    9.83
  -1   4  -5   28.11    7.29
  -1   4  -5   26.55    8.34
  -1   4  -4  485.34   25.72
  -1   4  -3  160.44   23.81
  -1   4  -3  309.79   10.20
  -1   4  -3   76.83   11.72
  -1   4  -3  311.49   12.58
  -1   4  -2  201.47   16.50
  -1   4  -2  222.52   10.11
  -1   4  -2  327.49   11.05
  -1   4  -2  317.04    9.85
  -1   4  -1   58.76    7.75
  -1   4  -1   83.19    4.66
  -1   4  -1   57.78    4.51
  -1   4  -1   73.50    3.98
  -1   4   0   90.35    4.21
  -1   4   0   57.29    5.19
  -1   4   0   90.75    4.28
  -1   4   0   63.56    4.06
  -1   4   0   91.20    5.77
  -1   4   0   90.32    8.44
  -1   4   0  106.45    5.31
  -1   4   1    1.41    0.80
  -1   4   1    0.26    0.63
  -1   4   1    1.35    1.33
  -1   4   1    0.12    2.28
  -1   4   1    0.18    0.67
  -1   4   1    0.80    1.82
  -1   4   1    0.10    0.96
  -1   4   1    4.89    0.98
  -1   4   2   38.37    3.58
  -1   4   2   31.00    3.82
  -1   4   2   27.82    5.27
  -1   4   2   32.74    3.38
  -1   4   2   37.37    2.61
  -1   4   2   34.11    2.69
  -1   4   3  183.39    9.34
  -1   4   3  145.42    8.03
  -1   4   3  138.94    7.20
  -1   4   3  187.12    6.99
  -1   4   4  210.61   10.20
  -1   4   4  212.35   10.46
  -1   4   4  182.21    9.11
  -1   4   5  102.45    7.48
  -1   4   5   87.74    6.48
  -1   4   6  142.67    8.27
  -1   4   7  122.25    7.84
  -1   4   8   15.71    1.98
  -1   5  -9    4.47    3.88
  -1   5  -9    6.56    3.90
  -1   5  -8   16.40    6.92
  -1   5  -8   12.30    5.64
  -1   5  -7   49.67   20.89
  -1   5  -7   51.61   11.18
  -1   5  -7   40.86    7.75
  -1   5  -7   46.42    9.43
  -1   5  -6   67.30   12.62
  -1   5  -6   47.08    9.74
  -1   5  -6   45.96    8.44
  -1   5  -5   67.79   23.38
  -1   5  -5  101.44   12.63
  -1   5  -3   26.25   14.54
  -1   5  -3   32.86    4.10
  -1   5  -2    7.79    2.20
  -1   5  -2    6.42    5.32
  -1   5  -1  216.75   16.41
  -1   5  -1  254.41   11.09
  -1   5   0  130.47    7.89
  -1   5   0  101.40    5.77
  -1   5   0  117.45   11.17
  -1   5   1   74.95    6.50
  -1   5   1   57.23    4.60
  -1   5   1   72.59    8.20
  -1   5   2   45.54    5.31
  -1   5   2   43.70    4.35
  -1   5   3   99.36    7.68
  -1   5   3   85.02    6.54
  -1   5   4  422.58   16.74
  -1   5   4  504.30   17.95
  -1   5   5  101.58    7.53
  -1   5   6  120.99    8.28
  -1   5   6  107.25    7.21
  -1   5   7   10.57    2.11
  -1   5   7   12.34    2.27
  -1   6 -10   12.11    2.21
  -1   6  -9    4.06    3.33
  -1   6  -8    3.87    5.04
  -1   6  -8    3.43    3.51
  -1   6  -7   10.02   14.74
  -1   6  -7   12.10    7.27
  -1   6  -7   10.70    4.76
  -1   6  -6  226.78   20.13
  -1   6  -5   18.22   17.07
  -1   6  -5   84.37   13.37
  -1   6  -3   49.00    5.36
  -1   6  -2   75.22   12.99
  -1   6  -2  108.20    7.87
  -1   6  -1  137.38   15.12
  -1   6  -1  169.46    9.93
  -1   6   0   73.90    7.54
  -1   6   0   85.58   11.15
  -1   6   0  104.82    6.37
  -1   6   1  314.29   15.02
  -1   6   1  255.02   11.10
  -1   6   1  289.60   18.76
  -1   6   2  296.84   15.50
  -1   6   2  328.16   13.69
  -1   6   3  141.75    9.67
  -1   6   3  158.61    9.30
  -1   6   4    7.77    2.70
  -1   6   5   29.76    4.37
  -1   6   5   23.42    3.50
  -1   6   6   47.57    4.42
  -1   6   6   46.22    3.92
  -1   7  -9    6.85    2.66
  -1   7  -8   36.44    6.52
  -1   7  -7   22.56   13.55
  -1   7  -7   38.66    8.42
  -1   7  -6   24.46   13.98
  -1   7  -6   40.39    9.31
  -1   7  -5  131.53   15.33
  -1   7  -3    9.56    8.25
  -1   7  -2   93.15   15.05
  -1   7  -2  168.65   10.50
  -1   7  -1   37.31    9.41
  -1   7  -1   67.87    6.88
  -1   7   0  196.76   18.44
  -1   7   0  369.29   16.62
  -1   7   1  103.52    6.85
  -1   7   1   80.70   11.01
  -1   7   2   16.10    3.95
  -1   7   2   12.94    2.76
  -1   7   3   99.94    8.36
  -1   7   3   75.12    5.97
  -1   7   4    7.57    2.16
  -1   7   5   42.28    3.34
  -1   7   5   53.98    4.71
  -1   8  -8    6.62    2.90
  -1   8  -7   37.03    6.53
  -1   8  -6   56.14   13.53
  -1   8  -6   73.29    9.95
  -1   8  -5    3.18    7.51
  -1   8  -5    5.82    5.33
  -1   8  -2    1.57    2.00
  -1   8  -1   10.00    6.41
  -1   8  -1   46.75    5.69
  -1   8   0   10.22    5.37
  -1   8   0   34.39    5.05
  -1   8   1   36.06    5.10
  -1   8   2    9.08    2.98
  -1   8   3   88.54    6.82
  -1   8   4   10.36    2.11
  -1   9  -6    2.92    2.47
  -1   9  -5    0.67    2.82
  -1   9  -1   16.58    3.05
  -1   9   0   49.76    4.99
  -1   9   1   66.71    5.49
  -1   9   2    0.93    1.23
   0  -9  -2   58.11    2.77
   0  -9  -2   64.31    3.33
   0  -9  -1   93.46    6.64
   0  -9  -1   82.60    4.09
   0  -9  -1   89.47    4.79
   0  -9   0   44.87    5.14
   0  -9   0   40.29    3.08
   0  -9   0   43.82    3.66
   0  -9   1   56.44    3.79
   0  -9   1   54.61    5.75
   0  -9   1   60.62    4.40
   0  -9   2   46.48    5.19
   0  -9   2   49.93    3.56
   0  -9   2   54.31    4.17
   0  -9   3    2.33    2.33
   0  -9   4   93.14    5.97
   0  -9   5    2.06    1.54
   0  -9   6   28.99    3.17
   0  -9   7    8.06    1.74
   0  -9   8   28.85    2.19
   0  -8  -3   18.81    2.54
   0  -8  -3   19.19    3.58
   0  -8  -2   71.98    5.17
   0  -8  -1  152.22   10.38
   0  -8  -1  138.05    7.67
   0  -8   0   62.42    6.98
   0  -8   0   54.31    3.76
   0  -8   0   63.17    5.16
   0  -8   1   48.78    6.03
   0  -8   1   48.60    3.64
   0  -8   1   41.15    3.67
   0  -8   1   51.10    4.64
   0  -8   2   20.80    4.13
   0  -8   2   18.98    2.63
   0  -8   2   23.45    3.23
   0  -8   3   48.26    3.84
   0  -8   3   44.06    5.35
   0  -8   3   52.94    5.48
   0  -8   3   50.39    4.38
   0  -8   4  212.15   10.98
   0  -8   4  280.24   13.00
   0  -8   5  247.58   12.12
   0  -8   6    8.03    2.59
   0  -8   7    2.65    1.77
   0  -8   8    6.82    1.48
   0  -8   9   30.42    2.31
   0  -7  -5   23.91    2.93
   0  -7  -4   31.40    4.70
   0  -7  -3   68.36    7.28
   0  -7  -2  108.28    5.54
   0  -7  -2  154.37    8.71
   0  -7  -1   60.78    4.14
   0  -7  -1   72.76    6.02
   0  -7   0   68.16    7.06
   0  -7   0   54.38    3.93
   0  -7   0   54.94    5.05
   0  -7   1  185.10    7.52
   0  -7   1  209.39   11.28
   0  -7   1  192.27    9.06
   0  -7   2  355.88   14.72
   0  -7   2  361.01   12.47
   0  -7   2  348.95   10.84
   0  -7   3  320.11   13.74
   0  -7   3  335.91   11.81
   0  -7   3  305.69    8.92
   0  -7   4  528.97   18.53
   0  -7   4  555.22   13.55
   0  -7   5   50.41    5.62
   0  -7   6   70.56    6.37
   0  -7   7   48.77    3.47
   0  -7   8   45.17    3.06
   0  -7   8   25.32    2.97
   0  -7   9    2.77    1.27
   0  -7   9    4.06    1.11
   0  -6  -6   57.82    4.10
   0  -6  -6   72.12    4.43
   0  -6  -5    4.73    2.78
   0  -6  -4  292.33   14.80
   0  -6  -3   84.49    8.34
   0  -6  -3   47.35    3.73
   0  -6  -2    2.77    1.48
   0  -6  -2    5.87    2.60
   0  -6  -1  301.44   10.28
   0  -6  -1  343.73   13.14
   0  -6   0  144.78    7.55
   0  -6   0  141.94    6.16
   0  -6   0  131.38    5.98
   0  -6   1  737.66   18.62
   0  -6   1  786.65   20.87
   0  -6   2  137.70    5.69
   0  -6   2  123.97    4.78
   0  -6   2  138.46    6.64
   0  -6   3   92.29    6.37
   0  -6   3   89.94    3.90
   0  -6   3  100.57    5.50
   0  -6   3   99.38    4.73
   0  -6   4  176.81    9.16
   0  -6   4  184.87    6.15
   0  -6   8    3.34    1.49
   0  -6   8    3.39    1.79
   0  -6   9    3.94    1.32
   0  -6   9    3.23    1.55
   0  -6  10   26.58    2.01
   0  -6  10   25.97    2.02
   0  -5  -7  120.02    5.89
   0  -5  -6  126.45    8.17
   0  -5  -6  136.11    7.92
   0  -5  -5  105.47    8.68
   0  -5  -5   98.39    7.36
   0  -5  -4  254.70   11.98
   0  -5  -3  122.67    7.79
   0  -5  -1   68.84    3.98
   0  -5  -1   83.36    5.52
   0  -5   0  107.00    4.58
   0  -5   0  113.38    5.85
   0  -5   1  287.88    8.17
   0  -5   1  238.76    7.52
   0  -5   1  278.64    7.91
   0  -5   1  314.64   10.79
   0  -5   1  243.74    8.14
   0  -5   1  265.90    8.92
   0  -5   2   62.18    3.78
   0  -5   2   64.21    4.49
   0  -5   2   54.87    3.01
   0  -5   2   52.27    2.62
   0  -5   2   57.14    3.33
   0  -5   3  191.45    5.89
   0  -5   3  168.32    5.46
   0  -5   3  188.65    8.14
   0  -5   3  179.06    6.14
   0  -5   3  192.14    7.16
   0  -5   4  170.16    5.48
   0  -5   4  169.70    8.14
   0  -5   5   32.13    1.95
   0  -5   5   33.43    2.34
   0  -5   6   34.06    4.27
   0  -5   6   41.26    2.72
   0  -5   7   31.37    4.01
   0  -5   8   26.79    2.91
   0  -5   8   26.77    3.60
   0  -5   9   23.81    2.52
   0  -5   9   22.64    2.71
   0  -5  10    9.34    1.37
   0  -5  10   11.87    1.34
   0  -4  -8   42.53    3.22
   0  -4  -7   72.52    5.40
   0  -4  -7   48.79    4.31
   0  -4  -6  155.33    9.16
   0  -4  -5   62.62    6.08
   0  -4  -4  297.08   12.60
   0  -4  -3  309.50   11.58
   0  -4  -3  323.78   13.32
   0  -4  -2   86.38    5.02
   0  -4  -2  101.26    5.67
   0  -4  -2   77.35    5.16
   0  -4  -2  115.45    6.93
   0  -4  -1  858.40   19.39
   0  -4  -1  870.57   19.89
   0  -4  -1  904.69   20.59
   0  -4   0   71.59    3.29
   0  -4   0   96.73    4.36
   0  -4   0   75.94    5.18
   0  -4   0   89.19    4.42
   0  -4   1   17.59    2.10
   0  -4   1   11.19    1.88
   0  -4   1   13.84    1.63
   0  -4   2   25.83    1.75
   0  -4   2   28.63    2.21
   0  -4   2   27.91    1.99
   0  -4   3  310.65    7.85
   0  -4   3  291.83    7.52
   0  -4   3  303.57    8.10
   0  -4   4  244.78    6.52
   0  -4   4  260.57    7.07
   0  -4   5  231.86    6.55
   0  -4   5  274.58    7.61
   0  -4   6  284.54   11.86
   0  -4   7   96.98    5.37
   0  -4   7   94.80    6.56
   0  -4   8  182.72    8.75
   0  -4   9    5.54    1.64
   0  -4  10   27.92    2.36
   0  -3  -8   30.07    3.48
   0  -3  -7  164.92    9.24
   0  -3  -6   89.77    7.22
   0  -3  -6   83.79    7.43
   0  -3  -5   38.76    5.23
   0  -3  -5   38.74    5.58
   0  -3  -5   31.11    5.00
   0  -3  -5   35.94    5.03
   0  -3  -4 1396.29   35.36
   0  -3  -4 1376.94   35.06
   0  -3  -4 1418.89   34.49
   0  -3  -4 1365.92   35.28
   0  -3  -3  422.02   13.38
   0  -3  -3  647.42   17.07
   0  -3  -3  626.11   17.28
   0  -3  -3  610.47   17.23
   0  -3  -3  397.18   13.79
   0  -3  -2 1239.75   27.11
   0  -3  -2 1166.04   25.56
   0  -3  -2 1234.18   27.24
   0  -3  -1    5.97    1.31
   0  -3  -1    5.89    1.49
   0  -3   0  294.77    9.76
   0  -3   0  352.49    9.15
   0  -3   1  489.56   12.32
   0  -3   2  292.69    9.20
   0  -3   2  264.80    7.11
   0  -3   3  912.47   21.98
   0  -3   3  840.66   19.10
   0  -3   4  799.37   16.77
   0  -3   4  748.76   20.12
   0  -3   5  140.91    4.64
   0  -3   5  125.44    6.99
   0  -3   6   71.03    3.07
   0  -3   6   69.62    5.10
   0  -3   7   47.25    2.63
   0  -3   7   48.26    4.43
   0  -3   8  135.17    7.06
   0  -3   9    7.46    1.94
   0  -3  10   25.73    2.52
   0  -3  10   28.24    2.51
   0  -2  -9   25.81    3.39
   0  -2  -9   70.96    4.17
   0  -2  -8    8.68    2.83
   0  -2  -8    6.45    2.77
   0  -2  -7   81.70    6.75
   0  -2  -7   93.62    7.61
   0  -2  -7   88.10    7.28
   0  -2  -7   73.28    6.10
   0  -2  -6  229.30   11.94
   0  -2  -6  223.50   11.56
   0  -2  -6  206.25   11.03
   0  -2  -6  241.78   11.90
   0  -2  -5  544.18   19.06
   0  -2  -5  601.73   19.79
   0  -2  -5  599.86   18.98
   0  -2  -5  547.05   19.05
   0  -2  -4  176.18    8.63
   0  -2  -4  163.27    8.61
   0  -2  -4  166.25    8.64
   0  -2  -4  176.94    8.15
   0  -2  -3  424.49   12.43
   0  -2  -3  455.38   13.88
   0  -2  -3  492.52   13.94
   0  -2  -3  428.82   13.73
   0  -2  -3  463.03   13.09
   0  -2  -2  550.13   13.88
   0  -2  -2  588.65   12.75
   0  -2  -1 1706.29   32.61
   0  -2  -1 1748.90   33.45
   0  -2   0 3317.74   63.49
   0  -2   2  507.93   11.17
   0  -2   2  466.81   12.17
   0  -2   3   56.38    2.94
   0  -2   3   46.62    3.33
   0  -2   4  510.99   15.09
   0  -2   5   72.48    2.98
   0  -2   5   87.13    5.63
   0  -2   6  109.02    5.15
   0  -2   6  104.15    4.04
   0  -2   6  104.48    5.91
   0  -2   7  102.90    5.41
   0  -2   7   97.52    4.18
   0  -2   7  101.96    5.98
   0  -2   8  340.26   11.31
   0  -2   9  109.46    5.68
   0  -2  10   68.48    3.94
   0  -2  10   76.59    4.16
   0  -1  -9   59.94    4.83
   0  -1  -8   32.97    4.43
   0  -1  -8   37.88    4.91
   0  -1  -7  167.86   13.23
   0  -1  -7  126.94    8.31
   0  -1  -7  160.27    9.77
   0  -1  -7  163.79    9.78
   0  -1  -6  182.74   13.47
   0  -1  -6  155.54    9.20
   0  -1  -6  175.37   16.48
   0  -1  -6  176.82   10.12
   0  -1  -6  137.18    8.51
   0  -1  -6  172.27    9.45
   0  -1  -5   14.87    4.27
   0  -1  -5   10.02    5.46
   0  -1  -4  475.64   18.37
   0  -1  -4  351.28   14.32
   0  -1  -4  435.51   20.39
   0  -1  -4  382.07   12.05
   0  -1  -4  445.42   21.17
   0  -1  -3  408.30   13.42
   0  -1  -3  412.85   10.83
   0  -1  -2  810.47   16.42
   0  -1  -1  208.49    5.27
   0  -1   0 1153.37   21.95
   0  -1   0 1130.23   21.76
   0  -1   0 1115.60   21.70
   0  -1   1 2462.61   46.03
   0  -1   2 5751.44   91.86
   0  -1   2 3953.66   91.98
   0  -1   3 1472.90   32.93
   0  -1   4  325.30   12.02
   0  -1   5  242.33    6.79
   0  -1   5  209.58    7.13
   0  -1   5  269.72    7.56
   0  -1   5  245.58    6.74
   0  -1   5  239.76   10.48
   0  -1   5  200.37    6.18
   0  -1   5  207.79    8.08
   0  -1   6  578.41   15.42
   0  -1   6  619.03   14.67
   0  -1   6  600.49   14.21
   0  -1   6  611.89   16.64
   0  -1   7  341.96   11.01
   0  -1   7  321.95    9.44
   0  -1   8   91.79    5.46
   0  -1   9   12.94    2.30
   0  -1  10   36.89    2.56
   0   0 -10   37.96    3.04
   0   0  -9   45.19    4.22
   0   0  -9   56.40    4.98
   0   0  -8   20.94    5.50
   0   0  -8   20.08    3.78
   0   0  -8   22.49    3.93
   0   0  -7  105.87   11.14
   0   0  -7  108.17   14.71
   0   0  -7   78.57    6.42
   0   0  -6  195.48   14.74
   0   0  -6  178.28   17.07
   0   0  -6  220.84   18.92
   0   0  -5  329.31   17.43
   0   0  -5  192.51   10.11
   0   0  -5  347.86   21.28
   0   0  -5  320.23   20.00
   0   0  -5  241.70    9.45
   0   0  -5  199.15    7.40
   0   0  -4   53.57    3.73
   0   0  -4   45.47    4.23
   0   0  -4   65.04    8.79
   0   0  -4   69.97    8.63
   0   0  -3   72.84    4.65
   0   0  -2 2331.53   43.16
   0   0  -2 2169.80   45.65
   0   0  -1  548.12   11.86
   0   0   1  667.59   12.66
   0   0   2 2510.87   45.51
   0   0   2 2244.66   45.16
   0   0   3   68.96    3.21
   0   0   4   65.44    3.39
   0   0   4   60.94    5.64
   0   0   4   55.35    3.42
   0   0   5  261.64    8.36
   0   0   5  284.16    8.18
   0   0   5  255.93   12.88
   0   0   5  276.21    8.01
   0   0   5  252.02    7.54
   0   0   6  181.58    7.32
   0   0   6  175.91    6.69
   0   0   6  174.51    6.42
   0   0   7  109.94    6.02
   0   0   7  142.90    6.46
   0   0   8   36.62    3.61
   0   0   8   31.47    2.60
   0   0   9   65.62    4.17
   0   0  10   50.66    2.94
   0   1 -10   33.40    3.13
   0   1  -9   10.03    4.09
   0   1  -9    7.28    2.44
   0   1  -9   11.94    2.88
   0   1  -8   90.48   10.60
   0   1  -8   91.70   13.67
   0   1  -7  384.93   22.50
   0   1  -7  429.02   28.34
   0   1  -6  758.31   31.88
   0   1  -6  792.98   37.72
   0   1  -5  291.95   17.46
   0   1  -5  170.17    7.98
   0   1  -4  213.01    8.34
   0   1  -3 1191.35   24.12
   0   1  -3 1370.12   27.29
   0   1  -2 4172.75   68.95
   0   1  -2 3681.37   68.29
   0   1  -1 2498.05   46.68
   0   1   0 1100.24   20.88
   0   1   1  233.21    5.09
   0   1   2  922.07   18.18
   0   1   3  384.41    9.10
   0   1   3  512.38   11.60
   0   1   4  460.61   11.53
   0   1   4  349.69   11.57
   0   1   4  451.00   11.37
   0   1   4  381.85   10.60
   0   1   5    5.81    1.54
   0   1   5    6.17    1.32
   0   1   6  170.98    7.50
   0   1   6  155.63    6.69
   0   1   7  186.78    8.27
   0   1   7  208.29    8.15
   0   1   7  218.23    9.58
   0   1   8   56.63    4.11
   0   1   8   64.37    5.13
   0   1   9   87.82    5.28
   0   1  10   32.25    2.21
   0   2 -10   49.41    5.53
   0   2 -10   62.32    4.33
   0   2  -9  101.54   10.31
   0   2  -8  380.58   22.61
   0   2  -7   74.61   19.88
   0   2  -7  108.94   13.02
   0   2  -7  103.55   14.95
   0   2  -6  110.59   12.89
   0   2  -6  115.20   15.69
   0   2  -6  104.67   14.06
   0   2  -5   50.76    2.66
   0   2  -5   48.52    3.77
   0   2  -4  367.72   10.68
   0   2  -4  330.27   10.04
   0   2  -3   36.92    2.50
   0   2  -2  505.40   11.50
   0   2  -1   25.63    1.84
   0   2   0 3107.26   58.37
   0   2   1 1694.62   33.20
   0   2   1 1683.94   32.18
   0   2   2  520.81   13.11
   0   2   2  594.30   14.79
   0   2   3  446.54   10.75
   0   2   3  439.87   13.99
   0   2   3  595.57   14.10
   0   2   3  398.14   11.88
   0   2   3  681.15   16.08
   0   2   3  510.40   13.65
   0   2   4  185.39    7.52
   0   2   4  191.97    7.09
   0   2   4  203.67    8.11
   0   2   5  548.14   15.81
   0   2   5  567.64   15.83
   0   2   5  602.68   17.24
   0   2   6  302.10   10.78
   0   2   6  306.10   11.48
   0   2   7  103.21    6.77
   0   2   8   15.98    2.88
   0   2   9   94.07    4.77
   0   2   9   89.03    4.76
   0   3 -10   22.00    4.34
   0   3 -10   20.92    2.68
   0   3  -9    3.09    4.37
   0   3  -9   12.84    8.15
   0   3  -8  136.45   14.32
   0   3  -8  160.86   18.41
   0   3  -8  138.07   16.23
   0   3  -7   62.02   11.29
   0   3  -7   59.69   11.97
   0   3  -7   55.10   13.13
   0   3  -6   81.13   12.00
   0   3  -6   86.44   14.20
   0   3  -5  165.41   26.59
   0   3  -5  144.05    6.43
   0   3  -5  163.07    7.02
   0   3  -4  588.73   15.17
   0   3  -4  526.72   19.76
   0   3  -3  837.99   21.97
   0   3  -3  977.72   21.03
   0   3  -2  306.09    8.55
   0   3  -2  271.29    9.03
   0   3  -1  592.51   13.75
   0   3   0  337.03    8.17
   0   3   0  318.74    8.54
   0   3   1    3.86    0.95
   0   3   1    1.59    0.80
   0   3   1    3.94    0.67
   0   3   2 1025.44   23.51
   0   3   2 1072.80   24.09
   0   3   3  565.99   13.61
   0   3   3  582.53   16.07
   0   3   3  528.18   15.39
   0   3   3  633.36   15.59
   0   3   3  749.32   22.67
   0   3   3  738.53   18.37
   0   3   4 1590.33   34.68
   0   3   4 1640.25   34.66
   0   3   5   36.28    4.01
   0   3   5   37.04    3.73
   0   3   6   83.52    6.15
   0   3   7  205.88    9.53
   0   3   8   54.52    4.03
   0   3   9   49.76    2.82
   0   4 -10   17.19    4.10
   0   4 -10   22.35    5.58
   0   4  -9    2.10    4.45
   0   4  -9    6.89    6.20
   0   4  -9   -0.79    5.40
   0   4  -8  199.25   17.43
   0   4  -8  196.42   18.15
   0   4  -8  230.98   20.82
   0   4  -7   68.57   24.17
   0   4  -7  102.04   13.92
   0   4  -7  113.89   14.91
   0   4  -7  117.66   16.42
   0   4  -5  261.63   34.89
   0   4  -4  269.24    9.52
   0   4  -4  270.27   11.91
   0   4  -3  296.03   23.08
   0   4  -3  376.75   17.74
   0   4  -3  329.20   11.21
   0   4  -3  337.31   11.60
   0   4  -3  349.55   10.90
   0   4  -2   31.24    2.68
   0   4  -2   24.64    4.54
   0   4  -2   30.65    2.63
   0   4  -1   21.85    2.61
   0   4  -1   20.29    4.22
   0   4  -1   24.26    2.00
   0   4   0   76.78    3.42
   0   4   0   87.07    4.91
   0   4   0   79.06    3.97
   0   4   0   52.63    4.02
   0   4   0   53.66    6.34
   0   4   1  651.77   19.80
   0   4   1  786.27   18.52
   0   4   1  734.28   18.63
   0   4   1  776.23   16.74
   0   4   1  768.89   26.74
   0   4   1  646.39   19.88
   0   4   2   98.83    6.10
   0   4   2   80.88    4.52
   0   4   2   90.41    5.44
   0   4   3  357.89   12.84
   0   4   3  341.33   16.50
   0   4   3  323.85   12.67
   0   4   4  398.19   13.94
   0   4   4  327.82   12.50
   0   4   5   51.71    4.42
   0   4   5   59.80    5.12
   0   4   6  202.20    9.45
   0   4   6  223.12   10.94
   0   4   7   96.41    6.22
   0   4   8   50.21    3.29
   0   4   8   78.80    4.18
   0   5 -10    7.07    3.17
   0   5 -10    7.93    3.87
   0   5  -9    8.99   11.35
   0   5  -9   21.67    6.33
   0   5  -9   21.22    6.67
   0   5  -9   16.17    5.65
   0   5  -8   24.50    7.41
   0   5  -8   21.87    8.68
   0   5  -7   23.34    8.02
   0   5  -7   23.52    8.87
   0   5  -6   37.26   22.49
   0   5  -6   75.08   12.68
   0   5  -5   13.54   19.49
   0   5  -4  137.21   13.26
   0   5  -3  235.12   15.45
   0   5  -2   40.07    4.23
   0   5  -2   42.81    6.85
   0   5  -2   57.39   12.00
   0   5  -2   56.69    3.76
   0   5  -2   43.94    3.67
   0   5  -1  251.92    8.33
   0   5  -1  253.23   10.04
   0   5   0   96.08   10.02
   0   5   0  100.11    5.08
   0   5   1   81.13    6.26
   0   5   1   91.01    9.80
   0   5   1   74.19    4.86
   0   5   2  335.49   13.76
   0   5   2  359.64   19.48
   0   5   3  111.48   10.54
   0   5   3  108.63    7.22
   0   5   4  296.52   12.85
   0   5   4  308.67   13.31
   0   5   5   97.38    6.31
   0   5   5  136.76    8.31
   0   5   6  182.10    8.94
   0   5   7  163.01    7.40
   0   5   7  165.53    6.91
   0   6 -10   16.75    3.61
   0   6 -10   14.91    3.49
   0   6  -9   -2.10   10.22
   0   6  -9    5.96    4.26
   0   6  -8    2.37    4.02
   0   6  -8    3.68    5.44
   0   6  -7    1.50   17.56
   0   6  -7   17.28    8.31
   0   6  -7   16.87    6.28
   0   6  -7   17.50    7.50
   0   6  -6   55.13   21.99
   0   6  -5   60.14   23.36
   0   6  -5   17.09    7.32
   0   6  -4  248.96   34.15
   0   6  -4  141.66   15.27
   0   6  -3   47.96   13.22
   0   6  -2   94.39   11.39
   0   6  -2  111.93    8.08
   0   6  -2  119.25   18.32
   0   6  -2  124.43    7.29
   0   6  -1  634.85   23.03
   0   6  -1  590.49   38.47
   0   6   0  148.52    9.06
   0   6   0  109.13   12.52
   0   6   0  106.34   15.26
   0   6   1  288.50   14.23
   0   6   1  283.68   19.84
   0   6   1  260.73   10.85
   0   6   2    2.96    2.24
   0   6   2    3.85    3.92
   0   6   2    3.98    2.81
   0   6   2    2.78    1.71
   0   6   3   83.67    7.03
   0   6   3   73.15    5.95
   0   6   4  247.01   11.76
   0   6   4  301.45   12.35
   0   6   5    2.77    1.69
   0   6   6  106.07    6.12
   0   6   6   84.68    4.58
   0   7  -9    0.47    7.66
   0   7  -8   19.88   13.59
   0   7  -8   33.10    7.66
   0   7  -8   25.00    5.76
   0   7  -7   27.05   16.85
   0   7  -7   44.98    9.99
   0   7  -7   30.48    7.01
   0   7  -5   20.80   16.88
   0   7  -4  339.07   37.33
   0   7  -4  362.99   25.69
   0   7  -3  171.89   25.83
   0   7  -2  373.70   24.22
   0   7  -2  243.78   11.37
   0   7  -1  114.52    9.31
   0   7  -1   62.15   13.43
   0   7  -1  191.21   16.74
   0   7  -1  142.27    8.87
   0   7   0   58.96    6.04
   0   7   0   73.82    9.89
   0   7   1   60.24    6.48
   0   7   1   51.61    6.35
   0   7   2  156.07   10.35
   0   7   2  126.30    7.23
   0   7   3   65.88    6.07
   0   7   3   68.22    5.10
   0   7   4   52.18    5.25
   0   7   4   28.86    2.90
   0   7   5   47.15    4.02
   0   8  -9   19.25    3.50
   0   8  -8    1.69    7.66
   0   8  -8    6.84    4.11
   0   8  -7    4.10    5.15
   0   8  -6    4.42   10.42
   0   8  -6   12.92    6.96
   0   8  -3   30.66    9.63
   0   8  -2   19.55    7.61
   0   8  -1   35.24    8.53
   0   8  -1   34.47    4.47
   0   8   0   55.87    9.21
   0   8   0   52.22    5.54
   0   8   1   90.79   10.14
   0   8   1  127.29    8.55
   0   8   2   82.44    6.68
   0   8   3   25.28    3.44
   0   9  -8   10.67    2.64
   0   9  -7    0.30    4.18
   0   9  -7    4.18    3.27
   0   9  -6   27.10    6.09
   0   9  -5   -0.14    3.96
   0   9  -2   20.88    7.01
   0   9  -1   16.18    6.01
   1  -9  -2    2.17    1.60
   1  -9  -1   71.51    5.45
   1  -9  -1   74.04    4.03
   1  -9   0   72.75    5.74
   1  -9   0   78.95    4.47
   1  -9   1   35.55    4.15
   1  -9   1   41.95    3.18
   1  -9   1   44.10    3.44
   1  -9   2   36.25    3.01
   1  -9   3   57.85    5.03
   1  -9   4   64.03    5.23
   1  -9   5    0.83    1.56
   1  -9   6   12.50    2.20
   1  -9   7   11.51    1.71
   1  -8  -4    4.12    1.07
   1  -8  -3   73.70    6.03
   1  -8  -3   55.65    3.00
   1  -8  -3   68.72    4.31
   1  -8  -2    7.92    3.17
   1  -8  -2    7.11    1.59
   1  -8  -2    6.84    2.00
   1  -8  -1   42.88    5.41
   1  -8  -1   40.19    3.41
   1  -8  -1   42.20    3.96
   1  -8   0   32.97    3.15
   1  -8   0   36.30    4.89
   1  -8   0   29.22    3.10
   1  -8   0   21.44    2.06
   1  -8   0   29.58    3.46
   1  -8   1   68.93    6.18
   1  -8   1   56.70    3.41
   1  -8   1   72.30    4.62
   1  -8   1   72.48    5.03
   1  -8   1   64.94    4.48
   1  -8   2    7.28    1.91
   1  -8   2    6.33    1.73
   1  -8   2    6.09    1.23
   1  -8   2    5.18    2.46
   1  -8   2    5.69    1.83
   1  -8   3   20.09    2.50
   1  -8   3   19.20    1.93
   1  -8   4   93.66    4.23
   1  -8   5    1.17    2.05
   1  -8   6   95.91    6.73
   1  -8   7   69.98    3.50
   1  -8   8   10.44    1.20
   1  -8   8    9.81    1.66
   1  -7  -5   39.58    4.17
   1  -7  -5   35.43    3.07
   1  -7  -4    2.36    1.24
   1  -7  -4    3.62    1.90
   1  -7  -3   52.89    3.97
   1  -7  -3   56.48    4.95
   1  -7  -2   15.73    2.49
   1  -7  -2   21.97    4.72
   1  -7  -2   16.69    2.58
   1  -7  -2   17.22    3.16
   1  -7  -1  148.85    7.05
   1  -7  -1  140.68    6.95
   1  -7  -1  159.46    8.41
   1  -7   0  424.83   13.16
   1  -7   0  402.93   12.94
   1  -7   0  417.63   14.39
   1  -7   1   95.73    6.95
   1  -7   1   86.65    5.03
   1  -7   1   95.81    5.89
   1  -7   1   75.33    4.17
   1  -7   2  169.04    6.52
   1  -7   2  187.31    9.49
   1  -7   2  180.55    7.53
   1  -7   2  181.41    6.72
   1  -7   2  189.99    7.64
   1  -7   2  205.21    8.58
   1  -7   3   27.06    2.44
   1  -7   3   33.70    3.44
   1  -7   3   28.28    2.90
   1  -7   3   29.00    2.45
   1  -7   4  391.55   10.64
   1  -7   4  353.23    9.35
   1  -7   5  103.17    4.00
   1  -7   6   25.07    1.84
   1  -7   7   31.56    3.78
   1  -7   8   40.89    2.83
   1  -7   8   38.05    3.39
   1  -7   9    8.36    1.15
   1  -7   9    5.61    1.12
   1  -6  -6   32.85    4.00
   1  -6  -6   30.66    3.14
   1  -6  -5   17.04    4.21
   1  -6  -5   10.10    1.92
   1  -6  -5   15.96    3.08
   1  -6  -4    5.47    1.87
   1  -6  -4    5.86    2.61
   1  -6  -3  150.52    6.96
   1  -6  -3  141.44    7.27
   1  -6  -2  340.14   11.52
   1  -6  -2  332.66   11.72
   1  -6  -1  298.10   10.59
   1  -6  -1  282.17   10.11
   1  -6  -1  344.13   12.51
   1  -6  -1  324.33   10.80
   1  -6   0  112.46    5.62
   1  -6   0  111.48    5.77
   1  -6   0  118.99    6.44
   1  -6   0  107.50    5.55
   1  -6   1  195.45    7.48
   1  -6   1  215.08    9.49
   1  -6   1  204.67    7.87
   1  -6   1  195.51    8.09
   1  -6   2  126.22    5.21
   1  -6   2  119.81    5.07
   1  -6   2  120.00    5.51
   1  -6   2  135.94    7.14
   1  -6   2  132.51    5.75
   1  -6   2  150.29    6.55
   1  -6   2  147.00    6.53
   1  -6   3   65.20    3.65
   1  -6   3   64.77    3.96
   1  -6   3   61.50    3.45
   1  -6   3   74.21    4.65
   1  -6   4  306.60    9.35
   1  -6   4  304.05    8.97
   1  -6   5   59.53    3.00
   1  -6   6  167.97    5.77
   1  -6   6  182.74   10.07
   1  -6   7   10.82    2.61
   1  -6   8    3.90    1.48
   1  -6   8    4.36    1.59
   1  -6   9    2.75    1.08
   1  -6   9    2.16    1.01
   1  -5  -7   10.64    2.55
   1  -5  -7   10.32    2.25
   1  -5  -6   93.60    6.66
   1  -5  -5   76.11    5.57
   1  -5  -4  458.37   15.67
   1  -5  -3   84.41    6.25
   1  -5  -2   53.56    4.72
   1  -5  -2   49.40    4.44
   1  -5  -1   90.22    5.49
   1  -5  -1   86.43    5.31
   1  -5   0  105.27    4.87
   1  -5   0   95.90    4.64
   1  -5   0   99.66    4.78
   1  -5   0  111.59    5.47
   1  -5   1  336.24   10.76
   1  -5   1  276.66    8.55
   1  -5   1  279.87    9.83
   1  -5   1  263.47    8.43
   1  -5   1  290.63    8.84
   1  -5   1  312.40    9.62
   1  -5   2    3.25    1.06
   1  -5   2    3.60    1.31
   1  -5   2    4.43    1.40
   1  -5   2    2.79    0.90
   1  -5   2    1.99    1.08
   1  -5   2    2.01    1.54
   1  -5   2    4.07    1.15
   1  -5   3   52.73    3.04
   1  -5   3   53.90    3.90
   1  -5   3   53.08    3.19
   1  -5   3   47.21    2.75
   1  -5   4  115.96    4.79
   1  -5   4  114.00    6.17
   1  -5   4  108.94    4.48
   1  -5   5  134.42    4.80
   1  -5   6   35.93    2.37
   1  -5   6   37.51    4.43
   1  -5   7   36.33    4.19
   1  -5   8   14.64    2.51
   1  -5  10  129.42    4.54
   1  -5  10  153.61    4.61
   1  -4  -8   12.06    2.17
   1  -4  -8   16.28    2.39
   1  -4  -6  124.61    9.37
   1  -4  -5   81.22    6.15
   1  -4  -5  106.38    8.95
   1  -4  -5  109.92    9.06
   1  -4  -4  236.14   12.21
   1  -4  -4  234.13   11.20
   1  -4  -3  161.78    8.16
   1  -4  -3  197.61    9.29
   1  -4  -2   37.59    3.63
   1  -4  -2   43.16    4.19
   1  -4  -2   39.77    3.51
   1  -4  -2   43.35    4.32
   1  -4  -1    1.31    1.18
   1  -4  -1    2.91    1.61
   1  -4  -1    1.63    1.15
   1  -4  -1    1.23    1.15
   1  -4  -1    1.10    1.46
   1  -4   0   63.92    4.41
   1  -4   0   84.52    4.54
   1  -4   0   63.42    3.20
   1  -4   0   76.69    3.83
   1  -4   1   75.89    4.05
   1  -4   1   79.65    3.77
   1  -4   1   77.07    4.51
   1  -4   1   67.38    3.24
   1  -4   1   66.42    3.35
   1  -4   2  335.67   11.20
   1  -4   2  322.86    9.56
   1  -4   2  273.75    7.84
   1  -4   2  282.86    7.90
   1  -4   3  300.34    8.23
   1  -4   3  311.16    9.71
   1  -4   3  295.89   10.96
   1  -4   3  320.39    8.66
   1  -4   3  279.01    7.83
   1  -4   3  304.51    8.39
   1  -4   4  595.58   13.44
   1  -4   4  507.23   12.19
   1  -4   4  628.12   15.88
   1  -4   4  502.39   12.42
   1  -4   4  564.22   12.86
   1  -4   5   46.27    2.59
   1  -4   5   41.82    2.58
   1  -4   5   40.30    2.38
   1  -4   6  258.88    7.49
   1  -4   6  225.68   10.65
   1  -4   7  159.29    5.41
   1  -4   7  164.96    8.32
   1  -4   8   31.99    3.10
   1  -4   8   29.72    2.03
   1  -4   8   32.86    3.25
   1  -4   9   67.87    3.92
   1  -4  10   25.59    1.97
   1  -4  10   32.49    2.21
   1  -3  -9   46.16    3.28
   1  -3  -7  183.85   10.75
   1  -3  -7  184.91   10.64
   1  -3  -7  174.42   10.43
   1  -3  -6  558.19   20.81
   1  -3  -6  550.60   20.55
   1  -3  -6  523.67   19.14
   1  -3  -5   66.60    6.98
   1  -3  -5   72.74    7.24
   1  -3  -5   66.53    5.92
   1  -3  -4  884.07   25.25
   1  -3  -4  881.98   25.50
   1  -3  -4  826.78   22.97
   1  -3  -3  395.52   12.16
   1  -3  -3  267.59   10.57
   1  -3  -3  374.24   11.33
   1  -3  -3  244.05    9.09
   1  -3  -2  121.70    6.15
   1  -3  -2  135.98    6.54
   1  -3  -2  131.00    5.81
   1  -3  -2  126.32    5.42
   1  -3  -1   80.06    4.09
   1  -3  -1   70.91    3.82
   1  -3   0   60.68    3.14
   1  -3   0   67.52    3.76
   1  -3   1 1377.11   28.96
   1  -3   1 1313.04   28.03
   1  -3   2   21.41    2.32
   1  -3   2   22.18    2.00
   1  -3   2   26.34    2.66
   1  -3   3  357.29    9.20
   1  -3   3  363.26   10.61
   1  -3   3  419.14   13.04
   1  -3   3  447.07   13.19
   1  -3   4   69.64    4.89
   1  -3   4   54.87    3.74
   1  -3   4   45.76    2.43
   1  -3   4   46.57    2.53
   1  -3   4   48.96    2.34
   1  -3   4   52.47    2.55
   1  -3   4   75.24    5.29
   1  -3   5   55.25    2.91
   1  -3   5   48.32    2.59
   1  -3   5   49.39    2.85
   1  -3   6   84.51    3.76
   1  -3   6   83.12    5.65
   1  -3   7   17.38    2.46
   1  -3   7   15.15    1.66
   1  -3   7   16.70    2.59
   1  -3   8   74.79    4.59
   1  -3   8   67.87    3.38
   1  -3   9    1.62    1.30
   1  -3  10   37.58    2.36
   1  -3  10   42.15    2.63
   1  -2  -9  255.65    9.81
   1  -2  -8  109.72    7.65
   1  -2  -8  123.72    8.23
   1  -2  -8  103.41    7.24
   1  -2  -7  423.19   17.37
   1  -2  -7  444.70   17.59
   1  -2  -7  406.06   16.85
   1  -2  -6    9.06    4.24
   1  -2  -6    8.70    3.48
   1  -2  -6   11.35    4.46
   1  -2  -6    9.39    3.19
   1  -2  -5  144.46   11.86
   1  -2  -5  176.74    8.66
   1  -2  -4  418.89   13.31
   1  -2  -4  711.08   16.72
   1  -2  -3  326.20    9.71
   1  -2  -3  307.43    9.94
   1  -2  -2  444.22   11.66
   1  -2   0  294.49    7.52
   1  -2   1  118.18    4.52
   1  -2   1  129.36    3.92
   1  -2   2   43.93    3.01
   1  -2   3  197.27    7.91
   1  -2   4   56.76    3.76
   1  -2   4   52.17    2.64
   1  -2   4   55.52    2.76
   1  -2   4   54.51    2.49
   1  -2   4   64.02    4.77
   1  -2   5  160.22    5.43
   1  -2   5  152.94    5.42
   1  -2   6   86.66    4.14
   1  -2   6   78.15    3.71
   1  -2   7  197.27    7.83
   1  -2   7  192.84    6.65
   1  -2   8   99.06    5.22
   1  -2   8   89.72    4.19
   1  -2   9   14.50    2.06
   1  -1 -10  127.45    5.61
   1  -1  -9   73.50    5.78
   1  -1  -9   57.51    4.73
   1  -1  -8   44.56    5.54
   1  -1  -8   51.17    5.82
   1  -1  -8   38.33    4.98
   1  -1  -7   71.99    7.54
   1  -1  -7   88.51   11.69
   1  -1  -6   60.30    6.74
   1  -1  -6   59.18    9.42
   1  -1  -6   60.68    9.66
   1  -1  -5  221.90   10.23
   1  -1  -5  293.99   17.47
   1  -1  -5  322.19   18.29
   1  -1  -5  177.50    7.31
   1  -1  -4  197.97    6.96
   1  -1  -3  574.13   14.10
   1  -1  -2  184.79    5.31
   1  -1  -2  164.68    5.09
   1  -1  -1 1515.22   29.25
   1  -1   0 1430.45   27.64
   1  -1   0 1434.03   27.79
   1  -1   1  729.83   16.22
   1  -1   2   97.34    5.05
   1  -1   3  251.39    9.80
   1  -1   3  178.92    8.38
   1  -1   4  388.09    9.59
   1  -1   4  380.72    9.62
   1  -1   4  365.61    9.05
   1  -1   5   97.81    4.28
   1  -1   5   95.98    4.20
   1  -1   5   86.29    4.84
   1  -1   5   94.39    3.94
   1  -1   5   89.92    3.88
   1  -1   5   93.36    3.90
   1  -1   6   63.69    4.04
   1  -1   6   66.95    3.50
   1  -1   6   68.35    3.53
   1  -1   6   66.49    3.54
   1  -1   7   10.96    2.06
   1  -1   7    8.34    1.38
   1  -1   7    9.40    1.56
   1  -1   8  160.93    7.13
   1  -1   8  217.10    8.06
   1  -1   9   60.41    3.52
   1  -1   9   75.64    4.53
   1  -1  10   40.88    2.57
   1   0 -10   37.84    3.48
   1   0 -10   41.58    3.74
   1   0  -9   87.07    6.59
   1   0  -9   86.17    6.53
   1   0  -8   28.18    5.05
   1   0  -8   34.94    8.46
   1   0  -7  204.71   13.78
   1   0  -7  240.35   19.91
   1   0  -7  221.55   18.82
   1   0  -6   18.24    4.72
   1   0  -6   20.71    7.58
   1   0  -6   20.82    7.92
   1   0  -5   45.25    3.97
   1   0  -5   38.68    2.97
   1   0  -4 2025.62   41.30
   1   0  -4 1838.49   39.23
   1   0  -2 5649.52  104.49
   1   0  -1 1037.11   20.14
   1   0   0 3412.71   65.57
   1   0   0 4171.09   68.87
   1   0   1  611.80   12.44
   1   0   2  508.40   11.40
   1   0   4  110.20    4.23
   1   0   4  108.38    4.24
   1   0   4   97.64    4.04
   1   0   4   95.60    4.00
   1   0   5   40.75    2.94
   1   0   5   39.17    2.66
   1   0   5   42.44    2.80
   1   0   5   41.04    2.66
   1   0   6  160.57    6.72
   1   0   6  164.41    6.22
   1   0   6  164.41    6.25
   1   0   6  163.17    6.22
   1   0   7   94.01    5.17
   1   0   7   79.28    4.35
   1   0   8  133.38    5.93
   1   0   8  165.04    7.68
   1   0   9    2.21    1.43
   1   1 -11   42.06    2.67
   1   1 -10   81.61    5.35
   1   1 -10   93.54    5.75
   1   1  -9  118.21    9.52
   1   1  -9  156.39   15.16
   1   1  -8    5.62    3.65
   1   1  -8    5.07    6.21
   1   1  -8    3.68    6.68
   1   1  -7   49.28    7.70
   1   1  -7   40.86   10.23
   1   1  -7   53.96   11.58
   1   1  -6  779.71   29.60
   1   1  -6  908.64   38.66
   1   1  -5 1687.58   33.46
   1   1  -5 1433.92   33.32
   1   1  -4  288.06    7.82
   1   1  -4  285.17    8.00
   1   1  -3  277.36    6.32
   1   1  -2   20.81    1.55
   1   1  -2   20.92    1.46
   1   1  -1  825.59   17.04
   1   1  -1  969.48   18.29
   1   1   0 7777.96  154.94
   1   1   0 8485.47  154.53
   1   1   1 1451.06   28.34
   1   1   2  107.21    2.51
   1   1   3   74.33    3.19
   1   1   3   61.72    3.16
   1   1   3   81.74    3.76
   1   1   3   66.09    3.20
   1   1   3   83.44    3.38
   1   1   4  160.52    5.62
   1   1   4  160.57    5.79
   1   1   4  164.67    5.85
   1   1   4  151.95    6.24
   1   1   4  157.27    5.49
   1   1   5    4.55    1.36
   1   1   5    4.38    1.37
   1   1   5    4.98    1.35
   1   1   6  443.46   17.14
   1   1   6  168.70    7.07
   1   1   7  106.17    6.48
   1   1   7  109.53    6.19
   1   1   8   31.86    3.39
   1   1   9  120.14    5.21
   1   2 -11   34.66    2.67
   1   2 -10   51.59    8.21
   1   2 -10   62.68    4.89
   1   2  -9   22.44    5.32
   1   2  -9   23.09    8.03
   1   2  -9   27.17    8.83
   1   2  -8  195.58   15.07
   1   2  -8  219.41   19.92
   1   2  -8  229.55   21.34
   1   2  -7  775.71   32.36
   1   2  -7  887.92   40.04
   1   2  -7  909.44   41.69
   1   2  -6  213.02   27.63
   1   2  -6  296.52   18.63
   1   2  -5  117.00   10.91
   1   2  -5   71.48    3.39
   1   2  -4  222.53    6.81
   1   2  -4  194.93    6.91
   1   2  -3  352.27    7.97
   1   2  -3  307.24    9.46
   1   2  -2  599.29   13.26
   1   2  -1  593.67   12.70
   1   2  -1  544.04   12.00
   1   2   0 2902.26   54.29
   1   2   0 2843.75   55.46
   1   2   0 2756.97   53.11
   1   2   0 2952.17   54.38
   1   2   1  943.31   19.77
   1   2   2  245.46    7.38
   1   2   2  271.45    7.49
   1   2   3  400.01   10.59
   1   2   3  347.75    9.84
   1   2   4  302.07   12.55
   1   2   4  123.51    6.71
   1   2   5  144.61    7.25
   1   2   5  146.93    6.49
   1   2   5  138.78    6.27
   1   2   6  310.73   11.41
   1   2   6  363.02   12.33
   1   2   6  232.27    8.98
   1   2   6  226.66    9.39
   1   2   7  101.76    5.60
   1   2   7  109.60    6.53
   1   2   8   46.40    3.63
   1   3 -11    8.41    1.59
   1   3 -10   29.81    4.77
   1   3 -10   48.61    8.48
   1   3  -9    6.07    8.89
   1   3  -9   47.64    7.51
   1   3  -8  206.27   16.52
   1   3  -7  196.46   16.59
   1   3  -6  362.84   37.39
   1   3  -6  457.70   24.58
   1   3  -5   51.33    3.07
   1   3  -5   44.86    3.28
   1   3  -4  276.10   10.66
   1   3  -4  286.51    8.65
   1   3  -3  322.35    9.34
   1   3  -2   66.56    3.42
   1   3  -2   51.75    2.88
   1   3  -1  359.80    9.77
   1   3  -1  331.63    8.87
   1   3  -1  364.04    9.48
   1   3   0 4463.40   84.06
   1   3   0 4465.53   85.89
   1   3   0 4417.31   86.56
   1   3   1 1046.82   24.86
   1   3   1  997.47   23.68
   1   3   2 1195.95   30.23
   1   3   2 1295.64   32.74
   1   3   2 1507.70   32.40
   1   3   2 1406.95   29.76
   1   3   2 1448.40   30.03
   1   3   3  175.82    6.84
   1   3   3  172.09    8.25
   1   3   3  174.07    6.65
   1   3   4  146.19    7.04
   1   3   4  163.42    8.19
   1   3   4  150.44    6.69
   1   3   5  162.16    8.04
   1   3   5  143.20    7.92
   1   3   6   18.91    2.75
   1   3   6   20.77    3.08
   1   3   7   27.00    3.02
   1   3   8   14.62    2.06
   1   4 -11    4.20    1.24
   1   4 -10   67.46    7.13
   1   4 -10   77.49    9.54
   1   4  -9   61.79    8.72
   1   4  -9   76.88   11.69
   1   4  -9   87.80   13.41
   1   4  -8  345.91   22.35
   1   4  -8  385.81   26.39
   1   4  -8  393.12   27.87
   1   4  -7  157.46   29.46
   1   4  -7  248.80   19.31
   1   4  -5   21.68    7.33
   1   4  -5   20.08    4.59
   1   4  -4  396.75   12.60
   1   4  -4  354.00   12.38
   1   4  -3  444.55   17.22
   1   4  -3  446.17   12.52
   1   4  -2  785.55   19.24
   1   4  -2  832.53   19.37
   1   4  -1  790.94   18.30
   1   4  -1  722.71   15.56
   1   4   0   24.88    2.65
   1   4   0   20.87    2.61
   1   4   1    9.66    1.59
   1   4   1    6.28    1.26
   1   4   1    8.04    1.95
   1   4   1    7.44    1.43
   1   4   2  305.08   10.79
   1   4   2  318.78   10.04
   1   4   3  315.30   11.66
   1   4   3  284.78   10.15
   1   4   3  323.65   12.85
   1   4   4  283.73   11.59
   1   4   4  272.33   11.68
   1   4   5   10.53    2.11
   1   4   6   82.46    6.08
   1   4   7   51.99    3.97
   1   5 -11   32.39    4.34
   1   5 -10   27.01    4.88
   1   5 -10   26.50    6.31
   1   5 -10   26.33    5.72
   1   5  -9   26.07    6.48
   1   5  -9   32.03    8.08
   1   5  -9   30.80    9.21
   1   5  -8  222.27   18.26
   1   5  -8  281.73   22.78
   1   5  -7   73.52   24.62
   1   5  -7   78.93   12.50
   1   5  -5  221.37   21.59
   1   5  -5  258.62   16.04
   1   5  -4  420.85   18.82
   1   5  -4  248.31   14.28
   1   5  -3  449.21   19.58
   1   5  -3  424.15   13.50
   1   5  -2   28.66    3.15
   1   5  -2   32.69    5.57
   1   5  -2   18.91    2.28
   1   5  -2   27.95    2.49
   1   5  -1   56.12    4.66
   1   5  -1   48.18    4.04
   1   5   0  183.46    9.20
   1   5   0  176.56    8.78
   1   5   1  218.64   10.74
   1   5   1  235.84   10.84
   1   5   2  171.75    9.61
   1   5   2  177.99   13.70
   1   5   3  320.02   13.60
   1   5   3  295.58   17.30
   1   5   3  288.89   13.17
   1   5   3  263.52   11.70
   1   5   4  323.26   13.15
   1   5   4  313.79   12.98
   1   5   5   48.34    4.11
   1   5   5   61.58    5.16
   1   5   6    3.21    1.51
   1   6 -10    4.29    6.58
   1   6 -10    6.49    3.09
   1   6 -10    6.01    3.13
   1   6 -10    7.22    3.86
   1   6  -9   22.70    6.06
   1   6  -9   23.99    6.23
   1   6  -9   27.06    7.42
   1   6  -8   30.85    8.25
   1   6  -8   42.36    8.88
   1   6  -8   39.21    9.88
   1   6  -6  156.63   30.46
   1   6  -6   30.75    7.40
   1   6  -5  123.83   12.75
   1   6  -5   73.34   15.11
   1   6  -4  451.29   33.31
   1   6  -4  504.88   22.99
   1   6  -3  446.19   16.74
   1   6  -3  520.26   24.80
   1   6  -2  293.82   12.73
   1   6  -2  308.36   19.19
   1   6  -1   92.80    6.18
   1   6  -1   83.45    6.70
   1   6   0   20.55    6.51
   1   6   1  127.48    8.88
   1   6   1  153.00   14.06
   1   6   2  114.19    8.45
   1   6   2  103.17   11.49
   1   6   3   47.00    5.11
   1   6   3   38.61    6.31
   1   6   3   33.82    3.68
   1   6   4  170.45    8.83
   1   6   4  167.85    8.05
   1   7 -10   21.20    3.52
   1   7 -10   21.06    3.41
   1   7  -9    1.17    3.47
   1   7  -9    0.09    2.67
   1   7  -9   -0.65    3.54
   1   7  -8   39.94    8.42
   1   7  -8   35.16    6.83
   1   7  -8   40.97    8.33
   1   7  -7   51.74   20.21
   1   7  -6  207.86   33.19
   1   7  -5  277.26   20.04
   1   7  -4  303.57   20.47
   1   7  -3   90.12    7.07
   1   7  -3   96.95   11.69
   1   7  -2   21.54    3.83
   1   7  -2   20.17    6.61
   1   7  -2   32.15   11.81
   1   7  -2   40.98    8.29
   1   7  -1  102.73    8.36
   1   7  -1  126.49   18.85
   1   7   0   62.94    5.91
   1   7   0   60.58   10.04
   1   7   0   80.63   14.09
   1   7   1   22.35    3.93
   1   7   1   21.52    4.36
   1   7   1   36.99    6.72
   1   7   1   21.92    6.58
   1   7   2   86.66    7.36
   1   7   2   75.58    6.93
   1   7   3  107.99    7.68
   1   7   3   74.91    6.12
   1   7   4  182.49    8.90
   1   8  -9   17.61    7.53
   1   8  -9   17.96    3.99
   1   8  -7   97.86   11.79
   1   8  -6    4.96   13.10
   1   8  -5   51.89   17.82
   1   8  -5   39.30    9.11
   1   8  -4  180.83   26.51
   1   8  -4  248.21   20.01
   1   8  -3   40.24   12.50
   1   8  -2   41.50   12.01
   1   8  -2  122.32   13.52
   1   8  -1  165.47   10.58
   1   8  -1   92.68   14.66
   1   8   0   23.24    4.29
   1   8   0   43.17    7.73
   1   8   1   79.98    6.93
   1   8   1   72.44    5.83
   1   8   2   99.86    6.36
   1   9  -8    7.71    5.07
   1   9  -8    8.72    3.05
   1   9  -7    8.15    3.99
   1   9  -6   -4.64    8.21
   1   9  -4  127.68   13.82
   1   9  -3    7.01    5.45
   1   9  -2   96.75   11.69
   1   9  -1   50.27    7.96
   1   9   0   68.79    7.74
   1  10  -5    4.94    2.71
   2  -9  -2   10.43    1.18
   2  -9  -1   12.90    1.54
   2  -9   0  243.85    6.96
   2  -9   0  129.21    4.55
   2  -9   1   98.58    4.45
   2  -9   1   71.68    3.28
   2  -9   2   36.01    2.24
   2  -9   4   24.87    3.18
   2  -9   5   36.91    3.44
   2  -8  -4   23.91    2.72
   2  -8  -4   35.63    2.13
   2  -8  -3  116.77    7.01
   2  -8  -3  147.94    5.59
   2  -8  -2    1.21    2.06
   2  -8  -2    0.10    0.73
   2  -8  -2    0.41    1.23
   2  -8  -2    0.25    0.96
   2  -8  -1  118.53    7.44
   2  -8  -1   97.45    4.71
   2  -8  -1  133.30    6.11
   2  -8  -1  109.53    5.47
   2  -8  -1  119.58    5.71
   2  -8   0   24.61    3.49
   2  -8   0   27.17    2.80
   2  -8   0   25.50    2.43
   2  -8   0   28.61    3.06
   2  -8   1   80.60    4.63
   2  -8   1   70.31    3.97
   2  -8   2   12.96    1.78
   2  -8   2   15.78    2.15
   2  -8   2   13.87    1.84
   2  -8   3   15.15    1.49
   2  -8   3   18.04    1.90
   2  -8   4   48.06    2.54
   2  -8   4   53.80    3.12
   2  -8   5   33.88    1.97
   2  -8   6   83.65    5.51
   2  -8   7   47.14    2.55
   2  -8   7   40.85    3.12
   2  -7  -5    6.44    2.29
   2  -7  -5    7.96    1.40
   2  -7  -5    6.10    1.34
   2  -7  -4   54.87    3.38
   2  -7  -4   67.40    6.17
   2  -7  -4   58.86    3.93
   2  -7  -4   58.09    4.11
   2  -7  -3   36.16    3.45
   2  -7  -3   39.76    5.25
   2  -7  -3   35.43    3.47
   2  -7  -3   37.00    3.59
   2  -7  -2   76.36    5.13
   2  -7  -2   90.37    7.35
   2  -7  -2   73.57    5.10
   2  -7  -2   76.95    5.27
   2  -7  -1   74.03    5.14
   2  -7  -1   79.10    6.53
   2  -7  -1   76.18    5.13
   2  -7  -1   70.48    5.15
   2  -7  -1   68.83    4.85
   2  -7   0  279.18   10.23
   2  -7   0  253.01   11.36
   2  -7   0  276.98   10.35
   2  -7   0  259.95    9.86
   2  -7   1  232.48    8.41
   2  -7   1  291.95   10.16
   2  -7   1  246.95    9.19
   2  -7   1  224.57    8.35
   2  -7   1  280.51   10.23
   2  -7   2   27.71    2.73
   2  -7   2   27.65    2.86
   2  -7   2   26.10    2.60
   2  -7   3  235.68    8.27
   2  -7   3  219.67    7.75
   2  -7   4  156.22    5.60
   2  -7   4  176.39    6.47
   2  -7   5   51.69    2.83
   2  -7   6   42.16    2.42
   2  -7   6   42.69    4.49
   2  -7   7    5.25    1.67
   2  -7   8    1.12    0.81
   2  -6  -6   56.68    3.46
   2  -6  -6   59.61    3.92
   2  -6  -5  135.65    5.95
   2  -6  -5  137.31    6.65
   2  -6  -5  154.09    7.66
   2  -6  -4    8.04    3.18
   2  -6  -4    6.64    2.28
   2  -6  -4    7.47    2.25
   2  -6  -4    8.90    2.44
   2  -6  -3  412.59   14.52
   2  -6  -3  322.66   11.94
   2  -6  -3  294.72   10.73
   2  -6  -3  380.55   13.43
   2  -6  -2    0.76    2.92
   2  -6  -2    1.49    2.20
   2  -6  -2    2.78    1.86
   2  -6  -2    3.04    2.69
   2  -6  -2    0.63    1.43
   2  -6  -1  239.26    9.41
   2  -6  -1  230.48    9.30
   2  -6  -1  250.99    9.77
   2  -6   0  219.55    8.59
   2  -6   0  226.06    9.97
   2  -6   0  205.74    8.55
   2  -6   0  222.91    8.56
   2  -6   1   50.08    3.57
   2  -6   1   55.38    3.89
   2  -6   1   60.91    4.67
   2  -6   2  278.31    9.13
   2  -6   2  285.02   10.76
   2  -6   2  316.85    9.80
   2  -6   2  266.12    8.86
   2  -6   2  299.63    9.72
   2  -6   3  135.56    5.86
   2  -6   3  134.65    7.17
   2  -6   3  126.23    5.45
   2  -6   4  319.05    9.96
   2  -6   4  322.32   12.17
   2  -6   4  316.69    9.50
   2  -6   5   23.24    2.04
   2  -6   6   55.15    3.01
   2  -6   6   52.55    4.99
   2  -6   7    0.89    1.32
   2  -6   8   12.68    1.70
   2  -6   9   22.21    1.57
   2  -5  -7  157.81    7.00
   2  -5  -6   86.92    5.68
   2  -5  -6   89.55    6.05
   2  -5  -5  192.37    9.70
   2  -5  -5  183.92    9.75
   2  -5  -4  120.56    8.02
   2  -5  -4  143.73    9.81
   2  -5  -3   73.65    6.24
   2  -5  -3   86.49    7.20
   2  -5  -3   68.06    5.34
   2  -5  -2   52.86    5.24
   2  -5  -2   41.31    3.78
   2  -5  -1   46.10    3.57
   2  -5   0  222.38    8.33
   2  -5   0  184.60    7.15
   2  -5   1  233.67    7.82
   2  -5   1  231.85    8.10
   2  -5   2   14.89    2.05
   2  -5   2   16.02    1.85
   2  -5   2   14.23    1.84
   2  -5   3  103.64    4.82
   2  -5   3  109.31    6.08
   2  -5   3  108.08    5.35
   2  -5   4  191.64    6.75
   2  -5   4  183.31    8.36
   2  -5   5    1.49    0.84
   2  -5   5    1.51    0.94
   2  -5   6   30.66    2.35
   2  -5   6   33.17    2.47
   2  -5   6   27.94    3.81
   2  -5   7   45.57    2.60
   2  -5   7   47.99    4.16
   2  -5   8  149.24    5.75
   2  -5   8  124.47    4.11
   2  -5   9   87.41    3.57
   2  -4  -8   73.50    4.69
   2  -4  -7    4.04    2.24
   2  -4  -7    2.80    2.46
   2  -4  -7    1.55    3.16
   2  -4  -6   63.34    5.81
   2  -4  -6   69.34    6.20
   2  -4  -6   73.35    7.97
   2  -4  -5   69.75    6.03
   2  -4  -5   75.92    6.61
   2  -4  -4   85.30    7.29
   2  -4  -4   71.14    5.73
   2  -4  -4   73.90    6.02
   2  -4  -4   85.25    7.50
   2  -4  -3   79.29    6.19
   2  -4  -3   72.47    5.12
   2  -4  -3   74.01    5.37
   2  -4  -3   78.67    6.46
   2  -4  -2    2.23    1.95
   2  -4  -2    2.45    1.56
   2  -4  -2    2.45    2.11
   2  -4  -1   56.72    4.10
   2  -4  -1   69.05    4.29
   2  -4  -1   70.69    4.48
   2  -4   0   56.18    3.58
   2  -4   0   57.52    4.13
   2  -4   0   49.83    3.39
   2  -4   0   55.58    3.77
   2  -4   0   46.23    2.92
   2  -4   1  133.79    6.49
   2  -4   1  120.36    5.85
   2  -4   1  122.11    4.99
   2  -4   1  107.76    4.61
   2  -4   1  110.08    4.51
   2  -4   2  284.93   10.45
   2  -4   2  262.63    7.82
   2  -4   2  271.11   12.21
   2  -4   2  304.28    8.12
   2  -4   2  230.62    7.30
   2  -4   2  256.83    7.61
   2  -4   2  248.58    7.82
   2  -4   3  114.60    5.88
   2  -4   3  111.19    4.44
   2  -4   4  293.75   10.64
   2  -4   4  281.07    8.15
   2  -4   5  365.34   12.85
   2  -4   5  314.68    9.31
   2  -4   5  318.77    9.51
   2  -4   5  345.81    9.31
   2  -4   6  340.54    9.38
   2  -4   6  330.83    9.49
   2  -4   7  360.09    9.73
   2  -4   8   61.93    3.70
   2  -4   8   51.08    2.66
   2  -4   9    2.37    0.97
   2  -3  -9   78.69    4.39
   2  -3  -8   66.45    6.03
   2  -3  -8   66.99    5.33
   2  -3  -8   68.10    5.96
   2  -3  -7   55.27    6.81
   2  -3  -7   50.11    5.33
   2  -3  -7   54.43    6.01
   2  -3  -7   54.18    6.71
   2  -3  -7   51.65    5.30
   2  -3  -6   69.32    6.13
   2  -3  -6   78.62    6.97
   2  -3  -6   85.08    8.53
   2  -3  -6   69.15    6.01
   2  -3  -5   31.35    4.43
   2  -3  -5   27.61    3.80
   2  -3  -4  167.72    7.90
   2  -3  -4  179.14    8.80
   2  -3  -4  161.57    7.82
   2  -3  -3   38.82    3.36
   2  -3  -3   42.03    3.68
   2  -3  -3   37.71    3.12
   2  -3  -2  111.26    5.63
   2  -3  -2  126.26    5.39
   2  -3  -2  123.60    5.41
   2  -3  -2  112.81    5.74
   2  -3  -1  154.30    6.30
   2  -3  -1  164.81    5.55
   2  -3  -1  145.20    6.38
   2  -3   0  712.31   17.32
   2  -3   0  849.17   18.42
   2  -3   1 1163.73   25.02
   2  -3   1 1168.88   23.67
   2  -3   2  232.68    8.43
   2  -3   2  195.06    5.84
   2  -3   2  231.17   10.73
   2  -3   2  173.97    5.57
   2  -3   2  192.92    5.71
   2  -3   2  174.24    5.78
   2  -3   3  144.81    5.20
   2  -3   3  166.48    9.50
   2  -3   3  140.84    4.87
   2  -3   3  145.47    5.18
   2  -3   3  161.61    7.71
   2  -3   4  251.23    7.68
   2  -3   4  238.69    7.21
   2  -3   5   12.87    1.71
   2  -3   5   12.18    1.70
   2  -3   6  435.21   11.43
   2  -3   6  427.39   11.55
   2  -3   7  115.01    5.70
   2  -3   7  110.87    4.76
   2  -3   8    9.12    1.75
   2  -3   8    8.86    1.28
   2  -3   9    1.46    0.87
   2  -2 -10   52.28    2.95
   2  -2  -9   58.60    4.97
   2  -2  -9   61.21    4.63
   2  -2  -9   53.17    4.60
   2  -2  -9   52.09    4.36
   2  -2  -8    2.49    3.47
   2  -2  -8    2.54    3.31
   2  -2  -8    1.17    2.33
   2  -2  -7   23.84    5.42
   2  -2  -7   20.96    3.77
   2  -2  -6  138.00    8.84
   2  -2  -6  108.66    7.19
   2  -2  -5  160.90    7.99
   2  -2  -4  347.97   11.61
   2  -2  -4  331.12   11.15
   2  -2  -3  269.58    9.35
   2  -2  -3  293.59    8.88
   2  -2  -2  417.49   11.70
   2  -2  -1  450.97   10.29
   2  -2   0  259.34    7.14
   2  -2   0  243.47    6.78
   2  -2   0  245.70    7.75
   2  -2   1  323.13    9.79
   2  -2   1  345.28   12.38
   2  -2   1  329.00    7.94
   2  -2   2  278.07   11.94
   2  -2   2  231.86    8.63
   2  -2   3  193.78    5.94
   2  -2   3  177.46    6.96
   2  -2   3  186.08    8.25
   2  -2   4   67.25    4.38
   2  -2   4   53.31    3.05
   2  -2   4   63.32    2.99
   2  -2   4   54.81    3.12
   2  -2   5  181.73    6.48
   2  -2   5  180.03    6.60
   2  -2   5  183.32    6.17
   2  -2   6   86.84    4.43
   2  -2   6   91.02    4.60
   2  -2   6   83.62    3.87
   2  -2   6   89.17    4.09
   2  -2   6   88.28    4.33
   2  -2   7   86.99    4.79
   2  -2   7   73.80    3.57
   2  -2   7   78.93    4.08
   2  -2   8   19.01    2.14
   2  -2   8   17.04    1.78
   2  -1 -10   42.84    3.32
   2  -1 -10   56.22    3.75
   2  -1 -10   50.50    3.88
   2  -1 -10   49.97    3.70
   2  -1  -9  113.36    7.46
   2  -1  -9  121.08    7.68
   2  -1  -9  102.98    7.01
   2  -1  -9  109.32    6.86
   2  -1  -8   68.14    6.00
   2  -1  -7  210.42   15.61
   2  -1  -7  253.09   11.43
   2  -1  -6   63.32    8.87
   2  -1  -4  368.92   11.00
   2  -1  -4  333.30    9.73
   2  -1  -3  559.85   14.02
   2  -1  -3  583.76   13.45
   2  -1  -2  336.99    8.42
   2  -1  -1  153.49    5.15
   2  -1  -1  119.57    2.92
   2  -1   0  131.43    4.08
   2  -1   0  139.21    4.67
   2  -1   1  342.58    9.66
   2  -1   2  119.76    7.50
   2  -1   2   71.68    4.63
   2  -1   3  226.57    7.84
   2  -1   3  226.22    6.36
   2  -1   3  222.40   10.03
   2  -1   4    5.45    1.54
   2  -1   4    6.81    1.09
   2  -1   5    5.99    1.32
   2  -1   6   73.72    4.34
   2  -1   6   67.18    3.71
   2  -1   6   70.04    3.84
   2  -1   6   72.76    4.01
   2  -1   7   88.31    4.66
   2  -1   7   77.30    3.85
   2  -1   7   76.61    3.91
   2  -1   7   84.93    4.39
   2  -1   8   75.81    4.39
   2  -1   9   88.23    4.03
   2   0 -11   45.30    2.47
   2   0 -10   53.71    4.19
   2   0 -10   67.05    4.91
   2   0 -10   48.54    3.63
   2   0 -10   62.52    4.52
   2   0  -9   33.98    6.64
   2   0  -9   42.72    4.59
   2   0  -8  106.95   12.28
   2   0  -8  112.14   12.47
   2   0  -7  264.97   19.59
   2   0  -7  270.66   19.84
   2   0  -6  417.10   24.09
   2   0  -5  690.76   17.58
   2   0  -5  565.25   16.33
   2   0  -4  516.85   12.38
   2   0  -4  508.25   14.12
   2   0  -3  311.76    8.70
   2   0  -2   22.71    1.51
   2   0  -2   26.23    2.62
   2   0  -1  892.10   21.44
   2   0  -1  804.23   17.88
   2   0   0  441.08   12.39
   2   0   0  508.07   10.76
   2   0   1  362.50   12.81
   2   0   2  118.76    7.54
   2   0   2   68.11    6.15
   2   0   3   19.47    2.09
   2   0   3   22.43    1.88
   2   0   3   24.35    1.68
   2   0   3   25.27    3.86
   2   0   4   77.43    3.96
   2   0   4   79.18    4.01
   2   0   5   39.29    2.95
   2   0   5   37.15    2.94
   2   0   5   36.75    2.89
   2   0   5   36.33    2.88
   2   0   6   76.21    4.19
   2   0   6   76.95    4.26
   2   0   7  173.07   10.10
   2   0   7   61.00    3.67
   2   0   8  186.79    7.23
   2   0   8  157.13    6.13
   2   1 -11   64.74    3.64
   2   1 -11   66.94    3.67
   2   1 -10   20.46    3.12
   2   1 -10   22.91    3.46
   2   1 -10   13.31    4.62
   2   1 -10   16.32    2.65
   2   1 -10   22.15    3.09
   2   1  -9  198.86   16.08
   2   1  -9  200.49   16.38
   2   1  -8   85.96   12.25
   2   1  -8   94.07   12.99
   2   1  -7  770.45   36.91
   2   1  -5  219.86    7.45
   2   1  -5  227.26    8.68
   2   1  -5  200.00    8.15
   2   1  -4  268.46    6.43
   2   1  -3 1093.13   22.32
   2   1  -3  974.14   22.82
   2   1  -2  109.51    3.80
   2   1  -2  176.76    6.21
   2   1  -2  107.67    3.06
   2   1  -2  157.71    4.81
   2   1  -1   24.78    1.37
   2   1  -1   32.37    1.48
   2   1  -1   24.41    1.10
   2   1  -1   36.75    1.76
   2   1   0  367.17    7.65
   2   1   0  330.04    7.62
   2   1   1   82.04    2.60
   2   1   2   48.49    2.40
   2   1   2   45.27    2.39
   2   1   3   43.02    2.70
   2   1   3   42.46    2.70
   2   1   4    7.79    1.50
   2   1   4    8.49    1.49
   2   1   4    9.92    1.79
   2   1   4   10.86    1.77
   2   1   4   10.59    1.56
   2   1   5    9.17    1.83
   2   1   5   11.05    1.93
   2   1   5   10.71    1.80
   2   1   6   83.50    4.65
   2   1   6   72.02    4.56
   2   1   6   78.47    4.53
   2   1   7  215.07    8.39
   2   1   7  235.87    8.82
   2   1   8  164.32    6.18
   2   2 -11  136.00    5.69
   2   2 -10  173.98   13.55
   2   2 -10  182.55   13.98
   2   2  -9  178.69   16.45
   2   2  -9  180.63   16.78
   2   2  -8  159.80   12.21
   2   2  -8  216.56   19.59
   2   2  -8  201.33   19.12
   2   2  -7  127.99   21.16
   2   2  -7  194.73   14.11
   2   2  -6    5.74    4.01
   2   2  -5  304.77    8.92
   2   2  -4  287.60    8.91
   2   2  -3   23.61    1.84
   2   2  -3   25.46    1.84
   2   2  -2  236.62    6.27
   2   2  -2  243.61    6.34
   2   2  -1   16.37    1.43
   2   2  -1   12.78    1.03
   2   2   0 1452.74   29.51
   2   2   0 1447.88   30.72
   2   2   0 1384.61   27.42
   2   2   0 1354.21   27.35
   2   2   1  185.51    7.58
   2   2   1  189.75    7.73
   2   2   2  177.92    5.74
   2   2   2  191.16    8.82
   2   2   2  197.00    5.92
   2   2   3   18.72    1.88
   2   2   3   19.56    2.22
   2   2   3   18.35    1.90
   2   2   4   83.36    4.46
   2   2   5  132.19    6.37
   2   2   5  128.37    7.19
   2   2   6  411.51   12.76
   2   2   6  481.20   14.60
   2   2   6  312.31   10.68
   2   2   6  295.08   10.92
   2   2   7   53.89    3.72
   2   2   8    2.91    1.12
   2   3 -11   14.16    3.75
   2   3 -10   39.90    7.83
   2   3 -10   42.47    8.73
   2   3  -9   52.51    7.00
   2   3  -9   67.07   11.36
   2   3  -9   70.26   12.03
   2   3  -8  114.81   11.38
   2   3  -8  174.74   18.42
   2   3  -7  163.83   26.79
   2   3  -7  156.37   13.84
   2   3  -5   40.87    3.17
   2   3  -4   10.36    1.74
   2   3  -4   11.25    1.55
   2   3  -3  757.11   17.14
   2   3  -2  367.42    8.86
   2   3  -2  383.11   10.04
   2   3  -1  520.40   12.23
   2   3  -1  522.17   13.40
   2   3  -1  518.88   13.00
   2   3  -1  540.15   12.99
   2   3   0 1169.72   27.95
   2   3   0 1128.52   26.00
   2   3   1  292.06   10.96
   2   3   1  260.83    8.45
   2   3   2  111.94    5.41
   2   3   2  116.11    5.36
   2   3   3  139.42    6.44
   2   3   3  135.44    6.25
   2   3   4  242.26    9.23
   2   3   4  235.15   10.82
   2   3   4  233.28    9.11
   2   3   5  123.12    7.06
   2   3   6   44.05    3.82
   2   3   7  112.77    5.81
   2   4 -11   45.10    5.69
   2   4 -10   42.47    5.14
   2   4 -10   67.59    9.77
   2   4  -9   58.63    7.80
   2   4  -9   76.32   12.93
   2   4  -8   15.57   14.31
   2   4  -8   26.12    6.81
   2   4  -7  196.55   16.07
   2   4  -6  157.54   15.45
   2   4  -4  122.05    5.80
   2   4  -4  107.65    5.17
   2   4  -3  267.42    9.51
   2   4  -3  217.98    7.81
   2   4  -2  172.56    7.10
   2   4  -2  160.37    6.53
   2   4  -1   86.19    4.95
   2   4  -1   81.26    4.16
   2   4  -1   72.12    3.96
   2   4   0  675.02   16.89
   2   4   0  673.47   16.03
   2   4   1  586.10   16.56
   2   4   1  554.17   14.76
   2   4   1  555.06   14.40
   2   4   2  542.69   15.14
   2   4   2  520.56   14.72
   2   4   3  261.97   10.88
   2   4   3  243.46   11.51
   2   4   4   79.60    7.83
   2   4   4   89.00    5.44
   2   4   4   97.88    6.86
   2   4   5    9.82    2.02
   2   4   5    6.81    2.04
   2   4   6   32.48    3.23
   2   5 -10   38.50    5.17
   2   5 -10   51.61    7.70
   2   5  -9    4.15    3.93
   2   5  -9    7.51    6.33
   2   5  -8  217.70   30.06
   2   5  -8  243.03   17.68
   2   5  -6   50.43   10.40
   2   5  -5   42.09    5.75
   2   5  -4  311.51   15.41
   2   5  -3  379.61   12.35
   2   5  -2   73.61    5.10
   2   5  -2   67.73    4.61
   2   5  -1  116.56    6.84
   2   5   0  136.13    8.08
   2   5   1   48.62    3.61
   2   5   1   57.23    5.62
   2   5   2  479.02   14.33
   2   5   3   87.35    6.93
   2   5   3   85.59    9.21
   2   5   3   84.88    6.92
   2   5   4   11.57    2.47
   2   5   4    8.59    2.46
   2   5   4    9.16    2.20
   2   5   5    4.47    1.33
   2   6 -11   21.66    3.21
   2   6 -10   22.74    3.98
   2   6 -10   33.74    5.68
   2   6 -10   34.04    6.35
   2   6  -9   27.81    6.02
   2   6  -9   53.44    9.69
   2   6  -8  165.77   27.41
   2   6  -8  204.21   16.11
   2   6  -6  136.71   17.10
   2   6  -6  132.35   11.63
   2   6  -5  387.43   30.47
   2   6  -5  379.26   18.98
   2   6  -4  280.10   16.90
   2   6  -4  437.68   20.54
   2   6  -3  119.85    7.12
   2   6  -3  151.24   12.82
   2   6  -2   17.66    3.04
   2   6  -2   17.45    5.86
   2   6  -2   14.84    2.55
   2   6  -1  110.32    7.85
   2   6  -1   96.92    6.85
   2   6   0   59.42    5.98
   2   6   0   62.21   10.08
   2   6   0   57.45    5.60
   2   6   1   78.10   10.45
   2   6   1   66.58    6.45
   2   6   2    8.83    2.74
   2   6   2    7.45    4.31
   2   6   2    6.52    2.74
   2   6   3  190.45    9.90
   2   6   3  146.07   11.31
   2   6   4   85.31    5.50
   2   6   5   15.95    2.09
   2   7 -10    2.83    5.15
   2   7 -10   10.30    2.51
   2   7 -10   13.90    3.09
   2   7 -10   13.82    3.59
   2   7  -9   57.25    7.20
   2   7  -9   69.93    8.10
   2   7  -9   73.36    9.02
   2   7  -8  204.33   15.34
   2   7  -7  166.96   28.97
   2   7  -6   37.25   10.40
   2   7  -6   51.07    7.91
   2   7  -5   75.26   15.19
   2   7  -5   90.80   10.32
   2   7  -4   21.07    2.99
   2   7  -4   31.32    6.16
   2   7  -3  175.65    9.92
   2   7  -3  213.60   16.42
   2   7  -2   27.24    4.02
   2   7  -2   32.52    7.71
   2   7  -1    2.49    2.08
   2   7   0   19.62    3.94
   2   7   0   16.23    5.89
   2   7   1   44.60    4.75
   2   7   1   55.00    8.70
   2   7   2  108.82    7.29
   2   7   2  125.29    8.10
   2   7   2   95.49    9.66
   2   7   3   86.76    5.67
   2   7   3  104.37    6.24
   2   8  -9   32.45    4.61
   2   8  -9   31.71    4.41
   2   8  -8   16.45    4.93
   2   8  -8   11.86    3.80
   2   8  -8   15.96    5.07
   2   8  -7   26.31   14.74
   2   8  -6   82.83   21.07
   2   8  -6   21.25    5.75
   2   8  -5   56.85   13.17
   2   8  -5  111.16   11.92
   2   8  -4   75.25   15.52
   2   8  -4  104.49   11.99
   2   8  -3  151.59   13.98
   2   8  -3  205.35   23.88
   2   8  -2    5.22    2.34
   2   8  -2    3.91    4.72
   2   8  -2    6.90    7.94
   2   8  -2   10.56    5.44
   2   8  -1   92.57    7.48
   2   8  -1   89.56   14.36
   2   8   0   49.19    5.45
   2   8   0   44.13    7.80
   2   8   1  124.31    9.68
   2   9  -8    2.06    2.12
   2   9  -6   16.29    9.41
   2   9  -5    7.45    7.99
   2   9  -5   17.47    5.42
   2   9  -4  129.31   12.51
   2   9  -2  157.59   13.09
   2   9  -1   93.99    9.23
   3  -9   0   49.27    2.35
   3  -9   1   14.43    1.34
   3  -9   2   58.22    2.68
   3  -8  -3   66.78    2.97
   3  -8  -3   65.17    3.05
   3  -8  -2   12.42    1.47
   3  -8  -2   12.84    1.57
   3  -8  -1   71.50    3.68
   3  -8  -1   65.95    3.62
   3  -8   0   43.29    2.92
   3  -8   0   38.69    2.90
   3  -8   0   45.83    3.46
   3  -8   1   41.07    2.97
   3  -8   1   46.10    3.15
   3  -8   2   39.86    2.92
   3  -8   2   43.77    2.94
   3  -8   3   55.98    2.85
   3  -8   3   63.35    3.34
   3  -8   4   40.25    2.21
   3  -8   5   20.55    1.41
   3  -8   5   23.37    2.85
   3  -8   6    5.61    1.25
   3  -7  -5    4.93    1.65
   3  -7  -5   13.90    1.63
   3  -7  -4    8.75    1.88
   3  -7  -4    5.55    2.16
   3  -7  -4    9.86    1.88
   3  -7  -3  131.31    6.19
   3  -7  -3  118.70    5.50
   3  -7  -2   12.52    2.71
   3  -7  -2    6.65    2.44
   3  -7  -2   10.89    2.94
   3  -7  -1  129.66    6.76
   3  -7  -1  129.73    6.52
   3  -7  -1  127.34    6.87
   3  -7   0  196.30    7.64
   3  -7   0  201.93    8.20
   3  -7   0  213.49    9.06
   3  -7   1  280.55    9.88
   3  -7   1  333.95   10.24
   3  -7   1  296.04    9.99
   3  -7   1  322.59   10.64
   3  -7   1  335.13   11.48
   3  -7   2   61.37    4.08
   3  -7   2   53.18    4.49
   3  -7   3   60.85    3.89
   3  -7   3   54.97    4.60
   3  -7   4    5.21    1.13
   3  -7   5   56.69    2.89
   3  -7   6   37.13    1.82
   3  -7   6   36.57    3.30
   3  -6  -6   99.11    4.00
   3  -6  -6   93.30    4.39
   3  -6  -5   85.14    4.97
   3  -6  -5   72.67    4.70
   3  -6  -4   34.36    4.47
   3  -6  -4   27.60    3.39
   3  -6  -3  210.06    9.19
   3  -6  -2   43.19    4.89
   3  -6  -2   39.09    4.33
   3  -6  -2   39.23    3.87
   3  -6  -2   35.46    4.44
   3  -6  -1  294.37   10.56
   3  -6  -1  275.38   10.76
   3  -6   0  299.14    9.85
   3  -6   0  310.05   10.50
   3  -6   0  298.23   10.95
   3  -6   1  103.70    5.72
   3  -6   1  112.47    5.29
   3  -6   1   99.87    5.35
   3  -6   2   75.57    4.58
   3  -6   2   75.26    5.67
   3  -6   2   84.09    4.71
   3  -6   3  165.96    7.00
   3  -6   3  152.94    8.24
   3  -6   3  158.33    6.40
   3  -6   4  115.55    7.02
   3  -6   4  112.61    4.84
   3  -6   4  119.84    5.27
   3  -6   5   32.25    2.42
   3  -6   6   10.06    1.33
   3  -6   6    7.15    1.13
   3  -6   6    6.76    1.86
   3  -6   7   25.45    1.52
   3  -6   8    9.46    1.05
   3  -5  -7  181.23    6.76
   3  -5  -6   60.00    4.08
   3  -5  -5    3.12    3.21
   3  -5  -5    1.96    3.10
   3  -5  -5    1.48    1.32
   3  -5  -4  225.69   11.72
   3  -5  -3  476.91   16.87
   3  -5  -2   16.50    3.56
   3  -5  -2   15.24    2.49
   3  -5  -2   14.64    3.05
   3  -5  -1  224.32    9.23
   3  -5  -1  192.61    7.88
   3  -5   0   57.78    4.26
   3  -5   0   55.43    4.10
   3  -5   0   52.13    3.30
   3  -5   0   56.02    3.83
   3  -5   1   55.96    3.88
   3  -5   1   56.76    3.72
   3  -5   2  153.51    6.27
   3  -5   2  175.47    6.68
   3  -5   2  167.53    7.14
   3  -5   3  155.11    8.14
   3  -5   3  162.56    6.30
   3  -5   4   97.10    4.98
   3  -5   4  100.97    6.53
   3  -5   4   76.33    3.96
   3  -5   4   79.34    4.20
   3  -5   4   97.15    4.40
   3  -5   4   95.07    4.62
   3  -5   5   59.75    3.36
   3  -5   5   58.28    3.47
   3  -5   5   67.73    3.66
   3  -5   6  206.42    6.36
   3  -5   6  213.32    6.69
   3  -5   6  190.06    6.41
   3  -5   6  179.83    6.19
   3  -5   6  159.98    7.78
   3  -5   7   48.19    3.15
   3  -5   7   43.74    2.39
   3  -5   8   51.32    2.48
   3  -5   8   35.78    1.65
   3  -4  -8   69.03    3.63
   3  -4  -8   62.91    3.42
   3  -4  -7   18.75    3.46
   3  -4  -7   21.86    4.04
   3  -4  -6   17.20    4.47
   3  -4  -6   15.42    3.11
   3  -4  -6   21.74    5.01
   3  -4  -5  200.84   11.17
   3  -4  -5  170.11    8.72
   3  -4  -5  202.07   11.65
   3  -4  -4  103.18    7.57
   3  -4  -4   97.99    6.25
   3  -4  -4  106.95    8.09
   3  -4  -3  118.81    7.32
   3  -4  -3  117.53    7.70
   3  -4  -2   84.97    5.33
   3  -4  -2   87.22    5.71
   3  -4  -1   32.43    3.43
   3  -4  -1   27.12    2.58
   3  -4   0   98.66    4.95
   3  -4   0   86.42    4.55
   3  -4   0   93.44    4.47
   3  -4   1   98.95    4.65
   3  -4   1  100.54    4.48
   3  -4   1   88.57    4.75
   3  -4   2   75.44    3.93
   3  -4   2   87.99    4.16
   3  -4   2   77.13    4.42
   3  -4   3  597.75   15.30
   3  -4   3  585.81   17.59
   3  -4   3  598.38   14.72
   3  -4   4  638.22   16.09
   3  -4   4  612.38   15.41
   3  -4   5  123.55    5.35
   3  -4   5  123.42    5.48
   3  -4   6   98.45    4.47
   3  -4   6  100.55    4.69
   3  -4   6   93.39    4.37
   3  -4   7    3.08    1.31
   3  -4   7    3.23    0.94
   3  -4   8   19.68    1.59
   3  -4   8   14.17    1.21
   3  -3  -9   52.68    3.86
   3  -3  -8   13.91    2.90
   3  -3  -8   18.22    2.78
   3  -3  -8   16.62    3.03
   3  -3  -8   20.71    3.97
   3  -3  -7   46.47    6.17
   3  -3  -7   41.19    4.30
   3  -3  -7   43.12    4.89
   3  -3  -6   36.57    5.85
   3  -3  -6   27.52    3.73
   3  -3  -6   28.58    4.18
   3  -3  -6   33.90    6.16
   3  -3  -6   25.69    3.41
   3  -3  -5   16.14    4.37
   3  -3  -5   10.25    2.61
   3  -3  -5   12.21    3.04
   3  -3  -5    9.96    2.29
   3  -3  -4  120.34    6.40
   3  -3  -4  121.53    6.80
   3  -3  -3  383.75   11.66
   3  -3  -1   27.47    2.72
   3  -3   0   28.54    2.43
   3  -3   0   28.05    2.47
   3  -3   0   30.15    2.15
   3  -3   1  329.56    9.09
   3  -3   2  634.62   14.52
   3  -3   2  609.90   14.60
   3  -3   3  225.65    7.62
   3  -3   3  218.82    9.08
   3  -3   3  229.95    7.15
   3  -3   4  107.62    6.51
   3  -3   4  111.89    4.75
   3  -3   5   42.83    3.22
   3  -3   5   45.86    3.40
   3  -3   5   48.93    3.15
   3  -3   6  216.02    7.33
   3  -3   6  208.58    7.41
   3  -3   6  188.81    6.33
   3  -3   6  208.28    7.26
   3  -3   7  136.29    5.54
   3  -3   7  130.06    5.04
   3  -3   8   92.24    4.57
   3  -3   8   41.56    2.27
   3  -2  -9    1.88    2.36
   3  -2  -9    0.69    1.51
   3  -2  -9    1.13    1.73
   3  -2  -9    0.30    2.24
   3  -2  -8   40.23    4.20
   3  -2  -8   42.19    4.84
   3  -2  -8   43.83    5.96
   3  -2  -8   39.59    4.10
   3  -2  -7  114.54    8.01
   3  -2  -7   99.44    6.56
   3  -2  -6  109.81    7.58
   3  -2  -6   92.59    6.11
   3  -2  -5  475.55   14.58
   3  -2  -3   64.73    3.82
   3  -2  -2    3.21    1.04
   3  -2  -2    2.95    1.10
   3  -2  -1  217.47    8.52
   3  -2  -1  200.90   11.11
   3  -2   0  572.26   14.05
   3  -2   0  845.77   19.37
   3  -2   0  854.21   25.25
   3  -2   0  606.95   16.75
   3  -2   0  625.93   14.85
   3  -2   1  726.74   17.66
   3  -2   1  733.37   16.14
   3  -2   2   80.18    3.74
   3  -2   2   90.90    3.67
   3  -2   3  109.78    4.64
   3  -2   3  105.69    5.83
   3  -2   3  109.38    4.39
   3  -2   4   99.24    6.10
   3  -2   4   85.62    4.55
   3  -2   4   93.52    4.76
   3  -2   4  107.70    4.56
   3  -2   5   48.03    3.42
   3  -2   5   47.64    3.48
   3  -2   6  211.06    7.50
   3  -2   6  196.34    6.64
   3  -2   6  200.09    6.91
   3  -2   7  140.70    4.97
   3  -2   7  176.19    5.99
   3  -2   8   11.61    1.58
   3  -1 -10    3.21    1.83
   3  -1 -10    2.73    1.52
   3  -1 -10    2.61    1.68
   3  -1  -9   51.36    5.44
   3  -1  -9   46.32    4.68
   3  -1  -9   41.81    3.95
   3  -1  -8   23.54    3.42
   3  -1  -7   61.95    5.16
   3  -1  -6  256.49   10.43
   3  -1  -4  141.28    6.11
   3  -1  -4  162.39    5.64
   3  -1  -3    2.46    0.92
   3  -1  -2  251.08   11.74
   3  -1  -2  246.51    8.51
   3  -1  -1  494.88   17.98
   3  -1  -1  480.61   13.16
   3  -1   0  478.40   12.31
   3  -1   0  403.14   10.25
   3  -1   1  344.00   15.38
   3  -1   1  184.47    6.89
   3  -1   2   98.86    3.94
   3  -1   2   96.55    3.74
   3  -1   3   94.61    5.44
   3  -1   3  100.41    4.16
   3  -1   4   85.65    5.58
   3  -1   4   93.46    4.80
   3  -1   4   97.71    4.40
   3  -1   5   94.57    4.95
   3  -1   5  103.80    5.00
   3  -1   6  135.33    5.51
   3  -1   6  141.99    5.70
   3  -1   7  292.63    8.81
   3  -1   7  787.37   19.10
   3  -1   8   47.90    2.66
   3   0 -10   10.79    2.66
   3   0 -10    9.21    2.45
   3   0 -10    9.96    2.05
   3   0  -9  126.61    7.09
   3   0  -8   10.18    4.66
   3   0  -8   17.33    3.12
   3   0  -7  334.92   20.75
   3   0  -4  196.89    6.98
   3   0  -4  203.11    8.00
   3   0  -3  404.38   10.83
   3   0  -3  392.78   13.85
   3   0  -2 1098.42   28.18
   3   0  -2 1013.37   22.03
   3   0  -1  852.14   23.82
   3   0  -1  594.60   14.91
   3   0   0  250.75    8.07
   3   0   0  309.29    8.33
   3   0   1  152.84    9.83
   3   0   1   68.06    4.67
   3   0   2   17.37    2.13
   3   0   2   17.59    1.51
   3   0   2   13.84    2.46
   3   0   3   94.81    5.22
   3   0   3   92.97    4.54
   3   0   4   55.95    3.75
   3   0   4   57.46    3.82
   3   0   5   92.27    4.89
   3   0   5   94.64    4.98
   3   0   5   89.74    4.82
   3   0   5   92.67    4.98
   3   0   5  107.07    5.24
   3   0   6  151.93    6.11
   3   0   6  154.85    6.26
   3   0   6  171.73    6.72
   3   0   7  126.57    5.51
   3   0   7   82.39    3.95
   3   0   8    9.60    1.03
   3   1 -11   47.42    2.84
   3   1 -11   44.08    2.68
   3   1 -10  145.70    6.77
   3   1  -9  133.61   12.29
   3   1  -9  134.50   12.00
   3   1  -8  134.87   13.96
   3   1  -8  130.80   13.71
   3   1  -5   18.95    2.25
   3   1  -4  359.40   10.38
   3   1  -4  350.02   11.18
   3   1  -4  333.36    9.96
   3   1  -3  211.32    7.01
   3   1  -3  259.37    9.61
   3   1  -3  270.63    8.33
   3   1  -3  196.60    6.12
   3   1  -2  388.04   10.17
   3   1  -2  484.81   15.39
   3   1  -1  440.99   10.62
   3   1  -1  518.96   11.77
   3   1   0   27.08    4.19
   3   1   0   15.28    1.59
   3   1   1  170.89    7.39
   3   1   2   12.90    1.70
   3   1   2   15.56    1.78
   3   1   3   43.86    3.20
   3   1   3   46.15    3.23
   3   1   4   32.40    2.88
   3   1   4   32.76    2.92
   3   1   4   34.00    3.23
   3   1   4   39.03    3.12
   3   1   5  167.85    7.07
   3   1   5  173.43    7.25
   3   1   5  181.39    7.22
   3   1   6  124.94    5.67
   3   1   6  132.08    5.79
   3   1   7  115.74    5.26
   3   2 -11  149.68    6.03
   3   2 -11  144.18    5.45
   3   2 -10   73.08    8.26
   3   2 -10   75.56    8.31
   3   2  -9   30.48    7.71
   3   2  -9   33.97    8.02
   3   2  -8  171.93   16.86
   3   2  -4  220.28    7.55
   3   2  -4  250.61    8.86
   3   2  -3   92.85    4.16
   3   2  -3  119.21    5.16
   3   2  -2  201.80    6.19
   3   2  -2  187.09    5.41
   3   2  -1  153.17    4.64
   3   2  -1  135.29    5.07
   3   2   0  206.45    7.46
   3   2   2  102.15    4.74
   3   2   2  104.23    4.71
   3   2   3  300.28    9.49
   3   2   3  264.32    9.94
   3   2   3  288.05   10.09
   3   2   3  322.55    9.71
   3   2   4  562.94   22.54
   3   2   5  169.24    7.15
   3   2   5  155.43    7.83
   3   2   6    0.94    1.12
   3   2   6    0.96    0.93
   3   3 -11   39.61    4.72
   3   3 -11   49.32    3.13
   3   3 -10   66.03    8.46
   3   3 -10   54.04    8.12
   3   3  -9    4.27    6.20
   3   3  -8   31.21   12.78
   3   3  -2   10.64    1.22
   3   3  -2   15.31    1.94
   3   3  -1  197.61    8.10
   3   3   0  869.83   24.24
   3   3   1  720.56   23.24
   3   3   2  289.32   10.66
   3   3   2  300.83   10.65
   3   3   3  220.12    9.05
   3   3   3  221.72    9.03
   3   3   4   10.77    2.73
   3   3   4    4.78    1.86
   3   3   4    6.38    2.45
   3   3   4    4.66    1.76
   3   3   5    8.19    1.99
   3   3   5    6.32    1.83
   3   4 -11   10.72    3.07
   3   4 -11    8.71    2.98
   3   4 -10   16.75    5.55
   3   4 -10   11.70    5.26
   3   4  -9   88.43   12.25
   3   4  -8   20.52   13.65
   3   4  -8   10.16    4.19
   3   4   0  210.22    8.27
   3   4   0  190.90    7.54
   3   4   0  197.03    7.20
   3   4   1  157.62    7.93
   3   4   1  146.19    6.77
   3   4   1  150.40    6.60
   3   4   2   49.59    4.66
   3   4   2   40.16    3.69
   3   4   2   39.35    3.48
   3   4   3  130.05    7.52
   3   4   3  110.34    6.05
   3   4   3  120.78    8.21
   3   4   4  122.94    6.77
   3   4   4  112.64    6.99
   3   4   5   54.30    3.70
   3   5 -11    6.15    2.47
   3   5 -11    7.78    2.68
   3   5 -10   58.34    8.13
   3   5  -9   26.53   12.10
   3   5  -9   32.96    5.35
   3   5  -8  149.40   24.24
   3   5  -8   59.18    8.32
   3   5  -7   96.44   11.73
   3   5  -5   35.49    5.08
   3   5  -3   75.19    5.08
   3   5  -2   66.07    5.16
   3   5  -1   47.86    4.97
   3   5   0  269.30   12.66
   3   5   1  187.67    7.74
   3   5   1  203.05   11.12
   3   5   2  422.49   13.20
   3   5   3  214.88   10.52
   3   5   3  177.38   12.45
   3   5   3  197.80   10.02
   3   5   4   67.12    4.80
   3   6 -10   26.10    5.04
   3   6  -9   22.47   11.60
   3   6  -9   18.43    4.30
   3   6  -8  213.24   27.93
   3   6  -8  144.08   12.38
   3   6  -7   39.30    8.43
   3   6  -6   15.15    7.44
   3   6  -6   10.91    3.61
   3   6  -5    9.97    3.29
   3   6  -5   14.34    4.04
   3   6  -4  284.79   16.76
   3   6  -3  192.87    9.09
   3   6  -2   56.05    5.34
   3   6  -2   49.58    4.52
   3   6  -1   13.93    3.08
   3   6  -1   12.07    2.73
   3   6   0    7.99    2.91
   3   6   0    6.82    2.48
   3   6   1   50.43    8.57
   3   6   1   42.73    5.01
   3   6   2  181.73    9.76
   3   6   2  150.96   12.44
   3   6   2  146.95    8.84
   3   6   3  164.64    8.04
   3   6   3   94.68    7.43
   3   7 -10   84.85    6.18
   3   7 -10   82.08    6.64
   3   7  -9   14.09    3.54
   3   7  -9   31.41    6.38
   3   7  -8   16.09    4.91
   3   7  -6   39.07   10.03
   3   7  -6   32.52    5.71
   3   7  -5  145.17   18.94
   3   7  -5  126.77   10.87
   3   7  -4   20.43    5.24
   3   7  -4   33.86    6.40
   3   7  -3   14.81    2.70
   3   7  -3   21.40    5.92
   3   7  -2    8.83    2.46
   3   7  -2    8.95    4.87
   3   7  -1   19.05    3.42
   3   7   0   58.79    5.81
   3   7   0   63.80    9.39
   3   7   1   34.03    6.37
   3   7   2  302.43   11.49
   3   7   2  399.02   14.77
   3   8  -8   29.85   10.56
   3   8  -8   42.12    5.65
   3   8  -7   57.38   15.40
   3   8  -6    5.08    2.99
   3   8  -5   47.99   11.32
   3   8  -5   67.89    8.28
   3   8  -4   76.78    8.90
   3   8  -3  106.54    6.48
   3   8  -3  145.50   12.22
   3   8  -3  239.11   24.06
   3   8  -3  267.83   16.15
   3   8  -2    4.01    1.84
   3   8  -2    2.84    3.82
   3   8  -2    4.05    6.24
   3   8  -1   28.74    3.74
   3   8  -1   35.79    8.52
   3   8   0    7.26    2.10
   3   8   0    6.54    3.42
   3   8   0   14.93    3.84
   3   8   1   31.02    3.02
   3   9  -7    4.54    2.53
   3   9  -6   14.09    7.86
   3   9  -5   40.49    9.54
   3   9  -5   51.10    6.22
   3   9  -4   43.51    6.41
   3   9  -3   36.69    5.68
   3   9  -2    6.28    3.01
   4  -8  -2   34.28    2.15
   4  -8  -2   46.34    2.55
   4  -8  -1   54.25    2.87
   4  -8  -1   65.57    3.24
   4  -8   0   42.04    2.64
   4  -8   0   53.32    2.91
   4  -8   1    5.86    1.20
   4  -8   2   44.53    2.33
   4  -8   3    2.22    0.65
   4  -8   4    6.05    0.73
   4  -8   4    5.40    1.34
   4  -7  -4   19.08    2.01
   4  -7  -4   17.46    1.82
   4  -7  -3  108.37    4.96
   4  -7  -3  117.10    5.27
   4  -7  -2  140.76    6.01
   4  -7  -2  137.90    6.43
   4  -7  -1  124.53    6.04
   4  -7  -1  111.71    5.36
   4  -7  -1  118.53    6.34
   4  -7   0   77.83    4.42
   4  -7   0   93.34    4.65
   4  -7   1   39.10    3.21
   4  -7   1   31.94    3.36
   4  -7   1   39.38    2.97
   4  -7   2    6.19    1.56
   4  -7   2    3.71    1.64
   4  -7   2    6.09    1.32
   4  -7   3   13.20    2.29
   4  -7   3   16.68    1.67
   4  -7   3   16.18    1.72
   4  -7   4   14.22    1.41
   4  -7   5   55.53    2.32
   4  -7   5   49.93    3.24
   4  -6  -6   36.07    2.29
   4  -6  -6   33.45    2.21
   4  -6  -5   53.64    3.56
   4  -6  -5   50.07    3.30
   4  -6  -5   52.07    3.32
   4  -6  -4   60.40    3.99
   4  -6  -4   67.73    4.52
   4  -6  -3  142.29    6.63
   4  -6  -3  126.71    6.89
   4  -6  -2   10.23    2.73
   4  -6  -2    9.31    2.63
   4  -6  -2   10.63    2.10
   4  -6  -2   10.60    3.58
   4  -6  -1  140.39    6.89
   4  -6  -1  131.29    6.22
   4  -6   0   69.62    4.73
   4  -6   0   61.30    4.12
   4  -6   0   69.31    4.26
   4  -6   1   70.06    5.58
   4  -6   1   74.67    4.38
   4  -6   1   74.13    5.30
   4  -6   2   27.61    3.69
   4  -6   2   26.81    2.54
   4  -6   3   33.62    2.97
   4  -6   3   26.11    3.53
   4  -6   3   22.05    2.08
   4  -6   3   31.68    2.54
   4  -6   4   15.92    2.72
   4  -6   4   15.07    1.59
   4  -6   6   13.21    1.13
   4  -5  -7  118.80    4.92
   4  -5  -7  110.36    4.35
   4  -5  -6  100.93    5.79
   4  -5  -6   76.35    4.48
   4  -5  -5   54.19    4.13
   4  -5  -4    9.70    3.53
   4  -5  -4    7.97    2.16
   4  -5  -3  200.40    9.70
   4  -5  -3  176.64    7.92
   4  -5  -2   57.05    5.02
   4  -5  -2   54.14    4.08
   4  -5  -1  110.64    6.14
   4  -5  -1  106.33    6.00
   4  -5  -1  105.26    5.48
   4  -5   0  108.23    5.74
   4  -5   0  107.99    5.26
   4  -5   0   94.17    6.00
   4  -5   1   89.24    4.90
   4  -5   1  100.61    4.87
   4  -5   1   89.78    5.66
   4  -5   2    2.14    1.56
   4  -5   2    5.07    2.50
   4  -5   2    2.26    1.17
   4  -5   2    1.85    2.29
   4  -5   3  238.93    8.49
   4  -5   3  238.93   10.66
   4  -5   3  222.37    7.70
   4  -5   3  237.99    7.90
   4  -5   4  126.70    5.32
   4  -5   4  133.18    5.59
   4  -5   5   44.79    2.64
   4  -5   5   42.01    2.74
   4  -5   5   43.99    2.73
   4  -5   6    8.71    1.12
   4  -5   7    9.25    0.82
   4  -4  -8   80.32    3.89
   4  -4  -7   85.27    5.58
   4  -4  -7   99.49    6.44
   4  -4  -6   70.31    5.94
   4  -4  -6   70.04    6.23
   4  -4  -5    1.04    2.44
   4  -4  -5    1.87    2.95
   4  -4  -4  109.71    6.96
   4  -4  -4  117.02    7.64
   4  -4  -3  489.39   15.81
   4  -4  -2  128.00    7.13
   4  -4  -2  125.35    6.01
   4  -4  -1   86.91    5.22
   4  -4  -1   81.17    4.49
   4  -4   0  436.53   12.60
   4  -4   0  443.80   12.05
   4  -4   1  369.06   11.10
   4  -4   1  345.53   11.25
   4  -4   2  459.25   13.38
   4  -4   2  485.97   12.85
   4  -4   2  455.26   13.04
   4  -4   3  298.99    9.78
   4  -4   3  301.74    9.27
   4  -4   3  293.49    9.09
   4  -4   4   20.56    3.36
   4  -4   4   17.52    2.20
   4  -4   4   20.04    2.40
   4  -4   4   22.02    2.22
   4  -4   5   13.81    1.79
   4  -4   5   13.40    1.86
   4  -4   5   15.13    1.79
   4  -4   6   17.05    1.80
   4  -4   6   14.65    1.60
   4  -4   7    1.55    0.55
   4  -3  -9   54.93    2.74
   4  -3  -8   43.04    4.24
   4  -3  -8   43.43    4.46
   4  -3  -7   31.84    4.63
   4  -3  -7   37.67    5.19
   4  -3  -6  152.88    9.25
   4  -3  -6  129.93    7.19
   4  -3  -6  157.63    9.99
   4  -3  -5  171.30    9.62
   4  -3  -4  128.73    7.69
   4  -3  -2  177.95    6.80
   4  -3  -1  396.88   11.85
   4  -3   0  243.87    7.92
   4  -3   1   43.33    2.97
   4  -3   1   37.09    3.31
   4  -3   2   67.56    4.09
   4  -3   2   73.00    3.74
   4  -3   2   64.90    3.90
   4  -3   3  233.45    8.15
   4  -3   3  224.11   10.25
   4  -3   3  251.35    8.12
   4  -3   4  111.04    6.88
   4  -3   4   91.83    5.01
   4  -3   4   99.06    5.22
   4  -3   4  115.28    5.02
   4  -3   5   18.40    2.19
   4  -3   5   19.58    2.26
   4  -3   5   16.41    1.76
   4  -3   6    5.60    1.17
   4  -3   7    1.61    1.05
   4  -3   7    0.53    0.51
   4  -2  -9   47.20    4.11
   4  -2  -8  140.87    8.42
   4  -2  -8  123.28    6.83
   4  -2  -7  212.65    9.81
   4  -2  -6   78.98    5.75
   4  -2   0   16.33    1.68
   4  -2   2  364.67   10.67
   4  -2   2  390.20   10.61
   4  -2   3  280.18   11.44
   4  -2   3  307.76    9.22
   4  -2   4   27.55    3.59
   4  -2   4   32.39    2.64
   4  -2   5   17.34    2.01
   4  -2   5   22.65    2.44
   4  -2   6   59.75    2.88
   4  -2   6   63.48    3.14
   4  -2   6   67.95    3.57
   4  -2   7  298.83   10.24
   4  -1 -10   33.14    2.48
   4  -1 -10   42.01    3.20
   4  -1  -9   68.90    4.88
   4  -1  -8   90.09    6.32
   4  -1   2   92.63    5.85
   4  -1   2  106.13    4.51
   4  -1   3   69.99    5.20
   4  -1   3   76.44    3.93
   4  -1   4  175.79    7.37
   4  -1   4  190.04    7.67
   4  -1   5  120.34    5.51
   4  -1   5  121.51    5.60
   4  -1   5  106.59    5.10
   4  -1   5  112.52    5.35
   4  -1   6  196.36    6.34
   4  -1   6  207.38    6.59
   4  -1   7   72.77    3.76
   4   0 -10    9.61    1.92
   4   0 -10   10.11    2.43
   4   0   2   56.54    4.29
   4   0   3  180.65    7.61
   4   0   3  189.23    7.77
   4   0   4   32.96    3.12
   4   0   4   36.10    3.14
   4   0   4   41.12    3.35
   4   0   5   27.97    2.67
   4   0   5   29.02    2.78
   4   0   5   32.65    2.79
   4   0   6   69.20    3.47
   4   0   6   74.18    3.61
   4   0   7  201.77    5.89
   4   1  -9    9.15    1.98
   4   1  -8   59.35    8.57
   4   1   1  259.11    8.21
   4   1   2   37.27    3.24
   4   1   2   37.75    3.20
   4   1   3  129.11    6.11
   4   1   3  130.84    6.11
   4   1   4  142.05    6.22
   4   1   4  138.78    6.69
   4   1   5   50.44    3.43
   4   1   5   39.29    3.42
   4   1   5   47.82    3.42
   4   1   6   83.74    3.69
   4   2 -11   23.44    2.18
   4   2 -11   23.59    2.06
   4   2 -10    6.90    2.94
   4   2 -10    6.35    1.47
   4   2  -9   37.16    6.87
   4   2  -9   34.74    6.57
   4   2   1  374.56   11.13
   4   2   2  215.90    8.07
   4   2   2  227.80    8.03
   4   2   2  237.70    7.85
   4   2   3  163.13    6.74
   4   2   3  168.51    7.96
   4   2   3  168.79    7.82
   4   2   4   97.66    9.06
   4   2   4   33.11    3.23
   4   2   5  108.03    5.80
   4   2   5   62.22    4.08
   4   3 -10   38.45    5.81
   4   3 -10   33.15    5.28
   4   3  -9    8.45    5.17
   4   3   0  529.47   18.96
   4   3   1  245.47   12.60
   4   3   1  101.04    5.86
   4   3   2   24.36    3.19
   4   3   2   24.86    3.00
   4   3   3   31.61    3.34
   4   3   3   30.89    3.21
   4   3   4   41.59    3.75
   4   3   4   33.31    3.02
   4   3   4   37.72    3.83
   4   3   5   31.55    2.44
   4   3   5   25.29    2.23
   4   4 -10   30.65    5.47
   4   4 -10   29.40    5.45
   4   4  -1   98.48    5.24
   4   4   0   24.35    2.88
   4   4   0   23.86    2.58
   4   4   1  200.60    8.83
   4   4   1  225.86    9.02
   4   4   1  228.30    8.58
   4   4   2   72.43    5.02
   4   4   2   75.53    4.87
   4   4   2   71.68    4.54
   4   4   3  103.21    5.75
   4   4   3  108.95    5.50
   4   4   4   70.23    4.53
   4   4   4   65.92    4.36
   4   5 -10   38.06    5.66
   4   5 -10   40.87    5.86
   4   5  -9    8.49    7.98
   4   5  -2   91.58    6.45
   4   5  -1   65.07    6.12
   4   5   0  229.23   11.75
   4   5   1   56.29    3.87
   4   5   1   73.39    6.44
   4   5   2   92.80    4.79
   4   5   2  138.64    7.98
   4   5   3  112.59    6.24
   4   5   3  102.85    5.86
   4   6 -10    4.23    2.77
   4   6  -9   16.46    8.49
   4   6  -7   69.90    9.67
   4   6  -5   64.43    6.74
   4   6  -4  126.06   10.96
   4   6  -3   60.40    4.73
   4   6  -2   10.06    2.42
   4   6  -2    8.75    2.07
   4   6  -1   78.43    6.26
   4   6  -1   71.23    5.73
   4   6   0   89.64    6.99
   4   6   0   84.37    6.37
   4   6   1   31.78    4.02
   4   6   1   40.19    6.71
   4   6   1   29.31    3.70
   4   6   2  226.86   11.87
   4   7  -8   42.34   12.48
   4   7  -6    7.29    5.36
   4   7  -5   55.42    6.48
   4   7  -4   40.33    6.21
   4   7  -4   70.15    7.69
   4   7  -3   46.14    7.26
   4   7  -2   12.55    2.40
   4   7  -2   17.47    5.40
   4   7  -1   52.65    4.65
   4   7   0   98.78    6.29
   4   7   0  113.70   10.20
   4   7   1    9.06    1.77
   4   8  -7   19.38    9.59
   4   8  -5   11.00    5.63
   4   8  -5   12.46    3.33
   4   8  -4   95.91    8.32
   4   8  -3  131.07   14.98
   4   8  -3  147.70   10.17
   4   8  -2   -1.44    2.57
   4   8  -2   -0.71    4.25
   4   8  -2    1.37    2.39
   4   8  -1   29.50    4.29
   5  -7  -3   18.33    1.51
   5  -7  -3   18.67    1.46
   5  -7  -2   59.69    3.12
   5  -7  -2   67.64    3.14
   5  -7  -1    5.62    1.25
   5  -7  -1    5.06    1.05
   5  -7   0    6.60    1.34
   5  -7   0    4.05    1.22
   5  -7   0    6.77    1.10
   5  -7   1   -0.05    1.03
   5  -7   1    1.62    0.70
   5  -6  -5   14.45    1.67
   5  -6  -4   13.40    1.93
   5  -6  -4    8.71    1.27
   5  -6  -4   12.03    2.30
   5  -6  -3   40.21    3.13
   5  -6  -3   32.85    2.35
   5  -6  -2   15.31    2.31
   5  -6  -2   13.36    1.79
   5  -6  -2   13.18    1.63
   5  -6  -1   39.92    2.92
   5  -6  -1   43.15    3.97
   5  -6   0   65.78    4.03
   5  -6   0   54.88    4.54
   5  -6   0   64.69    3.63
   5  -6   0   63.27    4.47
   5  -6   1   20.98    2.34
   5  -6   1   18.77    2.89
   5  -6   1   20.64    1.97
   5  -6   2   31.97    2.57
   5  -6   2   33.10    3.42
   5  -6   2   34.08    2.35
   5  -6   3   10.67    2.06
   5  -6   3    8.65    1.12
   5  -6   3   12.17    1.35
   5  -6   4    2.52    0.66
   5  -5  -6   32.50    2.73
   5  -5  -6   23.55    1.78
   5  -5  -6   29.66    2.38
   5  -5  -5   18.32    2.63
   5  -5  -5   15.43    2.34
   5  -5  -5   14.83    1.78
   5  -5  -4   57.33    4.42
   5  -5  -4   57.75    4.29
   5  -5  -4   56.84    3.50
   5  -5  -3   16.98    2.78
   5  -5  -3   17.32    2.83
   5  -5  -3   17.84    2.13
   5  -5  -2   29.85    3.23
   5  -5  -2   26.19    3.96
   5  -5  -1   93.81    5.00
   5  -5  -1   86.27    4.73
   5  -5  -1   88.31    5.68
   5  -5   0    8.12    1.99
   5  -5   0    9.99    1.69
   5  -5   0    9.30    2.81
   5  -5   1   94.32    5.08
   5  -5   1   87.81    6.30
   5  -5   1   93.89    4.45
   5  -5   1   92.84    5.16
   5  -5   2   49.48    3.44
   5  -5   2   51.76    3.20
   5  -5   2   49.72    2.95
   5  -5   3   16.45    1.79
   5  -5   3   17.43    1.94
   5  -5   3   20.41    1.87
   5  -5   4    0.49    0.62
   5  -5   4    0.64    0.66
   5  -5   4    0.57    0.64
   5  -5   5   41.39    2.08
   5  -4  -7   24.96    1.91
   5  -4  -6   24.09    3.37
   5  -4  -6   19.69    2.66
   5  -4  -6   15.74    1.96
   5  -4  -5   42.02    4.43
   5  -4  -5   35.57    2.99
   5  -4  -4   45.35    4.59
   5  -4  -4   45.01    3.37
   5  -4  -3   87.94    5.73
   5  -4  -2  339.80   11.17
   5  -4  -2  352.97   11.31
   5  -4  -1  222.96    8.15
   5  -4  -1  205.63    8.76
   5  -4   0  263.97    8.70
   5  -4   0  253.52    9.39
   5  -4   1   41.81    3.41
   5  -4   1   39.56    2.84
   5  -4   1   37.60    3.40
   5  -4   2   19.03    2.29
   5  -4   2   20.80    3.53
   5  -4   2   19.58    2.11
   5  -4   3   52.22    4.68
   5  -4   3   44.91    3.24
   5  -4   3   49.37    3.45
   5  -4   3   58.74    3.30
   5  -4   4   23.95    2.13
   5  -4   4   25.31    2.24
   5  -4   5   16.93    1.48
   5  -4   5   17.17    1.55
   5  -3  -8  103.51    4.81
   5  -3  -8   63.92    2.99
   5  -3  -7   47.20    3.87
   5  -3  -7   51.37    4.42
   5  -3  -6  103.54    6.11
   5  -3  -6  114.98    6.98
   5  -3  -5   27.70    3.79
   5  -3  -2    9.78    2.12
   5  -3  -1  104.86    5.01
   5  -3   0   25.45    3.10
   5  -3   1   53.73    3.77
   5  -3   2    2.03    1.13
   5  -3   2    4.15    2.36
   5  -3   2    4.66    1.29
   5  -3   3   91.14    6.17
   5  -3   3   80.56    4.62
   5  -3   3   97.17    4.40
   5  -3   4   15.18    1.93
   5  -3   4   16.14    1.97
   5  -3   5    3.57    0.98
   5  -3   5    4.49    0.82
   5  -3   5    5.42    1.08
   5  -2  -9   70.88    3.64
   5  -2  -9   82.80    3.86
   5  -2  -9   84.32    4.15
   5  -2  -8   35.51    3.59
   5  -2  -8   35.97    3.89
   5  -2  -7  150.32    7.95
   5  -2  -7  146.33    8.37
   5  -2  -6  205.18    9.74
   5  -2   0  167.47    6.71
   5  -2   1   29.64    2.52
   5  -2   2   95.80    6.50
   5  -2   2   97.25    4.55
   5  -2   3  242.07   10.18
   5  -2   3  234.65    8.81
   5  -2   4   55.15    3.60
   5  -2   4   70.14    3.86
   5  -2   5   22.63    1.69
   5  -2   5   27.06    1.96
   5  -1  -9   56.11    4.04
   5  -1  -9   57.40    4.28
   5  -1   1   76.52    5.63
   5  -1   2  326.34   12.25
   5  -1   3  121.15    6.00
   5  -1   3  121.00    5.99
   5  -1   4   23.59    2.40
   5  -1   4   24.17    2.41
   5  -1   4   22.13    2.39
   5  -1   4   21.48    2.39
   5  -1   4   27.37    2.41
   5  -1   5    4.75    1.02
   5  -1   5    5.53    1.10
   5  -1   5    5.10    1.01
   5   0 -10   45.25    2.97
   5   0   1  151.27    6.33
   5   0   2    5.95    1.94
   5   0   2    3.49    1.64
   5   0   2    3.35    1.23
   5   0   3   51.20    3.72
   5   0   3   52.51    3.72
   5   0   4   18.07    2.03
   5   0   4   18.89    2.25
   5   0   4   20.88    2.35
   5   0   4   20.04    1.95
   5   0   5   20.85    1.76
   5   0   5   21.80    1.82
   5   1   1   83.97    4.95
   5   1   2  108.08    5.54
   5   1   2  108.90    5.44
   5   1   3   30.20    2.65
   5   1   3   31.47    3.20
   5   1   4  135.77    8.96
   5   1   4   51.96    3.40
   5   1   5   80.14    3.66
   5   1   5   64.00    2.92
   5   2 -10    2.48    0.99
   5   2   0  176.07    7.13
   5   2   1  105.33    5.19
   5   2   2   59.53    4.61
   5   2   2   62.89    4.57
   5   2   3  229.66    8.59
   5   2   3  228.16    8.48
   5   2   4   48.93    3.25
   5   2   4   41.93    3.19
   5   3  -9   37.65    5.74
   5   3   0   62.72    4.41
   5   3   1   33.95    3.53
   5   3   1   34.99    3.33
   5   3   2   26.28    2.70
   5   3   2   30.35    3.06
   5   3   2   27.53    2.78
   5   3   3   69.36    3.83
   5   3   3   71.83    4.96
   5   4  -9   37.26    5.82
   5   4   0   68.40    4.34
   5   4   1  180.66    6.99
   5   4   1  191.53    9.98
   5   4   2   24.84    2.27
   5   4   3   56.64    3.61
   5   4   3   50.44    3.37
   5   5  -9   30.73    5.16
   5   5  -2   92.46    6.09
   5   5  -1  279.42   11.88
   5   5   0   56.07    5.02
   5   5   1  159.52    8.07
   5   5   1  148.33    7.55
   5   6  -9   15.10    3.45
   5   6  -8   46.88   10.90
   5   6  -6    4.18    4.42
   5   6  -4   24.26    4.49
   5   6  -3   23.69    5.09
   5   6  -2   73.90    4.76
   5   6  -2  106.68   10.43
   5   6  -1  223.72    9.11
   5   6  -1  186.38    7.70
   5   6   0   81.54    4.99
   5   6   0  110.14    9.13
   5   7  -6    2.27    2.93
   5   7  -5  102.47   11.69
   5   7  -4   16.70    3.04
   5   7  -3   94.18    7.78
   5   7  -3  176.21    9.85
   5   7  -2   40.40    5.28
   5   7  -2   71.26    6.29
   6  -6  -2   47.78    2.51
   6  -6  -1   22.90    1.77
   6  -6  -1   18.34    1.99
   6  -6  -1   21.04    1.46
   6  -6   0   47.25    2.41
   6  -6   0   47.10    3.12
   6  -6   0   52.33    2.27
   6  -6   1    6.93    1.31
   6  -5  -4   19.45    2.23
   6  -5  -3    3.03    1.96
   6  -5  -2   47.17    3.06
   6  -5  -2   54.59    3.56
   6  -5  -1   38.35    2.76
   6  -5  -1   38.01    3.59
   6  -5  -1   39.83    2.98
   6  -5   0   17.94    1.88
   6  -5   0   19.96    2.80
   6  -5   0   17.74    1.62
   6  -5   2   13.11    1.94
   6  -5   2   12.44    1.20
   6  -5   2   13.81    1.37
   6  -4  -5    2.84    1.21
   6  -4  -5    3.20    1.15
   6  -4  -4  118.24    4.71
   6  -4  -3   64.24    4.40
   6  -4  -2   82.48    4.70
   6  -4  -1    4.37    1.40
   6  -4  -1    2.68    1.86
   6  -4   0   23.91    2.24
   6  -4   0   28.33    3.53
   6  -4   0   25.94    2.07
   6  -4   1   56.06    4.52
   6  -4   1   61.81    2.98
   6  -4   2  119.81    5.99
   6  -4   2  112.55    4.65
   6  -4   2  118.12    4.85
   6  -4   2  113.20    3.79
   6  -4   3    1.14    0.67
   6  -4   3    1.12    0.70
   6  -4   3    1.52    0.63
   6  -3  -7   54.86    2.91
   6  -3  -6   88.88    4.50
   6  -3  -5  107.04    5.20
   6  -3  -5  102.96    4.71
   6  -3  -2    7.44    2.36
   6  -3  -1   43.88    3.16
   6  -3   1   25.88    3.39
   6  -3   2    0.40    1.26
   6  -3   2    3.01    1.26
   6  -3   2    1.49    0.91
   6  -3   3   21.35    1.88
   6  -3   3   25.33    1.79
   6  -2  -8   78.63    3.46
   6  -2   0   14.02    2.82
   6  -2   1   36.22    3.81
   6  -2   2   12.25    1.95
   6  -2   2   11.49    1.87
   6  -2   2   12.30    1.55
   6  -2   3  104.43    4.34
   6  -2   3  106.94    4.43
   6  -2   3  105.77    3.83
   6  -1  -8   38.01    2.74
   6  -1   0  142.04    7.57
   6  -1   1   28.60    2.91
   6  -1   2   64.53    3.94
   6  -1   2   68.82    3.97
   6  -1   3   91.38    3.95
   6  -1   3   90.62    3.87
   6  -1   3   81.19    3.94
   6  -1   3   85.78    4.04
   6   0   1    5.73    1.64
   6   0   1    6.69    1.61
   6   0   2   28.60    2.45
   6   0   2   28.93    2.34
   6   0   3  146.41    7.46
   6   0   3   74.62    3.73
   6   1   0   73.17    4.37
   6   1   1    0.17    0.93
   6   1   2   98.79    4.95
   6   1   2  109.36    5.03
   6   1   3   63.37    3.67
   6   1   3   74.65    3.24
   6   2   0  120.51    5.85
   6   2   1  118.08    5.64
   6   2   1  117.14    5.33
   6   2   2    8.27    1.43
   6   2   2    8.81    1.95
   6   2   2    8.49    1.30
   6   3  -1   86.13    4.71
   6   3   0   35.62    2.84
   6   3   1   32.89    2.36
   6   3   1   38.91    3.74
   6   4  -2   51.23    4.10
   6   4  -1   49.49    4.21
   6   4   0   39.11    3.49
   6   5  -1  137.32    9.44
   7  -3  -2   15.49    2.17
   7  -3  -1    3.91    1.30
   7  -3   0   14.98    1.48
   7  -2  -2   12.08    2.03
   7  -2  -1   11.50    1.80
   7  -2   0   26.29    2.10
   7  -2   0   26.24    2.00
   7  -1  -1   26.12    2.17
   7  -1   0   11.02    1.44
   7   0  -1   25.78    2.03
   7   1  -1   57.91    2.92
   0   0   0    0.00    0.00


TITL exp_623 in P1
REM P1 (#1 in standard setting)
CELL 1.54184   6.045054   8.302894   9.286679 107.4355 107.4205  90.5167
ZERR    2.00   0.000526   0.000434   0.000478   0.0047   0.0065   0.0056
LATT -1
SFAC C H N O
UNIT 22.00 20.00 2.00 2.00
TREF
HKLF 4
END
_computing_structure_solution     'SHELXT 2014/5 (Sheldrick, 2014)'
;
_shelx_hkl_checksum              22581
_olex2_submission_special_instructions 'No special instructions were received'
_oxdiff_exptl_absorpt_empirical_details
;
Empirical correction (ABSPACK) includes:
- Absorption correction using spherical harmonics
- Frame scaling
;
_oxdiff_exptl_absorpt_empirical_full_max 7.101
_oxdiff_exptl_absorpt_empirical_full_min 0.187
loop_
_space_group_symop_operation_xyz
'x, y, z'
loop_
_atom_site_label
_atom_site_type_symbol
_atom_site_fract_x
_atom_site_fract_y
_atom_site_fract_z
_atom_site_U_iso_or_equiv
_atom_site_adp_type
_atom_site_occupancy
_atom_site_site_symmetry_order
_atom_site_calc_flag
_atom_site_refinement_flags_posn
_atom_site_refinement_flags_adp
_atom_site_refinement_flags_occupancy
_atom_site_disorder_assembly
_atom_site_disorder_group
S1 S 0.66998(13) 0.59659(10) 0.34642(10) 0.0199(4) Uani 1 1 d . . . . .
O1 O 0.9088(7) 0.5675(5) 0.3760(4) 0.0255(9) Uani 1 1 d . . . . .
O2 O 0.5731(8) 0.6984(5) 0.2485(5) 0.0266(9) Uani 1 1 d . . . . .
N1 N 0.6342(8) 0.6918(5) 0.5185(5) 0.0211(10) Uani 1 1 d . . . . .
C1 C 0.3703(10) 0.7867(7) 0.6724(6) 0.0223(11) Uani 1 1 d . . . . .
H1 H 0.206566 0.742876 0.643740 0.027 Uiso 1 1 calc R . . . .
C2 C 0.4237(11) 0.9738(7) 0.7835(7) 0.0250(13) Uani 1 1 d . . . . .
H2 H 0.445962 0.987836 0.895741 0.030 Uiso 1 1 calc R . . . .
C3 C 0.2366(13) 1.0760(9) 0.7097(8) 0.0352(16) Uani 1 1 d . . . . .
H3A H 0.244273 1.188469 0.783508 0.042 Uiso 1 1 calc R . . . .
H3B H 0.081408 1.017991 0.678407 0.042 Uiso 1 1 calc R . . . .
C4 C 0.3008(12) 1.0855(8) 0.5625(8) 0.0329(15) Uani 1 1 d . . . . .
H4A H 0.175129 1.030838 0.464730 0.039 Uiso 1 1 calc R . . . .
H4B H 0.336014 1.202290 0.569429 0.039 Uiso 1 1 calc R . . . .
C5 C 0.5195(11) 0.9886(7) 0.5709(7) 0.0248(12) Uani 1 1 d . . . . .
H5 H 0.618693 1.014292 0.512483 0.030 Uiso 1 1 calc R . . . .
C6 C 0.4361(9) 0.7987(7) 0.5264(6) 0.0204(12) Uani 1 1 d . . . . .
H6 H 0.303565 0.760044 0.428060 0.024 Uiso 1 1 calc R . . . .
C7 C 0.6840(10) 0.6184(6) 0.6453(6) 0.0205(11) Uani 1 1 d . . . . .
C8 C 0.8603(11) 0.5194(7) 0.6847(6) 0.0238(12) Uani 1 1 d . . . . .
H8 H 0.960444 0.487177 0.624613 0.029 Uiso 1 1 calc R . . . .
C9 C 0.8815(11) 0.4697(7) 0.8196(7) 0.0253(12) Uani 1 1 d . . . . .
H9 H 0.997326 0.402024 0.848863 0.030 Uiso 1 1 calc R . . . .
C10 C 0.7352(12) 0.5187(7) 0.9093(7) 0.0262(13) Uani 1 1 d . . . . .
H10 H 0.753361 0.484207 0.998244 0.031 Uiso 1 1 calc R . . . .
C11 C 0.5594(11) 0.6200(7) 0.8679(7) 0.0240(12) Uani 1 1 d . . . . .
H11 H 0.460054 0.653133 0.928409 0.029 Uiso 1 1 calc R . . . .
C12 C 0.5354(10) 0.6703(6) 0.7347(6) 0.0203(12) Uani 1 1 d . . . . .
C13 C 0.6356(11) 1.0354(7) 0.7513(7) 0.0261(12) Uani 1 1 d . . . . .
H13A H 0.767943 0.972933 0.779587 0.031 Uiso 1 1 calc R . . . .
H13B H 0.680727 1.156371 0.802415 0.031 Uiso 1 1 calc R . . . .
C14 C 0.5036(11) 0.3964(7) 0.2676(6) 0.0214(12) Uani 1 1 d . . . . .
C15 C 0.6137(10) 0.2518(7) 0.2807(6) 0.0236(12) Uani 1 1 d . . . . .
H15 H 0.774063 0.259605 0.328288 0.028 Uiso 1 1 calc R . . . .
C16 C 0.4774(11) 0.0956(7) 0.2208(6) 0.0244(12) Uani 1 1 d . . . . .
H16 H 0.548834 -0.001720 0.227941 0.029 Uiso 1 1 calc R . . . .
C17 C 0.2374(11) 0.0821(7) 0.1507(6) 0.0237(13) Uani 1 1 d . . . . .
C18 C 0.1327(11) 0.2289(8) 0.1401(7) 0.0278(13) Uani 1 1 d . . . . .
H18 H -0.028047 0.221833 0.094275 0.033 Uiso 1 1 calc R . . . .
C19 C 0.2652(10) 0.3850(7) 0.1970(6) 0.0229(12) Uani 1 1 d . . . . .
H19 H 0.194019 0.481879 0.187679 0.027 Uiso 1 1 calc R . . . .
C20 C 0.0931(13) -0.0880(8) 0.0887(8) 0.0335(15) Uani 1 1 d . . . . .
H20A H 0.054532 -0.130733 -0.025002 0.050 Uiso 1 1 calc GR . . . .
H20B H -0.047593 -0.075363 0.116873 0.050 Uiso 1 1 calc GR . . . .
H20C H 0.180669 -0.166237 0.134731 0.050 Uiso 1 1 calc GR . . . .
loop_
_atom_site_aniso_label
_atom_site_aniso_U_11
_atom_site_aniso_U_22
_atom_site_aniso_U_33
_atom_site_aniso_U_23
_atom_site_aniso_U_13
_atom_site_aniso_U_12
S1 0.0203(7) 0.0179(6) 0.0182(6) -0.0002(4) 0.0076(4) -0.0023(4)
O1 0.023(2) 0.023(2) 0.025(2) -0.0027(16) 0.0098(16) -0.0051(16)
O2 0.033(2) 0.0203(19) 0.023(2) -0.0008(15) 0.0109(17) 0.0018(16)
N1 0.022(3) 0.017(2) 0.021(2) 0.0026(17) 0.0031(18) 0.0010(18)
C1 0.017(3) 0.024(3) 0.020(3) 0.000(2) 0.006(2) -0.005(2)
C2 0.030(3) 0.023(3) 0.022(3) 0.000(2) 0.014(2) 0.006(2)
C3 0.040(4) 0.038(3) 0.036(3) 0.014(3) 0.022(3) 0.019(3)
C4 0.035(4) 0.033(3) 0.036(3) 0.013(3) 0.016(3) 0.018(3)
C5 0.026(3) 0.023(3) 0.028(3) 0.006(2) 0.015(2) 0.003(2)
C6 0.014(3) 0.022(3) 0.020(3) -0.001(2) 0.005(2) -0.001(2)
C7 0.026(3) 0.017(2) 0.014(2) -0.001(2) 0.006(2) -0.005(2)
C8 0.026(3) 0.022(3) 0.020(3) -0.001(2) 0.009(2) 0.001(2)
C9 0.028(3) 0.020(3) 0.024(3) 0.004(2) 0.005(2) 0.003(2)
C10 0.032(4) 0.020(3) 0.022(3) 0.002(2) 0.007(2) -0.004(2)
C11 0.025(3) 0.023(3) 0.021(3) 0.001(2) 0.010(2) -0.005(2)
C12 0.018(3) 0.016(2) 0.020(2) -0.0056(19) 0.007(2) -0.006(2)
C13 0.028(3) 0.020(3) 0.027(3) 0.001(2) 0.009(2) -0.003(2)
C14 0.024(3) 0.019(3) 0.018(2) -0.0009(19) 0.009(2) -0.002(2)
C15 0.020(3) 0.029(3) 0.020(3) 0.005(2) 0.007(2) 0.003(2)
C16 0.030(3) 0.018(3) 0.022(3) 0.001(2) 0.008(2) 0.004(2)
C17 0.029(3) 0.020(3) 0.017(3) 0.000(2) 0.006(2) -0.005(2)
C18 0.020(3) 0.030(3) 0.024(3) -0.001(2) 0.004(2) -0.004(2)
C19 0.021(3) 0.021(3) 0.019(2) -0.001(2) 0.002(2) 0.000(2)
C20 0.034(4) 0.026(3) 0.033(3) 0.003(2) 0.008(3) -0.010(3)
loop_
_atom_type_symbol
_atom_type_description
_atom_type_scat_dispersion_real
_atom_type_scat_dispersion_imag
_atom_type_scat_source
C C 0.0181 0.0091 'International Tables Vol C Tables 4.2.6.8 and 6.1.1.4'
H H 0.0000 0.0000 'International Tables Vol C Tables 4.2.6.8 and 6.1.1.4'
N N 0.0311 0.0180 'International Tables Vol C Tables 4.2.6.8 and 6.1.1.4'
O O 0.0492 0.0322 'International Tables Vol C Tables 4.2.6.8 and 6.1.1.4'
S S 0.3331 0.5567 'International Tables Vol C Tables 4.2.6.8 and 6.1.1.4'
loop_
_geom_angle_atom_site_label_1
_geom_angle_atom_site_label_2
_geom_angle_atom_site_label_3
_geom_angle
_geom_angle_site_symmetry_1
_geom_angle_site_symmetry_3
_geom_angle_publ_flag
O1 S1 O2 119.7(3) . . ?
O1 S1 N1 107.4(2) . . ?
O1 S1 C14 107.4(2) . . ?
O2 S1 N1 105.4(2) . . ?
O2 S1 C14 109.1(3) . . ?
N1 S1 C14 107.3(2) . . ?
C6 N1 S1 119.8(4) . . ?
C7 N1 S1 122.8(4) . . ?
C7 N1 C6 109.1(4) . . ?
C2 C1 H1 112.3 . . ?
C6 C1 H1 112.3 . . ?
C6 C1 C2 102.3(4) . . ?
C12 C1 H1 112.3 . . ?
C12 C1 C2 113.4(4) . . ?
C12 C1 C6 103.7(5) . . ?
C1 C2 H2 114.6 . . ?
C3 C2 C1 107.8(5) . . ?
C3 C2 H2 114.6 . . ?
C13 C2 C1 102.1(4) . . ?
C13 C2 H2 114.6 . . ?
C13 C2 C3 101.7(5) . . ?
C2 C3 H3A 111.1 . . ?
C2 C3 H3B 111.1 . . ?
C2 C3 C4 103.1(5) . . ?
H3A C3 H3B 109.1 . . ?
C4 C3 H3A 111.1 . . ?
C4 C3 H3B 111.1 . . ?
C3 C4 H4A 111.1 . . ?
C3 C4 H4B 111.1 . . ?
H4A C4 H4B 109.1 . . ?
C5 C4 C3 103.1(5) . . ?
C5 C4 H4A 111.1 . . ?
C5 C4 H4B 111.1 . . ?
C4 C5 H5 115.2 . . ?
C6 C5 C4 107.0(5) . . ?
C6 C5 H5 115.2 . . ?
C13 C5 C4 101.2(5) . . ?
C13 C5 H5 115.2 . . ?
C13 C5 C6 101.4(4) . . ?
N1 C6 C1 105.6(4) . . ?
N1 C6 C5 111.0(4) . . ?
N1 C6 H6 112.0 . . ?
C1 C6 H6 112.0 . . ?
C5 C6 C1 103.9(4) . . ?
C5 C6 H6 112.0 . . ?
C8 C7 N1 127.5(5) . . ?
C8 C7 C12 122.4(5) . . ?
C12 C7 N1 109.9(5) . . ?
C7 C8 H8 121.5 . . ?
C7 C8 C9 117.0(6) . . ?
C9 C8 H8 121.5 . . ?
C8 C9 H9 119.2 . . ?
C10 C9 C8 121.5(6) . . ?
C10 C9 H9 119.2 . . ?
C9 C10 H10 119.8 . . ?
C9 C10 C11 120.5(6) . . ?
C11 C10 H10 119.8 . . ?
C10 C11 H11 120.6 . . ?
C12 C11 C10 118.9(6) . . ?
C12 C11 H11 120.6 . . ?
C7 C12 C1 111.6(5) . . ?
C7 C12 C11 119.7(5) . . ?
C11 C12 C1 128.6(5) . . ?
C2 C13 C5 95.3(5) . . ?
C2 C13 H13A 112.7 . . ?
C2 C13 H13B 112.7 . . ?
C5 C13 H13A 112.7 . . ?
C5 C13 H13B 112.7 . . ?
H13A C13 H13B 110.2 . . ?
C15 C14 S1 119.6(5) . . ?
C19 C14 S1 119.6(4) . . ?
C19 C14 C15 120.8(5) . . ?
C14 C15 H15 120.8 . . ?
C16 C15 C14 118.5(5) . . ?
C16 C15 H15 120.8 . . ?
C15 C16 H16 119.3 . . ?
C17 C16 C15 121.5(5) . . ?
C17 C16 H16 119.3 . . ?
C16 C17 C18 118.7(5) . . ?
C16 C17 C20 120.5(5) . . ?
C18 C17 C20 120.8(6) . . ?
C17 C18 H18 119.6 . . ?
C19 C18 C17 120.8(6) . . ?
C19 C18 H18 119.6 . . ?
C14 C19 C18 119.8(5) . . ?
C14 C19 H19 120.1 . . ?
C18 C19 H19 120.1 . . ?
C17 C20 H20A 109.5 . . ?
C17 C20 H20B 109.5 . . ?
C17 C20 H20C 109.5 . . ?
H20A C20 H20B 109.5 . . ?
H20A C20 H20C 109.5 . . ?
H20B C20 H20C 109.5 . . ?
loop_
_geom_bond_atom_site_label_1
_geom_bond_atom_site_label_2
_geom_bond_distance
_geom_bond_site_symmetry_2
_geom_bond_publ_flag
S1 O1 1.424(4) . ?
S1 O2 1.426(4) . ?
S1 N1 1.637(5) . ?
S1 C14 1.764(6) . ?
N1 C6 1.503(7) . ?
N1 C7 1.439(6) . ?
C1 H1 0.9800 . ?
C1 C2 1.554(7) . ?
C1 C6 1.553(8) . ?
C1 C12 1.507(8) . ?
C2 H2 0.9800 . ?
C2 C3 1.540(8) . ?
C2 C13 1.517(9) . ?
C3 H3A 0.9700 . ?
C3 H3B 0.9700 . ?
C3 C4 1.552(9) . ?
C4 H4A 0.9700 . ?
C4 H4B 0.9700 . ?
C4 C5 1.548(8) . ?
C5 H5 0.9800 . ?
C5 C6 1.543(7) . ?
C5 C13 1.534(8) . ?
C6 H6 0.9800 . ?
C7 C8 1.381(8) . ?
C7 C12 1.387(8) . ?
C8 H8 0.9300 . ?
C8 C9 1.404(9) . ?
C9 H9 0.9300 . ?
C9 C10 1.374(9) . ?
C10 H10 0.9300 . ?
C10 C11 1.396(9) . ?
C11 H11 0.9300 . ?
C11 C12 1.388(8) . ?
C13 H13A 0.9700 . ?
C13 H13B 0.9700 . ?
C14 C15 1.397(8) . ?
C14 C19 1.382(8) . ?
C15 H15 0.9300 . ?
C15 C16 1.394(8) . ?
C16 H16 0.9300 . ?
C16 C17 1.389(9) . ?
C17 C18 1.394(9) . ?
C17 C20 1.509(8) . ?
C18 H18 0.9300 . ?
C18 C19 1.386(8) . ?
C19 H19 0.9300 . ?
C20 H20A 0.9600 . ?
C20 H20B 0.9600 . ?
C20 H20C 0.9600 . ?
