#------------------------------------------------------------------------------
#$Date: 2021-01-07 06:57:43 +0200 (Thu, 07 Jan 2021) $
#$Revision: 260705 $
#$URL: file:///home/coder/svn-repositories/cod/cif/7/12/73/7127365.cif $
#------------------------------------------------------------------------------
#
# This file is available in the Crystallography Open Database (COD),
# http://www.crystallography.net/
#
# All data on this site have been placed in the public domain by the
# contributors.
#
data_7127365
loop_
_publ_author_name
'Silvestri, A. P.'
'Oakdale, J. S.'
_publ_section_title
;
 Intermolecular cyclotrimerization of haloketoalkynes and internal
 alkynes: facile access to arenes and phthalides.
;
_journal_issue                   87
_journal_name_full
'Chemical communications (Cambridge, England)'
_journal_page_first              13417
_journal_page_last               13420
_journal_paper_doi               10.1039/d0cc05706a
_journal_volume                  56
_journal_year                    2020
_chemical_formula_moiety         'C12 H11 Br2 N O4'
_chemical_formula_sum            'C12 H11 Br2 N O4'
_chemical_formula_weight         393.04
_space_group_crystal_system      triclinic
_space_group_IT_number           2
_space_group_name_Hall           '-P 1'
_space_group_name_H-M_alt        'P -1'
_atom_sites_solution_hydrogens   mixed
_atom_sites_solution_primary     direct
_audit_creation_date             2015-07-15
_audit_creation_method
;
Olex2 1.2-beta
(compiled 2015.01.26 svn.r3150 for OlexSys, GUI svn.r4998)
;
_audit_update_record
;
2020-08-21 deposited with the CCDC.	2020-10-05 downloaded from the CCDC.
;
_cell_angle_alpha                96.065(2)
_cell_angle_beta                 102.093(2)
_cell_angle_gamma                95.978(2)
_cell_formula_units_Z            2
_cell_length_a                   8.5662(6)
_cell_length_b                   8.5847(6)
_cell_length_c                   9.5341(6)
_cell_measurement_reflns_used    5083
_cell_measurement_temperature    100
_cell_measurement_theta_max      30.687
_cell_measurement_theta_min      2.41
_cell_volume                     675.95(8)
_computing_cell_refinement       'SAINT v8.34A (Bruker, 2013)'
_computing_data_collection       'APEX2 v2013.6-2 (Bruker, 2013)'
_computing_data_reduction        'SAINT v8.34A (Bruker, 2013)'
_computing_molecular_graphics    'Olex2 (Dolomanov et al., 2009)'
_computing_publication_material  'Olex2 (Dolomanov et al., 2009)'
_computing_structure_refinement  'ShelXL (Sheldrick, 2008)'
_computing_structure_solution    'XT (Sheldrick, 2008)'
_diffrn_ambient_temperature      100.0
_diffrn_detector                 'Bruker APEX CCD'
_diffrn_detector_area_resol_mean 8.0
_diffrn_detector_type            'CCD Area Detector'
_diffrn_measured_fraction_theta_full 1.000
_diffrn_measured_fraction_theta_max 0.879
_diffrn_measurement_device       'Kappa Four-Circle Diffractometer'
_diffrn_measurement_device_type  'Bruker APEX-II CCD'
_diffrn_measurement_method       '\f and \w scans'
_diffrn_radiation_monochromator  graphite
_diffrn_radiation_probe          x-ray
_diffrn_radiation_type           MoK\a
_diffrn_radiation_wavelength     0.71073
_diffrn_reflns_av_R_equivalents  0.0406
_diffrn_reflns_av_unetI/netI     0.0494
_diffrn_reflns_Laue_measured_fraction_full 1.000
_diffrn_reflns_Laue_measured_fraction_max 0.879
_diffrn_reflns_limit_h_max       12
_diffrn_reflns_limit_h_min       -12
_diffrn_reflns_limit_k_max       12
_diffrn_reflns_limit_k_min       -12
_diffrn_reflns_limit_l_max       9
_diffrn_reflns_limit_l_min       -13
_diffrn_reflns_number            11041
_diffrn_reflns_point_group_measured_fraction_full 1.000
_diffrn_reflns_point_group_measured_fraction_max 0.879
_diffrn_reflns_theta_full        25.242
_diffrn_reflns_theta_max         31.281
_diffrn_reflns_theta_min         2.406
_diffrn_source                   'sealed tube'
_diffrn_source_type              fine-focus
_diffrn_standards_number         0
_exptl_absorpt_coefficient_mu    6.005
_exptl_absorpt_correction_T_max  0.1011
_exptl_absorpt_correction_T_min  0.0535
_exptl_absorpt_correction_type   multi-scan
_exptl_absorpt_process_details
;
SADABS-2014/4 (Bruker,2014/4) was used for absorption correction.
wR2(int) was 0.1023 before and 0.0462 after correction.
The Ratio of minimum to maximum transmission is 0.5292.
The \l/2 correction factor is 0.00150.
;
_exptl_crystal_colour            colourless
_exptl_crystal_colour_primary    colourless
_exptl_crystal_density_diffrn    1.931
_exptl_crystal_description       block
_exptl_crystal_F_000             384
_exptl_crystal_size_max          0.3
_exptl_crystal_size_mid          0.3
_exptl_crystal_size_min          0.22
_refine_diff_density_max         0.653
_refine_diff_density_min         -0.517
_refine_diff_density_rms         0.110
_refine_ls_extinction_method     none
_refine_ls_goodness_of_fit_ref   1.025
_refine_ls_hydrogen_treatment    mixed
_refine_ls_matrix_type           full
_refine_ls_number_parameters     177
_refine_ls_number_reflns         3881
_refine_ls_number_restraints     0
_refine_ls_restrained_S_all      1.025
_refine_ls_R_factor_all          0.0490
_refine_ls_R_factor_gt           0.0302
_refine_ls_shift/su_max          0.000
_refine_ls_shift/su_mean         0.000
_refine_ls_structure_factor_coef Fsqd
_refine_ls_weighting_details
'w=1/[\s^2^(Fo^2^)+(0.0252P)^2^+0.2002P] where P=(Fo^2^+2Fc^2^)/3'
_refine_ls_weighting_scheme      calc
_refine_ls_wR_factor_gt          0.0625
_refine_ls_wR_factor_ref         0.0684
_reflns_Friedel_coverage         0.000
_reflns_number_gt                3026
_reflns_number_total             3881
_reflns_threshold_expression     'I > 2\s(I)'
_cod_data_source_file            d0cc05706a2.cif
_cod_data_source_block           fokin97
_cod_depositor_comments
;
The following automatic conversions were performed:

data item '_diffrn_radiation_probe' value 'X-ray' was changed to
'x-ray' in accordance with the
/home/data/users/saulius/crontab/automatic-downloads/rss-feeds/RSC/lib/dictionaries/cif_core.dic
dictionary named 'cif_core.dic' version 2.4.2 last updated on
2011-04-26.

Automatic conversion script
Id: cif_fix_values 7556 2019-12-06 15:28:31Z antanas 

 Adding full bibliography for 7127364--7127365.cif.
;
_cod_database_code               7127365
_shelxl_version_number           2014-3
_shelx_space_group_comment
;
The symmetry employed for this shelxl refinement is uniquely defined
by the following loop, which should always be used as a source of
symmetry information in preference to the above space-group names.
They are only intended as comments.
;
_olex2_refinement_description
;
1. Fixed Uiso
 At 1.2 times of:
  All C(H,H) groups
 At 1.5 times of:
  All C(H,H,H) groups, All O(H) groups
2.a Secondary CH2 refined with riding coordinates:
 C1(H1A,H1B), C8(H8A,H8B)
2.b Idealised Me refined as rotating group:
 C7(H7A,H7B,H7C), C12(H12A,H12B,H12C)
;
_shelx_res_file
;
TITL fokin97 in P-1
CELL 0.71073 8.5662 8.5847 9.5341 96.065 102.093 95.978
ZERR 2 0.0006 0.0006 0.0006 0.002 0.002 0.002
LATT 1
SFAC C H Br N O
UNIT 24 22 4 2 8

L.S. 6
PLAN  -3 0 0
TEMP -173.15
HTAB
BOND $H
CONF
fmap 2
acta
MORE -1
REM <olex2.extras>
REM <HklSrc "%.\\fokin97.hkl">
REM </olex2.extras>

WGHT    0.025200    0.200200
FVAR       0.13704
BR1   3    1.072840    0.465027    0.175918    11.00000    0.02153    0.02870 =
         0.01560    0.00951    0.00459   -0.00139
BR2   3    0.572090    0.118719    0.363074    11.00000    0.01115    0.01897 =
         0.01630    0.00161    0.00137    0.00015
O1    5    1.393709    0.369921    0.589978    11.00000    0.01381    0.02631 =
         0.01627   -0.00003   -0.00073    0.00201
H1    2    1.381892    0.436863    0.646595    11.00000   -1.50000
O2    5    0.764089    0.023378    0.661088    11.00000    0.01736    0.02487 =
         0.01609    0.00501    0.00342   -0.00175
O3    5    1.026907    0.112300    0.732704    11.00000    0.01701    0.01996 =
         0.01345    0.00555    0.00016    0.00028
O4    5    0.648164    0.440933    0.176268    11.00000    0.02413    0.02031 =
         0.01626    0.00067   -0.00240    0.00806
N1    4    0.699749    0.230982    0.036819    11.00000    0.01946    0.01930 =
         0.01112    0.00138   -0.00057    0.00490
C1    1    1.149156    0.205647    0.681989    11.00000    0.01397    0.01677 =
         0.01374    0.00229   -0.00044    0.00022
AFIX  23
H1A   2    1.237212    0.143520    0.668458    11.00000   -1.20000
H1B   2    1.195008    0.301582    0.751514    11.00000   -1.20000
AFIX   0
C2    1    1.062671    0.248839    0.539843    11.00000    0.01327    0.01457 =
         0.01090   -0.00039    0.00100    0.00371
C3    1    0.902279    0.185555    0.516492    11.00000    0.01214    0.01416 =
         0.01104    0.00278    0.00149    0.00227
C4    1    0.790217    0.205326    0.393278    11.00000    0.01002    0.01396 =
         0.01428   -0.00079    0.00164    0.00041
C5    1    0.841710    0.289883    0.291402    11.00000    0.01497    0.01531 =
         0.00990   -0.00026    0.00004    0.00355
C6    1    0.721525    0.325381    0.161589    11.00000    0.01595    0.01614 =
         0.01395    0.00381    0.00024    0.00027
C7    1    0.584143    0.263514   -0.088544    11.00000    0.02699    0.02993 =
         0.01399    0.00352   -0.00338    0.00795
AFIX 137
H7A   2    0.483923    0.191752   -0.101822    11.00000   -1.50000
H7B   2    0.628615    0.247663   -0.174921    11.00000   -1.50000
H7C   2    0.562071    0.373025   -0.073278    11.00000   -1.50000
AFIX   0
C8    1    1.295583    0.400243    0.459339    11.00000    0.01268    0.02008 =
         0.01531    0.00204    0.00175    0.00027
AFIX  23
H8A   2    1.336429    0.353168    0.376963    11.00000   -1.20000
H8B   2    1.303767    0.515818    0.457208    11.00000   -1.20000
AFIX   0
C9    1    1.119873    0.334439    0.440464    11.00000    0.01302    0.01340 =
         0.01538   -0.00130    0.00286    0.00060
C10   1    1.004515    0.351923    0.318248    11.00000    0.01734    0.01465 =
         0.01153    0.00336    0.00431    0.00164
C11   1    0.880978    0.097290    0.638613    11.00000    0.01963    0.01737 =
         0.01037    0.00002    0.00304    0.00300
C12   1    0.782007    0.092074    0.017931    11.00000    0.04163    0.02766 =
         0.01696   -0.00111    0.00107    0.01783
AFIX 137
H12A  2    0.849677    0.077710    0.110955    11.00000   -1.50000
H12B  2    0.849463    0.106861   -0.052120    11.00000   -1.50000
H12C  2    0.702070   -0.001540   -0.017713    11.00000   -1.50000
AFIX   0
HKLF 4

REM  fokin97 in P-1
REM R1 =  0.0302 for    3026 Fo > 4sig(Fo)  and  0.0490 for all    3881 data
REM    177 parameters refined using      0 restraints

END

WGHT      0.0252      0.2001

REM Instructions for potential hydrogen bonds
EQIV $1 -x+2, -y+1, -z+1
HTAB O1 O4_$1
EQIV $2 -x+2, -y, -z+1
HTAB C1 Br2_$2
HTAB C1 O4_$1
EQIV $3 -x+1, -y+1, -z
HTAB C7 O4_$3
EQIV $4 x+1, y, z
HTAB C8 Br2_$4
HTAB C12 O3_$2

REM Highest difference peak  0.653,  deepest hole -0.517,  1-sigma level  0.110
Q1    1   0.5061  0.1184  0.4196  11.00000  0.05    0.65
Q2    1   1.1352  0.4361  0.1248  11.00000  0.05    0.62
Q3    1   0.7883  0.3141  0.2416  11.00000  0.05    0.61
;
_shelx_res_checksum              61395
_shelx_hkl_file
;
  -1   0   0   22.20    1.04
   1   0   0   22.43    1.04
   1   0   0   22.92    1.04
   1   0   0   22.85    1.05
  -2   0   0   37.70    1.78
  -2   0   0   39.42    1.78
  -2   0   0   38.57    1.79
  -2   0   0   35.71    1.79
   2   0   0   37.63    1.78
   2   0   0   39.01    1.78
   2   0   0   40.61    1.78
  -3   0   0    3.74    0.38
  -3   0   0    3.41    0.35
  -3   0   0    3.82    0.37
  -3   0   0    2.91    0.35
   3   0   0    3.09    0.32
   3   0   0    3.37    0.35
   3   0   0    3.00    0.35
   3   0   0    3.49    0.19
  -4   0   0   19.35    0.98
  -4   0   0   16.65    1.01
  -4   0   0   16.70    0.97
   4   0   0   17.46    0.95
   4   0   0   17.45    0.79
  -5   0   0    0.48    0.29
  -5   0   0    0.68    0.37
  -5   0   0    1.26    0.42
   5   0   0    0.64    0.32
  -6   0   0   88.66    4.12
  -6   0   0   87.74    4.13
   6   0   0   85.46    4.04
  -7   0   0    1.86    0.54
  -7   0   0    2.19    0.57
   7   0   0    3.33    0.50
  -8   0   0   33.03    1.84
  -8   0   0   32.68    1.87
   8   0   0   31.43    1.73
  -9   0   0    0.59    0.62
  -9   0   0   -0.49    0.61
   9   0   0    0.45    0.46
 -10   0   0    0.14    0.71
 -11   0   0    0.35    0.77
 -11   1   0    0.16    0.63
 -11   1   0    1.34    0.84
 -10   1   0   10.63    1.06
 -10   1   0    8.21    0.99
   9  -1   0   38.34    2.11
  -9   1   0   42.40    2.27
   8  -1   0   -0.20    0.38
  -8   1   0    0.61    0.45
   7  -1   0   44.96    2.30
  -7   1   0   47.63    2.45
   6  -1   0    5.61    0.58
  -6   1   0    5.90    0.61
  -6   1   0    5.34    0.66
   5  -1   0   24.43    1.26
   5  -1   0   22.79    1.04
  -5   1   0   23.53    1.33
  -5   1   0   22.57    1.28
   4  -1   0  110.31    4.83
   4  -1   0  106.72    4.70
  -4   1   0   99.39    4.86
  -4   1   0  110.10    4.86
  -4   1   0  106.17    4.87
   3  -1   0   51.73    2.25
   3  -1   0   47.28    2.28
   3  -1   0   46.02    2.25
   3  -1   0   47.41    2.15
  -3   1   0   48.97    2.25
  -3   1   0   46.93    2.27
   2  -1   0   25.13    1.13
   2  -1   0   24.22    1.16
   2  -1   0   22.77    1.13
   2  -1   0   22.77    1.06
  -2   1   0   23.66    1.06
  -2   1   0   22.44    1.16
  -2   1   0   22.45    1.10
  -2   1   0   21.55    1.12
   1  -1   0  225.50    9.40
   1  -1   0  210.01    9.40
   1  -1   0  203.98    9.42
   1  -1   0  232.14    9.40
  -1   1   0  201.24    9.40
  -1   1   0  218.19    9.40
  -1   1   0  218.92    9.40
  -1   1   0  198.98    9.42
   0  -1   0    3.60    0.18
   0  -1   0    3.54    0.20
   0   1   0    3.48    0.20
   0   1   0    3.34    0.22
   0   1   0    3.64    0.18
  -1  -1   0    6.03    0.34
  -1  -1   0    5.52    0.32
  -1  -1   0    5.18    0.31
  -1  -1   0    5.52    0.32
   1   1   0    5.98    0.32
   1   1   0    6.05    0.32
   1   1   0    6.07    0.32
   1   1   0    6.15    0.32
  -2  -1   0   79.94    3.55
  -2  -1   0   80.09    3.58
  -2  -1   0   79.58    3.58
  -2  -1   0   77.81    3.60
  -2  -1   0   80.02    3.60
   2   1   0   83.83    3.61
   2   1   0   75.51    3.57
   2   1   0   81.71    3.55
   2   1   0   80.73    3.58
  -3  -1   0   32.13    1.65
  -3  -1   0   33.86    1.65
  -3  -1   0   32.25    1.64
  -3  -1   0   35.78    1.66
   3   1   0   34.28    1.57
   3   1   0   35.01    1.64
   3   1   0   37.67    1.64
  -4  -1   0   12.43    0.77
  -4  -1   0   12.70    0.76
  -4  -1   0   12.35    0.81
   4   1   0   13.46    0.78
   4   1   0   12.57    0.62
  -5  -1   0   70.80    3.45
  -5  -1   0   74.10    3.46
  -5  -1   0   75.46    3.51
   5   1   0   72.15    3.26
   5   1   0   74.53    3.41
  -6  -1   0    7.69    0.76
  -6  -1   0   10.24    0.85
   6   1   0    9.33    0.45
   6   1   0    9.32    0.75
  -7  -1   0   37.29    2.05
  -7  -1   0   38.49    2.07
   7   1   0   38.01    1.96
  -8  -1   0    1.60    0.62
  -8  -1   0    0.94    0.57
   8   1   0    1.12    0.44
  -9  -1   0    2.77    0.61
  -9  -1   0    1.81    0.67
   9   1   0    2.48    0.54
 -10  -1   0    4.34    0.82
 -10  -1   0    4.66    0.89
 -11  -1   0    7.29    1.10
 -11   2   0    4.94    0.89
 -11   2   0    8.43    1.17
  10  -2   0   11.89    1.02
 -10   2   0   11.30    1.25
 -10   2   0   11.68    1.14
   9  -2   0   20.01    1.32
  -9   2   0   20.66    1.56
  -9   2   0   21.17    1.48
   8  -2   0    3.95    0.60
  -8   2   0    4.37    0.76
  -8   2   0    5.22    0.74
   7  -2   0    4.33    0.57
  -7   2   0    4.95    0.74
  -7   2   0    5.55    0.69
   6  -2   0    4.41    0.54
   6  -2   0    4.32    0.28
  -6   2   0    4.28    0.55
  -6   2   0    4.07    0.63
   5  -2   0   61.21    2.83
   5  -2   0   61.98    2.69
  -5   2   0   58.56    2.89
  -5   2   0   56.80    2.89
   4  -2   0   21.41    1.14
   4  -2   0   22.11    1.05
  -4   2   0   20.12    1.20
  -4   2   0   23.61    1.19
  -4   2   0   22.44    1.22
   3  -2   0   60.86    2.84
   3  -2   0   59.64    2.78
   3  -2   0   59.84    2.73
  -3   2   0   61.69    2.74
  -3   2   0   56.12    2.85
  -3   2   0   60.00    2.79
  -3   2   0   64.72    2.82
   2  -2   0   28.35    1.33
   2  -2   0   26.48    1.35
   2  -2   0   28.98    1.36
   2  -2   0   30.79    1.39
  -2   2   0   27.24    1.34
  -2   2   0   27.44    1.40
  -2   2   0   28.33    1.37
  -2   2   0   28.79    1.34
   1  -2   0   31.25    1.50
   1  -2   0   32.96    1.52
   1  -2   0   32.18    1.50
   1  -2   0   33.79    1.52
  -1   2   0   29.93    1.51
  -1   2   0   33.85    1.50
  -1   2   0   31.43    1.49
  -1   2   0   32.90    1.51
   0  -2   0    8.73    0.46
   0  -2   0    8.22    0.41
   0  -2   0    7.59    0.45
   0  -2   0    8.12    0.47
   0   2   0    9.40    0.47
   0   2   0    7.54    0.44
   0   2   0    9.17    0.42
   0   2   0    8.20    0.49
  -1  -2   0  156.74    6.96
  -1  -2   0  152.59    6.96
  -1  -2   0  153.37    6.96
  -1  -2   0  155.78    6.98
   1   2   0  171.09    6.99
   1   2   0  156.72    6.96
   1   2   0  162.81    6.96
   1   2   0  151.15    6.96
  -2  -2   0    1.16    0.20
  -2  -2   0    1.04    0.19
  -2  -2   0    0.87    0.19
  -2  -2   0    0.89    0.21
   2   2   0    1.07    0.17
   2   2   0    1.13    0.19
   2   2   0    0.60    0.17
   2   2   0    0.76    0.22
  -3  -2   0  168.79    7.47
  -3  -2   0  164.80    7.50
  -3  -2   0  172.93    7.49
  -3  -2   0  164.90    7.47
  -3  -2   0  167.68    7.44
   3   2   0  171.88    7.47
   3   2   0  165.62    7.44
   3   2   0  166.49    7.50
  -4  -2   0   18.81    1.09
  -4  -2   0   18.35    1.07
  -4  -2   0   22.76    1.08
  -4  -2   0   19.03    0.98
   4   2   0   19.34    0.97
   4   2   0   19.89    1.05
  -5  -2   0   12.06    0.91
  -5  -2   0   12.49    0.90
   5   2   0   14.13    0.72
   5   2   0   15.34    0.89
  -6  -2   0   33.82    1.86
  -6  -2   0   33.63    1.86
   6   2   0   32.41    1.78
   6   2   0   37.68    1.63
  -7  -2   0   38.17    2.01
  -7  -2   0   34.27    1.97
   7   2   0   37.07    1.91
  -8  -2   0    3.53    0.69
  -8  -2   0    2.24    0.63
   8   2   0    2.64    0.53
  -9  -2   0   25.28    1.72
  -9  -2   0   26.63    1.70
 -10  -2   0    2.41    0.80
 -10  -2   0    3.91    0.80
 -11  -2   0    2.16    0.98
 -11   3   0    4.71    1.03
 -11   3   0    4.81    0.88
  10  -3   0    8.08    0.85
 -10   3   0    8.53    1.01
 -10   3   0    6.81    0.95
   9  -3   0    0.23    0.47
  -9   3   0    0.49    0.56
  -9   3   0    1.27    0.76
   8  -3   0   20.66    1.33
  -8   3   0   20.21    1.54
  -8   3   0   22.37    1.46
   7  -3   0    3.87    0.34
   7  -3   0    3.64    0.56
  -7   3   0    3.57    0.73
  -7   3   0    4.30    0.59
   6  -3   0   52.44    2.36
   6  -3   0   47.77    2.50
  -6   3   0   54.91    2.61
  -6   3   0   50.07    2.61
   5  -3   0    0.58    0.35
   5  -3   0    1.19    0.24
  -5   3   0    0.80    0.38
  -5   3   0    1.17    0.41
   4  -3   0  123.20    5.41
   4  -3   0  119.56    5.48
  -4   3   0  118.29    5.55
  -4   3   0  127.03    5.43
  -4   3   0  115.62    5.49
   3  -3   0    0.90    0.24
   3  -3   0    0.54    0.28
  -3   3   0    0.89    0.25
  -3   3   0    1.15    0.26
  -3   3   0    0.60    0.30
  -3   3   0    1.03    0.29
   2  -3   0    5.02    0.43
   2  -3   0    4.65    0.43
   2  -3   0    4.51    0.41
   2  -3   0    6.47    0.45
  -2   3   0    5.42    0.42
  -2   3   0    4.96    0.45
  -2   3   0    4.94    0.38
  -2   3   0    5.67    0.50
   1  -3   0    4.76    0.34
   1  -3   0    4.94    0.41
   1  -3   0    4.59    0.39
   1  -3   0    4.31    0.42
  -1   3   0    4.78    0.37
  -1   3   0    4.08    0.39
  -1   3   0    4.51    0.28
  -1   3   0    4.13    0.32
   0  -3   0   67.95    3.21
   0  -3   0   69.72    3.16
   0  -3   0   70.97    3.25
   0  -3   0   73.90    3.22
   0   3   0   75.00    3.21
   0   3   0   70.67    3.17
   0   3   0   71.95    3.25
   0   3   0   68.95    3.19
  -1  -3   0    4.55    0.35
  -1  -3   0    4.72    0.34
  -1  -3   0    4.00    0.36
  -1  -3   0    4.53    0.38
   1   3   0    5.34    0.43
   1   3   0    4.29    0.37
   1   3   0    4.27    0.35
   1   3   0    4.33    0.34
  -2  -3   0  141.22    6.15
  -2  -3   0  133.62    6.16
  -2  -3   0  138.06    6.15
  -2  -3   0  128.07    6.14
   2   3   0  136.37    6.14
   2   3   0  142.59    6.14
   2   3   0  143.57    6.17
  -3  -3   0    2.35    0.31
  -3  -3   0    2.00    0.30
  -3  -3   0    2.31    0.31
   3   3   0    2.26    0.31
   3   3   0    2.08    0.29
   3   3   0    2.70    0.36
  -4  -3   0   27.48    1.39
  -4  -3   0   25.78    1.34
  -4  -3   0   27.33    1.39
  -4  -3   0   24.33    1.41
   4   3   0   28.25    1.38
   4   3   0   27.96    1.34
  -5  -3   0    1.22    0.41
  -5  -3   0    1.52    0.30
  -5  -3   0    1.97    0.40
   5   3   0    2.61    0.32
   5   3   0    2.70    0.40
  -6  -3   0    6.73    0.68
  -6  -3   0    6.86    0.73
   6   3   0    6.52    0.63
   6   3   0    7.82    0.51
  -7  -3   0    0.77    0.49
  -7  -3   0    0.03    0.49
   7   3   0    0.08    0.39
  -8  -3   0   33.69    1.88
  -8  -3   0   29.49    1.85
   8   3   0   29.72    1.71
  -9  -3   0    0.63    0.61
  -9  -3   0   -0.25    0.45
 -10  -3   0   17.30    1.36
 -10  -3   0   18.34    1.49
 -11   4   0    8.97    1.24
  10  -4   0    0.39    0.54
 -10   4   0    0.23    0.69
 -10   4   0    0.40    0.80
   9  -4   0    3.06    0.61
  -9   4   0    3.00    0.74
  -9   4   0    1.96    0.82
   8  -4   0    0.15    0.48
  -8   4   0   -0.42    0.64
  -8   4   0    0.55    0.58
   7  -4   0   45.71    2.34
   7  -4   0   46.77    2.16
  -7   4   0   44.97    2.39
  -7   4   0   46.48    2.47
   6  -4   0    2.12    0.33
   6  -4   0    1.67    0.48
  -6   4   0    1.91    0.51
  -6   4   0    2.67    0.48
   5  -4   0   94.09    4.25
   5  -4   0   94.91    4.32
  -5   4   0   92.80    4.37
  -5   4   0   91.53    4.44
   4  -4   0    0.71    0.27
   4  -4   0    0.49    0.26
  -4   4   0    0.27    0.27
  -4   4   0    0.63    0.44
   3  -4   0    7.08    0.55
   3  -4   0    6.07    0.50
  -3   4   0    6.72    0.58
  -3   4   0    6.17    0.61
   2  -4   0   64.74    2.97
   2  -4   0   61.05    2.92
  -2   4   0   64.74    2.95
   1  -4   0   23.31    1.19
   1  -4   0   25.94    1.30
   1  -4   0   22.45    1.23
   1  -4   0   23.33    1.17
  -1   4   0   22.77    1.09
  -1   4   0   22.83    1.18
   0  -4   0   13.17    0.68
   0  -4   0   11.12    0.67
   0  -4   0   11.90    0.61
   0  -4   0   10.63    0.76
   0   4   0   12.36    0.71
   0   4   0   12.50    0.63
  -1  -4   0  124.75    5.75
  -1  -4   0  123.36    5.69
  -1  -4   0  131.72    5.70
  -1  -4   0  127.72    5.65
   1   4   0  128.32    5.69
   1   4   0  126.47    5.66
  -2  -4   0    0.29    0.26
  -2  -4   0    0.13    0.22
  -2  -4   0    0.10    0.23
  -2  -4   0    0.18    0.22
   2   4   0    0.03    0.22
   2   4   0   -0.06    0.21
  -3  -4   0   13.04    0.82
  -3  -4   0   13.89    0.82
   3   4   0   14.69    0.81
   3   4   0   12.24    0.80
  -4  -4   0    5.55    0.53
  -4  -4   0    4.49    0.48
   4   4   0    4.87    0.48
  -5  -4   0    3.69    0.53
  -5  -4   0    3.43    0.50
  -5  -4   0    2.85    0.40
   5   4   0    2.99    0.43
  -6  -4   0    1.44    0.51
  -6  -4   0    1.44    0.44
   6   4   0    0.80    0.39
  -7  -4   0   47.71    2.50
  -7  -4   0   47.53    2.48
   7   4   0   47.30    2.42
  -8  -4   0   -0.04    0.56
  -8  -4   0    0.68    0.61
  -9  -4   0   21.88    1.61
  -9  -4   0   22.56    1.60
 -10  -4   0    7.24    1.11
 -10  -4   0    6.34    1.00
  10  -5   0    0.28    0.55
 -10   5   0    0.96    0.73
 -10   5   0    0.83    0.85
   9  -5   0   17.92    1.34
  -9   5   0   18.73    1.51
  -9   5   0   19.22    1.62
   8  -5   0    9.66    0.88
  -8   5   0    9.07    1.07
  -8   5   0    6.83    0.91
   7  -5   0    5.23    0.50
   7  -5   0    4.56    0.67
  -7   5   0    4.92    0.75
  -7   5   0    5.69    0.88
   6  -5   0   15.24    0.92
   6  -5   0   14.53    1.07
  -6   5   0   12.77    1.21
  -6   5   0   15.21    1.12
   5  -5   0   14.54    1.01
   5  -5   0   14.11    0.88
  -5   5   0   14.67    1.15
  -5   5   0   13.42    1.03
   4  -5   0    8.94    0.70
   4  -5   0   10.12    0.77
  -4   5   0    8.68    0.76
  -4   5   0    8.42    0.74
   3  -5   0   57.05    2.85
   3  -5   0   61.35    2.85
  -3   5   0   61.29    2.86
  -3   5   0   61.33    2.92
   2  -5   0    6.01    0.56
   2  -5   0    7.58    0.61
  -2   5   0    5.80    0.55
  -2   5   0    7.95    0.45
   1  -5   0    0.93    0.25
   1  -5   0    0.94    0.37
  -1   5   0    0.49    0.29
  -1   5   0    1.08    0.19
   0  -5   0   41.54    2.04
   0  -5   0   42.03    1.94
   0  -5   0   40.21    2.09
   0   5   0   46.21    2.06
   0   5   0   43.17    1.96
  -1  -5   0   -0.02    0.35
  -1  -5   0    0.13    0.28
  -1  -5   0    0.10    0.19
   1   5   0    0.08    0.27
   1   5   0    0.38    0.21
  -2  -5   0   73.53    3.34
  -2  -5   0   70.78    3.39
  -2  -5   0   73.90    3.45
   2   5   0   72.36    3.35
   2   5   0   75.18    3.38
  -3  -5   0   30.03    1.60
  -3  -5   0   32.38    1.60
   3   5   0   29.32    1.56
   3   5   0   32.57    1.58
  -4  -5   0    0.50    0.34
  -4  -5   0    0.59    0.42
   4   5   0    0.84    0.35
  -5  -5   0   40.94    2.07
  -5  -5   0   39.09    2.00
  -5  -5   0   41.57    2.06
   5   5   0   38.56    2.00
  -6  -5   0   16.62    1.15
  -6  -5   0   16.79    1.05
  -6  -5   0   15.72    1.20
   6   5   0   17.51    1.10
  -7  -5   0    4.86    0.73
  -7  -5   0    5.56    0.78
   7   5   0    5.44    0.67
  -8  -5   0   10.75    1.07
  -8  -5   0   11.55    1.10
  -9  -5   0    6.39    0.84
  -9  -5   0    5.98    0.91
  10  -6   0   11.25    1.11
 -10   6   0   12.67    1.29
 -10   6   0   14.93    1.34
   9  -6   0    0.27    0.58
  -9   6   0    0.29    0.84
  -9   6   0   -0.46    0.67
   8  -6   0   23.56    1.57
  -8   6   0   24.00    1.80
  -8   6   0   26.62    1.61
   7  -6   0    1.48    0.41
   7  -6   0    1.42    0.58
  -7   6   0    1.11    0.50
  -7   6   0    1.26    0.74
   6  -6   0   11.46    1.02
   6  -6   0   12.05    0.84
  -6   6   0   14.06    1.07
  -6   6   0    9.77    0.96
   5  -6   0    7.00    0.66
   5  -6   0    6.80    0.66
  -5   6   0    7.16    0.74
  -5   6   0    7.54    0.79
   4  -6   0   60.36    2.88
   4  -6   0   58.85    2.85
  -4   6   0   61.71    2.99
  -4   6   0   56.79    2.85
   3  -6   0    2.27    0.48
   3  -6   0    2.55    0.46
  -3   6   0    2.86    0.47
   2  -6   0   67.50    3.16
   2  -6   0   64.54    3.22
  -2   6   0   69.96    3.18
  -2   6   0   67.40    3.04
   1  -6   0   14.04    0.85
   1  -6   0   13.73    0.91
  -1   6   0   14.34    0.73
  -1   6   0   12.80    0.88
   0  -6   0    0.98    0.36
   0  -6   0    0.30    0.33
   0   6   0    1.03    0.34
   0   6   0    0.77    0.23
  -1  -6   0    2.68    0.30
  -1  -6   0    1.78    0.49
  -1  -6   0    2.48    0.42
   1   6   0    2.68    0.39
   1   6   0    2.45    0.32
  -2  -6   0   53.32    2.56
  -2  -6   0   54.77    2.66
   2   6   0   53.97    2.52
   2   6   0   52.16    2.55
  -3  -6   0    3.75    0.52
  -3  -6   0    4.19    0.59
   3   6   0    3.72    0.48
   3   6   0    4.34    0.50
  -4  -6   0   71.21    3.32
  -4  -6   0   72.40    3.34
   4   6   0   64.46    3.26
  -5  -6   0    0.08    0.43
  -5  -6   0   -0.11    0.47
   5   6   0    0.23    0.37
  -6  -6   0    8.78    0.79
  -6  -6   0    8.85    0.88
  -6  -6   0   10.12    0.98
   6   6   0    7.51    0.76
  -7  -6   0    1.10    0.57
  -7  -6   0    0.25    0.59
  -8  -6   0    5.59    0.88
  -8  -6   0    5.74    0.89
  -9  -6   0   -0.02    0.68
  10  -7   0   -0.25    0.64
   9  -7   0    9.24    0.90
  -9   7   0    6.88    1.02
  -9   7   0    8.06    1.06
   8  -7   0    1.95    0.67
  -8   7   0    2.99    0.66
  -8   7   0    1.18    0.83
   7  -7   0    0.16    0.39
   7  -7   0    0.62    0.57
  -7   7   0    0.80    0.58
  -7   7   0    0.18    0.55
   6  -7   0    5.38    0.66
   6  -7   0    6.71    0.77
  -6   7   0    5.79    0.93
  -6   7   0    6.43    0.80
   5  -7   0   18.96    1.26
   5  -7   0   21.37    1.35
  -5   7   0   22.68    1.38
   4  -7   0    4.60    0.58
   4  -7   0    3.69    0.52
  -4   7   0    4.32    0.55
   3  -7   0   46.84    2.52
   3  -7   0   49.78    2.49
  -3   7   0   53.14    2.32
  -3   7   0   49.04    2.47
   2  -7   0    1.89    0.48
   2  -7   0    2.37    0.47
  -2   7   0    1.87    0.45
  -2   7   0    1.74    0.28
   1  -7   0    0.50    0.32
   1  -7   0    0.17    0.49
  -1   7   0    0.50    0.22
  -1   7   0    0.50    0.38
   0  -7   0    0.85    0.40
   0  -7   0    0.12    0.49
   0   7   0    0.63    0.36
   0   7   0    0.42    0.24
  -1  -7   0   25.13    1.42
  -1  -7   0   23.09    1.51
   1   7   0   24.09    1.37
   1   7   0   26.75    1.27
  -2  -7   0    0.59    0.51
  -2  -7   0    0.29    0.39
   2   7   0   -0.04    0.36
   2   7   0    0.61    0.32
  -3  -7   0   52.67    2.49
  -3  -7   0   50.96    2.50
   3   7   0   49.55    2.42
   3   7   0   44.79    2.37
  -4  -7   0    1.42    0.54
  -4  -7   0    0.99    0.48
   4   7   0    0.59    0.41
  -5  -7   0    4.80    0.69
  -5  -7   0    5.96    0.77
   5   7   0    5.86    0.65
  -6  -7   0    0.61    0.58
  -6  -7   0   -0.28    0.53
  -6  -7   0   -0.05    0.56
  -7  -7   0    1.79    0.68
  -7  -7   0    2.37    0.71
  -8  -7   0    2.01    0.82
  -8  -7   0    2.77    0.79
  10  -8   0    2.44    0.87
   9  -8   0   -0.71    0.69
  -9   8   0   -0.24    0.89
  -9   8   0   -0.66    0.67
   8  -8   0    3.06    0.66
  -8   8   0    3.34    1.03
  -8   8   0    3.86    0.81
   7  -8   0   13.98    1.22
   7  -8   0   12.03    1.05
  -7   8   0   11.99    1.07
  -7   8   0   11.25    1.20
   6  -8   0   18.96    1.27
   6  -8   0   19.98    1.29
  -6   8   0   18.05    1.41
   5  -8   0    3.95    0.71
   5  -8   0    5.29    0.72
  -5   8   0    4.30    0.72
  -5   8   0    4.97    0.49
   4  -8   0    8.08    0.83
   4  -8   0    6.62    0.81
  -4   8   0    7.47    0.59
  -4   8   0    7.35    0.72
   3  -8   0    5.63    0.70
   3  -8   0    5.88    0.70
  -3   8   0    7.45    0.73
  -3   8   0    7.07    0.52
   2  -8   0    0.79    0.55
   2  -8   0    1.47    0.53
  -2   8   0    1.54    0.40
  -2   8   0    1.28    0.28
   1  -8   0   16.20    1.18
   1  -8   0   18.94    1.32
  -1   8   0   18.68    1.18
   0  -8   0    7.39    0.92
   0  -8   0   10.87    0.90
   0   8   0    9.66    0.64
   0   8   0   11.06    0.87
  -1  -8   0   11.27    0.95
  -1  -8   0   10.97    1.07
   1   8   0    9.74    0.68
   1   8   0    9.29    0.85
  -2  -8   0   43.54    2.30
  -2  -8   0   39.39    2.19
   2   8   0   42.62    2.04
   2   8   0   42.18    2.14
  -3  -8   0    8.68    0.84
  -3  -8   0    9.11    0.88
   3   8   0    7.80    0.74
  -4  -8   0    9.08    0.87
  -4  -8   0    7.72    0.82
   4   8   0    7.35    0.73
  -5  -8   0   13.84    1.16
  -5  -8   0   13.35    1.19
  -6  -8   0    0.72    0.63
  -6  -8   0   -0.18    0.60
  -6  -8   0    1.77    1.01
  -7  -8   0    4.39    1.19
  -7  -8   0    7.32    0.94
   9  -9   0    0.16    0.70
   8  -9   0   11.36    1.13
  -8   9   0    9.48    1.15
   7  -9   0    1.04    0.72
   7  -9   0    1.61    0.59
  -7   9   0    2.78    0.79
   6  -9   0   -0.96    0.60
   6  -9   0   -0.41    0.53
  -6   9   0   -0.35    0.59
   5  -9   0    2.39    0.65
   5  -9   0    1.65    0.53
  -5   9   0    2.03    0.64
   4  -9   0    7.36    0.91
   4  -9   0    7.29    0.85
  -4   9   0    7.99    0.84
   3  -9   0    3.09    0.56
   3  -9   0    3.07    0.72
  -3   9   0    2.95    0.59
   2  -9   0   32.24    1.92
   2  -9   0   32.91    1.82
  -2   9   0   29.06    1.73
   1  -9   0   -0.28    0.45
   1  -9   0    0.28    0.53
  -1   9   0   -0.01    0.46
   0  -9   0   28.75    1.77
   0  -9   0   29.94    1.76
   0   9   0   31.36    1.69
  -1  -9   0    3.78    0.66
  -1  -9   0    2.77    0.63
   1   9   0    2.83    0.56
  -2  -9   0    3.09    0.78
  -2  -9   0    3.39    0.63
   2   9   0    1.75    0.52
  -3  -9   0    2.37    0.66
  -3  -9   0    3.96    0.82
   3   9   0    2.77    0.57
  -4  -9   0   14.48    1.29
  -4  -9   0   13.53    1.21
  -5  -9   0   -0.08    0.68
  -5  -9   0    0.42    0.63
  -6  -9   0   13.54    1.30
   8 -10   0   -0.83    0.87
   7 -10   0    3.89    0.75
   7 -10   0    2.95    0.85
  -7  10   0    3.16    0.85
   6 -10   0   -0.45    0.59
   6 -10   0   -0.32    0.68
  -6  10   0   -1.10    0.58
   5 -10   0    2.53    0.75
   5 -10   0    2.09    0.76
  -5  10   0    2.64    0.72
   4 -10   0   -0.39    0.47
   4 -10   0    0.59    0.52
  -4  10   0    0.00    0.55
   3 -10   0   21.88    1.46
   3 -10   0   19.24    1.40
  -3  10   0   19.85    1.40
   2 -10   0    1.09    0.57
   2 -10   0    0.45    0.63
  -2  10   0    0.93    0.51
   1 -10   0   13.37    1.06
   1 -10   0   14.51    1.37
  -1  10   0   12.28    1.07
   0 -10   0   -0.09    0.56
   0 -10   0    0.75    0.72
   0  10   0   -0.04    0.49
  -1 -10   0   -0.10    0.59
  -1 -10   0   -0.14    0.73
   1  10   0    0.35    0.52
  -2 -10   0    7.07    0.88
  -2 -10   0    7.80    1.05
   2  10   0    6.48    0.76
  -3 -10   0    2.13    0.81
  -3 -10   0    0.84    0.61
  -4 -10   0   -0.01    0.63
  -4 -10   0    0.73    0.73
  -5 -10   0   15.71    1.40
   7 -11   0    0.80    0.80
   6 -11   0    0.32    0.72
  -6  11   0    0.71    0.75
   5 -11   0    0.43    0.73
   5 -11   0    0.66    0.78
  -5  11   0   -0.19    0.63
   4 -11   0    5.27    0.89
   4 -11   0    5.97    0.99
  -4  11   0    6.54    0.87
   3 -11   0    0.61    0.64
   3 -11   0    0.85    0.79
  -3  11   0   -0.04    0.61
   2 -11   0    5.66    0.88
   2 -11   0    5.06    1.01
  -2  11   0    4.30    0.66
   1 -11   0    2.76    0.72
   1 -11   0    0.56    0.71
  -1  11   0    1.09    0.61
   0 -11   0    0.60    0.71
   0 -11   0    0.11    0.84
   0  11   0    0.51    0.56
  -1 -11   0    7.08    1.13
  -1 -11   0    8.20    0.95
  -2 -11   0    0.63    0.83
  -4  12   0    1.06    0.74
  -3  12   0    1.42    0.72
  -2  12   0    1.57    0.76
   0  12  -1   -0.36    0.66
  -1  12  -1    9.14    0.99
  -2  12  -1    1.03    0.68
  -3  12  -1   -0.07    0.69
  -3 -11   1    3.35    1.04
  -2 -11   1    6.49    0.92
  -2 -11   1    6.15    1.06
   1  11  -1    1.20    0.62
  -1 -11   1    3.16    0.94
  -1 -11   1    1.43    0.74
   0  11  -1    5.26    0.80
   0 -11   1    7.85    1.12
   0 -11   1    7.57    0.95
  -1  11  -1    1.12    0.62
   1 -11   1    0.24    0.59
   1 -11   1   -1.02    0.63
  -2  11  -1    0.77    0.59
   2 -11   1    0.98    0.65
   2 -11   1    0.79    0.84
  -3  11  -1   -0.33    0.62
   3 -11   1   -0.52    0.66
   3 -11   1   -1.04    0.73
  -4  11  -1    3.61    0.79
   4 -11   1    4.15    0.80
   4 -11   1    4.16    0.93
  -5  11  -1   -0.07    0.68
   5 -11   1    0.48    0.74
   5 -11   1    0.73    0.74
   6 -11   1    5.98    1.02
   6 -11   1    7.41    0.90
  -5 -10   1    1.55    0.73
  -4 -10   1    9.47    1.10
  -4 -10   1    7.95    0.99
   3  10  -1    5.65    0.73
  -3 -10   1    6.44    0.86
  -3 -10   1    6.08    0.87
   2  10  -1    1.00    0.57
  -2 -10   1    1.23    0.68
  -2 -10   1    3.18    0.84
   1  10  -1   19.31    1.37
  -1 -10   1   20.74    1.65
  -1 -10   1   22.30    1.50
   0  10  -1    2.40    0.56
   0 -10   1    1.11    0.65
   0 -10   1    1.84    0.82
  -1  10  -1    5.59    0.68
   1 -10   1    5.50    0.81
   1 -10   1    5.00    0.78
  -2  10  -1    2.21    0.53
   2 -10   1    3.87    0.84
   2 -10   1    2.91    0.70
  -3  10  -1    4.94    0.74
   3 -10   1    4.07    0.86
   3 -10   1    3.96    0.64
  -4  10  -1   11.69    1.03
   4 -10   1    9.30    1.07
   4 -10   1   11.35    0.99
  -5  10  -1   17.45    1.23
   5 -10   1   16.35    1.35
   5 -10   1   14.78    1.37
  -6  10  -1    0.51    0.68
   6 -10   1   -0.51    0.56
   6 -10   1    0.65    0.68
  -7  10  -1    6.17    0.95
   7 -10   1    3.61    0.73
   7 -10   1    4.04    0.86
   8 -10   1    2.44    0.82
  -7  -9   1    6.00    0.88
  -6  -9   1   -0.59    0.74
  -6  -9   1   -0.97    0.55
  -5  -9   1   22.17    1.57
  -5  -9   1   23.68    1.61
   4   9  -1    2.89    0.62
  -4  -9   1    2.58    0.58
  -4  -9   1    3.43    0.78
   3   9  -1   -0.22    0.48
   3   9  -1    0.24    0.65
  -3  -9   1    0.08    0.57
  -3  -9   1    0.15    0.51
   2   9  -1   15.76    1.10
   2   9  -1   15.86    1.15
  -2  -9   1   16.88    1.26
  -2  -9   1   15.62    1.38
   1   9  -1    2.09    0.54
  -1  -9   1    1.55    0.72
  -1  -9   1    1.91    0.59
   0   9  -1    1.47    0.53
   0  -9   1    1.98    0.57
   0  -9   1    3.59    0.76
  -1   9  -1   20.98    1.34
   1  -9   1   20.98    1.50
   1  -9   1   20.03    1.37
  -2   9  -1    3.89    0.63
   2  -9   1    4.41    0.77
   2  -9   1    3.68    0.66
  -3   9  -1    8.62    0.89
   3  -9   1    9.59    0.86
   3  -9   1   11.09    1.08
  -4   9  -1    8.03    0.84
   4  -9   1    8.10    0.85
   4  -9   1    6.75    0.87
  -5   9  -1    0.11    0.57
   5  -9   1   -0.07    0.53
   5  -9   1   -0.93    0.52
  -6   9  -1    0.52    0.66
   6  -9   1    1.41    0.58
   6  -9   1    0.76    0.65
  -7   9  -1    1.03    0.72
   7  -9   1    0.54    0.68
   7  -9   1    1.55    0.57
  -8   9  -1    0.07    0.70
   8  -9   1   -0.58    0.65
  -8  -8   1    2.95    0.76
  -7  -8   1    0.53    0.60
  -7  -8   1   -0.60    0.63
  -6  -8   1   27.72    1.76
  -6  -8   1   31.08    1.86
   5   8  -1    1.87    0.56
  -5  -8   1    3.08    0.68
  -5  -8   1    3.40    0.70
   4   8  -1    3.25    0.54
   4   8  -1    3.32    0.56
  -4  -8   1    4.12    0.60
  -4  -8   1    3.38    0.71
   3   8  -1    6.72    0.70
   3   8  -1    7.04    0.67
  -3  -8   1    5.60    0.74
  -3  -8   1    7.71    0.88
   2   8  -1    3.14    0.54
   2   8  -1    2.38    0.44
  -2  -8   1    2.92    0.49
  -2  -8   1    3.20    0.60
   1   8  -1    0.38    0.32
   1   8  -1    0.49    0.43
  -1  -8   1    0.27    0.58
  -1  -8   1    0.14    0.46
   0   8  -1   44.74    2.10
   0   8  -1   42.16    2.22
   0  -8   1   40.83    2.33
   0  -8   1   46.41    2.22
  -1   8  -1    0.60    0.29
  -1   8  -1    0.38    0.46
   1  -8   1    1.34    0.45
   1  -8   1    0.89    0.49
  -2   8  -1   25.89    1.48
  -2   8  -1   24.73    1.31
   2  -8   1   25.88    1.58
   2  -8   1   25.79    1.51
  -3   8  -1   -0.40    0.26
  -3   8  -1    0.54    0.37
   3  -8   1    0.14    0.50
   3  -8   1   -0.30    0.35
  -4   8  -1    3.84    0.64
  -4   8  -1    3.97    0.46
   4  -8   1    2.95    0.63
   4  -8   1    4.04    0.65
  -5   8  -1    0.45    0.43
   5  -8   1    0.21    0.48
   5  -8   1   -0.06    0.52
  -6   8  -1   18.20    1.39
  -6   8  -1   19.28    1.38
   6  -8   1   17.51    1.22
   6  -8   1   19.05    1.34
  -7   8  -1   -0.66    0.77
  -7   8  -1   -0.32    0.62
   7  -8   1   -0.40    0.49
   7  -8   1   -0.01    0.55
  -8   8  -1   14.03    1.48
  -8   8  -1   16.67    1.46
   8  -8   1   16.13    1.33
  -9   8  -1    0.11    0.92
  -9   8  -1    1.28    0.89
   9  -8   1    0.01    0.66
  -9  -7   1    1.39    0.71
  -8  -7   1    4.41    0.85
  -8  -7   1    4.95    0.84
  -7  -7   1   25.27    1.75
  -7  -7   1   28.43    1.71
   6   7  -1    0.50    0.47
  -6  -7   1   -0.15    0.55
  -6  -7   1    0.17    0.50
   5   7  -1   14.70    1.11
   5   7  -1   17.46    1.13
  -5  -7   1   16.01    1.21
  -5  -7   1   17.68    1.20
   4   7  -1   16.28    1.12
   4   7  -1   15.59    1.08
  -4  -7   1   19.48    1.22
  -4  -7   1   17.87    1.21
   3   7  -1    0.26    0.38
   3   7  -1    0.55    0.38
  -3  -7   1    0.37    0.39
  -3  -7   1    0.16    0.44
   2   7  -1    0.59    0.35
   2   7  -1    0.26    0.38
  -2  -7   1    0.03    0.50
  -2  -7   1    0.57    0.44
   1   7  -1   35.25    1.81
   1   7  -1   34.10    1.72
  -1  -7   1   34.86    1.83
  -1  -7   1   35.32    1.92
   0   7  -1    3.25    0.39
   0   7  -1    2.74    0.42
   0  -7   1    2.25    0.57
   0  -7   1    3.43    0.50
  -1   7  -1   78.78    3.80
  -1   7  -1   83.16    3.70
   1  -7   1   80.77    3.86
   1  -7   1   81.91    3.81
  -2   7  -1    8.31    0.68
  -2   7  -1    8.86    0.59
   2  -7   1    7.90    0.80
   2  -7   1    8.59    0.74
  -3   7  -1   10.45    0.93
  -3   7  -1   12.06    0.77
   3  -7   1   13.29    0.99
   3  -7   1   13.59    0.96
  -4   7  -1    2.62    0.56
   4  -7   1    3.56    0.59
   4  -7   1    3.52    0.56
  -5   7  -1    4.74    0.80
  -5   7  -1    4.65    0.67
   5  -7   1    5.36    0.63
   5  -7   1    4.48    0.65
  -6   7  -1    4.66    0.87
  -6   7  -1    6.19    0.78
   6  -7   1    5.33    0.72
   6  -7   1    5.56    0.66
  -7   7  -1   17.45    1.40
  -7   7  -1   20.87    1.58
   7  -7   1   19.72    1.35
   7  -7   1   17.64    1.18
  -8   7  -1    1.41    0.72
  -8   7  -1    1.79    0.87
   8  -7   1    0.69    0.58
  -9   7  -1    7.15    1.17
  -9   7  -1    8.40    1.05
   9  -7   1    8.16    0.93
  -9  -6   1    8.16    1.05
  -8  -6   1   10.69    1.04
  -8  -6   1    9.30    1.03
   7   6  -1   -0.21    0.45
  -7  -6   1    0.81    0.58
  -7  -6   1    0.51    0.54
   6   6  -1   14.39    1.06
  -6  -6   1   15.31    1.19
  -6  -6   1   15.79    1.13
   5   6  -1   13.27    0.89
   5   6  -1   13.69    1.00
  -5  -6   1   14.66    1.00
  -5  -6   1   12.89    1.04
  -5  -6   1   12.53    0.98
   4   6  -1    7.18    0.69
   4   6  -1    7.79    0.68
  -4  -6   1    8.57    0.80
  -4  -6   1    8.11    0.70
   3   6  -1   60.28    2.91
   3   6  -1   60.09    2.93
  -3  -6   1   61.98    2.94
  -3  -6   1   63.78    3.01
   2   6  -1   11.22    0.78
   2   6  -1    9.13    0.69
  -2  -6   1   10.66    0.81
  -2  -6   1   10.50    0.79
   1   6  -1   15.04    0.98
   1   6  -1   16.42    0.93
  -1  -6   1   15.94    1.01
  -1  -6   1   17.81    1.11
   0   6  -1   76.51    3.49
   0   6  -1   73.58    3.40
   0  -6   1   73.09    3.53
   0  -6   1   75.74    3.49
  -1   6  -1    7.02    0.49
  -1   6  -1    6.15    0.54
   1  -6   1    6.39    0.61
   1  -6   1    5.72    0.57
  -2   6  -1    0.68    0.35
  -2   6  -1    0.02    0.21
   2  -6   1    0.60    0.40
   2  -6   1    0.02    0.35
  -3   6  -1   31.77    1.65
   3  -6   1   31.00    1.63
   3  -6   1   30.03    1.64
  -4   6  -1   12.49    1.04
  -4   6  -1   11.78    0.94
   4  -6   1   11.19    0.86
   4  -6   1   14.55    0.94
  -5   6  -1   13.55    1.19
  -5   6  -1   15.66    1.01
   5  -6   1   15.64    1.07
   5  -6   1   14.75    0.95
  -6   6  -1   23.30    1.43
  -6   6  -1   21.44    1.56
   6  -6   1   21.63    1.29
   6  -6   1   21.98    1.25
  -7   6  -1    0.29    0.52
  -7   6  -1   -0.78    0.54
   7  -6   1   -0.24    0.34
   7  -6   1    0.07    0.37
  -8   6  -1    1.65    0.81
  -8   6  -1    2.15    0.71
   8  -6   1    0.18    0.53
  -9   6  -1    4.29    0.84
  -9   6  -1    4.02    0.83
   9  -6   1    4.14    0.72
 -10   6  -1    0.16    0.88
 -10   6  -1    0.24    0.55
 -10  -5   1    6.43    0.96
  -9  -5   1    3.29    0.76
  -9  -5   1    3.31    0.81
   8   5  -1    1.35    0.54
  -8  -5   1    2.17    0.63
  -8  -5   1    1.18    0.62
   7   5  -1    0.45    0.46
  -7  -5   1    0.23    0.49
  -7  -5   1    0.22    0.41
   6   5  -1   11.47    0.92
  -6  -5   1   11.86    0.96
  -6  -5   1   12.60    1.01
   5   5  -1    0.11    0.42
   5   5  -1    0.62    0.38
  -5  -5   1    0.18    0.35
  -5  -5   1   -0.13    0.37
  -5  -5   1    0.21    0.40
   4   5  -1   75.70    3.67
   4   5  -1   78.08    3.65
  -4  -5   1   80.28    3.68
  -4  -5   1   79.14    3.68
   3   5  -1    2.59    0.40
   3   5  -1    2.13    0.38
  -3  -5   1    3.01    0.42
  -3  -5   1    2.67    0.47
   2   5  -1   15.35    0.90
   2   5  -1   15.69    0.93
  -2  -5   1   17.19    0.96
  -2  -5   1   15.64    0.96
   1   5  -1    4.67    0.48
   1   5  -1    6.57    0.51
  -1  -5   1    5.15    0.47
  -1  -5   1    6.07    0.43
  -1  -5   1    5.39    0.53
   0   5  -1    2.10    0.27
   0   5  -1    2.08    0.35
   0  -5   1    2.42    0.44
   0  -5   1    2.16    0.35
  -1   5  -1    0.10    0.20
  -1   5  -1    0.58    0.23
   1  -5   1    0.67    0.35
   1  -5   1    0.50    0.27
  -2   5  -1  130.17    5.42
  -2   5  -1  116.93    5.47
   2  -5   1  112.15    5.49
   2  -5   1  123.86    5.47
  -3   5  -1    0.30    0.29
  -3   5  -1    0.66    0.34
   3  -5   1    0.33    0.32
   3  -5   1    0.37    0.32
  -4   5  -1   15.42    1.09
  -4   5  -1   13.86    0.90
   4  -5   1   13.67    0.91
   4  -5   1   15.97    0.96
  -5   5  -1   21.03    1.30
  -5   5  -1   20.24    1.39
   5  -5   1   21.32    1.13
   5  -5   1   20.68    1.24
  -6   5  -1    2.89    0.70
  -6   5  -1    2.72    0.59
   6  -5   1    2.36    0.38
   6  -5   1    1.98    0.48
  -7   5  -1    9.00    1.03
  -7   5  -1    8.48    0.90
   7  -5   1    7.90    0.63
   7  -5   1    8.41    0.78
  -8   5  -1   21.14    1.64
  -8   5  -1   21.00    1.51
   8  -5   1   20.98    1.37
  -9   5  -1   -0.46    0.61
  -9   5  -1   -0.13    0.57
   9  -5   1    0.42    0.54
 -10   5  -1   22.46    1.87
 -10   5  -1   23.30    1.71
 -10  -4   1    1.72    0.73
 -10  -4   1    0.38    0.70
  -9  -4   1    5.14    0.88
  -9  -4   1    5.90    0.86
   8   4  -1    2.34    0.57
  -8  -4   1    3.18    0.68
  -8  -4   1    3.38    0.66
   7   4  -1   33.61    1.80
  -7  -4   1   30.75    1.79
  -7  -4   1   33.62    1.84
   6   4  -1   -0.04    0.37
  -6  -4   1    0.39    0.42
  -6  -4   1    0.44    0.42
   5   4  -1   97.40    4.65
   5   4  -1   99.04    4.61
  -5  -4   1  101.45    4.63
  -5  -4   1  102.85    4.65
   4   4  -1    2.02    0.36
   4   4  -1    1.76    0.42
  -4  -4   1    1.34    0.36
  -4  -4   1    1.70    0.39
  -4  -4   1    2.73    0.39
   3   4  -1   59.46    2.93
   3   4  -1   62.94    2.92
  -3  -4   1   65.47    2.95
  -3  -4   1   63.16    2.94
   2   4  -1   12.08    0.71
   2   4  -1   11.20    0.70
  -2  -4   1   11.94    0.68
  -2  -4   1   10.48    0.71
  -2  -4   1   10.12    0.75
   1   4  -1    6.84    0.51
   1   4  -1    5.80    0.44
  -1  -4   1    5.69    0.51
  -1  -4   1    6.24    0.56
  -1  -4   1    5.54    0.49
  -1  -4   1    5.66    0.42
   0   4  -1   15.60    0.77
   0   4  -1   15.49    0.84
   0  -4   1   14.50    0.80
   0  -4   1   14.98    0.88
   0  -4   1   13.82    0.88
   0  -4   1   15.20    0.76
  -1   4  -1  157.17    7.33
  -1   4  -1  163.62    7.29
   1  -4   1  157.28    7.32
   1  -4   1  185.46    7.37
   1  -4   1  159.10    7.37
  -2   4  -1    0.68    0.29
  -2   4  -1    1.10    0.26
   2  -4   1    1.22    0.29
   2  -4   1    1.16    0.26
  -3   4  -1   98.09    4.63
  -3   4  -1  100.17    4.67
   3  -4   1  105.58    4.62
   3  -4   1  102.23    4.61
  -4   4  -1    4.71    0.57
  -4   4  -1    4.35    0.47
  -4   4  -1    5.12    0.53
   4  -4   1    4.91    0.50
   4  -4   1    4.52    0.45
  -5   4  -1   29.16    1.61
  -5   4  -1   29.84    1.45
  -5   4  -1   29.88    1.66
   5  -4   1   28.30    1.44
   5  -4   1   28.77    1.54
  -6   4  -1    8.27    0.91
  -6   4  -1    8.83    0.79
   6  -4   1    7.93    0.71
   6  -4   1    8.52    0.59
  -7   4  -1   82.24    3.82
  -7   4  -1   79.29    3.88
   7  -4   1   73.85    3.69
  -8   4  -1    0.12    0.51
  -8   4  -1   -0.75    0.53
   8  -4   1    0.50    0.46
  -9   4  -1   24.14    1.62
  -9   4  -1   20.96    1.59
   9  -4   1   23.04    1.43
 -10   4  -1    1.01    0.88
 -10   4  -1   -0.66    0.64
 -11  -3   1    5.57    0.98
 -10  -3   1    3.71    0.80
 -10  -3   1    4.99    0.88
   9   3  -1   20.94    1.38
  -9  -3   1   21.75    1.50
  -9  -3   1   19.43    1.54
   8   3  -1   16.28    1.16
  -8  -3   1   16.24    1.28
  -8  -3   1   16.06    1.23
   7   3  -1   12.34    0.96
  -7  -3   1   12.64    1.01
  -7  -3   1   13.13    1.10
   6   3  -1   22.26    1.33
  -6  -3   1   24.01    1.37
  -6  -3   1   23.68    1.40
   5   3  -1    4.13    0.57
   5   3  -1    4.72    0.51
  -5  -3   1    5.70    0.56
  -5  -3   1    5.23    0.54
   4   3  -1   78.46    3.33
   4   3  -1   68.40    3.35
   4   3  -1   75.71    3.33
  -4  -3   1   68.51    3.34
  -4  -3   1   69.10    3.35
   3   3  -1   80.05    3.73
   3   3  -1   87.20    3.72
   3   3  -1   83.58    3.72
  -3  -3   1   79.78    3.71
  -3  -3   1   80.94    3.72
  -3  -3   1   77.66    3.72
   2   3  -1   -0.26    0.21
   2   3  -1   -0.07    0.21
   2   3  -1   -0.08    0.22
  -2  -3   1   -0.08    0.14
  -2  -3   1    0.09    0.17
  -2  -3   1    0.25    0.22
  -2  -3   1    0.32    0.21
   1   3  -1   54.39    2.52
   1   3  -1   55.81    2.51
   1   3  -1   58.77    2.56
   1   3  -1   53.53    2.51
  -1  -3   1   55.31    2.50
  -1  -3   1   54.71    2.52
  -1  -3   1   54.15    2.56
  -1  -3   1   53.69    2.52
   0   3  -1   41.88    1.88
   0   3  -1   40.61    1.93
   0   3  -1   42.11    1.91
   0   3  -1   40.43    1.89
   0  -3   1   41.69    1.90
   0  -3   1   40.68    1.94
   0  -3   1   40.25    1.89
   0  -3   1   40.32    1.87
  -1   3  -1   35.33    1.64
  -1   3  -1   31.22    1.63
  -1   3  -1   35.27    1.62
  -1   3  -1   36.46    1.64
   1  -3   1   34.20    1.63
   1  -3   1   35.93    1.65
   1  -3   1   34.81    1.65
   1  -3   1   33.77    1.63
  -2   3  -1  110.88    4.90
  -2   3  -1   98.58    4.93
  -2   3  -1  115.78    4.91
  -2   3  -1  107.69    4.90
   2  -3   1  108.10    4.89
   2  -3   1  106.62    4.90
   2  -3   1  112.24    4.90
   2  -3   1  113.00    4.94
  -3   3  -1   46.23    2.01
  -3   3  -1   38.23    2.00
  -3   3  -1   39.82    2.06
  -3   3  -1   42.50    1.96
   3  -3   1   42.09    1.99
   3  -3   1   42.37    1.96
  -4   3  -1   11.07    0.78
  -4   3  -1   11.48    0.66
  -4   3  -1   11.49    0.91
   4  -3   1   11.31    0.64
   4  -3   1   12.38    0.76
  -5   3  -1   34.59    1.53
  -5   3  -1   31.04    1.69
  -5   3  -1   29.53    1.78
   5  -3   1   34.29    1.65
   5  -3   1   30.57    1.51
  -6   3  -1   29.21    1.77
  -6   3  -1   28.74    1.67
   6  -3   1   30.14    1.41
   6  -3   1   32.02    1.61
  -7   3  -1    6.68    0.68
  -7   3  -1    5.42    0.82
   7  -3   1    4.64    0.59
  -8   3  -1   23.61    1.56
  -8   3  -1   24.71    1.70
   8  -3   1   24.82    1.44
  -9   3  -1    1.47    0.77
  -9   3  -1    1.27    0.60
   9  -3   1    0.08    0.48
 -10   3  -1   12.44    1.33
 -10   3  -1   11.23    1.13
 -11  -2   1    2.89    0.86
 -10  -2   1   21.94    1.66
 -10  -2   1   24.82    1.68
   9   2  -1    1.88    0.57
  -9  -2   1    2.31    0.55
  -9  -2   1    1.06    0.63
   8   2  -1   33.86    1.90
  -8  -2   1   37.28    2.04
  -8  -2   1   34.85    1.98
   7   2  -1    2.86    0.52
  -7  -2   1    3.94    0.61
  -7  -2   1    2.36    0.59
   6   2  -1    0.86    0.36
   6   2  -1    0.78    0.23
  -6  -2   1    0.66    0.41
  -6  -2   1    0.34    0.41
   5   2  -1   23.10    1.32
   5   2  -1   26.58    1.21
   5   2  -1   24.19    1.32
  -5  -2   1   23.92    1.32
  -5  -2   1   23.65    1.29
   4   2  -1   19.97    1.12
   4   2  -1   21.71    1.10
   4   2  -1   22.15    1.05
  -4  -2   1   19.84    1.14
  -4  -2   1   19.91    1.17
  -4  -2   1   21.24    1.10
   3   2  -1   54.37    2.52
   3   2  -1   55.03    2.54
   3   2  -1   54.54    2.56
  -3  -2   1   56.95    2.54
  -3  -2   1   55.60    2.55
  -3  -2   1   54.81    2.57
  -3  -2   1   53.44    2.54
   2   2  -1  358.30   16.06
   2   2  -1  363.22   16.06
   2   2  -1  365.60   16.07
   2   2  -1  378.74   16.06
  -2  -2   1  355.16   16.06
  -2  -2   1  386.82   16.07
  -2  -2   1  357.63   16.07
  -2  -2   1  351.43   16.05
   1   2  -1   18.35    0.92
   1   2  -1   18.07    0.89
   1   2  -1   19.87    0.91
   1   2  -1   18.78    0.91
  -1  -2   1   16.68    0.92
  -1  -2   1   19.45    0.90
  -1  -2   1   19.71    0.90
  -1  -2   1   17.75    0.90
   0   2  -1    0.55    0.15
   0   2  -1    0.47    0.14
   0   2  -1    0.39    0.13
   0   2  -1    0.34    0.10
   0  -2   1    0.47    0.15
   0  -2   1    0.45    0.13
   0  -2   1    0.45    0.14
   0  -2   1    0.32    0.12
   0  -2   1    0.44    0.13
  -1   2  -1   39.19    1.80
  -1   2  -1   39.26    1.79
  -1   2  -1   40.46    1.82
  -1   2  -1   38.28    1.80
   1  -2   1   39.86    1.82
   1  -2   1   39.46    1.81
   1  -2   1   37.71    1.79
   1  -2   1   38.48    1.80
  -2   2  -1  113.53    5.25
  -2   2  -1  109.83    5.20
  -2   2  -1  121.41    5.18
  -2   2  -1  116.66    5.19
   2  -2   1  114.67    5.17
   2  -2   1  115.61    5.20
   2  -2   1  118.93    5.24
   2  -2   1  121.14    5.19
  -3   2  -1    1.08    0.21
  -3   2  -1    0.89    0.27
  -3   2  -1    1.20    0.18
  -3   2  -1    0.92    0.25
   3  -2   1    0.99    0.20
   3  -2   1    1.15    0.18
   3  -2   1    1.66    0.28
  -4   2  -1  139.14    5.87
  -4   2  -1  122.29    5.98
  -4   2  -1  137.31    5.98
  -4   2  -1  125.41    6.04
   4  -2   1  137.64    5.96
   4  -2   1  132.24    5.86
  -5   2  -1    2.09    0.44
  -5   2  -1    1.94    0.51
   5  -2   1    2.80    0.40
  -6   2  -1   57.73    2.77
  -6   2  -1   55.51    2.85
   6  -2   1   56.14    2.70
  -7   2  -1    0.83    0.48
  -7   2  -1    0.19    0.41
   7  -2   1   -0.14    0.34
  -8   2  -1    1.07    0.54
  -8   2  -1    0.62    0.63
   8  -2   1    0.27    0.41
  -9   2  -1    1.15    0.62
  -9   2  -1    0.53    0.71
   9  -2   1    0.90    0.46
 -10   2  -1   17.93    1.61
 -10   2  -1   18.82    1.47
 -11   2  -1    1.37    0.71
 -11   2  -1    0.22    0.91
 -11  -1   1   17.82    1.58
 -11  -1   1   21.37    1.66
  10   1  -1    0.20    0.48
 -10  -1   1    0.90    0.67
 -10  -1   1    0.11    0.51
   9   1  -1   28.59    1.71
  -9  -1   1   31.50    1.84
  -9  -1   1   27.75    1.81
   8   1  -1    0.93    0.38
  -8  -1   1    0.48    0.41
  -8  -1   1    1.06    0.55
   7   1  -1    0.82    0.41
   7   1  -1    1.37    0.18
  -7  -1   1    0.39    0.47
  -7  -1   1    0.72    0.39
   6   1  -1    3.71    0.52
   6   1  -1    4.82    0.34
  -6  -1   1    3.82    0.52
  -6  -1   1    4.16    0.50
   5   1  -1   70.55    3.09
   5   1  -1   66.96    3.22
  -5  -1   1   64.74    3.22
  -5  -1   1   71.89    3.27
   4   1  -1    7.60    0.56
   4   1  -1    7.66    0.61
   4   1  -1    7.39    0.45
  -4  -1   1    9.12    0.60
  -4  -1   1    7.56    0.60
  -4  -1   1    7.53    0.59
   3   1  -1  166.86    7.42
   3   1  -1  170.42    7.43
   3   1  -1  171.43    7.44
   3   1  -1  170.36    7.38
   3   1  -1  156.87    7.43
  -3  -1   1  160.14    7.42
  -3  -1   1  163.51    7.42
  -3  -1   1  163.42    7.43
  -3  -1   1  177.18    7.45
   2   1  -1   86.60    4.04
   2   1  -1   91.63    4.03
   2   1  -1   96.10    4.04
   2   1  -1   84.58    4.04
   2   1  -1   92.37    4.02
  -2  -1   1   92.97    4.04
  -2  -1   1   87.38    4.05
  -2  -1   1   92.40    4.02
  -2  -1   1   86.27    4.03
   1   1  -1    6.28    0.34
   1   1  -1    5.65    0.35
   1   1  -1    5.75    0.33
   1   1  -1    5.89    0.33
  -1  -1   1    5.95    0.33
  -1  -1   1    5.85    0.34
  -1  -1   1    6.21    0.35
   0   1  -1    0.07    0.07
   0   1  -1    0.02    0.09
   0   1  -1   -0.03    0.08
   0   1  -1    0.09    0.11
   0   1  -1   -0.01    0.08
   0  -1   1    0.20    0.08
   0  -1   1    0.23    0.09
   0  -1   1    0.15    0.08
   0  -1   1   -0.03    0.11
   0  -1   1    0.01    0.08
  -1   1  -1   14.61    0.69
  -1   1  -1   13.70    0.68
  -1   1  -1   13.66    0.73
  -1   1  -1   13.45    0.69
   1  -1   1   14.62    0.72
   1  -1   1   13.72    0.68
   1  -1   1   14.73    0.69
   1  -1   1   15.46    0.70
  -2   1  -1    0.74    0.19
  -2   1  -1    0.52    0.10
  -2   1  -1    0.49    0.18
  -2   1  -1    0.57    0.16
   2  -1   1    0.38    0.20
   2  -1   1    0.71    0.18
   2  -1   1    0.92    0.16
  -3   1  -1  205.18    8.91
  -3   1  -1  200.47    9.01
  -3   1  -1  185.18    9.04
   3  -1   1  207.66    8.99
   3  -1   1  213.43    9.03
   3  -1   1  204.68    9.04
  -4   1  -1   -0.12    0.24
  -4   1  -1    0.09    0.33
   4  -1   1    0.05    0.23
  -5   1  -1   87.56    4.28
  -5   1  -1   93.83    4.25
   5  -1   1   93.33    4.19
  -6   1  -1    3.34    0.58
   6  -1   1    2.67    0.42
  -7   1  -1    5.42    0.76
   7  -1   1    5.51    0.57
  -8   1  -1   -0.16    0.58
   8  -1   1    0.26    0.39
  -9   1  -1   23.40    1.51
  -9   1  -1   19.73    1.59
   9  -1   1   20.27    1.29
 -10   1  -1    5.08    0.82
 -10   1  -1    4.26    0.79
 -11   1  -1   16.56    1.35
 -11   1  -1   12.59    1.57
 -11   0   1    0.72    0.77
  10   0  -1   14.21    1.18
 -10   0   1   18.08    1.45
   9   0  -1    7.14    0.76
  -9   0   1    8.62    0.93
  -9   0   1    6.69    0.81
   8   0  -1   15.94    1.12
  -8   0   1   17.48    1.17
  -8   0   1   16.58    1.28
   7   0  -1   43.25    1.89
   7   0  -1   42.77    1.89
   7   0  -1   39.84    2.14
  -7   0   1   42.53    2.24
  -7   0   1   41.08    2.18
   6   0  -1   18.18    0.89
   6   0  -1   18.98    1.13
  -6   0   1   18.02    1.10
  -6   0   1   19.00    1.20
   5   0  -1    5.99    0.56
  -5   0   1    4.73    0.54
  -5   0   1    5.42    0.58
   4   0  -1  149.60    7.11
  -4   0   1  160.33    7.12
  -4   0   1  161.26    7.13
  -4   0   1  163.57    7.15
   3   0  -1    8.48    0.60
   3   0  -1    8.17    0.54
   3   0  -1    9.23    0.61
   3   0  -1    9.49    0.56
  -3   0   1   10.05    0.56
  -3   0   1    7.98    0.64
  -3   0   1    8.98    0.59
  -3   0   1    9.59    0.56
   2   0  -1   74.10    3.32
   2   0  -1   75.79    3.33
   2   0  -1   67.51    3.33
   2   0  -1   71.26    3.31
  -2   0   1   79.53    3.35
  -2   0   1   75.54    3.31
  -2   0   1   68.04    3.32
  -2   0   1   77.44    3.32
   1   0  -1    1.25    0.16
   1   0  -1    1.55    0.15
   1   0  -1    1.46    0.15
   1   0  -1    1.45    0.13
  -1   0   1    1.41    0.15
  -1   0   1    1.70    0.18
  -1   0   1    1.53    0.15
  -1   0   1    1.45    0.14
  -1   0  -1   31.76    1.65
  -1   0  -1   37.29    1.68
  -1   0  -1   39.03    1.66
   1   0   1   39.60    1.65
  -2   0  -1  167.83    7.96
  -2   0  -1  180.15    7.98
  -2   0  -1  180.03    7.90
  -2   0  -1  183.49    7.96
   2   0   1  194.83    7.96
   2   0   1  178.26    7.95
   2   0   1  175.53    7.98
  -3   0  -1    9.86    0.62
  -3   0  -1    8.73    0.60
  -3   0  -1    8.47    0.59
   3   0   1    9.49    0.57
   3   0   1   10.61    0.59
   3   0   1    9.72    0.62
  -4   0  -1   61.01    2.70
  -4   0  -1   54.20    2.69
  -4   0  -1   54.15    2.68
   4   0   1   58.56    2.65
  -5   0  -1   24.41    1.43
  -5   0  -1   30.36    1.45
  -5   0  -1   24.78    1.46
   5   0   1   27.24    1.37
  -6   0  -1   -0.04    0.43
  -6   0  -1   -0.60    0.37
   6   0   1   -0.05    0.30
  -7   0  -1    8.23    0.80
  -7   0  -1    6.92    0.78
   7   0   1    9.48    0.72
  -8   0  -1   19.57    1.30
  -8   0  -1   16.05    1.35
   8   0   1   18.05    1.15
  -9   0  -1    4.43    0.73
 -10   0  -1   12.80    1.30
 -11   1   1    1.99    0.74
 -11   1   1    1.02    0.81
  10  -1  -1    5.88    0.75
 -10   1   1    6.24    0.96
   9  -1  -1    1.21    0.53
  -9   1   1   -0.61    0.58
   8  -1  -1   19.46    1.25
  -8   1   1   18.82    1.27
   7  -1  -1    9.10    0.80
   7  -1  -1    8.00    0.43
  -7   1   1    7.20    0.81
  -7   1   1    6.67    0.73
   6  -1  -1   39.93    1.76
   6  -1  -1   37.57    1.95
  -6   1   1   37.67    2.02
  -6   1   1   37.38    2.03
   5  -1  -1   29.05    1.56
   5  -1  -1   31.42    1.42
  -5   1   1   29.23    1.59
  -5   1   1   30.34    1.62
   4  -1  -1   20.95    1.03
   4  -1  -1   20.90    1.15
  -4   1   1   20.41    1.18
  -4   1   1   21.73    1.17
  -4   1   1   22.50    1.17
   3  -1  -1   54.45    2.51
   3  -1  -1   53.47    2.52
   3  -1  -1   53.83    2.44
   3  -1  -1   51.08    2.49
  -3   1   1   54.06    2.49
  -3   1   1   55.47    2.47
  -3   1   1   53.17    2.53
  -3   1   1   53.15    2.51
   2  -1  -1   66.86    3.16
   2  -1  -1   74.74    3.18
   2  -1  -1   69.28    3.19
   2  -1  -1   66.46    3.19
  -2   1   1   73.27    3.19
  -2   1   1   69.61    3.18
  -2   1   1   71.84    3.20
  -2   1   1   71.13    3.15
   1  -1  -1   11.17    0.58
   1  -1  -1   13.32    0.61
   1  -1  -1   11.53    0.58
   1  -1  -1   11.06    0.54
   1  -1  -1   10.78    0.57
  -1   1   1   11.53    0.54
  -1   1   1   11.35    0.58
  -1   1   1   11.75    0.58
  -1   1   1   11.39    0.57
   0  -1  -1  174.40    7.64
   0  -1  -1  167.80    7.67
   0  -1  -1  169.62    7.64
   0   1   1  179.42    7.64
   0   1   1  178.53    7.64
   0   1   1  173.38    7.67
  -1  -1  -1   44.17    1.96
  -1  -1  -1   42.77    1.96
  -1  -1  -1   43.58    1.98
   1   1   1   44.37    1.96
   1   1   1   43.25    1.95
   1   1   1   45.08    1.98
  -2  -1  -1    6.90    0.40
  -2  -1  -1    7.17    0.42
  -2  -1  -1    6.94    0.43
   2   1   1    7.78    0.42
   2   1   1    7.54    0.41
   2   1   1    7.23    0.42
  -3  -1  -1   80.29    3.41
  -3  -1  -1   71.81    3.35
  -3  -1  -1   72.72    3.28
  -3  -1  -1   70.15    3.39
  -3  -1  -1   72.98    3.35
   3   1   1   70.53    3.34
   3   1   1   71.69    3.28
   3   1   1   80.55    3.34
  -4  -1  -1   48.17    2.30
  -4  -1  -1   48.69    2.15
  -4  -1  -1   45.88    2.30
  -4  -1  -1   48.19    2.28
   4   1   1   49.20    2.26
  -5  -1  -1   16.32    0.98
  -5  -1  -1   16.08    1.04
  -5  -1  -1   16.38    1.06
   5   1   1   16.50    0.97
  -6  -1  -1   52.12    2.59
  -6  -1  -1   49.04    2.58
   6   1   1   55.64    2.54
  -7  -1  -1    0.70    0.47
  -7  -1  -1    0.26    0.38
   7   1   1    0.09    0.36
  -8  -1  -1   34.13    1.98
  -8  -1  -1   36.54    1.99
   8   1   1   34.93    1.85
  -9  -1  -1   17.19    1.45
  -9  -1  -1   18.24    1.37
 -10  -1  -1    0.37    0.76
 -10  -1  -1    0.70    0.64
 -11   2   1    0.84    0.80
 -11   2   1    0.61    0.72
  10  -2  -1    0.49    0.54
 -10   2   1    0.36    0.63
 -10   2   1    0.17    0.55
   9  -2  -1   30.11    1.75
  -9   2   1   33.48    1.89
  -9   2   1   27.04    1.89
   8  -2  -1    5.38    0.68
  -8   2   1    5.01    0.70
  -8   2   1    5.15    0.78
   7  -2  -1   76.38    3.31
   7  -2  -1   75.53    3.53
  -7   2   1   71.64    3.58
  -7   2   1   69.42    3.59
   6  -2  -1    0.27    0.39
   6  -2  -1    0.34    0.21
  -6   2   1    0.40    0.47
  -6   2   1    0.52    0.44
   5  -2  -1    0.87    0.22
   5  -2  -1    0.16    0.27
  -5   2   1    0.37    0.38
  -5   2   1    0.02    0.40
   4  -2  -1    1.33    0.35
   4  -2  -1    0.63    0.22
  -4   2   1    0.90    0.28
  -4   2   1    1.04    0.29
  -4   2   1    0.38    0.36
   3  -2  -1  109.27    5.04
   3  -2  -1  107.90    5.00
   3  -2  -1  111.68    5.08
  -3   2   1  113.91    5.06
  -3   2   1  111.59    5.04
  -3   2   1  105.29    5.08
  -3   2   1  123.66    5.02
   2  -2  -1   22.29    1.12
   2  -2  -1   24.60    1.11
   2  -2  -1   21.18    1.12
   2  -2  -1   22.13    1.11
  -2   2   1   20.90    1.10
  -2   2   1   22.72    1.12
  -2   2   1   22.80    1.12
  -2   2   1   22.33    1.15
  -2   2   1   23.59    1.06
   1  -2  -1 1000.00   41.83
   1  -2  -1  985.04   41.85
   1  -2  -1  937.31   41.85
   1  -2  -1  925.47   41.81
  -1   2   1  909.68   41.84
  -1   2   1  965.31   41.85
  -1   2   1  942.46   41.81
  -1   2   1  962.10   41.80
   0  -2  -1   55.22    2.43
   0  -2  -1   51.88    2.43
   0  -2  -1   54.73    2.39
   0  -2  -1   49.86    2.47
   0   2   1   54.76    2.42
   0   2   1   56.50    2.43
   0   2   1   55.38    2.47
  -1  -2  -1   68.47    3.05
  -1  -2  -1   67.96    3.04
  -1  -2  -1   69.08    3.04
  -1  -2  -1   64.57    3.08
   1   2   1   65.37    3.03
   1   2   1   69.77    3.03
   1   2   1   70.24    3.08
  -2  -2  -1   -0.14    0.15
  -2  -2  -1   -0.11    0.18
  -2  -2  -1    0.07    0.16
  -2  -2  -1    0.20    0.17
   2   2   1    0.09    0.13
   2   2   1    0.16    0.15
   2   2   1    0.23    0.19
  -3  -2  -1   27.38    1.38
  -3  -2  -1   30.10    1.43
  -3  -2  -1   27.42    1.35
  -3  -2  -1   28.40    1.38
   3   2   1   29.14    1.35
   3   2   1   27.81    1.37
  -4  -2  -1    0.17    0.16
  -4  -2  -1    0.48    0.28
  -4  -2  -1    0.04    0.33
  -4  -2  -1   -0.08    0.23
   4   2   1    0.18    0.23
   4   2   1    0.20    0.17
  -5  -2  -1  100.38    4.86
  -5  -2  -1  106.77    4.70
  -5  -2  -1  113.56    4.83
  -5  -2  -1  100.77    4.83
   5   2   1  106.63    4.70
   5   2   1  103.53    4.80
  -6  -2  -1    9.39    0.80
  -6  -2  -1    9.97    0.86
   6   2   1   10.98    0.80
  -7  -2  -1   28.41    1.65
  -7  -2  -1   26.45    1.58
   7   2   1   25.67    1.46
  -8  -2  -1    1.10    0.62
  -8  -2  -1    0.72    0.54
   8   2   1    2.02    0.48
  -9  -2  -1    1.65    0.73
  -9  -2  -1    0.73    0.60
 -10  -2  -1    1.13    0.76
 -10  -2  -1    1.19    0.65
  11  -3  -1    7.68    0.94
 -11   3   1    4.15    0.92
 -11   3   1    7.30    1.11
  10  -3  -1   29.57    1.80
 -10   3   1   31.77    1.96
 -10   3   1   29.86    2.03
   9  -3  -1    0.23    0.54
  -9   3   1   -0.70    0.59
  -9   3   1    0.18    0.68
   8  -3  -1   24.59    1.45
  -8   3   1   25.47    1.68
  -8   3   1   24.92    1.62
   7  -3  -1    8.86    0.56
   7  -3  -1    7.49    0.76
  -7   3   1    7.60    0.89
  -7   3   1    6.77    0.82
   6  -3  -1   -0.02    0.31
   6  -3  -1    1.07    0.28
  -6   3   1    0.82    0.38
  -6   3   1    0.49    0.51
   5  -3  -1   33.30    1.59
   5  -3  -1   32.25    1.70
  -5   3   1   32.79    1.75
  -5   3   1   32.21    1.71
   4  -3  -1   13.29    0.80
   4  -3  -1   13.67    0.88
  -4   3   1   12.81    0.96
  -4   3   1   17.42    0.84
  -4   3   1   13.82    0.90
  -4   3   1   13.80    0.80
   3  -3  -1    3.60    0.37
   3  -3  -1    4.32    0.42
   3  -3  -1    3.48    0.45
  -3   3   1    3.08    0.44
  -3   3   1    2.73    0.39
  -3   3   1    3.58    0.38
   2  -3  -1  120.41    5.33
   2  -3  -1  114.98    5.31
   2  -3  -1  122.81    5.30
   2  -3  -1  119.07    5.29
  -2   3   1  117.37    5.29
  -2   3   1  112.96    5.32
  -2   3   1  117.58    5.31
  -2   3   1  118.47    5.28
   1  -3  -1    0.71    0.21
   1  -3  -1    0.43    0.19
   1  -3  -1    0.58    0.20
   1  -3  -1    0.69    0.26
  -1   3   1    0.87    0.25
  -1   3   1    0.65    0.07
  -1   3   1    0.85    0.20
  -1   3   1    0.59    0.15
   0  -3  -1   61.16    2.77
   0  -3  -1   58.05    2.88
   0  -3  -1   61.81    2.84
   0  -3  -1   62.93    2.84
   0   3   1   66.38    2.91
   0   3   1   62.50    2.78
   0   3   1   66.38    2.84
   0   3   1   62.80    2.83
  -1  -3  -1   13.55    0.71
  -1  -3  -1   14.77    0.74
  -1  -3  -1   12.40    0.77
  -1  -3  -1   14.39    0.74
   1   3   1   14.38    0.73
   1   3   1   14.89    0.74
   1   3   1   14.56    0.81
  -2  -3  -1    2.68    0.31
  -2  -3  -1    2.89    0.30
  -2  -3  -1    3.03    0.30
  -2  -3  -1    2.58    0.33
   2   3   1    2.92    0.29
   2   3   1    3.40    0.36
  -3  -3  -1   41.11    1.87
  -3  -3  -1   39.43    1.87
  -3  -3  -1   35.68    1.86
   3   3   1   40.21    1.88
   3   3   1   39.79    1.85
  -4  -3  -1   85.22    3.99
  -4  -3  -1   81.45    3.92
  -4  -3  -1   84.85    3.88
  -4  -3  -1   89.61    3.92
   4   3   1   86.55    3.91
   4   3   1   85.49    3.88
  -5  -3  -1    1.96    0.40
  -5  -3  -1    1.55    0.29
  -5  -3  -1    1.54    0.38
   5   3   1    1.97    0.38
   5   3   1    2.21    0.30
  -6  -3  -1   41.25    2.01
  -6  -3  -1   35.12    2.04
   6   3   1   38.18    1.93
  -7  -3  -1    2.98    0.61
  -7  -3  -1    4.27    0.62
   7   3   1    4.36    0.54
  -8  -3  -1    1.04    0.58
  -8  -3  -1   -0.03    0.60
  -9  -3  -1    4.42    0.85
  -9  -3  -1    2.08    0.69
 -10  -3  -1   15.45    1.37
 -10  -3  -1   15.00    1.30
  11  -4  -1    9.53    0.98
 -11   4   1    8.20    1.19
 -11   4   1    8.30    1.10
  10  -4  -1    6.43    0.84
 -10   4   1    8.62    1.02
 -10   4   1    6.86    1.06
   9  -4  -1    2.38    0.65
  -9   4   1    2.63    0.74
  -9   4   1    2.89    0.83
   8  -4  -1    1.74    0.57
   8  -4  -1    3.23    0.39
  -8   4   1    1.86    0.75
  -8   4   1    2.62    0.67
   7  -4  -1    0.74    0.50
   7  -4  -1    0.17    0.26
  -7   4   1   -0.38    0.50
  -7   4   1    0.59    0.47
   6  -4  -1   36.03    1.93
   6  -4  -1   36.08    1.84
  -6   4   1   40.05    2.04
  -6   4   1   38.55    2.10
   5  -4  -1   13.25    0.86
   5  -4  -1   16.12    1.01
  -5   4   1   16.12    1.03
  -5   4   1   14.84    0.96
   4  -4  -1   36.04    1.82
   4  -4  -1   38.14    1.85
  -4   4   1   36.85    1.88
  -4   4   1   37.16    1.90
   3  -4  -1   78.46    3.63
   3  -4  -1   79.54    3.61
  -3   4   1   77.30    3.61
  -3   4   1   78.60    3.68
   2  -4  -1    1.12    0.24
   2  -4  -1    1.24    0.34
   2  -4  -1    0.84    0.24
  -2   4   1    1.45    0.25
   1  -4  -1    3.49    0.36
   1  -4  -1    3.07    0.35
   1  -4  -1    3.03    0.43
  -1   4   1    3.44    0.21
  -1   4   1    3.79    0.36
   0  -4  -1  137.88    5.96
   0  -4  -1  128.36    6.10
   0  -4  -1  140.33    6.05
   0  -4  -1  129.17    6.04
   0   4   1  136.02    5.96
   0   4   1  138.91    6.04
  -1  -4  -1   10.78    0.67
  -1  -4  -1   11.30    0.75
  -1  -4  -1   10.87    0.59
  -1  -4  -1   11.57    0.65
   1   4   1   10.92    0.65
  -2  -4  -1  124.87    5.83
  -2  -4  -1  130.89    5.82
  -2  -4  -1  132.79    5.83
  -2  -4  -1  126.73    5.87
   2   4   1  134.58    5.82
  -3  -4  -1    5.34    0.51
  -3  -4  -1    4.20    0.43
  -3  -4  -1    3.93    0.42
   3   4   1    4.59    0.41
  -4  -4  -1   -0.07    0.31
  -4  -4  -1   -0.14    0.29
  -4  -4  -1    0.08    0.30
   4   4   1    0.14    0.26
  -5  -4  -1   29.56    1.56
  -5  -4  -1   27.54    1.57
  -5  -4  -1   29.37    1.48
   5   4   1   29.48    1.51
  -6  -4  -1   25.08    1.47
  -6  -4  -1   26.40    1.56
  -6  -4  -1   25.21    1.34
   6   4   1   25.00    1.40
  -7  -4  -1    1.44    0.61
  -7  -4  -1    1.55    0.53
   7   4   1    1.84    0.53
  -8  -4  -1   28.65    1.79
  -8  -4  -1   29.53    1.77
  -9  -4  -1    5.45    0.93
  -9  -4  -1    5.47    0.88
  11  -5  -1    2.35    0.69
  10  -5  -1   -0.35    0.58
 -10   5   1    0.64    0.72
 -10   5   1   -0.25    0.60
   9  -5  -1   13.39    1.19
  -9   5   1   13.03    1.21
  -9   5   1   12.38    1.19
   8  -5  -1    1.60    0.60
   8  -5  -1    0.92    0.36
  -8   5   1    1.61    0.75
  -8   5   1    1.22    0.65
   7  -5  -1   57.22    2.82
   7  -5  -1   61.27    2.98
  -7   5   1   61.30    3.12
  -7   5   1   59.06    2.99
   6  -5  -1    0.04    0.47
   6  -5  -1    0.32    0.31
  -6   5   1    0.07    0.43
  -6   5   1   -0.27    0.46
   5  -5  -1   38.66    1.92
   5  -5  -1   38.72    1.93
  -5   5   1   36.79    1.98
  -5   5   1   35.51    1.99
   4  -5  -1    2.01    0.42
   4  -5  -1    1.95    0.43
  -4   5   1    2.05    0.43
  -4   5   1    1.07    0.50
   3  -5  -1    5.70    0.53
   3  -5  -1    5.90    0.52
  -3   5   1    4.54    0.51
   2  -5  -1    0.71    0.38
   2  -5  -1    0.60    0.31
  -2   5   1    0.29    0.23
  -2   5   1    1.09    0.15
   1  -5  -1   55.93    2.75
   1  -5  -1   56.21    2.69
  -1   5   1   59.13    2.69
  -1   5   1   58.24    2.56
   0  -5  -1    2.88    0.24
   0  -5  -1    2.72    0.34
   0  -5  -1    2.63    0.46
   0  -5  -1    3.13    0.42
   0   5   1    3.45    0.38
   0   5   1    2.69    0.26
  -1  -5  -1   85.38    3.68
  -1  -5  -1   77.32    3.59
  -1  -5  -1   79.16    3.68
  -1  -5  -1   76.48    3.75
   1   5   1   80.20    3.60
   1   5   1   82.39    3.67
  -2  -5  -1    3.40    0.42
  -2  -5  -1    3.64    0.51
  -2  -5  -1    3.68    0.36
   2   5   1    3.46    0.39
  -3  -5  -1    3.63    0.50
  -3  -5  -1    2.65    0.43
   3   5   1    3.95    0.41
  -4  -5  -1    4.58    0.52
  -4  -5  -1    4.56    0.54
   4   5   1    4.59    0.47
  -5  -5  -1    6.31    0.63
  -5  -5  -1    5.01    0.60
  -5  -5  -1    6.91    0.74
   5   5   1    4.76    0.54
  -6  -5  -1   -0.20    0.53
  -6  -5  -1   -0.10    0.44
  -6  -5  -1    0.42    0.38
   6   5   1   -0.15    0.35
  -7  -5  -1   48.49    2.54
  -7  -5  -1   47.53    2.58
  -8  -5  -1    1.36    0.74
  -8  -5  -1    2.54    0.69
  -9  -5  -1    8.69    1.01
  -9  -5  -1    8.23    1.08
  11  -6  -1   -0.76    0.65
  10  -6  -1    4.35    0.78
 -10   6   1    4.53    0.93
 -10   6   1    4.38    1.03
   9  -6  -1    0.56    0.59
  -9   6   1    0.26    0.81
  -9   6   1    0.13    0.65
   8  -6  -1   43.68    2.23
   8  -6  -1   45.32    2.43
  -8   6   1   44.24    2.51
  -8   6   1   46.25    2.61
   7  -6  -1    1.06    0.40
   7  -6  -1    0.37    0.42
  -7   6   1    0.04    0.67
  -7   6   1    0.48    0.61
   6  -6  -1   11.71    0.88
   6  -6  -1   12.15    0.93
  -6   6   1   12.81    0.96
  -6   6   1   10.61    1.00
   5  -6  -1    3.46    0.52
   5  -6  -1    2.51    0.57
  -5   6   1    3.57    0.70
  -5   6   1    3.52    0.51
   4  -6  -1    3.12    0.53
   4  -6  -1    2.71    0.51
  -4   6   1    1.96    0.48
   3  -6  -1   15.30    1.04
   3  -6  -1   14.42    1.00
  -3   6   1   15.00    0.77
  -3   6   1   15.35    0.93
   2  -6  -1   36.16    1.83
   2  -6  -1   33.65    1.88
  -2   6   1   35.84    1.78
  -2   6   1   37.07    1.63
   1  -6  -1    4.43    0.46
   1  -6  -1    5.13    0.63
  -1   6   1    4.76    0.30
  -1   6   1    5.13    0.50
   0  -6  -1   58.41    2.90
   0  -6  -1   59.41    2.81
   0   6   1   58.07    2.78
   0   6   1   60.17    2.66
  -1  -6  -1    0.05    0.34
  -1  -6  -1    0.46    0.19
  -1  -6  -1    0.05    0.32
   1   6   1    0.23    0.29
  -2  -6  -1    4.58    0.55
  -2  -6  -1    5.91    0.60
   2   6   1    5.99    0.53
  -3  -6  -1    6.61    0.69
  -3  -6  -1    5.29    0.59
   3   6   1    5.48    0.53
  -4  -6  -1   12.14    0.93
  -4  -6  -1   11.30    0.90
   4   6   1   11.83    0.83
  -5  -6  -1    0.69    0.50
  -5  -6  -1    0.38    0.42
   5   6   1    0.40    0.36
  -6  -6  -1   49.14    2.50
  -6  -6  -1   46.28    2.55
  -7  -6  -1    0.15    0.57
  -7  -6  -1   -0.75    0.59
  -8  -6  -1    6.76    0.98
  -8  -6  -1    7.13    0.93
  11  -7  -1    0.16    0.76
  10  -7  -1    5.19    0.91
 -10   7   1    5.91    1.04
   9  -7  -1    1.53    0.73
  -9   7   1    2.14    0.78
  -9   7   1    1.86    0.94
   8  -7  -1    0.44    0.47
   8  -7  -1    0.48    0.61
  -8   7   1    0.77    0.83
  -8   7   1   -0.96    0.63
   7  -7  -1    5.51    0.72
   7  -7  -1    7.11    0.77
  -7   7   1    5.48    0.83
  -7   7   1    6.18    1.00
   6  -7  -1   10.98    0.92
   6  -7  -1   10.03    0.91
  -6   7   1   10.37    0.97
   5  -7  -1    9.30    0.87
   5  -7  -1    9.13    0.88
  -5   7   1    8.09    0.84
   4  -7  -1   17.12    1.22
   4  -7  -1   15.85    1.19
  -4   7   1   17.72    1.18
  -4   7   1   19.27    0.93
   3  -7  -1   23.02    1.39
   3  -7  -1   21.25    1.43
  -3   7   1   23.91    1.12
  -3   7   1   24.75    1.32
   2  -7  -1    6.92    0.68
   2  -7  -1    6.67    0.77
  -2   7   1    6.99    0.65
  -2   7   1    7.29    0.40
   1  -7  -1   17.25    1.25
   1  -7  -1   17.89    1.07
  -1   7   1   18.76    1.09
  -1   7   1   18.18    0.85
   0  -7  -1    5.88    0.59
   0  -7  -1    4.85    0.73
   0   7   1    5.83    0.58
  -1  -7  -1   23.68    1.36
  -1  -7  -1   22.53    1.46
   1   7   1   22.98    1.28
  -2  -7  -1   22.29    1.34
  -2  -7  -1   23.86    1.45
   2   7   1   22.31    1.27
  -3  -7  -1    1.19    0.55
  -3  -7  -1    1.65    0.47
   3   7   1    1.07    0.41
  -4  -7  -1   19.92    1.29
  -4  -7  -1   20.52    1.34
   4   7   1   19.85    1.20
  -5  -7  -1    8.85    0.89
  -5  -7  -1    6.53    0.78
  -6  -7  -1    1.41    0.65
  -6  -7  -1    2.96    0.64
  -7  -7  -1    5.92    0.83
  -7  -7  -1    6.88    0.95
  -8  -7  -1    8.29    1.09
  10  -8  -1   -0.63    0.67
   9  -8  -1    7.43    1.03
  -9   8   1    6.87    1.22
  -9   8   1    9.91    1.14
   8  -8  -1    0.63    0.58
   8  -8  -1    0.26    0.69
  -8   8   1    0.14    0.71
   7  -8  -1    7.04    0.91
   7  -8  -1    6.86    0.78
  -7   8   1    7.15    0.92
   6  -8  -1   -0.41    0.54
   6  -8  -1    0.79    0.54
  -6   8   1   -0.12    0.55
   5  -8  -1   36.04    2.02
   5  -8  -1   37.54    2.03
  -5   8   1   34.53    2.00
   4  -8  -1    3.35    0.64
   4  -8  -1    3.24    0.66
  -4   8   1    2.38    0.57
   3  -8  -1   25.26    1.51
   3  -8  -1   25.48    1.51
  -3   8   1   24.79    1.47
   2  -8  -1    1.47    0.52
   2  -8  -1    0.87    0.60
  -2   8   1    2.13    0.47
   1  -8  -1    6.26    0.74
   1  -8  -1    7.70    0.69
  -1   8   1    5.57    0.64
   0  -8  -1    1.25    0.48
   0  -8  -1    0.57    0.48
   0   8   1    0.62    0.38
  -1  -8  -1   13.36    1.06
  -1  -8  -1   14.41    1.08
   1   8   1   15.00    0.98
  -2  -8  -1    2.45    0.68
  -2  -8  -1    2.34    0.54
   2   8   1    1.65    0.45
  -3  -8  -1   30.92    1.72
  -3  -8  -1   29.85    1.81
   3   8   1   28.87    1.64
  -4  -8  -1    0.98    0.56
  -4  -8  -1    0.12    0.59
  -5  -8  -1    2.95    0.68
  -5  -8  -1    4.05    0.70
  -6  -8  -1    0.66    0.70
  -6  -8  -1    2.39    0.67
  -7  -8  -1    5.46    0.97
   9  -9  -1    0.24    0.77
   8  -9  -1   -0.84    0.69
  -8   9   1    1.12    0.78
   7  -9  -1    4.24    0.85
   7  -9  -1    2.75    0.74
  -7   9   1    2.74    0.79
   6  -9  -1   11.49    1.08
   6  -9  -1    9.22    1.03
  -6   9   1   10.67    1.03
   5  -9  -1    0.80    0.51
   5  -9  -1    1.29    0.64
  -5   9   1    1.26    0.56
   4  -9  -1   11.64    0.96
   4  -9  -1   10.27    0.97
  -4   9   1    9.56    0.92
   3  -9  -1    0.53    0.50
   3  -9  -1   -0.25    0.53
  -3   9   1    0.21    0.47
   2  -9  -1    2.33    0.59
   2  -9  -1    1.53    0.55
  -2   9   1    1.15    0.50
   1  -9  -1    0.60    0.66
   1  -9  -1    0.21    0.50
  -1   9   1   -0.48    0.43
   0  -9  -1   11.24    0.93
   0  -9  -1   13.43    1.25
   0   9   1   11.16    0.94
  -1  -9  -1    0.37    0.68
  -1  -9  -1   -0.14    0.53
   1   9   1   -0.34    0.41
  -2  -9  -1   40.23    2.21
  -2  -9  -1   42.19    2.17
   2   9   1   37.21    2.05
  -3  -9  -1    1.54    0.62
  -3  -9  -1    2.45    0.76
  -4  -9  -1    0.25    0.61
  -4  -9  -1    0.24    0.66
  -5  -9  -1   -0.07    0.62
  -5  -9  -1    1.62    0.67
  -6  -9  -1    3.81    0.90
   7 -10  -1   11.35    1.16
   7 -10  -1   14.36    1.32
  -7  10   1   14.39    1.28
   6 -10  -1    3.11    0.78
   6 -10  -1    1.56    0.63
  -6  10   1    2.38    0.75
   5 -10  -1    2.52    0.78
   5 -10  -1    1.02    0.71
  -5  10   1    1.77    0.66
   4 -10  -1    1.99    0.77
   4 -10  -1    0.07    0.64
  -4  10   1    0.60    0.56
   3 -10  -1   -0.37    0.71
   3 -10  -1    0.18    0.65
  -3  10   1   -0.83    0.50
   2 -10  -1   10.46    0.98
   2 -10  -1    9.91    1.14
  -2  10   1   10.08    0.93
   1 -10  -1    7.97    0.92
   1 -10  -1    8.81    1.09
  -1  10   1    7.09    0.80
   0 -10  -1    5.65    0.83
   0 -10  -1    4.74    0.77
   0  10   1    3.42    0.62
  -1 -10  -1   26.25    1.62
  -1 -10  -1   22.06    1.60
  -2 -10  -1    8.35    1.10
  -2 -10  -1    8.08    0.93
  -3 -10  -1    1.72    0.66
  -3 -10  -1    2.11    0.68
  -4 -10  -1   10.17    1.15
  -5 -10  -1    0.04    0.95
   6 -11  -1    1.12    0.60
  -6  11   1    0.43    0.70
   5 -11  -1    9.43    1.24
   5 -11  -1    8.48    1.12
  -5  11   1    6.98    0.93
   4 -11  -1    0.10    0.75
   4 -11  -1   -0.41    0.74
  -4  11   1   -0.75    0.56
   3 -11  -1   14.37    1.40
   3 -11  -1   12.65    1.20
   2 -11  -1   -0.47    0.66
   2 -11  -1    0.75    0.84
  -2  11   1    0.21    0.56
   1 -11  -1    6.91    0.95
   1 -11  -1    8.39    1.02
   0 -11  -1    2.05    0.89
   0 -11  -1   -0.04    0.61
  -1 -11  -1    1.77    0.71
  -1 -11  -1    3.20    0.96
  -2 -11  -1    0.26    0.93
   1  12  -2   -0.25    0.65
   0  12  -2   -0.29    0.61
  -1  12  -2   10.58    1.10
  -2  12  -2   -0.98    0.64
   3  11  -2    0.04    0.61
  -3 -11   2    1.76    0.97
   2  11  -2    1.47    0.65
  -2 -11   2    2.99    0.90
  -2 -11   2    1.37    0.77
   1  11  -2    8.81    0.96
  -1 -11   2    7.87    0.96
  -1 -11   2    8.64    1.15
   0  11  -2    2.64    0.68
   0 -11   2    3.28    0.92
   0 -11   2    3.16    0.79
  -1  11  -2    1.59    0.67
   1 -11   2    2.56    0.64
   1 -11   2    3.22    0.89
  -2  11  -2    7.40    0.88
   2 -11   2    6.79    0.95
   2 -11   2    6.84    0.94
  -3  11  -2    0.37    0.65
   3 -11   2    0.15    0.68
   3 -11   2    1.63    0.62
  -4  11  -2    7.44    0.95
   4 -11   2    5.54    0.85
   4 -11   2    6.00    0.97
  -5  11  -2    1.65    0.75
   5 -11   2    1.93    0.80
   5 -11   2    1.84    0.74
   6 -11   2    0.13    0.69
   6 -11   2   -0.62    0.64
   4  10  -2    1.07    0.61
  -4 -10   2    0.29    0.69
  -4 -10   2    1.12    0.77
   3  10  -2   -0.35    0.55
  -3 -10   2   -0.47    0.63
  -3 -10   2    1.27    0.58
   2  10  -2   23.52    1.59
  -2 -10   2   28.32    1.71
  -2 -10   2   25.56    1.82
   1  10  -2    0.03    0.51
  -1 -10   2   -0.46    0.70
  -1 -10   2   -0.20    0.56
   0  10  -2    8.33    0.80
   0 -10   2    8.06    0.91
   0 -10   2    8.95    0.98
  -1  10  -2    3.13    0.64
   1 -10   2    3.33    0.71
   1 -10   2    3.31    0.86
  -2  10  -2    0.29    0.56
   2 -10   2    0.44    0.53
   2 -10   2    0.01    0.57
  -3  10  -2    6.75    0.85
   3 -10   2    8.30    1.00
   3 -10   2    8.12    0.82
  -4  10  -2   18.49    1.41
   4 -10   2   18.00    1.37
   4 -10   2   17.70    1.43
  -5  10  -2   -0.42    0.61
   5 -10   2   -0.29    0.57
   5 -10   2   -0.53    0.63
  -6  10  -2    9.05    1.03
   6 -10   2    9.10    0.97
   6 -10   2    7.66    0.96
   7 -10   2    6.65    0.90
  -6  -9   2   -0.68    0.67
  -6  -9   2   -0.83    0.50
   5   9  -2    2.56    0.63
   5   9  -2    2.29    0.58
  -5  -9   2    2.39    0.74
   4   9  -2    0.60    0.54
   4   9  -2   -0.27    0.50
  -4  -9   2   -0.75    0.57
  -4  -9   2    1.26    0.67
   3   9  -2   10.73    0.91
   3   9  -2   11.85    0.97
  -3  -9   2   11.39    1.14
  -3  -9   2   14.00    1.16
   2   9  -2    2.47    0.59
   2   9  -2    3.36    0.50
  -2  -9   2    3.36    0.64
  -2  -9   2    3.70    0.68
   1   9  -2   12.02    1.01
   1   9  -2   12.37    0.89
  -1  -9   2   11.12    0.94
  -1  -9   2   12.76    1.07
   0   9  -2    0.73    0.51
   0   9  -2    0.94    0.39
   0  -9   2    0.32    0.49
   0  -9   2    0.08    0.40
  -1   9  -2    1.59    0.55
  -1   9  -2    1.73    0.40
   1  -9   2    1.49    0.58
   1  -9   2    1.47    0.68
  -2   9  -2    1.16    0.56
  -2   9  -2    0.71    0.36
   2  -9   2    0.32    0.54
   2  -9   2    0.65    0.63
  -3   9  -2   17.99    1.26
  -3   9  -2   16.39    1.02
   3  -9   2   16.29    1.24
   3  -9   2   16.35    1.31
  -4   9  -2    0.75    0.56
  -4   9  -2    1.05    0.43
   4  -9   2    1.01    0.59
   4  -9   2    0.68    0.55
  -5   9  -2   21.83    1.50
   5  -9   2   20.51    1.47
   5  -9   2   21.81    1.44
  -6   9  -2   -0.15    0.63
   6  -9   2    0.06    0.51
   6  -9   2   -0.35    0.44
  -7   9  -2   12.48    1.17
   7  -9   2   14.50    1.24
  -8   9  -2   -0.88    0.89
  -7  -8   2   -0.98    0.68
  -7  -8   2   -1.01    0.57
   6   8  -2    0.44    0.54
  -6  -8   2    0.34    0.57
  -6  -8   2    0.48    0.65
   5   8  -2    7.73    0.81
   5   8  -2    7.10    0.78
  -5  -8   2    9.55    0.93
  -5  -8   2    6.70    0.87
  -5  -8   2    7.50    0.78
   4   8  -2   13.78    1.06
   4   8  -2   15.53    1.14
  -4  -8   2   16.51    1.26
  -4  -8   2   16.01    1.22
   3   8  -2    5.32    0.66
   3   8  -2    4.85    0.63
  -3  -8   2    5.49    0.70
  -3  -8   2    5.02    0.62
   2   8  -2   50.05    2.46
   2   8  -2   50.12    2.44
  -2  -8   2   48.44    2.52
  -2  -8   2   49.14    2.62
   1   8  -2   10.83    0.92
   1   8  -2   10.36    0.76
  -1  -8   2   11.50    1.09
  -1  -8   2   10.65    0.96
   0   8  -2    2.52    0.54
   0   8  -2    2.72    0.40
   0  -8   2    2.55    0.66
   0  -8   2    3.24    0.50
  -1   8  -2    9.22    0.77
  -1   8  -2    8.43    0.69
   1  -8   2    8.31    0.84
   1  -8   2   10.21    0.78
  -2   8  -2   18.62    1.05
  -2   8  -2   18.18    1.24
   2  -8   2   19.17    1.34
   2  -8   2   19.90    1.16
  -3   8  -2   10.73    0.82
  -3   8  -2   13.12    1.02
   3  -8   2   13.12    1.02
   3  -8   2   11.78    1.04
  -4   8  -2   29.15    1.54
  -4   8  -2   29.48    1.63
   4  -8   2   28.92    1.68
   4  -8   2   29.12    1.70
  -5   8  -2    0.65    0.55
   5  -8   2    0.42    0.54
   5  -8   2    1.80    0.53
  -6   8  -2    8.00    1.05
  -6   8  -2    8.33    0.91
   6  -8   2    7.10    0.82
   6  -8   2    6.39    0.73
  -7   8  -2    4.70    0.84
  -7   8  -2    3.97    0.98
   7  -8   2    5.42    0.76
   7  -8   2    3.52    0.60
  -8   8  -2    0.53    0.70
  -8   8  -2    0.42    0.86
   8  -8   2    0.81    0.58
  -9  -7   2    6.51    0.88
  -8  -7   2    8.43    1.03
  -8  -7   2    9.41    0.95
   7   7  -2    0.33    0.51
  -7  -7   2   -0.20    0.61
  -7  -7   2   -0.33    0.49
   6   7  -2   29.35    1.76
   6   7  -2   32.33    1.81
  -6  -7   2   34.98    1.93
  -6  -7   2   32.56    1.79
   5   7  -2    8.62    0.82
   5   7  -2    7.92    0.79
  -5  -7   2    8.60    0.80
  -5  -7   2    7.74    0.76
   4   7  -2    0.07    0.39
   4   7  -2   -0.17    0.42
  -4  -7   2   -0.22    0.37
  -4  -7   2   -0.28    0.45
   3   7  -2   31.34    1.70
   3   7  -2   30.42    1.66
  -3  -7   2   33.30    1.74
  -3  -7   2   30.09    1.72
   2   7  -2   18.33    1.11
   2   7  -2   19.34    1.19
  -2  -7   2   19.02    1.21
  -2  -7   2   19.83    1.32
   1   7  -2   -0.22    0.38
   1   7  -2   -0.25    0.32
  -1  -7   2    0.11    0.40
  -1  -7   2   -0.35    0.35
   0   7  -2   28.59    1.43
   0   7  -2   26.96    1.54
   0  -7   2   27.83    1.49
   0  -7   2   29.08    1.60
  -1   7  -2    3.92    0.42
  -1   7  -2    4.43    0.56
   1  -7   2    3.41    0.62
   1  -7   2    3.27    0.52
  -2   7  -2    9.07    0.83
  -2   7  -2   10.82    0.68
   2  -7   2   10.02    0.92
   2  -7   2    8.82    0.83
  -3   7  -2   25.95    1.45
  -3   7  -2   25.25    1.35
   3  -7   2   25.06    1.44
   3  -7   2   23.83    1.47
  -4   7  -2    1.71    0.59
  -4   7  -2    0.04    0.45
   4  -7   2    0.43    0.41
   4  -7   2    0.38    0.35
  -5   7  -2    7.21    0.89
  -5   7  -2    8.45    0.77
   5  -7   2    7.97    0.73
   5  -7   2    7.41    0.75
  -6   7  -2    7.55    1.00
  -6   7  -2    9.54    0.89
   6  -7   2    9.67    0.84
   6  -7   2    7.92    0.75
  -7   7  -2    1.72    0.65
  -7   7  -2    2.95    0.71
   7  -7   2    2.64    0.50
   7  -7   2    2.05    0.59
  -8   7  -2   16.09    1.37
  -8   7  -2   13.40    1.39
   8  -7   2   14.34    1.19
  -9   7  -2    8.88    1.02
  -9   7  -2    6.21    1.14
 -10  -6   2    1.38    0.70
  -9  -6   2    9.46    1.11
  -9  -6   2    9.09    0.99
   8   6  -2    0.35    0.54
  -8  -6   2   -0.20    0.51
  -8  -6   2    0.56    0.67
   7   6  -2   39.61    2.20
  -7  -6   2   41.01    2.29
  -7  -6   2   43.18    2.25
   6   6  -2    4.67    0.69
   6   6  -2    4.58    0.62
  -6  -6   2    4.99    0.62
  -6  -6   2    3.63    0.69
   5   6  -2    1.85    0.53
   5   6  -2    2.69    0.51
  -5  -6   2    2.25    0.46
  -5  -6   2    2.51    0.48
   4   6  -2    8.76    0.81
   4   6  -2    9.52    0.81
  -4  -6   2    9.93    0.88
  -4  -6   2   10.23    0.88
   3   6  -2   23.77    1.30
   3   6  -2   21.84    1.28
  -3  -6   2   22.91    1.38
  -3  -6   2   22.92    1.33
   2   6  -2    0.18    0.31
   2   6  -2    0.50    0.37
  -2  -6   2    0.41    0.38
  -2  -6   2    0.15    0.45
   1   6  -2   82.83    3.70
   1   6  -2   75.68    3.65
  -1  -6   2   82.69    3.78
  -1  -6   2   77.70    3.71
   0   6  -2    0.14    0.32
   0   6  -2    0.08    0.24
   0  -6   2    0.37    0.34
   0  -6   2   -0.03    0.31
  -1   6  -2   60.27    2.77
  -1   6  -2   58.74    2.84
   1  -6   2   59.20    2.91
   1  -6   2   60.40    2.83
  -2   6  -2    4.17    0.52
  -2   6  -2    4.98    0.48
   2  -6   2    4.15    0.50
   2  -6   2    4.47    0.57
  -3   6  -2    1.47    0.42
  -3   6  -2    1.55    0.46
   3  -6   2    1.33    0.41
   3  -6   2    0.97    0.41
  -4   6  -2    2.18    0.50
  -4   6  -2    2.37    0.57
   4  -6   2    2.88    0.46
   4  -6   2    2.14    0.46
  -5   6  -2   68.02    3.33
  -5   6  -2   64.94    3.18
   5  -6   2   65.21    3.11
   5  -6   2   65.19    3.15
  -6   6  -2    0.32    0.66
  -6   6  -2   -0.36    0.44
   6  -6   2   -0.26    0.33
   6  -6   2   -0.31    0.30
  -7   6  -2   31.64    1.81
  -7   6  -2   30.21    1.96
   7  -6   2   29.67    1.68
   7  -6   2   28.17    1.53
  -8   6  -2    0.18    0.58
  -8   6  -2    0.04    0.59
   8  -6   2   -0.12    0.49
  -9   6  -2    2.91    0.95
  -9   6  -2    2.21    0.75
 -10   6  -2    0.84    1.02
 -10  -5   2    4.64    0.91
   9   5  -2    1.80    0.75
  -9  -5   2    0.58    0.71
  -9  -5   2    2.01    0.64
  -8  -5   2   29.22    1.69
  -8  -5   2   26.32    1.81
   7   5  -2    1.50    0.53
  -7  -5   2    2.17    0.58
  -7  -5   2    1.15    0.49
   6   5  -2   18.81    1.24
   6   5  -2   20.32    1.27
  -6  -5   2   22.27    1.34
  -6  -5   2   20.66    1.25
   5   5  -2   22.43    1.31
   5   5  -2   21.03    1.28
  -5  -5   2   23.08    1.30
  -5  -5   2   23.66    1.37
   4   5  -2    2.93    0.49
   4   5  -2    2.96    0.46
  -4  -5   2    2.53    0.47
  -4  -5   2    1.88    0.46
   3   5  -2    0.67    0.28
   3   5  -2    1.22    0.37
  -3  -5   2    0.46    0.39
  -3  -5   2    1.20    0.37
   2   5  -2   87.02    4.18
   2   5  -2   94.03    4.20
  -2  -5   2   94.25    4.27
  -2  -5   2   91.74    4.21
   1   5  -2    9.91    0.63
   1   5  -2    9.46    0.68
  -1  -5   2    8.97    0.76
  -1  -5   2    8.68    0.68
   0   5  -2  149.67    6.97
   0   5  -2  156.56    6.94
   0  -5   2  150.34    7.04
   0  -5   2  148.22    6.97
   0  -5   2  172.98    6.98
  -1   5  -2   18.26    0.92
  -1   5  -2   15.67    0.96
   1  -5   2   17.43    0.93
   1  -5   2   15.69    0.97
  -2   5  -2    2.69    0.40
  -2   5  -2    2.42    0.40
  -2   5  -2    2.89    0.35
   2  -5   2    2.76    0.43
   2  -5   2    3.07    0.40
  -3   5  -2   25.68    1.39
  -3   5  -2   25.77    1.44
   3  -5   2   24.40    1.36
   3  -5   2   27.26    1.33
  -4   5  -2   17.71    1.19
  -4   5  -2   19.47    1.09
   4  -5   2   14.55    0.99
   4  -5   2   17.34    1.02
  -5   5  -2    0.64    0.54
  -5   5  -2    0.49    0.43
   5  -5   2    0.74    0.29
   5  -5   2    0.28    0.37
  -6   5  -2   23.20    1.42
  -6   5  -2   22.26    1.36
   6  -5   2   20.22    1.13
   6  -5   2   19.39    1.25
  -7   5  -2    1.36    0.58
  -7   5  -2    0.60    0.53
   7  -5   2    0.14    0.42
  -8   5  -2    9.79    1.17
  -8   5  -2   11.54    1.05
   8  -5   2   10.07    0.93
  -9   5  -2    0.88    0.83
  -9   5  -2    0.37    0.65
 -10   5  -2    1.37    0.73
 -10   5  -2    1.93    0.74
 -11  -4   2    3.53    0.84
 -10  -4   2    2.52    0.74
 -10  -4   2    3.35    0.87
   9   4  -2   13.78    1.16
  -9  -4   2   15.57    1.38
  -9  -4   2   14.63    1.22
   8   4  -2    0.33    0.50
  -8  -4   2    0.31    0.60
  -8  -4   2    0.06    0.55
   7   4  -2   19.91    1.25
  -7  -4   2   17.08    1.29
  -7  -4   2   18.43    1.22
   6   4  -2   24.26    1.42
   6   4  -2   24.01    1.42
  -6  -4   2   25.27    1.47
  -6  -4   2   26.00    1.42
   5   4  -2    0.28    0.35
   5   4  -2    0.03    0.40
  -5  -4   2   -0.06    0.31
  -5  -4   2    0.38    0.40
   4   4  -2  100.93    4.65
   4   4  -2   98.62    4.62
  -4  -4   2  102.85    4.59
  -4  -4   2  100.85    4.63
   3   4  -2   18.27    1.03
   3   4  -2   17.08    1.04
  -3  -4   2   17.32    1.04
  -3  -4   2   20.44    1.05
   2   4  -2    2.85    0.33
   2   4  -2    2.99    0.32
  -2  -4   2    3.51    0.43
  -2  -4   2    2.29    0.35
   1   4  -2   60.42    2.78
   1   4  -2   57.75    2.79
  -1  -4   2   59.59    2.84
  -1  -4   2   60.14    2.78
  -1  -4   2   64.95    2.81
   0   4  -2   36.00    1.73
   0   4  -2   33.72    1.75
   0   4  -2   37.39    1.79
   0  -4   2   38.46    1.76
   0  -4   2   40.70    1.74
   0  -4   2   33.21    1.80
  -1   4  -2    0.41    0.22
  -1   4  -2    0.08    0.23
  -1   4  -2   -0.01    0.16
   1  -4   2    0.79    0.26
   1  -4   2    0.38    0.22
   1  -4   2    0.28    0.22
  -2   4  -2   51.21    2.55
  -2   4  -2   52.07    2.57
  -2   4  -2   55.72    2.55
   2  -4   2   55.70    2.57
   2  -4   2   54.92    2.54
   2  -4   2   57.90    2.66
  -3   4  -2   30.31    1.66
  -3   4  -2   31.64    1.60
   3  -4   2   32.96    1.60
   3  -4   2   34.11    1.60
  -4   4  -2    0.97    0.37
  -4   4  -2    0.89    0.47
  -4   4  -2    1.27    0.32
   4  -4   2    1.16    0.32
   4  -4   2    0.90    0.29
  -5   4  -2   38.00    2.09
  -5   4  -2   38.41    1.95
   5  -4   2   37.19    1.81
   5  -4   2   37.44    1.88
  -6   4  -2   -0.78    0.40
  -6   4  -2   -0.28    0.55
   6  -4   2   -0.09    0.35
  -7   4  -2    4.17    0.84
  -7   4  -2    5.30    0.69
   7  -4   2    4.56    0.57
  -8   4  -2   11.26    1.02
  -8   4  -2   11.16    1.20
   8  -4   2   10.90    0.95
  -9   4  -2    1.26    0.66
  -9   4  -2    0.36    0.60
 -10   4  -2    9.92    1.06
 -10   4  -2   10.22    1.29
 -11  -3   2    4.30    0.87
  10   3  -2    4.08    0.74
 -10  -3   2    4.20    0.88
 -10  -3   2    4.49    0.83
   9   3  -2    0.17    0.47
  -9  -3   2   -0.05    0.53
  -9  -3   2    1.30    0.69
   8   3  -2    0.38    0.48
  -8  -3   2    0.61    0.49
  -8  -3   2    0.83    0.57
   7   3  -2   37.49    2.02
  -7  -3   2   37.87    2.11
  -7  -3   2   39.18    2.02
   6   3  -2    1.63    0.52
   6   3  -2    2.08    0.46
  -6  -3   2    2.15    0.45
  -6  -3   2    2.15    0.52
   5   3  -2   52.14    2.57
   5   3  -2   54.54    2.56
  -5  -3   2   53.20    2.55
  -5  -3   2   51.64    2.58
   4   3  -2    0.70    0.24
   4   3  -2    0.09    0.33
  -4  -3   2    0.61    0.26
  -4  -3   2    0.49    0.31
   3   3  -2    0.81    0.27
   3   3  -2    0.57    0.31
  -3  -3   2    0.69    0.29
  -3  -3   2    1.02    0.24
   2   3  -2   27.91    1.36
   2   3  -2   28.25    1.35
   2   3  -2   25.58    1.31
   2   3  -2   26.83    1.33
  -2  -3   2   25.81    1.35
  -2  -3   2   25.64    1.36
  -2  -3   2   28.03    1.32
  -2  -3   2   26.67    1.34
   1   3  -2    2.36    0.26
   1   3  -2    1.74    0.26
   1   3  -2    2.20    0.25
   1   3  -2    2.39    0.29
  -1  -3   2    2.72    0.28
  -1  -3   2    2.08    0.26
  -1  -3   2    2.50    0.26
  -1  -3   2    2.01    0.32
   0   3  -2   25.05    1.25
   0   3  -2   26.04    1.26
   0   3  -2   25.77    1.27
   0   3  -2   25.91    1.25
   0  -3   2   25.99    1.25
   0  -3   2   24.89    1.28
   0  -3   2   26.99    1.25
   0  -3   2   26.35    1.23
  -1   3  -2  222.56    9.58
  -1   3  -2  206.13    9.58
  -1   3  -2  217.88    9.60
  -1   3  -2  214.10    9.58
   1  -3   2  208.06    9.57
   1  -3   2  230.34    9.59
   1  -3   2  219.66    9.59
   1  -3   2  212.25    9.61
  -2   3  -2    1.70    0.26
  -2   3  -2    1.49    0.26
  -2   3  -2    1.89    0.26
  -2   3  -2    1.36    0.32
   2  -3   2    1.67    0.30
   2  -3   2    1.68    0.27
   2  -3   2    2.13    0.26
  -3   3  -2   25.12    1.17
  -3   3  -2   19.52    1.29
  -3   3  -2   26.58    1.21
  -3   3  -2   22.30    1.22
   3  -3   2   23.27    1.16
   3  -3   2   23.33    1.18
  -4   3  -2   27.80    1.60
  -4   3  -2   30.83    1.50
  -4   3  -2   27.73    1.46
  -4   3  -2   28.92    1.38
   4  -3   2   27.70    1.43
   4  -3   2   28.78    1.38
  -5   3  -2    0.14    0.35
  -5   3  -2   -0.06    0.35
  -5   3  -2    0.38    0.21
   5  -3   2    0.72    0.32
  -6   3  -2   13.35    1.13
  -6   3  -2   13.83    0.99
   6  -3   2   12.85    0.90
  -7   3  -2   50.72    2.66
  -7   3  -2   54.63    2.75
   7  -3   2   51.76    2.55
  -8   3  -2    2.20    0.75
  -8   3  -2    1.75    0.58
   8  -3   2    0.88    0.43
  -9   3  -2   22.16    1.58
  -9   3  -2   24.88    1.65
 -10   3  -2    2.31    0.71
 -10   3  -2    2.16    0.91
 -11  -2   2    0.29    0.72
 -11  -2   2    0.83    0.76
  10   2  -2    1.79    0.61
 -10  -2   2    1.15    0.68
 -10  -2   2   -0.27    0.66
   9   2  -2    1.99    0.58
  -9  -2   2    1.64    0.68
  -9  -2   2    1.94    0.63
   8   2  -2   42.63    2.26
  -8  -2   2   41.03    2.36
  -8  -2   2   45.21    2.30
   7   2  -2    1.40    0.48
  -7  -2   2    1.41    0.47
  -7  -2   2    0.90    0.53
   6   2  -2   90.54    4.48
   6   2  -2   93.08    4.51
   6   2  -2  109.67    4.46
  -6  -2   2   92.41    4.53
  -6  -2   2   96.32    4.49
   5   2  -2    0.64    0.25
   5   2  -2    0.55    0.34
   5   2  -2    0.49    0.30
  -5  -2   2    0.84    0.30
  -5  -2   2    0.11    0.28
   4   2  -2   91.71    4.27
   4   2  -2  103.04    4.25
   4   2  -2   86.52    4.28
  -4  -2   2   89.36    4.27
  -4  -2   2   96.06    4.25
   3   2  -2    0.30    0.22
   3   2  -2    0.12    0.21
   3   2  -2    0.32    0.24
   3   2  -2    0.71    0.28
  -3  -2   2    0.28    0.20
  -3  -2   2    0.48    0.22
  -3  -2   2    0.20    0.20
   2   2  -2   27.71    1.29
   2   2  -2   25.78    1.30
   2   2  -2   27.16    1.32
   2   2  -2   29.60    1.31
  -2  -2   2   26.48    1.25
  -2  -2   2   26.38    1.29
  -2  -2   2   25.31    1.31
  -2  -2   2   24.90    1.29
   1   2  -2   60.38    2.79
   1   2  -2   64.55    2.81
   1   2  -2   58.16    2.79
   1   2  -2   61.92    2.82
  -1  -2   2   61.57    2.79
  -1  -2   2   63.60    2.79
  -1  -2   2   62.75    2.80
   0   2  -2  255.31   11.38
   0   2  -2  276.60   11.40
   0   2  -2  257.65   11.41
   0   2  -2  252.98   11.38
   0   2  -2  251.16   11.35
   0  -2   2  266.13   11.36
   0  -2   2  255.84   11.38
   0  -2   2  251.32   11.38
  -1   2  -2    7.49    0.43
  -1   2  -2    7.36    0.46
  -1   2  -2    6.54    0.44
  -1   2  -2    7.48    0.50
   1  -2   2    8.02    0.46
   1  -2   2    7.27    0.43
   1  -2   2    7.42    0.45
  -2   2  -2  145.30    6.41
  -2   2  -2  136.19    6.42
  -2   2  -2  135.33    6.47
  -2   2  -2  146.38    6.42
   2  -2   2  149.86    6.42
   2  -2   2  152.87    6.46
   2  -2   2  145.18    6.40
  -3   2  -2   32.80    1.71
  -3   2  -2   34.32    1.62
  -3   2  -2   35.32    1.57
  -3   2  -2   32.88    1.63
   3  -2   2   33.11    1.60
  -4   2  -2    5.72    0.36
  -4   2  -2    5.52    0.49
  -4   2  -2    6.03    0.57
  -4   2  -2    5.01    0.50
   4  -2   2    6.83    0.52
  -5   2  -2    5.58    0.31
  -5   2  -2    5.61    0.61
  -5   2  -2    4.73    0.55
  -5   2  -2    6.38    0.57
   5  -2   2    4.91    0.48
  -6   2  -2   93.22    4.52
  -6   2  -2   96.24    4.44
   6  -2   2   94.52    4.34
  -7   2  -2    0.33    0.47
  -7   2  -2    0.26    0.58
   7  -2   2    0.53    0.38
  -8   2  -2   36.92    2.22
  -8   2  -2   39.65    2.11
   8  -2   2   36.57    1.95
  -9   2  -2    0.78    0.57
  -9   2  -2    0.99    0.74
 -10   2  -2    2.87    0.93
 -10   2  -2    3.89    0.76
 -11  -1   2    1.81    0.81
 -11  -1   2    3.15    0.84
  10   1  -2   14.63    1.16
 -10  -1   2   12.58    1.20
 -10  -1   2   12.21    1.15
   9   1  -2   15.72    1.15
  -9  -1   2   13.76    1.21
  -9  -1   2   11.95    1.17
   8   1  -2    8.59    0.83
  -8  -1   2    9.73    0.93
  -8  -1   2    7.09    0.83
   7   1  -2   34.70    1.59
   7   1  -2   33.52    1.81
  -7  -1   2   32.48    1.87
  -7  -1   2   30.87    1.79
   6   1  -2    8.04    0.51
   6   1  -2    6.31    0.65
   6   1  -2    6.14    0.63
  -6  -1   2    5.98    0.59
  -6  -1   2    6.88    0.71
   5   1  -2   48.71    2.41
   5   1  -2   55.56    2.33
   5   1  -2   48.85    2.43
  -5  -1   2   46.19    2.44
  -5  -1   2   47.32    2.38
   4   1  -2   64.72    2.99
   4   1  -2   65.65    2.97
   4   1  -2   64.47    3.00
  -4  -1   2   64.80    2.97
  -4  -1   2   60.00    3.01
   3   1  -2    4.10    0.39
   3   1  -2    4.65    0.38
   3   1  -2    3.66    0.35
   3   1  -2    3.82    0.40
  -3  -1   2    4.27    0.40
  -3  -1   2    4.25    0.42
  -3  -1   2    4.65    0.42
  -3  -1   2    4.33    0.39
   2   1  -2  117.17    5.31
   2   1  -2  121.13    5.32
   2   1  -2  118.98    5.28
   2   1  -2  118.08    5.32
  -2  -1   2  121.25    5.31
  -2  -1   2  122.22    5.28
  -2  -1   2  113.20    5.31
  -2  -1   2  121.65    5.32
   1   1  -2  120.52    5.22
   1   1  -2  112.76    5.21
   1   1  -2  120.32    5.17
   1   1  -2  116.65    5.23
  -1  -1   2  117.43    5.17
  -1  -1   2  122.88    5.22
  -1  -1   2  113.10    5.21
  -1  -1   2  118.11    5.23
   0   1  -2    0.65    0.11
   0   1  -2    0.56    0.10
   0   1  -2    0.47    0.09
   0   1  -2    0.58    0.16
   0  -1   2    0.77    0.10
   0  -1   2    0.50    0.11
  -1   1  -2  118.57    5.09
  -1   1  -2  116.23    5.10
  -1   1  -2  111.80    5.13
   1  -1   2  113.66    5.09
   1  -1   2  117.51    5.12
   1  -1   2  114.31    5.08
  -2   1  -2   32.91    1.65
  -2   1  -2   36.04    1.64
  -2   1  -2   34.40    1.69
   2  -1   2   37.04    1.66
   2  -1   2   36.54    1.63
   2  -1   2   37.42    1.69
  -3   1  -2   15.31    0.89
  -3   1  -2   14.17    0.89
  -3   1  -2   16.18    0.85
  -3   1  -2   15.94    0.77
   3  -1   2   16.60    0.83
   3  -1   2   17.31    0.97
   3  -1   2   18.83    0.90
  -4   1  -2   16.92    1.08
  -4   1  -2   19.63    0.86
  -4   1  -2   18.65    1.06
  -4   1  -2   19.77    1.05
   4  -1   2   20.53    1.00
  -5   1  -2   46.08    2.23
  -5   1  -2   46.51    2.32
   5  -1   2   43.66    2.15
  -6   1  -2    7.47    0.80
   6  -1   2    7.23    0.61
  -7   1  -2   70.86    3.49
  -7   1  -2   71.10    3.55
   7  -1   2   73.91    3.38
  -8   1  -2    1.27    0.65
  -8   1  -2    1.42    0.59
   8  -1   2    1.52    0.44
  -9   1  -2    7.71    0.91
  -9   1  -2    7.19    1.02
 -10   1  -2   13.44    1.21
 -10   1  -2   14.95    1.31
  11   0  -2   25.72    1.62
 -11   0   2   24.21    1.80
  10   0  -2    6.32    0.76
 -10   0   2    5.87    0.93
 -10   0   2    5.13    0.76
   9   0  -2   23.53    1.50
  -9   0   2   25.57    1.65
  -9   0   2   23.36    1.50
   8   0  -2    7.90    0.80
   8   0  -2    8.83    0.54
  -8   0   2    8.68    0.89
  -8   0   2    7.73    0.88
   7   0  -2    2.35    0.44
   7   0  -2    1.65    0.28
  -7   0   2    2.38    0.58
  -7   0   2    2.27    0.55
   6   0  -2    7.36    0.67
  -6   0   2    5.59    0.67
  -6   0   2    5.18    0.62
   5   0  -2   44.71    2.17
   5   0  -2   43.63    2.17
  -5   0   2   45.05    2.17
  -5   0   2   42.04    2.17
   4   0  -2   27.77    1.46
   4   0  -2   27.59    1.48
   4   0  -2   30.55    1.51
  -4   0   2   30.10    1.47
  -4   0   2   30.51    1.54
   3   0  -2  246.33   10.62
   3   0  -2  240.97   10.60
   3   0  -2  219.95   10.58
   3   0  -2  229.79   10.62
  -3   0   2  232.03   10.60
  -3   0   2  253.70   10.60
  -3   0   2  246.57   10.60
  -3   0   2  243.41   10.63
   2   0  -2   47.56    2.22
   2   0  -2   47.51    2.24
   2   0  -2   46.41    2.21
   2   0  -2   49.18    2.22
  -2   0   2   51.25    2.21
  -2   0   2   46.20    2.21
  -2   0   2   48.83    2.21
  -2   0   2   50.19    2.24
   1   0  -2    2.17    0.22
   1   0  -2    2.18    0.20
   1   0  -2    2.51    0.20
   1   0  -2    2.45    0.22
  -1   0   2    2.25    0.23
  -1   0   2    2.80    0.22
  -1   0   2    2.99    0.23
   0   0  -2   22.07    1.01
   0   0  -2   21.42    1.00
   0   0   2   23.58    0.99
  -1   0  -2   85.91    3.85
  -1   0  -2   86.28    3.84
   1   0   2   88.86    3.83
   1   0   2   87.89    3.83
  -2   0  -2   11.42    0.69
  -2   0  -2   12.09    0.62
  -2   0  -2   10.89    0.63
   2   0   2   12.58    0.60
  -3   0  -2  251.58   10.91
  -3   0  -2  247.50   10.83
  -3   0  -2  233.98   10.90
  -3   0  -2  239.04   10.95
   3   0   2  259.23   10.87
  -4   0  -2   22.07    1.16
  -4   0  -2   19.60    1.16
  -4   0  -2   22.02    1.20
   4   0   2   23.10    1.11
  -5   0  -2   67.79    3.02
  -5   0  -2   63.39    3.06
  -5   0  -2   61.17    3.01
   5   0   2   61.68    2.94
  -6   0  -2    0.13    0.36
  -6   0  -2    0.41    0.36
  -6   0  -2   -0.11    0.38
   6   0   2    0.21    0.30
  -7   0  -2    1.05    0.57
  -7   0  -2   -0.22    0.46
   7   0   2    0.98    0.35
  -8   0  -2    0.71    0.64
  -9   0  -2   33.43    2.00
 -10   0  -2    1.32    0.63
 -10   0  -2    0.54    0.77
  11  -1  -2    1.12    0.57
 -11   1   2    0.26    0.74
 -11   1   2    1.24    0.73
  10  -1  -2   14.21    1.20
 -10   1   2   14.97    1.36
   9  -1  -2    4.29    0.65
  -9   1   2    3.66    0.75
   8  -1  -2    0.11    0.22
   8  -1  -2   -0.11    0.35
  -8   1   2   -0.02    0.51
   7  -1  -2    1.23    0.47
   7  -1  -2    2.23    0.30
  -7   1   2    2.60    0.60
  -7   1   2    1.50    0.53
   6  -1  -2   57.85    2.58
   6  -1  -2   54.75    2.71
  -6   1   2   56.27    2.75
  -6   1   2   53.06    2.74
   5  -1  -2   -0.04    0.26
  -5   1   2   -0.44    0.33
  -5   1   2    0.19    0.39
   4  -1  -2  105.45    4.96
   4  -1  -2  111.10    5.00
  -4   1   2  111.83    5.02
  -4   1   2  107.47    5.01
  -4   1   2  112.16    5.01
   3  -1  -2    6.48    0.53
   3  -1  -2    5.83    0.45
   3  -1  -2    6.64    0.51
   3  -1  -2    5.94    0.53
  -3   1   2    6.66    0.47
  -3   1   2    6.78    0.51
  -3   1   2    6.13    0.52
  -3   1   2    6.57    0.45
   2  -1  -2   56.54    2.55
   2  -1  -2   57.85    2.60
   2  -1  -2   57.26    2.59
   2  -1  -2   56.49    2.59
  -2   1   2   59.45    2.55
  -2   1   2   53.13    2.57
  -2   1   2   53.82    2.58
   1  -1  -2    9.35    0.51
   1  -1  -2    8.76    0.47
  -1   1   2    9.88    0.50
  -1   1   2    9.85    0.47
  -1   1   2    9.12    0.50
   0  -1  -2   36.37    1.61
   0  -1  -2   34.91    1.61
   0   1   2   38.42    1.61
   0   1   2   34.06    1.60
  -1  -1  -2    0.56    0.09
  -1  -1  -2    0.43    0.08
  -1  -1  -2    0.41    0.17
   1   1   2    0.32    0.06
   1   1   2    0.37    0.08
  -2  -1  -2  244.75   10.61
  -2  -1  -2  232.53   10.62
  -2  -1  -2  227.50   10.60
   2   1   2  257.78   10.59
  -3  -1  -2    3.29    0.34
  -3  -1  -2    2.76    0.41
  -3  -1  -2    3.67    0.33
  -3  -1  -2    3.56    0.30
   3   1   2    4.72    0.32
   3   1   2    3.87    0.34
  -4  -1  -2   47.80    2.36
  -4  -1  -2   49.22    2.17
  -4  -1  -2   51.08    2.28
  -4  -1  -2   44.58    2.29
   4   1   2   48.15    2.25
  -5  -1  -2    8.84    0.71
  -5  -1  -2    8.50    0.70
  -5  -1  -2    8.48    0.66
   5   1   2    8.56    0.60
  -6  -1  -2   -0.52    0.39
  -6  -1  -2    0.08    0.47
   6   1   2    0.21    0.27
  -7  -1  -2    0.60    0.49
  -7  -1  -2    0.60    0.42
   7   1   2    1.22    0.38
  -8  -1  -2   43.86    2.36
  -8  -1  -2   42.39    2.33
  -9  -1  -2    2.30    0.78
  -9  -1  -2    2.17    0.66
 -10  -1  -2   12.14    1.31
  11  -2  -2    9.61    0.97
 -11   2   2    8.22    1.12
 -11   2   2    9.82    1.11
  10  -2  -2    9.83    0.97
 -10   2   2   11.42    1.06
 -10   2   2    8.45    1.04
   9  -2  -2    5.91    0.74
  -9   2   2    4.08    0.80
  -9   2   2    5.22    0.83
   8  -2  -2   19.61    1.33
   8  -2  -2   20.86    1.06
  -8   2   2   19.78    1.43
  -8   2   2   19.50    1.41
   7  -2  -2   22.29    1.42
   7  -2  -2   24.78    1.20
  -7   2   2   23.58    1.51
  -7   2   2   22.72    1.49
   6  -2  -2   10.02    0.86
   6  -2  -2   10.55    0.67
  -6   2   2   10.61    0.92
  -6   2   2   10.21    0.92
   5  -2  -2  134.20    5.65
   5  -2  -2  123.59    5.73
  -5   2   2  126.82    5.76
  -5   2   2  116.18    5.74
   4  -2  -2   11.45    0.80
   4  -2  -2   11.40    0.72
  -4   2   2   11.50    0.83
  -4   2   2   12.91    0.72
  -4   2   2   12.30    0.84
   3  -2  -2   20.17    1.06
   3  -2  -2   20.85    1.11
   3  -2  -2   19.15    1.08
   3  -2  -2   20.14    1.05
  -3   2   2   20.38    1.10
  -3   2   2   18.96    1.09
  -3   2   2   20.74    1.08
  -3   2   2   20.82    1.00
   2  -2  -2   19.18    0.99
   2  -2  -2   18.63    0.98
   2  -2  -2   19.02    1.02
   2  -2  -2   19.08    0.91
   2  -2  -2   20.13    0.99
  -2   2   2   18.49    0.98
  -2   2   2   19.81    0.97
  -2   2   2   19.04    0.90
   1  -2  -2  300.58   13.41
   1  -2  -2  287.50   13.46
   1  -2  -2  286.31   13.52
   1  -2  -2  313.07   13.47
  -1   2   2  317.68   13.46
  -1   2   2  330.27   13.47
   0  -2  -2    2.77    0.24
   0  -2  -2    3.27    0.25
   0  -2  -2    2.71    0.33
   0   2   2    3.28    0.24
   0   2   2    3.02    0.23
   0   2   2    3.12    0.34
  -1  -2  -2   50.50    2.43
  -1  -2  -2   52.46    2.37
  -1  -2  -2   50.58    2.36
   1   2   2   53.66    2.44
   1   2   2   54.12    2.36
   1   2   2   54.37    2.35
  -2  -2  -2    0.30    0.16
  -2  -2  -2    0.57    0.21
  -2  -2  -2    0.47    0.15
   2   2   2    0.51    0.15
   2   2   2    0.41    0.19
   2   2   2    0.36    0.13
  -3  -2  -2   62.28    2.85
  -3  -2  -2   61.05    2.85
  -3  -2  -2   64.23    2.85
   3   2   2   63.64    2.85
   3   2   2   61.23    2.84
  -4  -2  -2   29.23    1.60
  -4  -2  -2   31.26    1.49
  -4  -2  -2   30.32    1.44
  -4  -2  -2   29.86    1.51
   4   2   2   29.89    1.48
  -5  -2  -2    0.94    0.32
  -5  -2  -2    0.60    0.37
  -5  -2  -2    0.92    0.35
  -5  -2  -2    1.34    0.22
   5   2   2    0.76    0.28
  -6  -2  -2    7.76    0.72
  -6  -2  -2    7.85    0.75
   6   2   2    7.99    0.69
  -7  -2  -2   23.91    1.55
  -7  -2  -2   22.63    1.42
   7   2   2   23.13    1.29
  -8  -2  -2    3.45    0.65
  -8  -2  -2    3.41    0.76
  -9  -2  -2   13.12    1.17
  -9  -2  -2   14.91    1.39
 -10  -2  -2    2.62    0.76
 -10  -2  -2    0.68    0.63
  11  -3  -2    6.27    0.86
 -11   3   2    5.34    1.02
 -11   3   2    7.02    0.90
  10  -3  -2    0.40    0.54
 -10   3   2   -0.28    0.71
 -10   3   2    0.84    0.70
   9  -3  -2   13.12    1.14
  -9   3   2   12.48    1.10
  -9   3   2   13.32    1.29
   8  -3  -2    8.04    0.61
   8  -3  -2    7.90    0.85
  -8   3   2    6.12    0.85
  -8   3   2    9.26    0.96
   7  -3  -2   20.98    1.31
   7  -3  -2   19.81    1.07
  -7   3   2   18.68    1.36
  -7   3   2   17.22    1.23
   6  -3  -2   24.04    1.42
   6  -3  -2   23.72    1.25
  -6   3   2   23.42    1.47
  -6   3   2   23.33    1.45
   5  -3  -2   46.70    2.17
   5  -3  -2   46.72    2.26
  -5   3   2   43.63    2.26
  -5   3   2   42.57    2.29
   4  -3  -2    6.46    0.55
   4  -3  -2    7.56    0.65
  -4   3   2    4.44    0.57
  -4   3   2    6.87    0.50
  -4   3   2    6.59    0.55
   3  -3  -2   46.64    2.22
   3  -3  -2   49.31    2.23
   3  -3  -2   43.81    2.19
  -3   3   2   44.33    2.25
  -3   3   2   48.59    2.12
  -3   3   2   45.15    2.21
   2  -3  -2    6.60    0.50
   2  -3  -2    7.23    0.59
   2  -3  -2    6.39    0.47
  -2   3   2    7.67    0.51
  -2   3   2    7.05    0.36
   1  -3  -2   99.60    4.29
   1  -3  -2   89.52    4.34
   1  -3  -2   87.78    4.27
  -1   3   2  105.17    4.28
  -1   3   2   95.28    4.27
  -1   3   2   94.27    4.35
   0  -3  -2    3.95    0.33
   0  -3  -2    3.85    0.43
   0  -3  -2    3.49    0.23
   0  -3  -2    4.04    0.32
   0   3   2    4.02    0.30
   0   3   2    4.21    0.34
   0   3   2    4.77    0.45
  -1  -3  -2    0.38    0.18
  -1  -3  -2    0.56    0.27
  -1  -3  -2    0.06    0.14
  -1  -3  -2    0.53    0.17
   1   3   2    0.35    0.19
   1   3   2    0.45    0.17
   1   3   2    0.33    0.14
  -2  -3  -2  133.37    5.82
  -2  -3  -2  131.46    5.81
  -2  -3  -2  122.42    5.86
  -2  -3  -2  136.47    5.85
   2   3   2  129.46    5.87
   2   3   2  129.50    5.80
  -3  -3  -2   36.28    1.87
  -3  -3  -2   40.25    1.86
  -3  -3  -2   37.12    1.86
   3   3   2   41.33    1.90
   3   3   2   41.42    1.85
  -4  -3  -2    0.43    0.29
  -4  -3  -2    0.52    0.28
  -4  -3  -2    0.49    0.26
   4   3   2    1.06    0.26
   4   3   2    0.63    0.26
  -5  -3  -2   70.71    3.30
  -5  -3  -2   72.92    3.40
  -5  -3  -2   72.04    3.49
   5   3   2   74.49    3.31
   5   3   2   70.72    3.35
  -6  -3  -2    0.91    0.42
  -6  -3  -2    1.22    0.55
   6   3   2    1.10    0.34
  -7  -3  -2   20.49    1.37
  -7  -3  -2   19.90    1.44
  -8  -3  -2   15.29    1.32
  -8  -3  -2   12.78    1.16
  -9  -3  -2    1.62    0.75
  -9  -3  -2    1.31    0.62
 -10  -3  -2    3.81    1.22
  11  -4  -2   -0.43    0.61
 -11   4   2    1.37    0.77
 -11   4   2    1.61    0.85
  10  -4  -2   26.18    1.71
 -10   4   2   26.17    1.73
 -10   4   2   25.59    1.82
   9  -4  -2    0.41    0.57
  -9   4   2    0.25    0.53
  -9   4   2   -0.16    0.59
   8  -4  -2   21.53    1.33
  -8   4   2   20.39    1.53
  -8   4   2   20.01    1.47
   7  -4  -2   -0.01    0.28
   7  -4  -2    0.49    0.48
  -7   4   2    0.60    0.41
  -7   4   2    0.24    0.58
   6  -4  -2   -0.29    0.28
   6  -4  -2    0.30    0.46
  -6   4   2   -0.13    0.34
  -6   4   2   -0.44    0.37
   5  -4  -2    1.81    0.48
   5  -4  -2    2.32    0.41
  -5   4   2    1.66    0.42
  -5   4   2    1.43    0.46
   4  -4  -2   60.50    3.01
   4  -4  -2   62.59    3.01
  -4   4   2   72.54    2.92
  -4   4   2   62.50    3.02
  -4   4   2   57.73    3.03
   3  -4  -2   18.38    1.03
   3  -4  -2   16.32    1.05
  -3   4   2   18.40    0.87
  -3   4   2   18.21    0.99
   2  -4  -2  326.11   15.19
   2  -4  -2  335.31   15.26
   2  -4  -2  380.78   15.23
  -2   4   2  328.83   15.06
  -2   4   2  349.49   15.19
   1  -4  -2    4.93    0.44
   1  -4  -2    4.89    0.44
   1  -4  -2    5.25    0.50
  -1   4   2    5.91    0.44
   0  -4  -2   15.21    1.01
   0  -4  -2   17.12    0.90
   0  -4  -2   17.20    0.78
   0  -4  -2   17.07    0.92
   0   4   2   18.11    0.90
  -1  -4  -2   -0.06    0.16
  -1  -4  -2    0.01    0.18
  -1  -4  -2    0.24    0.33
  -1  -4  -2   -0.10    0.21
   1   4   2    0.03    0.20
  -2  -4  -2   48.02    2.14
  -2  -4  -2   44.44    2.21
  -2  -4  -2   43.27    2.14
  -2  -4  -2   46.05    2.14
   2   4   2   45.57    2.12
  -3  -4  -2    2.39    0.36
  -3  -4  -2    2.82    0.40
  -3  -4  -2    2.34    0.34
   3   4   2    2.11    0.31
  -4  -4  -2   92.34    4.33
  -4  -4  -2   97.99    4.33
  -4  -4  -2   92.53    4.34
   4   4   2   96.06    4.32
  -5  -4  -2    2.53    0.44
  -5  -4  -2    1.73    0.54
  -5  -4  -2    2.04    0.38
   5   4   2    1.93    0.37
  -6  -4  -2    3.27    0.54
  -6  -4  -2    3.11    0.67
   6   4   2    2.30    0.51
  -7  -4  -2    1.39    0.57
  -7  -4  -2    0.67    0.62
  -8  -4  -2    0.52    0.57
  -8  -4  -2    0.57    0.69
  -9  -4  -2   -0.99    0.70
  -9  -4  -2    1.13    0.65
  11  -5  -2   12.20    1.15
 -11   5   2   11.18    1.26
  10  -5  -2   -0.14    0.62
 -10   5   2   -0.57    0.77
 -10   5   2    0.00    0.70
   9  -5  -2    6.46    0.86
  -9   5   2    6.41    0.94
  -9   5   2    7.47    0.93
   8  -5  -2    0.00    0.57
   8  -5  -2    0.33    0.38
  -8   5   2    0.58    0.70
  -8   5   2    0.38    0.57
   7  -5  -2    1.01    0.58
   7  -5  -2    1.45    0.45
  -7   5   2    1.09    0.58
  -7   5   2    1.35    0.66
   6  -5  -2   10.86    1.04
   6  -5  -2   13.15    0.89
  -6   5   2   11.21    1.12
  -6   5   2   13.57    0.96
   5  -5  -2   36.34    1.91
   5  -5  -2   38.38    1.97
  -5   5   2   37.47    1.93
  -5   5   2   36.06    2.05
   4  -5  -2    2.25    0.44
   4  -5  -2    2.66    0.41
  -4   5   2    1.91    0.44
  -4   5   2    2.80    0.30
   3  -5  -2   42.84    2.05
   3  -5  -2   38.42    2.04
  -3   5   2   42.72    1.85
  -3   5   2   39.26    2.01
   2  -5  -2    0.78    0.41
   2  -5  -2    0.60    0.32
  -2   5   2    0.43    0.28
   1  -5  -2   16.55    0.92
   1  -5  -2   15.63    0.92
   1  -5  -2   14.89    1.03
  -1   5   2   15.05    0.89
   0  -5  -2   15.29    0.67
   0  -5  -2   13.25    0.86
   0  -5  -2   16.30    0.87
   0  -5  -2   13.54    0.99
   0   5   2   13.99    0.83
  -1  -5  -2    9.17    0.82
  -1  -5  -2   11.45    0.68
  -1  -5  -2   11.06    0.71
  -1  -5  -2   10.49    0.58
   1   5   2    9.85    0.65
  -2  -5  -2   14.83    0.99
  -2  -5  -2   13.97    0.89
  -2  -5  -2   14.78    0.88
  -2  -5  -2   15.52    0.84
   2   5   2   15.77    0.85
  -3  -5  -2   53.22    2.61
  -3  -5  -2   53.44    2.67
  -3  -5  -2   57.85    2.61
   3   5   2   54.97    2.57
  -4  -5  -2   -0.31    0.33
  -4  -5  -2    0.22    0.40
   4   5   2    0.20    0.31
  -5  -5  -2   22.83    1.45
  -5  -5  -2   24.10    1.37
  -5  -5  -2   25.48    1.41
   5   5   2   25.49    1.35
  -6  -5  -2    1.61    0.63
  -6  -5  -2    1.48    0.49
  -7  -5  -2   -0.08    0.55
  -7  -5  -2    0.28    0.62
  -8  -5  -2    3.56    0.75
  -8  -5  -2    3.77    0.74
  -9  -5  -2   19.81    1.68
  11  -6  -2    3.28    0.83
  10  -6  -2    2.56    0.66
 -10   6   2    2.37    0.74
 -10   6   2    2.31    0.85
   9  -6  -2    0.74    0.53
  -9   6   2    0.70    0.81
  -9   6   2    1.02    0.73
   8  -6  -2    0.03    0.37
   8  -6  -2   -0.72    0.58
  -8   6   2    0.55    0.75
  -8   6   2    0.11    0.61
   7  -6  -2   28.70    1.67
   7  -6  -2   28.01    1.59
  -7   6   2   29.25    1.89
  -7   6   2   30.24    1.80
   6  -6  -2   20.94    1.31
   6  -6  -2   21.14    1.30
  -6   6   2   24.47    1.58
  -6   6   2   19.08    1.38
   5  -6  -2    9.97    0.88
   5  -6  -2    9.86    0.87
  -5   6   2    9.75    0.90
   4  -6  -2   15.30    1.04
   4  -6  -2   14.36    1.10
  -4   6   2   18.55    0.85
  -4   6   2   15.50    1.08
   3  -6  -2    6.45    0.65
   3  -6  -2    6.37    0.66
  -3   6   2    5.72    0.56
  -3   6   2    6.47    0.34
  -3   6   2    7.28    0.35
   2  -6  -2    8.01    0.81
   2  -6  -2    6.33    0.61
  -2   6   2    7.73    0.65
   1  -6  -2   44.91    2.27
   1  -6  -2   45.78    2.19
  -1   6   2   43.37    2.15
   0  -6  -2    5.79    0.72
   0  -6  -2    6.67    0.59
   0   6   2    9.00    0.65
  -1  -6  -2   49.20    2.40
  -1  -6  -2   48.90    2.28
  -1  -6  -2   47.13    2.47
   1   6   2   53.70    2.38
  -2  -6  -2    8.25    0.73
  -2  -6  -2    9.18    0.87
   2   6   2    8.94    0.65
  -3  -6  -2    0.15    0.44
  -3  -6  -2    0.02    0.36
   3   6   2    0.12    0.30
  -4  -6  -2   16.09    1.10
  -4  -6  -2   16.98    1.14
   4   6   2   18.01    1.03
  -5  -6  -2   20.33    1.28
  -5  -6  -2   20.18    1.25
  -6  -6  -2   -0.06    0.59
  -6  -6  -2   -0.08    0.48
  -7  -6  -2   22.89    1.67
  -7  -6  -2   23.12    1.52
  -8  -6  -2    6.98    0.91
  -8  -6  -2    6.48    0.91
  10  -7  -2    9.30    1.11
 -10   7   2   12.15    1.26
   9  -7  -2    0.10    0.70
  -9   7   2   -0.46    0.81
  -9   7   2    0.04    0.72
   8  -7  -2   29.83    1.75
   8  -7  -2   32.46    1.92
  -8   7   2   29.90    1.93
  -8   7   2   29.17    1.93
   7  -7  -2   -0.03    0.47
   7  -7  -2   -0.14    0.46
  -7   7   2   -0.10    0.61
   6  -7  -2   11.29    0.97
   6  -7  -2   10.05    0.96
  -6   7   2   11.45    1.04
   5  -7  -2    0.83    0.56
   5  -7  -2    0.33    0.51
  -5   7   2   -0.06    0.46
   4  -7  -2    4.16    0.62
   4  -7  -2    3.09    0.63
  -4   7   2    4.04    0.57
  -4   7   2    3.46    0.36
   3  -7  -2    0.75    0.47
   3  -7  -2    0.65    0.53
  -3   7   2    0.74    0.40
   2  -7  -2   22.06    1.29
   2  -7  -2   21.95    1.41
  -2   7   2   20.23    1.21
   1  -7  -2    3.45    0.64
   1  -7  -2    2.43    0.49
  -1   7   2    2.38    0.44
   0  -7  -2   59.26    2.98
   0  -7  -2   60.37    2.85
   0   7   2   57.48    2.80
  -1  -7  -2    6.23    0.64
  -1  -7  -2    5.92    0.70
   1   7   2    5.77    0.55
  -2  -7  -2    0.34    0.41
  -2  -7  -2    0.14    0.53
   2   7   2   -0.49    0.30
  -3  -7  -2    1.37    0.46
  -3  -7  -2    1.24    0.55
   3   7   2    0.52    0.35
  -4  -7  -2   15.12    1.14
  -4  -7  -2   13.53    1.06
  -5  -7  -2    0.71    0.51
  -5  -7  -2    0.32    0.50
  -6  -7  -2   35.19    2.10
  -6  -7  -2   32.32    1.92
  -7  -7  -2    1.73    0.80
  -7  -7  -2    0.16    0.63
   9  -8  -2   23.82    1.75
  -9   8   2   22.12    1.75
   8  -8  -2   -0.15    0.53
   8  -8  -2    0.27    0.53
  -8   8   2   -0.17    0.68
   7  -8  -2    3.26    0.68
   7  -8  -2    3.38    0.79
  -7   8   2    3.27    0.76
   6  -8  -2    0.62    0.57
   6  -8  -2    0.30    0.49
  -6   8   2   -0.78    0.52
   5  -8  -2   -0.78    0.56
   5  -8  -2   -0.14    0.55
  -5   8   2   -0.35    0.48
   4  -8  -2    9.37    0.88
   4  -8  -2    7.73    0.91
  -4   8   2    8.96    0.81
   3  -8  -2   27.56    1.70
   3  -8  -2   32.39    1.84
  -3   8   2   30.18    1.65
   2  -8  -2    5.60    0.68
   2  -8  -2    6.72    0.76
  -2   8   2    5.18    0.61
   1  -8  -2   32.40    1.91
   1  -8  -2   30.27    1.73
  -1   8   2   31.43    1.67
   0  -8  -2    3.11    0.73
   0  -8  -2    3.21    0.57
   0   8   2    3.53    0.50
  -1  -8  -2   -0.01    0.46
  -1  -8  -2    0.53    0.62
   1   8   2    0.13    0.37
  -2  -8  -2    2.31    0.56
  -2  -8  -2    3.97    0.77
   2   8   2    2.88    0.50
  -3  -8  -2    8.55    0.83
  -3  -8  -2    9.70    0.99
  -4  -8  -2    0.40    0.53
  -4  -8  -2    0.45    0.60
  -5  -8  -2   32.88    1.88
  -5  -8  -2   32.39    1.92
  -6  -8  -2   -0.76    0.69
  -6  -8  -2   -0.88    0.60
   8  -9  -2   -0.02    0.77
   8  -9  -2    0.84    0.62
  -8   9   2    0.38    0.71
   7  -9  -2    6.64    0.98
   7  -9  -2    7.34    0.91
  -7   9   2    5.84    0.92
   6  -9  -2   -0.25    0.66
   6  -9  -2    1.35    0.67
  -6   9   2    0.48    0.58
   5  -9  -2   13.04    1.22
   5  -9  -2   12.10    1.13
  -5   9   2   12.43    1.06
   4  -9  -2   13.19    1.30
   4  -9  -2   14.53    1.24
  -4   9   2   14.75    1.13
   3  -9  -2    0.85    0.70
   3  -9  -2    0.77    0.58
  -3   9   2    0.03    0.49
   2  -9  -2    5.77    0.79
   2  -9  -2    6.05    0.77
  -2   9   2    5.26    0.67
   1  -9  -2    3.85    0.66
   1  -9  -2    2.95    0.81
  -1   9   2    3.01    0.55
   0  -9  -2    4.51    0.67
   0  -9  -2    3.65    0.84
   0   9   2    2.98    0.53
  -1  -9  -2    7.43    0.84
  -1  -9  -2    9.88    1.08
  -2  -9  -2    1.86    0.60
  -2  -9  -2    0.33    0.56
  -3  -9  -2   10.40    0.95
  -3  -9  -2    9.63    1.08
  -4  -9  -2    6.80    0.84
  -4  -9  -2    8.35    0.99
  -5  -9  -2    1.05    0.66
  -8  10   2    5.07    0.96
   7 -10  -2   -0.56    0.65
  -7  10   2   -0.98    0.64
   6 -10  -2   11.38    1.19
   6 -10  -2   12.33    1.25
  -6  10   2   10.34    1.09
   5 -10  -2    1.98    0.80
   5 -10  -2    0.26    0.67
  -5  10   2    0.43    0.59
   4 -10  -2    4.81    0.86
   4 -10  -2    6.10    0.97
  -4  10   2    6.10    0.77
   3 -10  -2    0.80    0.51
   3 -10  -2    1.07    0.81
  -3  10   2    0.92    0.55
   2 -10  -2    1.56    0.67
   2 -10  -2    3.82    0.91
  -2  10   2    2.28    0.59
   1 -10  -2   -0.59    0.73
   1 -10  -2    0.78    0.62
   0 -10  -2   10.43    1.20
   0 -10  -2   11.47    1.04
  -1 -10  -2    2.60    0.69
  -1 -10  -2    2.48    0.85
  -2 -10  -2    7.63    0.94
  -2 -10  -2   10.90    1.19
  -3 -10  -2    1.36    0.65
  -3 -10  -2    0.72    0.79
  -4 -10  -2    1.23    0.77
  -6  11   2    2.06    0.76
   4 -11  -2    0.17    0.77
   3 -11  -2    3.99    0.83
   3 -11  -2    4.28    1.01
   2 -11  -2   -0.85    0.64
   2 -11  -2   -0.93    0.81
   1 -11  -2   11.34    1.21
   1 -11  -2   11.40    1.08
   0 -11  -2   -0.15    0.61
   0 -11  -2   -1.18    0.66
   1  12  -3    6.13    0.93
   0  12  -3   -0.07    0.66
  -1  12  -3    1.13    0.82
   4  11  -3   -1.39    0.56
   3  11  -3    5.24    0.79
   2  11  -3    2.42    0.69
  -2 -11   3    1.15    0.72
  -2 -11   3    2.79    0.92
   1  11  -3    0.41    0.64
  -1 -11   3   -0.09    0.68
  -1 -11   3    1.01    0.84
   0  11  -3   -0.34    0.60
   0 -11   3   -0.13    0.65
   0 -11   3    1.06    0.65
  -1  11  -3    9.42    1.00
   1 -11   3   11.30    1.25
   1 -11   3   10.49    1.04
  -2  11  -3   -0.64    0.61
   2 -11   3    0.48    0.78
   2 -11   3   -0.60    0.64
  -3  11  -3    4.93    0.84
   3 -11   3    6.92    0.90
   3 -11   3    5.64    0.97
  -4  11  -3    6.14    0.90
   4 -11   3    7.54    0.95
   4 -11   3    6.89    0.90
   5 -11   3   -0.65    0.68
   5 -11   3    0.82    0.71
   6 -11   3    1.67    0.70
   5  10  -3   -0.41    0.61
   4  10  -3   13.86    1.26
  -4 -10   3   14.94    1.32
   3  10  -3   -0.26    0.57
  -3 -10   3    0.30    0.63
  -3 -10   3    0.03    0.72
   2  10  -3   -0.16    0.54
  -2 -10   3    0.82    0.65
  -2 -10   3    0.21    0.56
   1  10  -3    0.10    0.54
  -1 -10   3   -0.45    0.57
  -1 -10   3    0.00    0.56
   0  10  -3   31.13    1.93
   0 -10   3   34.23    1.96
   0 -10   3   37.25    2.17
  -1  10  -3   -0.14    0.55
   1 -10   3    0.00    0.51
   1 -10   3   -0.89    0.57
  -2  10  -3   16.49    1.29
   2 -10   3   15.71    1.29
   2 -10   3   16.51    1.26
  -3  10  -3    0.27    0.61
   3 -10   3    1.39    0.65
   3 -10   3    1.94    0.59
  -4  10  -3    0.62    0.58
   4 -10   3   -0.20    0.62
   4 -10   3   -1.35    0.56
  -5  10  -3   -0.41    0.62
   5 -10   3   -0.34    0.57
   5 -10   3   -0.54    0.59
  -6  10  -3    2.06    0.76
   6 -10   3    2.74    0.76
   6 -10   3    1.20    0.59
   6   9  -3    0.02    0.56
   6   9  -3   -0.99    0.57
  -6  -9   3    0.19    0.72
   5   9  -3   10.14    0.99
   5   9  -3   10.21    0.97
  -5  -9   3   10.95    1.08
   4   9  -3    6.24    0.77
   4   9  -3    7.77    0.86
  -4  -9   3    8.77    0.93
   3   9  -3    3.14    0.61
   3   9  -3    1.96    0.52
  -3  -9   3    1.62    0.62
  -3  -9   3    2.28    0.62
   2   9  -3   11.32    0.96
   2   9  -3   13.39    1.12
  -2  -9   3   14.90    1.04
  -2  -9   3   15.31    1.32
   1   9  -3    5.95    0.73
   1   9  -3    4.75    0.59
  -1  -9   3    5.92    0.66
  -1  -9   3    4.39    0.84
   0   9  -3    1.25    0.45
   0   9  -3    1.54    0.46
   0  -9   3    0.90    0.55
   0  -9   3    1.51    0.55
  -1   9  -3   19.02    1.11
  -1   9  -3   17.04    1.15
   1  -9   3   15.16    1.35
   1  -9   3   17.77    1.26
  -2   9  -3    1.53    0.46
  -2   9  -3    2.06    0.49
   2  -9   3    1.96    0.48
   2  -9   3    1.57    0.66
  -3   9  -3   12.53    1.16
  -3   9  -3   16.10    1.04
   3  -9   3   13.71    1.13
   3  -9   3   14.36    1.22
  -4   9  -3   10.01    0.90
  -4   9  -3    8.34    0.80
   4  -9   3    8.80    0.89
   4  -9   3   11.11    1.02
  -5   9  -3   -0.11    0.44
  -5   9  -3   -0.07    0.49
   5  -9   3    0.05    0.44
   5  -9   3    0.29    0.60
  -6   9  -3    3.11    0.61
  -6   9  -3    3.80    0.77
   6  -9   3    3.05    0.62
   6  -9   3    2.08    0.67
  -7   9  -3   17.55    1.67
  -7   9  -3   18.05    1.48
  -8   9  -3   -1.96    0.83
   7   8  -3    2.42    0.64
   7   8  -3    2.37    0.72
  -7  -8   3    3.66    0.84
   6   8  -3    6.40    0.87
   6   8  -3    6.28    0.79
  -6  -8   3    6.26    0.86
  -6  -8   3    4.36    0.63
   5   8  -3    9.04    0.89
   5   8  -3    9.21    0.90
  -5  -8   3    9.60    0.89
  -5  -8   3    9.24    0.88
   4   8  -3    1.88    0.52
   4   8  -3    0.92    0.51
  -4  -8   3    1.38    0.57
   3   8  -3   28.10    1.66
   3   8  -3   29.37    1.63
  -3  -8   3   28.74    1.70
  -3  -8   3   29.60    1.79
   2   8  -3    2.59    0.51
   2   8  -3    2.74    0.49
  -2  -8   3    2.64    0.70
  -2  -8   3    1.81    0.56
   1   8  -3   15.70    1.13
   1   8  -3   14.82    1.05
  -1  -8   3   16.47    1.28
  -1  -8   3   17.26    1.15
   0   8  -3   12.47    0.97
   0   8  -3   11.52    0.83
   0  -8   3   11.21    1.11
   0  -8   3   13.14    1.00
  -1   8  -3    0.54    0.36
  -1   8  -3    1.17    0.49
   1  -8   3    0.06    0.54
   1  -8   3    1.40    0.49
  -2   8  -3    6.47    0.71
  -2   8  -3    5.41    0.58
   2  -8   3    6.24    0.79
   2  -8   3    6.57    0.70
  -3   8  -3   55.07    2.71
  -3   8  -3   53.57    2.60
   3  -8   3   53.73    2.67
   3  -8   3   52.29    2.73
  -4   8  -3   -0.02    0.40
  -4   8  -3    0.74    0.51
   4  -8   3    0.12    0.46
   4  -8   3   -0.04    0.44
  -5   8  -3    7.88    0.76
  -5   8  -3    6.68    0.82
  -5   8  -3    7.00    0.94
   5  -8   3    8.66    0.84
   5  -8   3    7.12    0.78
  -6   8  -3   10.78    0.97
  -6   8  -3    6.48    0.97
   6  -8   3    4.56    0.73
   6  -8   3    6.43    0.70
  -7   8  -3   -0.40    0.64
  -7   8  -3    0.32    0.78
   7  -8   3   -0.98    0.53
  -8   8  -3    2.46    0.79
  -8   8  -3    3.14    0.98
   8   7  -3    2.27    0.67
  -8  -7   3    3.72    0.84
  -8  -7   3    4.03    1.03
   7   7  -3    0.29    0.59
   7   7  -3    0.68    0.57
  -7  -7   3    0.16    0.63
  -7  -7   3   -0.30    0.51
   6   7  -3    7.70    0.80
   6   7  -3    6.65    0.80
  -6  -7   3    8.28    0.92
  -6  -7   3    8.61    0.79
   5   7  -3   -0.67    0.34
   5   7  -3    0.21    0.37
  -5  -7   3   -0.08    0.52
  -5  -7   3   -0.47    0.40
   4   7  -3   18.34    1.22
   4   7  -3   18.79    1.24
  -4  -7   3   19.93    1.29
   3   7  -3    4.35    0.59
   3   7  -3    5.10    0.64
  -3  -7   3    5.75    0.61
  -3  -7   3    6.05    0.69
   2   7  -3   27.06    1.46
   2   7  -3   28.50    1.52
  -2  -7   3   25.56    1.51
  -2  -7   3   25.52    1.61
   1   7  -3    0.50    0.41
   1   7  -3    0.84    0.35
  -1  -7   3    1.30    0.36
  -1  -7   3    0.71    0.53
   0   7  -3    3.12    0.51
   0   7  -3    2.95    0.43
   0  -7   3    3.62    0.53
   0  -7   3    2.81    0.50
  -1   7  -3    0.24    0.31
  -1   7  -3   -0.17    0.34
   1  -7   3    0.02    0.47
   1  -7   3   -0.50    0.37
  -2   7  -3   30.28    1.58
  -2   7  -3   30.92    1.65
   2  -7   3   30.95    1.62
   2  -7   3   28.21    1.68
  -3   7  -3    1.45    0.46
  -3   7  -3    0.01    0.34
   3  -7   3    0.95    0.44
   3  -7   3    1.01    0.48
  -4   7  -3   36.30    1.92
  -4   7  -3   34.15    1.84
   4  -7   3   31.69    1.79
   4  -7   3   33.10    1.75
  -5   7  -3    0.03    0.57
  -5   7  -3    0.27    0.45
   5  -7   3    0.31    0.41
   5  -7   3    0.14    0.42
  -6   7  -3   22.08    1.45
  -6   7  -3   20.40    1.58
   6  -7   3   20.78    1.24
   6  -7   3   22.03    1.36
  -7   7  -3   -0.82    0.54
  -7   7  -3   -0.53    0.71
   7  -7   3   -0.23    0.48
  -8   7  -3    5.88    0.88
  -8   7  -3    3.79    1.01
  -9   7  -3    1.23    0.93
   9   6  -3    5.09    0.81
  -9  -6   3    4.64    0.74
  -9  -6   3    2.62    0.72
   8   6  -3    0.46    0.57
  -8  -6   3   -0.74    0.64
  -8  -6   3    0.13    0.55
   7   6  -3    4.65    0.75
   7   6  -3    4.28    0.70
  -7  -6   3    4.67    0.68
  -7  -6   3    5.26    0.79
   6   6  -3    9.46    0.88
   6   6  -3   10.20    0.95
  -6  -6   3    9.71    0.94
  -6  -6   3   11.11    0.90
   5   6  -3   28.90    1.57
   5   6  -3   28.24    1.59
  -5  -6   3   26.41    1.44
  -5  -6   3   24.63    1.58
   4   6  -3    1.24    0.48
   4   6  -3    1.22    0.36
  -4  -6   3    0.98    0.46
   3   6  -3   67.67    3.19
   3   6  -3   63.57    3.15
  -3  -6   3   68.18    3.26
  -3  -6   3   67.76    3.20
   2   6  -3   25.14    1.38
   2   6  -3   23.61    1.34
  -2  -6   3   24.61    1.47
  -2  -6   3   25.89    1.34
   1   6  -3    0.15    0.35
   1   6  -3   -0.28    0.28
  -1  -6   3    0.39    0.27
  -1  -6   3   -0.05    0.32
   0   6  -3   13.88    0.86
   0   6  -3   14.93    0.93
   0  -6   3   13.80    0.86
   0  -6   3   14.15    1.02
  -1   6  -3   24.06    1.27
  -1   6  -3   22.34    1.20
   1  -6   3   21.81    1.27
   1  -6   3   21.56    1.24
  -2   6  -3    2.44    0.44
  -2   6  -3    1.91    0.39
   2  -6   3    1.87    0.46
   2  -6   3    1.86    0.40
  -3   6  -3   80.47    3.72
  -3   6  -3   80.48    3.69
   3  -6   3   74.34    3.68
   3  -6   3   78.49    3.65
  -4   6  -3    0.12    0.36
  -4   6  -3   -0.15    0.40
   4  -6   3    0.22    0.30
   4  -6   3    0.30    0.35
  -5   6  -3    6.77    0.72
  -5   6  -3    6.40    0.84
   5  -6   3    5.96    0.60
   5  -6   3    5.95    0.62
  -6   6  -3    9.20    1.05
  -6   6  -3    8.95    0.86
   6  -6   3    9.45    0.84
  -7   6  -3    6.95    1.03
  -7   6  -3    7.93    0.84
   7  -6   3    6.65    0.72
  -8   6  -3    4.91    0.84
  -8   6  -3    4.22    0.77
  -9   6  -3   16.91    1.62
  -9   6  -3   13.40    1.25
 -10  -5   3    5.76    0.84
  -9  -5   3   22.44    1.50
  -9  -5   3   23.16    1.73
   8   5  -3    0.18    0.53
  -8  -5   3    0.86    0.49
  -8  -5   3    0.65    0.64
   7   5  -3   19.59    1.45
   7   5  -3   23.02    1.42
  -7  -5   3   23.94    1.39
  -7  -5   3   21.31    1.46
   6   5  -3   10.08    0.91
   6   5  -3   11.04    0.87
  -6  -5   3    9.40    0.89
  -6  -5   3   10.03    0.86
   5   5  -3    2.38    0.56
   5   5  -3    3.63    0.47
  -5  -5   3    2.30    0.39
  -5  -5   3    2.20    0.44
   4   5  -3   49.99    2.47
   4   5  -3   50.85    2.51
  -4  -5   3   51.30    2.39
  -4  -5   3   49.96    2.49
   3   5  -3   15.93    0.95
   3   5  -3   16.76    1.02
  -3  -5   3   15.43    0.99
   2   5  -3    0.41    0.32
   2   5  -3    0.16    0.31
  -2  -5   3    0.40    0.32
  -2  -5   3   -0.26    0.37
   1   5  -3   42.71    2.03
   1   5  -3   43.27    2.06
  -1  -5   3   41.40    2.04
  -1  -5   3   41.28    2.09
   0   5  -3   22.81    1.22
   0   5  -3   23.44    1.23
   0  -5   3   25.46    1.21
   0  -5   3   23.57    1.33
   0  -5   3   22.69    1.21
  -1   5  -3    5.32    0.51
  -1   5  -3    5.49    0.50
   1  -5   3    5.24    0.48
   1  -5   3    4.73    0.51
   1  -5   3    6.58    0.54
  -2   5  -3   65.78    3.17
  -2   5  -3   69.34    3.19
  -2   5  -3   71.04    3.19
   2  -5   3   72.16    3.17
   2  -5   3   63.12    3.19
  -3   5  -3    0.48    0.31
  -3   5  -3    0.39    0.38
   3  -5   3    0.22    0.29
   3  -5   3    0.43    0.33
  -4   5  -3    8.67    0.84
  -4   5  -3    8.82    0.76
   4  -5   3    8.62    0.71
   4  -5   3    9.06    0.70
  -5   5  -3   50.33    2.60
  -5   5  -3   50.49    2.45
   5  -5   3   46.05    2.36
  -6   5  -3    5.64    0.70
  -6   5  -3    4.24    0.81
   6  -5   3    5.67    0.58
  -7   5  -3   11.06    1.18
  -7   5  -3   12.37    1.05
   7  -5   3   11.02    0.89
  -8   5  -3   15.71    1.49
  -8   5  -3   13.19    1.22
  -9   5  -3    1.25    0.86
  -9   5  -3    0.01    0.62
 -10   5  -3    9.85    1.46
 -11  -4   3    1.45    0.77
  10   4  -3   15.92    1.32
 -10  -4   3   16.01    1.42
 -10  -4   3   14.11    1.27
   9   4  -3    0.20    0.53
  -9  -4   3   -0.23    0.51
  -9  -4   3   -0.09    0.60
   8   4  -3   32.02    1.88
  -8  -4   3   35.31    2.01
  -8  -4   3   31.33    1.82
   7   4  -3    5.85    0.71
   7   4  -3    5.50    0.78
  -7  -4   3    7.05    0.69
  -7  -4   3    6.00    0.71
   6   4  -3    5.65    0.67
   6   4  -3    6.84    0.76
  -6  -4   3    6.29    0.72
  -6  -4   3    6.71    0.64
   5   4  -3   23.12    1.39
   5   4  -3   23.80    1.29
  -5  -4   3   22.23    1.26
  -5  -4   3   24.69    1.37
   4   4  -3   74.69    3.56
   4   4  -3   75.77    3.51
  -4  -4   3   72.28    3.53
  -4  -4   3   78.73    3.46
   3   4  -3    0.28    0.30
   3   4  -3    0.27    0.34
  -3  -4   3    1.34    0.33
  -3  -4   3    1.21    0.24
   2   4  -3  172.68    7.81
   2   4  -3  179.14    7.82
  -2  -4   3  172.43    7.81
   1   4  -3    2.68    0.36
   1   4  -3    2.70    0.34
  -1  -4   3    2.03    0.34
  -1  -4   3    2.44    0.34
  -1  -4   3    2.89    0.27
   0   4  -3   65.89    3.01
   0   4  -3   63.26    3.00
   0   4  -3   66.99    3.02
   0  -4   3   60.26    3.06
   0  -4   3   67.87    2.98
   0  -4   3   68.39    3.01
  -1   4  -3    0.90    0.28
  -1   4  -3    0.65    0.24
  -1   4  -3    0.52    0.23
  -1   4  -3    0.38    0.24
   1  -4   3    0.12    0.23
   1  -4   3    0.59    0.24
   1  -4   3    0.70    0.24
  -2   4  -3    0.98    0.30
  -2   4  -3    0.51    0.28
  -2   4  -3    0.94    0.27
   2  -4   3    0.80    0.34
   2  -4   3    1.12    0.27
   2  -4   3    0.92    0.30
  -3   4  -3    1.03    0.41
  -3   4  -3    1.79    0.32
  -3   4  -3    1.36    0.33
   3  -4   3    0.79    0.29
  -4   4  -3  130.94    6.11
  -4   4  -3  133.38    6.01
   4  -4   3  133.18    5.96
  -5   4  -3   -0.65    0.48
  -5   4  -3    0.00    0.32
  -5   4  -3    0.03    0.38
   5  -4   3    0.16    0.31
  -6   4  -3   33.41    1.83
  -6   4  -3   33.67    2.01
   6  -4   3   34.09    1.73
  -7   4  -3    0.23    0.65
  -7   4  -3   -0.16    0.49
   7  -4   3    0.14    0.35
  -8   4  -3    3.78    0.68
  -8   4  -3    4.31    0.94
  -9   4  -3    2.70    0.75
  -9   4  -3    1.31    0.63
 -10   4  -3    8.64    1.28
 -10   4  -3   11.09    1.10
 -11  -3   3    5.98    0.91
  10   3  -3    1.41    0.63
 -10  -3   3    1.24    0.62
 -10  -3   3    0.64    0.73
   9   3  -3   30.73    1.74
  -9  -3   3   31.10    1.93
  -9  -3   3   28.60    1.77
   8   3  -3    2.57    0.62
  -8  -3   3    2.30    0.65
  -8  -3   3    2.05    0.55
   7   3  -3   20.53    1.30
   7   3  -3   21.51    1.34
  -7  -3   3   20.22    1.42
  -7  -3   3   21.39    1.28
   6   3  -3   23.14    1.33
   6   3  -3   20.46    1.30
  -6  -3   3   23.18    1.30
  -6  -3   3   23.12    1.38
   5   3  -3   25.63    1.50
   5   3  -3   27.41    1.47
  -5  -3   3   26.66    1.45
  -5  -3   3   27.61    1.40
   4   3  -3    8.90    0.71
   4   3  -3    7.16    0.64
  -4  -3   3    8.56    0.57
  -4  -3   3    6.26    0.61
   3   3  -3  101.90    4.76
   3   3  -3  104.25    4.73
  -3  -3   3  103.42    4.74
  -3  -3   3  107.87    4.67
   2   3  -3   49.58    2.28
   2   3  -3   46.19    2.27
   2   3  -3   46.92    2.28
  -2  -3   3   51.97    2.29
   1   3  -3  184.68    8.10
   1   3  -3  178.80    8.10
   1   3  -3  183.17    8.12
  -1  -3   3  183.16    8.03
  -1  -3   3  181.94    8.16
  -1  -3   3  182.78    8.10
   0   3  -3   35.23    1.62
   0   3  -3   34.36    1.58
   0   3  -3   32.04    1.58
   0  -3   3   32.75    1.58
   0  -3   3   32.68    1.54
  -1   3  -3    0.38    0.24
  -1   3  -3    0.08    0.17
  -1   3  -3   -0.14    0.18
  -1   3  -3    0.10    0.18
  -1   3  -3    0.16    0.21
   1  -3   3    0.00    0.18
   1  -3   3   -0.12    0.18
  -2   3  -3    9.02    0.56
  -2   3  -3    8.67    0.58
  -2   3  -3    8.68    0.58
  -2   3  -3    9.35    0.67
   2  -3   3    9.94    0.61
   2  -3   3    9.76    0.56
  -3   3  -3   33.03    1.68
  -3   3  -3   33.35    1.78
  -3   3  -3   36.21    1.65
  -3   3  -3   36.45    1.68
   3  -3   3   33.01    1.63
  -4   3  -3   13.64    0.83
  -4   3  -3   14.39    0.77
  -4   3  -3   13.00    0.88
  -4   3  -3   13.72    1.01
   4  -3   3   13.21    0.79
  -5   3  -3   57.48    2.86
  -5   3  -3   67.59    2.87
  -5   3  -3   54.69    2.94
   5  -3   3   59.08    2.80
  -6   3  -3    0.13    0.43
  -6   3  -3   -0.61    0.51
   6  -3   3    0.13    0.30
  -7   3  -3    3.50    0.62
  -7   3  -3    4.49    0.81
   7  -3   3    4.06    0.49
  -8   3  -3    1.57    0.55
  -8   3  -3    0.59    0.72
  -9   3  -3   11.41    1.08
  -9   3  -3   14.39    1.25
 -10   3  -3    5.24    0.83
 -10   3  -3    5.55    0.92
  11   2  -3    2.89    0.72
 -11  -2   3    3.92    0.82
 -11  -2   3    2.33    0.85
  10   2  -3   16.49    1.29
 -10  -2   3   14.02    1.30
 -10  -2   3   14.45    1.28
   9   2  -3    2.68    0.62
  -9  -2   3    2.24    0.62
  -9  -2   3    2.04    0.72
   8   2  -3    6.29    0.73
  -8  -2   3    5.59    0.70
  -8  -2   3    5.03    0.80
   7   2  -3   24.61    1.51
   7   2  -3   25.10    1.56
  -7  -2   3   24.84    1.58
  -7  -2   3   26.62    1.46
   6   2  -3    7.32    0.76
   6   2  -3    6.90    0.69
  -6  -2   3    6.59    0.72
  -6  -2   3    7.91    0.68
   5   2  -3   96.47    4.50
   5   2  -3   92.84    4.48
  -5  -2   3  100.12    4.53
  -5  -2   3   99.45    4.45
   4   2  -3   15.50    0.91
   4   2  -3   14.18    0.91
  -4  -2   3   15.86    0.85
  -4  -2   3   16.22    0.95
   3   2  -3    5.71    0.44
   3   2  -3    6.40    0.54
   3   2  -3    5.69    0.44
  -3  -2   3    5.64    0.52
  -3  -2   3    5.15    0.39
   2   2  -3   82.93    3.97
   2   2  -3   86.77    4.00
   2   2  -3   89.63    3.99
  -2  -2   3   90.32    3.98
  -2  -2   3   91.81    4.00
  -2  -2   3   89.44    3.91
  -2  -2   3   86.86    3.97
   1   2  -3   26.49    1.25
   1   2  -3   24.34    1.25
   1   2  -3   27.08    1.24
  -1  -2   3   24.39    1.25
  -1  -2   3   26.99    1.25
  -1  -2   3   26.62    1.24
   0   2  -3    1.78    0.21
   0   2  -3    1.62    0.17
   0   2  -3    1.65    0.20
   0   2  -3    1.64    0.23
   0  -2   3    1.99    0.20
   0  -2   3    2.14    0.21
   0  -2   3    1.86    0.17
  -1   2  -3  128.79    5.91
  -1   2  -3  126.53    5.87
  -1   2  -3  135.58    5.93
  -1   2  -3  132.44    5.87
   1  -2   3  141.72    5.88
   1  -2   3  130.39    5.88
   1  -2   3  132.09    5.86
  -2   2  -3  123.78    5.24
  -2   2  -3  111.70    5.30
  -2   2  -3  111.79    5.23
  -2   2  -3  116.48    5.25
   2  -2   3  116.33    5.21
   2  -2   3  118.14    5.27
   2  -2   3  123.85    5.24
  -3   2  -3    0.01    0.31
  -3   2  -3    0.11    0.20
  -3   2  -3    0.11    0.18
  -3   2  -3    0.00    0.20
   3  -2   3    0.24    0.19
  -4   2  -3   59.96    2.92
  -4   2  -3   66.84    2.83
  -4   2  -3   61.78    2.91
  -4   2  -3   59.58    3.02
   4  -2   3   63.96    2.87
  -5   2  -3   25.17    1.52
  -5   2  -3   26.78    1.37
  -5   2  -3   23.62    1.37
  -5   2  -3   26.55    1.18
   5  -2   3   24.24    1.29
  -6   2  -3    0.16    0.38
  -6   2  -3    0.42    0.51
   6  -2   3    0.26    0.30
  -7   2  -3   16.49    1.21
  -7   2  -3   16.32    1.14
   7  -2   3   16.00    0.98
  -8   2  -3   -0.05    0.49
  -8   2  -3    0.65    0.53
  -9   2  -3    9.35    0.91
  -9   2  -3    5.79    1.03
 -10   2  -3   10.39    1.27
 -10   2  -3    8.46    0.95
  11   1  -3    3.02    0.69
 -11  -1   3    2.67    0.76
 -11  -1   3    3.00    0.87
  10   1  -3    0.58    0.59
 -10  -1   3    0.47    0.68
 -10  -1   3    0.38    0.60
   9   1  -3    1.40    0.59
  -9  -1   3   -0.35    0.51
  -9  -1   3   -0.71    0.55
   8   1  -3   37.48    2.04
  -8  -1   3   36.53    1.98
  -8  -1   3   37.88    2.13
   7   1  -3    0.35    0.46
   7   1  -3   -0.72    0.46
  -7  -1   3   -0.14    0.40
  -7  -1   3   -0.41    0.47
   6   1  -3   43.70    2.28
   6   1  -3   44.32    2.27
  -6  -1   3   46.22    2.30
  -6  -1   3   46.69    2.26
   5   1  -3    4.76    0.54
   5   1  -3    5.16    0.58
  -5  -1   3    4.75    0.54
  -5  -1   3    6.42    0.55
   4   1  -3    0.85    0.28
   4   1  -3    0.59    0.25
   4   1  -3    1.29    0.28
  -4  -1   3    0.50    0.25
  -4  -1   3    0.89    0.29
   3   1  -3   23.10    1.26
   3   1  -3   24.26    1.28
   3   1  -3   23.99    1.21
   3   1  -3   25.64    1.26
  -3  -1   3   25.64    1.30
  -3  -1   3   26.61    1.22
   2   1  -3   14.74    0.74
   2   1  -3   15.33    0.81
   2   1  -3   15.40    0.82
   2   1  -3   14.15    0.79
  -2  -1   3   15.77    0.79
  -2  -1   3   15.70    0.82
  -2  -1   3   16.38    0.81
  -2  -1   3   15.35    0.74
   1   1  -3   12.02    0.57
   1   1  -3   11.21    0.63
   1   1  -3   11.51    0.63
   1   1  -3   12.76    0.66
  -1  -1   3   13.20    0.65
  -1  -1   3   13.00    0.66
  -1  -1   3   13.05    0.62
   0   1  -3  429.51   18.49
   0   1  -3  409.67   18.49
   0   1  -3  431.15   18.50
   0   1  -3  394.76   18.54
   0  -1   3  430.26   18.49
   0  -1   3  431.68   18.49
  -1   1  -3    0.82    0.19
  -1   1  -3    0.80    0.13
  -1   1  -3    0.92    0.12
   1  -1   3    1.07    0.13
  -2   1  -3    0.47    0.16
  -2   1  -3    0.66    0.25
  -2   1  -3    0.54    0.15
   2  -1   3    0.33    0.09
   2  -1   3    0.87    0.17
  -3   1  -3   11.78    0.67
  -3   1  -3   10.99    0.68
  -3   1  -3   11.85    0.80
   3  -1   3   11.36    0.62
   3  -1   3   13.84    0.70
  -4   1  -3    1.58    0.18
  -4   1  -3    1.21    0.30
  -4   1  -3    0.88    0.32
  -4   1  -3    0.90    0.42
   4  -1   3    1.55    0.24
  -5   1  -3   14.15    0.95
  -5   1  -3   15.33    0.95
  -5   1  -3   15.52    1.00
   5  -1   3   13.86    0.83
  -6   1  -3   64.27    3.16
  -6   1  -3   63.92    3.03
   6  -1   3   60.81    2.92
  -7   1  -3    0.31    0.48
  -7   1  -3    0.18    0.57
   7  -1   3    0.09    0.34
  -8   1  -3   27.40    1.64
  -8   1  -3   28.05    1.84
  -9   1  -3    7.92    1.08
  -9   1  -3    7.75    0.85
 -10   1  -3    0.37    0.61
 -10   1  -3    1.42    0.62
  11   0  -3    0.39    0.61
 -11   0   3    0.38    0.68
  10   0  -3    0.29    0.51
 -10   0   3    1.27    0.66
 -10   0   3    0.05    0.69
   9   0  -3   49.21    2.49
  -9   0   3   46.48    2.52
  -9   0   3   44.89    2.50
   8   0  -3    0.60    0.50
  -8   0   3    1.05    0.58
  -8   0   3    0.76    0.41
   7   0  -3   84.37    4.10
  -7   0   3   92.87    4.19
  -7   0   3   83.74    4.11
   6   0  -3   -0.04    0.41
   6   0  -3    0.23    0.41
  -6   0   3   -0.07    0.27
  -6   0   3    0.29    0.45
   5   0  -3   30.67    1.72
   5   0  -3   34.43    1.69
  -5   0   3   33.30    1.70
  -5   0   3   34.25    1.77
   4   0  -3   29.13    1.52
   4   0  -3   31.35    1.56
   4   0  -3   29.34    1.57
  -4   0   3   31.42    1.55
  -4   0   3   32.22    1.61
   3   0  -3   69.07    3.27
   3   0  -3   73.21    3.28
   3   0  -3   69.54    3.31
   3   0  -3   67.96    3.29
  -3   0   3   76.36    3.27
  -3   0   3   69.96    3.27
  -3   0   3   73.92    3.26
  -3   0   3   72.13    3.32
   2   0  -3    5.61    0.42
   2   0  -3    4.83    0.40
   2   0  -3    4.60    0.36
   2   0  -3    4.89    0.38
  -2   0   3    4.81    0.43
  -2   0   3    5.29    0.39
  -2   0   3    5.18    0.37
  -2   0   3    5.49    0.37
   1   0  -3  130.18    5.86
   1   0  -3  128.15    5.88
   1   0  -3  130.97    5.87
  -1   0   3  138.13    5.88
  -1   0   3  135.72    5.85
  -1   0   3  130.77    5.87
   0   0  -3    4.12    0.23
   0   0  -3    4.09    0.23
  -1   0  -3   68.28    2.95
  -1   0  -3   65.71    2.95
  -2   0  -3   40.38    1.83
  -2   0  -3   38.20    1.90
   2   0   3   41.18    1.78
   2   0   3   40.04    1.78
  -3   0  -3    3.14    0.32
  -3   0  -3    2.90    0.42
  -3   0  -3    3.56    0.34
   3   0   3    3.04    0.28
  -4   0  -3   -0.01    0.36
  -4   0  -3    0.24    0.14
  -4   0  -3    0.63    0.27
  -4   0  -3   -0.14    0.26
   4   0   3    0.34    0.19
  -5   0  -3  144.07    6.00
  -5   0  -3  130.23    6.06
  -5   0  -3  126.81    5.98
   5   0   3  126.66    5.89
  -6   0  -3    2.30    0.49
   6   0   3    2.02    0.35
  -7   0  -3   52.50    2.78
  -8   0  -3    0.12    0.65
  -9   0  -3    0.51    0.72
  -9   0  -3    1.40    0.58
 -10   0  -3    0.74    0.62
 -10   0  -3    0.89    0.63
  12  -1  -3    0.79    0.65
  11  -1  -3   10.92    1.04
 -11   1   3   11.38    1.18
 -11   1   3   10.30    1.16
  10  -1  -3   18.81    1.37
 -10   1   3   15.89    1.40
   9  -1  -3    6.50    0.77
  -9   1   3    5.12    0.83
   8  -1  -3   20.40    1.06
   8  -1  -3   17.37    1.19
  -8   1   3   17.42    1.22
   7  -1  -3   17.13    0.99
   7  -1  -3   16.93    1.19
  -7   1   3   17.15    1.21
  -7   1   3   18.50    1.29
   6  -1  -3   16.00    1.08
  -6   1   3   15.04    1.06
  -6   1   3   16.83    1.06
   5  -1  -3   37.20    1.92
   5  -1  -3   37.00    1.87
  -5   1   3   37.15    1.94
  -5   1   3   38.41    1.91
   4  -1  -3    5.89    0.60
   4  -1  -3    5.38    0.50
   4  -1  -3    5.44    0.49
  -4   1   3    4.91    0.54
  -4   1   3    5.03    0.51
   3  -1  -3    8.21    0.59
   3  -1  -3    8.93    0.56
   3  -1  -3    9.25    0.65
   3  -1  -3    8.52    0.64
  -3   1   3    9.15    0.54
  -3   1   3    8.21    0.58
   2  -1  -3   66.68    3.00
   2  -1  -3   66.50    2.97
   2  -1  -3   61.34    2.98
   2  -1  -3   61.20    2.94
  -2   1   3   68.22    2.94
  -2   1   3   69.33    2.98
  -2   1   3   63.56    2.97
   1  -1  -3    5.27    0.37
   1  -1  -3    5.12    0.33
   1  -1  -3    6.48    0.38
  -1   1   3    5.28    0.34
  -1   1   3    5.45    0.34
  -1   1   3    5.66    0.34
   0  -1  -3  218.37    9.43
   0  -1  -3  211.07    9.43
  -1  -1  -3   50.19    2.20
  -1  -1  -3   49.17    2.20
  -2  -1  -3   -0.01    0.11
  -2  -1  -3    0.16    0.12
  -2  -1  -3   -0.19    0.18
   2   1   3    0.21    0.08
   2   1   3    0.07    0.06
  -3  -1  -3   20.13    1.07
  -3  -1  -3   22.37    1.05
  -3  -1  -3   20.69    1.15
  -3  -1  -3   21.48    1.07
  -4  -1  -3   65.28    3.05
  -4  -1  -3   62.47    3.14
  -4  -1  -3   70.38    3.04
  -4  -1  -3   65.24    2.97
   4   1   3   65.00    2.98
  -5  -1  -3    4.29    0.46
  -5  -1  -3    3.56    0.47
  -5  -1  -3    4.58    0.62
  -5  -1  -3    4.14    0.30
   5   1   3    4.24    0.39
  -6  -1  -3   70.82    3.35
  -6  -1  -3   64.33    3.22
   6   1   3   66.89    3.11
  -7  -1  -3    3.58    0.62
  -7  -1  -3    3.38    0.60
  -8  -1  -3    4.00    0.82
  -8  -1  -3    3.01    0.61
  -9  -1  -3   19.25    1.60
 -10  -1  -3    1.74    0.70
  12  -2  -3   19.69    1.52
  11  -2  -3    2.92    0.75
 -11   2   3    3.56    0.92
 -11   2   3    5.93    0.82
  10  -2  -3    9.49    0.95
 -10   2   3    8.03    1.00
 -10   2   3    8.91    0.96
   9  -2  -3    7.22    0.84
  -9   2   3    7.89    0.94
  -9   2   3    8.13    0.95
   8  -2  -3    8.24    0.83
   8  -2  -3    7.90    0.63
  -8   2   3    6.27    0.77
  -8   2   3    7.15    0.78
   7  -2  -3    3.70    0.44
   7  -2  -3    4.35    0.65
  -7   2   3    2.90    0.62
  -7   2   3    4.00    0.66
   6  -2  -3   24.03    1.30
   6  -2  -3   26.02    1.45
  -6   2   3   25.23    1.40
  -6   2   3   23.41    1.46
   5  -2  -3   15.20    0.90
   5  -2  -3   13.60    0.85
  -5   2   3   12.91    0.97
  -5   2   3   12.72    0.87
   4  -2  -3  128.29    5.81
   4  -2  -3  121.31    5.86
   4  -2  -3  137.82    5.87
  -4   2   3  119.34    5.86
  -4   2   3  133.31    5.88
  -4   2   3  135.55    5.80
   3  -2  -3   51.81    2.51
   3  -2  -3   50.81    2.40
   3  -2  -3   54.88    2.50
   3  -2  -3   48.25    2.47
  -3   2   3   53.91    2.49
  -3   2   3   53.70    2.40
  -3   2   3   54.28    2.48
   2  -2  -3    0.44    0.23
   2  -2  -3    0.51    0.22
   2  -2  -3    0.35    0.15
   2  -2  -3    0.37    0.33
  -2   2   3    0.48    0.21
  -2   2   3    0.42    0.22
  -2   2   3    0.59    0.13
   1  -2  -3   18.27    0.95
   1  -2  -3   18.29    1.08
   1  -2  -3   19.69    0.95
   1  -2  -3   19.50    0.90
  -1   2   3   19.52    0.93
  -1   2   3   20.14    0.94
   0  -2  -3  147.02    6.40
   0  -2  -3  139.19    6.40
   0  -2  -3  138.98    6.52
   0   2   3  154.24    6.40
  -1  -2  -3    2.57    0.22
  -1  -2  -3    2.62    0.36
  -1  -2  -3    2.22    0.19
   1   2   3    2.42    0.19
   1   2   3    2.51    0.19
  -2  -2  -3  161.73    7.28
  -2  -2  -3  171.58    7.28
  -2  -2  -3  163.81    7.36
   2   2   3  170.11    7.25
   2   2   3  156.20    7.26
  -3  -2  -3    2.35    0.26
  -3  -2  -3    2.83    0.34
  -3  -2  -3    2.64    0.28
   3   2   3    1.90    0.21
  -4  -2  -3   26.00    1.27
  -4  -2  -3   25.57    1.25
  -4  -2  -3   25.31    1.30
  -4  -2  -3   24.40    1.38
   4   2   3   24.72    1.24
  -5  -2  -3    0.48    0.36
  -5  -2  -3    0.40    0.23
  -5  -2  -3    0.47    0.46
   5   2   3    1.18    0.28
  -6  -2  -3    0.98    0.45
  -6  -2  -3    2.05    0.60
   6   2   3    1.23    0.31
  -7  -2  -3   -0.47    0.46
  -7  -2  -3   -0.26    0.56
  -8  -2  -3   30.21    1.80
  -8  -2  -3   32.51    1.90
  -9  -2  -3   -0.57    0.71
  -9  -2  -3   -0.26    0.53
  12  -3  -3    0.56    0.65
  11  -3  -3    7.49    0.95
 -11   3   3    7.28    1.03
 -11   3   3    8.04    1.09
  10  -3  -3    0.13    0.56
 -10   3   3    1.11    0.75
 -10   3   3    0.30    0.66
   9  -3  -3    0.15    0.56
  -9   3   3    0.44    0.62
  -9   3   3   -0.27    0.63
   8  -3  -3    2.52    0.44
   8  -3  -3    3.83    0.69
  -8   3   3    3.79    0.72
  -8   3   3    2.68    0.58
   7  -3  -3   47.17    2.25
   7  -3  -3   45.34    2.40
  -7   3   3   44.33    2.42
  -7   3   3   45.89    2.39
   6  -3  -3    1.33    0.35
   6  -3  -3    0.40    0.48
  -6   3   3    1.25    0.52
  -6   3   3    0.83    0.49
   5  -3  -3   72.79    3.38
   5  -3  -3   71.56    3.34
  -5   3   3   70.57    3.38
  -5   3   3   69.01    3.38
   4  -3  -3   -0.12    0.33
   4  -3  -3   -0.19    0.31
  -4   3   3    0.31    0.21
  -4   3   3    0.16    0.36
  -4   3   3   -0.86    0.26
   3  -3  -3    5.19    0.57
   3  -3  -3    4.99    0.50
  -3   3   3    5.07    0.49
  -3   3   3    6.38    0.37
   2  -3  -3    6.12    0.49
   2  -3  -3    5.99    0.53
   2  -3  -3    6.16    0.48
  -2   3   3    5.74    0.46
  -2   3   3    5.96    0.32
   1  -3  -3   54.72    2.59
   1  -3  -3   51.82    2.68
   1  -3  -3   60.40    2.61
   1  -3  -3   57.59    2.50
  -1   3   3   58.41    2.58
   0  -3  -3    0.32    0.16
   0  -3  -3    0.47    0.33
   0  -3  -3    0.33    0.18
   0   3   3    0.44    0.16
   0   3   3    0.43    0.16
  -1  -3  -3  104.94    4.69
  -1  -3  -3  103.12    4.69
  -1  -3  -3  101.86    4.79
   1   3   3  109.91    4.69
   1   3   3  105.35    4.67
  -2  -3  -3   -0.01    0.28
  -2  -3  -3    0.01    0.16
  -2  -3  -3    0.35    0.20
   2   3   3   -0.10    0.15
  -3  -3  -3   41.10    1.90
  -3  -3  -3   41.06    1.97
  -3  -3  -3   41.30    1.88
   3   3   3   37.16    1.86
  -4  -3  -3    0.49    0.28
  -4  -3  -3    0.40    0.29
  -4  -3  -3    0.18    0.25
   4   3   3    0.22    0.24
  -5  -3  -3    1.77    0.37
  -5  -3  -3    1.88    0.44
  -5  -3  -3    1.68    0.34
   5   3   3    1.13    0.31
  -6  -3  -3    0.11    0.39
  -6  -3  -3    0.13    0.42
  -7  -3  -3   67.06    3.33
  -7  -3  -3   69.43    3.48
  -8  -3  -3    3.49    0.66
  -8  -3  -3    4.61    0.89
  -9  -3  -3    9.68    0.99
  -9  -3  -3    8.29    1.14
  12  -4  -3    5.57    0.91
  11  -4  -3    4.40    0.84
 -11   4   3    4.57    0.91
 -11   4   3    4.52    0.96
  10  -4  -3    0.14    0.63
 -10   4   3    0.74    0.71
 -10   4   3    0.27    0.57
   9  -4  -3   20.46    1.45
  -9   4   3   20.52    1.54
  -9   4   3   17.77    1.35
   8  -4  -3   27.03    1.59
   8  -4  -3   26.74    1.47
  -8   4   3   27.79    1.72
  -8   4   3   25.60    1.63
   7  -4  -3    1.17    0.54
   7  -4  -3    0.82    0.42
  -7   4   3    0.79    0.52
  -7   4   3    0.80    0.46
   6  -4  -3   45.54    2.26
   6  -4  -3   45.47    2.36
  -6   4   3   45.01    2.32
  -6   4   3   45.75    2.40
   5  -4  -3    9.54    0.76
   5  -4  -3   10.30    0.85
  -5   4   3    7.20    0.72
  -5   4   3    7.66    0.79
   4  -4  -3    2.83    0.48
   4  -4  -3    4.03    0.47
  -4   4   3    3.86    0.36
  -4   4   3    3.16    0.48
   3  -4  -3    9.98    0.77
   3  -4  -3    9.90    0.76
  -3   4   3   12.42    0.57
  -3   4   3   11.12    0.75
   2  -4  -3  133.43    6.49
   2  -4  -3  140.12    6.41
   2  -4  -3  152.23    6.43
  -2   4   3  145.35    6.39
   1  -4  -3    0.39    0.25
   1  -4  -3    0.10    0.37
   1  -4  -3    0.42    0.23
  -1   4   3    0.18    0.21
   0  -4  -3   68.52    3.32
   0  -4  -3   69.96    3.21
   0  -4  -3   70.72    3.12
   0  -4  -3   72.45    3.21
   0   4   3   69.84    3.19
  -1  -4  -3    0.78    0.23
  -1  -4  -3    0.50    0.21
  -1  -4  -3    1.07    0.21
  -1  -4  -3    1.06    0.32
   1   4   3    0.36    0.19
  -2  -4  -3   38.33    1.81
  -2  -4  -3   36.62    1.82
  -2  -4  -3   36.16    1.93
  -2  -4  -3   41.06    1.86
   2   4   3   39.02    1.80
  -3  -4  -3   17.52    1.03
  -3  -4  -3   19.59    1.02
  -3  -4  -3   19.80    1.15
   3   4   3   19.37    0.99
  -4  -4  -3    7.38    0.67
  -4  -4  -3    6.65    0.57
   4   4   3    5.75    0.55
  -5  -4  -3   23.75    1.28
  -5  -4  -3   19.84    1.40
  -5  -4  -3   21.45    1.20
  -6  -4  -3   23.42    1.58
  -6  -4  -3   24.15    1.44
  -7  -4  -3   -0.06    0.63
  -7  -4  -3    0.74    0.55
  -8  -4  -3    5.51    0.83
  -8  -4  -3    8.82    1.07
  -9  -4  -3    2.82    0.73
  11  -5  -3    2.34    0.76
 -11   5   3    2.35    0.83
  10  -5  -3    6.98    0.97
 -10   5   3    6.85    1.08
 -10   5   3    5.83    0.96
   9  -5  -3    5.23    0.83
  -9   5   3    4.22    0.90
  -9   5   3    4.70    0.86
   8  -5  -3    0.92    0.65
   8  -5  -3    1.70    0.50
  -8   5   3    1.58    0.73
  -8   5   3    1.79    0.65
   7  -5  -3    7.57    0.76
   7  -5  -3    9.42    0.91
  -7   5   3    7.28    0.87
  -7   5   3    8.07    0.85
   6  -5  -3   13.18    1.10
   6  -5  -3   13.07    1.02
  -6   5   3   12.49    0.95
  -6   5   3   12.73    1.17
   5  -5  -3   10.38    0.89
   5  -5  -3    9.49    0.90
  -5   5   3   10.50    0.88
  -5   5   3   11.06    0.65
   4  -5  -3   41.83    2.19
   4  -5  -3   41.53    2.11
  -4   5   3   46.17    1.94
  -4   5   3   37.75    2.09
   3  -5  -3    2.50    0.43
   3  -5  -3    3.65    0.51
  -3   5   3    2.45    0.40
   2  -5  -3   58.24    2.80
   2  -5  -3   60.19    2.94
  -2   5   3   60.05    2.78
   1  -5  -3    6.86    0.61
   1  -5  -3    9.67    0.62
   1  -5  -3    7.41    0.76
  -1   5   3    7.40    0.59
   0  -5  -3    1.16    0.28
   0  -5  -3    0.83    0.29
   0  -5  -3   -0.05    0.42
   0   5   3    0.89    0.27
  -1  -5  -3   35.69    1.63
  -1  -5  -3   35.90    1.71
  -1  -5  -3   33.90    1.71
  -1  -5  -3   34.24    1.86
   1   5   3   34.90    1.68
  -2  -5  -3   51.82    2.47
  -2  -5  -3   54.66    2.46
  -2  -5  -3   55.79    2.44
  -2  -5  -3   47.37    2.56
   2   5   3   50.05    2.42
  -3  -5  -3    0.54    0.33
  -3  -5  -3    0.15    0.40
   3   5   3    0.06    0.26
  -4  -5  -3   44.31    2.19
  -4  -5  -3   43.42    2.23
   4   5   3   46.19    2.16
  -5  -5  -3    2.21    0.48
  -5  -5  -3    4.31    0.56
  -5  -5  -3    3.05    0.57
  -6  -5  -3    5.46    0.74
  -6  -5  -3    4.51    0.64
  -7  -5  -3    7.60    0.82
  -7  -5  -3    6.88    0.88
  -8  -5  -3    2.02    0.69
  -8  -5  -3    0.41    0.77
  11  -6  -3   11.29    1.21
  10  -6  -3   -0.31    0.67
 -10   6   3   -0.16    0.83
 -10   6   3    0.44    0.70
   9  -6  -3    8.17    0.98
  -9   6   3    5.54    1.03
  -9   6   3    6.22    0.98
   8  -6  -3    0.07    0.43
   8  -6  -3    0.27    0.64
  -8   6   3    0.48    0.63
  -8   6   3    0.34    0.74
   7  -6  -3    1.25    0.54
   7  -6  -3    0.45    0.47
  -7   6   3   -0.10    0.69
  -7   6   3    1.05    0.60
   6  -6  -3    1.16    0.50
   6  -6  -3    1.45    0.56
  -6   6   3    1.23    0.53
   5  -6  -3   55.19    2.73
   5  -6  -3   52.69    2.73
  -5   6   3   54.35    2.66
   4  -6  -3   -0.05    0.35
   4  -6  -3    0.71    0.45
  -4   6   3    0.37    0.13
  -4   6   3   -0.45    0.36
   3  -6  -3   93.57    4.35
   3  -6  -3   92.52    4.26
  -3   6   3   88.67    4.22
   2  -6  -3   14.14    0.95
   2  -6  -3   14.85    1.13
  -2   6   3   14.79    0.92
   1  -6  -3    0.15    0.49
   1  -6  -3   -0.53    0.31
  -1   6   3    0.29    0.29
   0  -6  -3    0.99    0.53
   0  -6  -3    0.12    0.33
   0   6   3    0.38    0.28
  -1  -6  -3   32.35    1.66
  -1  -6  -3   31.23    1.81
   1   6   3   33.76    1.61
  -2  -6  -3   -0.04    0.47
  -2  -6  -3   -0.30    0.31
   2   6   3   -0.03    0.29
  -3  -6  -3   39.80    2.22
  -3  -6  -3   44.11    2.14
   3   6   3   43.75    2.11
  -4  -6  -3    2.81    0.51
  -4  -6  -3    3.41    0.59
  -5  -6  -3    0.47    0.46
  -5  -6  -3    1.13    0.54
  -6  -6  -3    1.81    0.74
  -6  -6  -3    0.78    0.55
  -7  -6  -3    3.48    0.73
  -7  -6  -3    3.36    0.69
  -8  -6  -3   -0.27    0.72
  10  -7  -3    1.52    0.80
 -10   7   3    2.28    0.70
   9  -7  -3   -0.50    0.54
  -9   7   3    0.17    0.66
  -9   7   3    0.16    0.72
   8  -7  -3    1.76    0.74
   8  -7  -3    0.19    0.51
  -8   7   3    1.11    0.69
   7  -7  -3    7.10    0.81
   7  -7  -3    6.90    0.91
  -7   7   3    5.44    0.83
   6  -7  -3   20.74    1.46
   6  -7  -3   20.32    1.38
  -6   7   3   19.86    1.38
   5  -7  -3    0.95    0.56
   5  -7  -3    0.35    0.41
  -5   7   3   -0.31    0.47
   4  -7  -3   12.34    1.06
   4  -7  -3    9.88    0.88
  -4   7   3    9.28    0.87
   3  -7  -3    1.51    0.46
   3  -7  -3    1.67    0.62
  -3   7   3    2.05    0.44
   2  -7  -3    3.69    0.55
   2  -7  -3    3.85    0.62
  -2   7   3    4.09    0.50
   1  -7  -3    0.33    0.39
   1  -7  -3    0.30    0.43
  -1   7   3    0.44    0.33
   0  -7  -3    6.83    0.78
   0  -7  -3    8.69    0.77
   0   7   3    7.60    0.65
  -1  -7  -3   14.66    1.17
  -1  -7  -3   13.91    0.97
   1   7   3   12.66    0.89
  -2  -7  -3   38.51    2.19
  -2  -7  -3   41.00    2.06
  -3  -7  -3    0.61    0.57
  -3  -7  -3    0.19    0.44
  -4  -7  -3   10.78    1.03
  -4  -7  -3   11.59    0.94
  -5  -7  -3    2.76    0.57
  -5  -7  -3    3.18    0.68
  -6  -7  -3    0.42    0.56
  -6  -7  -3    0.92    0.75
  -7  -7  -3    2.04    0.65
   9  -8  -3    0.64    0.81
  -9   8   3   -0.07    0.73
   8  -8  -3   12.46    1.24
   8  -8  -3   11.48    1.12
  -8   8   3   13.33    1.23
   7  -8  -3    7.18    0.94
   7  -8  -3    5.31    0.81
  -7   8   3    6.47    0.88
   6  -8  -3    1.57    0.70
   6  -8  -3    1.34    0.63
  -6   8   3    0.36    0.58
   5  -8  -3   11.55    1.14
   5  -8  -3   11.07    1.00
  -5   8   3   11.41    1.03
   4  -8  -3    3.66    0.65
   4  -8  -3    2.37    0.60
  -4   8   3    2.67    0.57
   3  -8  -3    1.48    0.53
   3  -8  -3    1.69    0.54
  -3   8   3    0.37    0.43
   2  -8  -3   19.56    1.20
   2  -8  -3   14.71    1.34
  -2   8   3   16.90    1.09
   1  -8  -3    7.19    0.90
   1  -8  -3    5.52    0.67
  -1   8   3    6.38    0.62
   0  -8  -3   26.32    1.48
   0  -8  -3   23.18    1.65
   0   8   3   25.32    1.40
  -1  -8  -3    5.19    0.89
  -1  -8  -3    7.87    0.75
  -2  -8  -3    0.49    0.67
  -2  -8  -3    0.65    0.47
  -3  -8  -3    2.35    0.60
  -3  -8  -3    3.68    0.76
  -4  -8  -3    9.31    0.90
  -4  -8  -3   10.27    1.02
  -5  -8  -3   -0.30    0.56
  -6  -8  -3    9.48    1.09
  -9   9   3   12.43    1.31
   8  -9  -3    2.10    0.71
   8  -9  -3    0.92    0.64
  -8   9   3    0.70    0.74
   7  -9  -3    3.36    0.72
   7  -9  -3    2.73    0.77
  -7   9   3    1.43    0.72
   6  -9  -3   -0.37    0.66
   6  -9  -3   -0.07    0.64
  -6   9   3    0.07    0.59
   5  -9  -3    2.90    0.70
   5  -9  -3    3.40    0.81
  -5   9   3    0.88    0.58
   4  -9  -3   -0.29    0.54
   4  -9  -3    0.14    0.70
  -4   9   3    0.06    0.45
   3  -9  -3   18.77    1.45
   3  -9  -3   14.25    1.24
  -3   9   3   15.01    1.16
   2  -9  -3    0.68    0.55
   2  -9  -3    2.13    0.63
  -2   9   3    1.46    0.49
   1  -9  -3   15.80    1.19
   1  -9  -3   14.85    1.44
   0  -9  -3    5.52    0.96
   0  -9  -3    4.76    0.69
  -1  -9  -3    2.40    0.82
  -1  -9  -3   -0.29    0.52
  -2  -9  -3    0.05    0.72
  -2  -9  -3   -0.60    0.51
  -3  -9  -3    8.08    0.85
  -3  -9  -3    7.88    1.02
  -4  -9  -3   -0.11    0.68
  -4  -9  -3   -0.38    0.56
   8 -10  -3    0.01    0.71
  -8  10   3    0.13    0.67
   7 -10  -3   -0.36    0.73
  -7  10   3    2.24    0.76
   6 -10  -3   -0.19    0.72
   6 -10  -3    1.56    0.78
  -6  10   3    0.74    0.65
   5 -10  -3    1.20    0.78
   5 -10  -3    1.50    0.84
  -5  10   3    1.40    0.91
   4 -10  -3   12.05    1.30
   4 -10  -3   11.58    1.12
   3 -10  -3    1.10    0.66
   3 -10  -3   -0.01    0.81
   2 -10  -3    7.40    1.00
   2 -10  -3    8.99    0.93
   1 -10  -3    0.89    0.63
   1 -10  -3   -0.22    0.81
   0 -10  -3    0.23    0.82
   0 -10  -3   -0.64    0.58
  -1 -10  -3    1.28    0.62
  -1 -10  -3    1.06    0.84
  -2 -10  -3   11.35    1.24
  -2 -10  -3   10.71    1.00
  -3 -10  -3   -0.33    0.76
  -4 -10  -3   15.03    1.45
   2 -12   4   -1.00    0.83
   3 -12   4   -0.96    0.84
   4  11  -4   -0.20    0.65
   3  11  -4    7.56    0.86
  -3 -11   4    7.35    1.17
   2  11  -4   -0.92    0.60
  -2 -11   4   -0.30    0.62
   1  11  -4   13.71    1.23
  -1 -11   4   15.18    1.33
  -1 -11   4   16.33    1.39
   0  11  -4    0.69    0.63
   0 -11   4   -0.16    0.65
   0 -11   4    0.84    0.83
  -1  11  -4    4.13    0.78
   1 -11   4    4.96    0.97
   1 -11   4    2.61    0.71
  -2  11  -4   -0.39    0.47
   2 -11   4    0.42    0.57
   2 -11   4   -0.33    0.59
  -3  11  -4    0.59    0.67
   3 -11   4    0.06    0.72
   3 -11   4    0.48    0.66
   4 -11   4    0.06    0.69
   4 -11   4    2.37    0.78
   6  10  -4   -0.92    0.61
   5  10  -4    5.40    0.88
   5  10  -4    6.27    0.88
  -5 -10   4    6.30    1.07
   4  10  -4    4.66    0.82
   4  10  -4    5.50    0.75
  -4 -10   4    4.33    0.86
   3  10  -4   -0.05    0.60
   3  10  -4    0.97    0.53
  -3 -10   4    0.72    0.54
   2  10  -4   15.94    1.22
   2  10  -4   16.32    1.29
  -2 -10   4   14.13    1.31
   1  10  -4   -0.42    0.56
   1  10  -4    0.21    0.45
  -1 -10   4    0.46    0.61
  -1 -10   4    1.77    0.79
   0  10  -4    0.12    0.58
   0  10  -4    1.04    0.46
   0 -10   4    1.29    0.60
   0 -10   4    0.49    0.59
  -1  10  -4   14.73    1.11
  -1  10  -4   13.93    1.08
   1 -10   4   15.21    1.40
   1 -10   4   15.14    1.11
  -2  10  -4    0.22    0.49
  -2  10  -4   -0.47    0.57
   2 -10   4   -0.24    0.57
   2 -10   4    0.72    0.70
  -3  10  -4   10.51    0.98
  -3  10  -4   11.47    0.92
   3 -10   4   10.28    1.00
   3 -10   4   11.12    1.02
  -4  10  -4    3.74    0.98
  -4  10  -4    7.45    0.88
   4 -10   4    6.36    0.88
   4 -10   4    6.36    0.75
  -5  10  -4   -0.05    0.61
   5 -10   4   -0.70    0.59
   7   9  -4    1.35    0.69
   7   9  -4    1.12    0.66
   6   9  -4   23.12    1.55
   6   9  -4   21.92    1.55
  -6  -9   4   19.43    1.59
   5   9  -4    0.39    0.60
   5   9  -4    1.52    0.61
  -5  -9   4   -0.11    0.63
   4   9  -4    8.98    0.90
   4   9  -4    7.34    0.85
  -4  -9   4    8.99    0.95
   3   9  -4    3.62    0.58
   3   9  -4    2.13    0.58
  -3  -9   4    3.85    0.71
   2   9  -4    2.71    0.56
   2   9  -4    2.08    0.59
  -2  -9   4    2.91    0.54
   1   9  -4    1.56    0.47
   1   9  -4    0.79    0.56
  -1  -9   4    0.73    0.69
  -1  -9   4    0.44    0.54
   0   9  -4   18.40    1.21
   0   9  -4   19.64    1.35
   0  -9   4   19.31    1.34
   0  -9   4   22.01    1.40
  -1   9  -4   -0.43    0.51
  -1   9  -4   -0.21    0.40
   1  -9   4    0.45    0.65
   1  -9   4   -0.08    0.39
  -2   9  -4    7.49    0.69
  -2   9  -4    6.68    0.79
   2  -9   4    5.77    0.75
   2  -9   4    6.08    0.87
  -3   9  -4   17.64    1.11
  -3   9  -4   15.77    1.24
   3  -9   4   15.65    1.21
   3  -9   4   15.85    1.28
  -4   9  -4   -0.27    0.52
  -4   9  -4    0.28    0.44
   4  -9   4   -0.07    0.53
   4  -9   4   -0.04    0.52
  -5   9  -4    6.81    0.76
  -5   9  -4    5.87    0.73
   5  -9   4    4.74    0.74
  -6   9  -4   10.89    1.03
  -6   9  -4    9.16    1.02
  -7   9  -4   -0.85    0.80
  -7   9  -4   -0.63    0.54
   8   8  -4   -0.57    0.67
   8   8  -4    2.00    0.70
   7   8  -4   25.77    1.66
   7   8  -4   23.34    1.65
  -7  -8   4   24.14    1.70
   6   8  -4    0.56    0.60
   6   8  -4    0.73    0.60
  -6  -8   4    0.71    0.68
   5   8  -4   18.51    1.34
   5   8  -4   19.92    1.38
  -5  -8   4   19.36    1.42
   4   8  -4    0.60    0.50
   4   8  -4    1.99    0.55
  -4  -8   4    1.25    0.59
   3   8  -4    4.50    0.65
   3   8  -4    3.54    0.65
  -3  -8   4    4.76    0.68
   2   8  -4    2.16    0.55
   2   8  -4    0.76    0.46
  -2  -8   4    0.87    0.50
   1   8  -4   46.72    2.32
   1   8  -4   46.52    2.30
  -1  -8   4   45.67    2.49
  -1  -8   4   44.66    2.34
   0   8  -4    0.22    0.46
   0   8  -4    0.20    0.38
   0  -8   4   -0.58    0.41
   0  -8   4    0.04    0.42
  -1   8  -4   49.54    2.43
  -1   8  -4   51.23    2.51
   1  -8   4   46.60    2.59
   1  -8   4   49.90    2.45
  -2   8  -4    2.55    0.50
  -2   8  -4    3.56    0.59
   2  -8   4    3.28    0.57
   2  -8   4    3.35    0.66
  -3   8  -4    0.74    0.52
  -3   8  -4    1.21    0.45
   3  -8   4    0.38    0.49
   3  -8   4   -0.21    0.41
  -4   8  -4    0.29    0.45
  -4   8  -4   -0.35    0.46
   4  -8   4    0.71    0.50
   4  -8   4    0.00    0.45
  -5   8  -4   12.43    1.10
  -5   8  -4   10.07    1.10
  -5   8  -4   12.31    1.01
   5  -8   4   13.65    1.03
  -6   8  -4    3.16    0.65
  -6   8  -4    1.42    0.76
   6  -8   4    2.30    0.65
  -7   8  -4   14.69    1.30
  -7   8  -4   13.09    1.36
  -8   8  -4   -1.47    0.80
   9   7  -4    3.17    0.75
   8   7  -4   12.32    1.07
   8   7  -4   12.77    1.12
  -8  -7   4   12.12    1.22
   7   7  -4    0.89    0.65
   7   7  -4    0.14    0.55
  -7  -7   4    0.78    0.64
   6   7  -4   14.73    1.24
   6   7  -4   15.92    1.11
  -6  -7   4   17.50    1.28
  -6  -7   4   14.29    1.04
   5   7  -4   11.28    1.01
   5   7  -4    9.56    0.92
  -5  -7   4   11.58    1.05
  -5  -7   4   10.68    0.80
   4   7  -4    0.75    0.48
   4   7  -4    1.61    0.53
  -4  -7   4    1.13    0.52
  -4  -7   4    1.13    0.34
   3   7  -4   22.20    1.36
   3   7  -4   25.62    1.40
  -3  -7   4   20.86    1.30
   2   7  -4   10.84    0.90
   2   7  -4   11.02    0.87
  -2  -7   4   10.66    0.89
   1   7  -4    2.47    0.46
   1   7  -4    2.16    0.50
  -1  -7   4    2.25    0.50
  -1  -7   4    3.48    0.52
   0   7  -4   52.35    2.57
   0   7  -4   56.97    2.64
   0  -7   4   53.87    2.72
   0  -7   4   49.94    2.59
  -1   7  -4    5.03    0.54
  -1   7  -4    5.08    0.56
   1  -7   4    5.27    0.58
   1  -7   4    5.72    0.65
  -2   7  -4    4.85    0.58
  -2   7  -4    4.82    0.60
   2  -7   4    5.02    0.58
   2  -7   4    4.66    0.67
  -3   7  -4   26.12    1.56
  -3   7  -4   30.37    1.56
   3  -7   4   27.56    1.53
   3  -7   4   27.41    1.59
  -4   7  -4    1.98    0.53
  -4   7  -4    3.28    0.68
  -4   7  -4    2.26    0.51
   4  -7   4    1.81    0.47
  -5   7  -4    2.19    0.66
  -5   7  -4    1.49    0.54
   5  -7   4    0.35    0.46
  -6   7  -4   35.88    1.97
  -6   7  -4   35.28    2.11
   6  -7   4   31.61    1.83
  -7   7  -4    0.53    0.61
  -7   7  -4    0.23    0.59
  -8   7  -4    9.00    1.02
  -8   7  -4    9.02    1.21
  -9   7  -4    0.73    1.00
   9   6  -4    3.22    0.75
  -9  -6   4    1.49    0.78
   8   6  -4    3.01    0.79
   8   6  -4    3.30    0.61
  -8  -6   4    3.85    0.83
   7   6  -4    6.77    0.89
   7   6  -4    6.48    0.74
  -7  -6   4    7.22    0.80
  -7  -6   4    7.44    0.74
   6   6  -4   26.86    1.49
   6   6  -4   24.58    1.59
  -6  -6   4   24.51    1.41
  -6  -6   4   26.12    1.60
   5   6  -4   -0.45    0.44
   5   6  -4    0.53    0.51
  -5  -6   4    0.10    0.32
  -5  -6   4    0.09    0.48
   4   6  -4   52.61    2.68
   4   6  -4   55.23    2.63
  -4  -6   4   53.24    2.52
  -4  -6   4   53.65    2.67
   3   6  -4   12.85    0.93
   3   6  -4   12.05    0.93
  -3  -6   4   11.65    0.83
   2   6  -4    5.27    0.51
   2   6  -4    3.81    0.53
  -2  -6   4    4.46    0.55
  -2  -6   4    5.18    0.47
   1   6  -4   19.19    1.07
   1   6  -4   18.16    1.05
  -1  -6   4   18.71    1.10
   0   6  -4   10.93    0.80
   0   6  -4   11.50    0.84
   0  -6   4   12.39    0.76
   0  -6   4   10.93    0.81
  -1   6  -4    1.78    0.42
  -1   6  -4    2.05    0.35
   1  -6   4    1.99    0.40
   1  -6   4    2.18    0.43
  -2   6  -4  108.18    5.05
  -2   6  -4  110.11    5.05
   2  -6   4  112.09    5.03
  -3   6  -4    0.21    0.36
  -3   6  -4    0.32    0.38
  -3   6  -4    0.21    0.39
   3  -6   4    0.13    0.33
  -4   6  -4    4.00    0.65
  -4   6  -4    2.91    0.53
   4  -6   4    3.58    0.50
  -5   6  -4   17.00    1.34
  -5   6  -4   16.65    1.17
   5  -6   4   18.19    1.10
  -6   6  -4   -0.80    0.61
  -6   6  -4   -0.13    0.45
   6  -6   4   -0.20    0.42
  -7   6  -4    5.59    0.79
  -7   6  -4    6.92    1.05
  -8   6  -4   14.91    1.25
  -8   6  -4   12.57    1.39
  -9   6  -4    0.43    0.66
  -9   6  -4    0.09    0.85
  10   5  -4    2.35    0.72
   9   5  -4    0.01    0.47
  -9  -5   4    2.05    0.64
  -9  -5   4    0.47    0.75
   8   5  -4    0.81    0.59
   8   5  -4    0.22    0.48
  -8  -5   4    0.76    0.51
  -8  -5   4    0.06    0.50
   7   5  -4   29.49    1.87
   7   5  -4   33.04    1.84
  -7  -5   4   30.25    1.88
  -7  -5   4   33.27    1.74
   6   5  -4    0.62    0.47
   6   5  -4    0.37    0.40
  -6  -5   4    0.17    0.48
  -6  -5   4    0.01    0.30
   5   5  -4   21.83    1.26
   5   5  -4   21.12    1.36
  -5  -5   4   23.03    1.36
  -5  -5   4   21.22    1.17
   4   5  -4    2.39    0.53
   4   5  -4    2.83    0.49
  -4  -5   4    2.95    0.35
  -4  -5   4    2.96    0.49
   3   5  -4   20.36    1.16
   3   5  -4   18.07    1.16
  -3  -5   4   18.85    1.14
  -3  -5   4   20.09    0.99
   2   5  -4    0.48    0.35
   2   5  -4    0.44    0.31
  -2  -5   4    0.17    0.32
   1   5  -4    6.02    0.52
   1   5  -4    6.72    0.59
  -1  -5   4    6.41    0.60
  -1  -5   4    6.72    0.46
   0   5  -4    4.76    0.50
   0   5  -4    4.56    0.48
   0  -5   4    4.29    0.45
   0  -5   4    5.25    0.43
  -1   5  -4   64.37    3.25
  -1   5  -4   65.89    3.25
   1  -5   4   73.49    3.24
   1  -5   4   75.84    3.23
  -2   5  -4    0.10    0.28
  -2   5  -4    0.80    0.33
  -2   5  -4    0.26    0.34
   2  -5   4    0.61    0.29
  -3   5  -4   49.52    2.52
  -3   5  -4   53.15    2.60
   3  -5   4   55.05    2.50
  -4   5  -4   -0.31    0.35
  -4   5  -4    0.14    0.48
   4  -5   4    0.25    0.33
  -5   5  -4   22.93    1.40
  -5   5  -4   24.91    1.49
   5  -5   4   23.18    1.29
  -6   5  -4    0.64    0.66
  -6   5  -4    1.71    0.53
   6  -5   4    1.10    0.42
  -7   5  -4   22.99    1.75
  -7   5  -4   25.49    1.54
  -8   5  -4    0.97    0.59
  -8   5  -4    2.09    0.87
  -9   5  -4    8.25    0.97
  -9   5  -4    9.46    1.24
  10   4  -4    2.65    0.69
 -10  -4   4    1.64    0.83
 -10  -4   4    1.96    0.63
   9   4  -4    2.63    0.70
  -9  -4   4    2.78    0.66
  -9  -4   4    0.96    0.71
   8   4  -4   16.11    1.19
   8   4  -4   16.24    1.24
  -8  -4   4   14.95    1.32
  -8  -4   4   16.49    1.13
   7   4  -4    6.02    0.73
   7   4  -4    6.99    0.71
  -7  -4   4    6.14    0.64
  -7  -4   4    5.62    0.79
   6   4  -4   20.42    1.27
   6   4  -4   21.33    1.23
  -6  -4   4   21.16    1.34
  -6  -4   4   19.46    1.15
   5   4  -4    0.04    0.44
   5   4  -4    0.36    0.39
  -5  -4   4   -0.02    0.29
  -5  -4   4   -0.15    0.29
   4   4  -4   85.45    4.05
   4   4  -4   87.51    4.10
  -4  -4   4   90.02    3.96
  -4  -4   4   86.67    4.07
   3   4  -4   27.25    1.42
   3   4  -4   25.81    1.44
  -3  -4   4   25.76    1.42
  -3  -4   4   28.18    1.28
   2   4  -4    1.16    0.27
   2   4  -4    1.05    0.28
  -2  -4   4    1.69    0.32
   1   4  -4   22.11    1.17
   1   4  -4   22.49    1.17
  -1  -4   4   22.42    1.05
  -1  -4   4   22.20    1.14
   0   4  -4   82.12    3.99
   0   4  -4   84.82    3.98
   0   4  -4   94.39    3.99
   0  -4   4   87.88    3.92
   0  -4   4   88.33    3.97
  -1   4  -4    1.34    0.29
  -1   4  -4    1.89    0.28
  -1   4  -4    1.62    0.27
  -1   4  -4    1.05    0.36
   1  -4   4    1.59    0.26
   1  -4   4    1.50    0.28
  -2   4  -4   76.73    3.75
  -2   4  -4   80.68    3.80
  -2   4  -4   90.34    3.77
   2  -4   4   81.17    3.73
  -3   4  -4   17.74    0.94
  -3   4  -4   15.51    1.11
  -3   4  -4   15.36    0.96
   3  -4   4   16.19    0.90
  -4   4  -4    1.69    0.39
  -4   4  -4    0.60    0.47
  -4   4  -4    0.63    0.34
   4  -4   4    0.52    0.30
  -5   4  -4    5.24    0.77
  -5   4  -4    6.12    0.60
   5  -4   4    5.18    0.49
  -6   4  -4   17.11    1.24
  -6   4  -4   15.51    1.12
   6  -4   4   17.79    1.01
  -7   4  -4    1.39    0.53
  -7   4  -4    1.40    0.73
  -8   4  -4   19.49    1.43
  -8   4  -4   20.84    1.69
  -9   4  -4   -0.21    0.81
  -9   4  -4    0.67    0.59
  11   3  -4    4.82    0.82
 -11  -3   4    3.97    0.82
  10   3  -4   20.82    1.52
 -10  -3   4   20.63    1.44
 -10  -3   4   18.54    1.61
   9   3  -4    1.26    0.60
  -9  -3   4    1.63    0.63
  -9  -3   4    1.49    0.71
   8   3  -4   16.23    1.28
   8   3  -4   14.62    1.19
  -8  -3   4   13.40    1.25
  -8  -3   4   15.72    1.10
   7   3  -4   15.24    1.20
   7   3  -4   16.25    1.16
  -7  -3   4   15.22    1.20
  -7  -3   4   14.89    1.01
   6   3  -4    6.46    0.70
   6   3  -4    7.65    0.72
  -6  -3   4    6.55    0.66
  -6  -3   4    7.92    0.77
   5   3  -4   72.38    3.49
   5   3  -4   69.75    3.43
  -5  -3   4   75.72    3.37
  -5  -3   4   72.88    3.46
   4   3  -4   23.42    1.30
   4   3  -4   24.02    1.31
  -4  -3   4   24.10    1.19
  -4  -3   4   23.94    1.28
   3   3  -4    9.00    0.67
   3   3  -4    9.14    0.65
  -3  -3   4   10.81    0.70
  -3  -3   4    9.45    0.52
   2   3  -4   62.12    2.77
   2   3  -4   53.62    2.76
   2   3  -4   60.84    2.76
  -2  -3   4   61.36    2.77
  -2  -3   4   59.67    2.62
   1   3  -4   31.47    1.68
   1   3  -4   35.28    1.66
   1   3  -4   35.12    1.65
  -1  -3   4   36.37    1.66
   0   3  -4    3.16    0.32
   0   3  -4    3.27    0.25
   0   3  -4    2.68    0.30
   0   3  -4    2.78    0.33
   0  -3   4    2.78    0.23
   0  -3   4    2.95    0.29
  -1   3  -4   77.38    3.86
  -1   3  -4   87.51    3.82
  -1   3  -4   83.99    3.82
  -1   3  -4   86.32    3.85
   1  -3   4   86.79    3.80
   1  -3   4   85.15    3.80
  -2   3  -4    9.01    0.59
  -2   3  -4    9.51    0.71
  -2   3  -4    8.82    0.56
   2  -3   4    9.02    0.58
   2  -3   4    8.55    0.55
  -3   3  -4   26.67    1.43
  -3   3  -4   30.43    1.45
  -3   3  -4   28.33    1.57
   3  -3   4   30.38    1.41
  -4   3  -4   42.88    2.27
  -4   3  -4   42.17    2.11
  -4   3  -4   46.10    2.12
  -4   3  -4   45.16    2.07
   4  -3   4   42.39    2.06
  -5   3  -4    5.96    0.59
  -5   3  -4    3.88    0.70
   5  -3   4    6.01    0.49
  -6   3  -4   27.72    1.71
  -6   3  -4   26.77    1.61
   6  -3   4   32.04    1.51
  -7   3  -4   27.31    1.62
  -7   3  -4   30.31    1.89
  -8   3  -4    0.14    0.49
  -8   3  -4   -0.10    0.71
  -9   3  -4    9.23    1.20
  -9   3  -4    9.21    0.92
 -10   3  -4   10.40    1.05
 -12  -2   4    1.64    0.85
  11   2  -4   16.24    1.40
 -11  -2   4   15.92    1.38
 -11  -2   4   17.38    1.54
  10   2  -4    0.05    0.62
 -10  -2   4    0.53    0.72
 -10  -2   4    0.14    0.57
   9   2  -4   28.43    1.79
  -9  -2   4   28.77    1.72
  -9  -2   4   30.26    1.89
   8   2  -4    6.04    0.74
   8   2  -4    6.37    0.78
  -8  -2   4    6.65    0.73
  -8  -2   4    7.66    0.90
   7   2  -4    0.40    0.45
   7   2  -4    0.48    0.40
  -7  -2   4   -0.08    0.37
  -7  -2   4    0.33    0.53
   6   2  -4   13.38    0.99
   6   2  -4   11.13    0.94
  -6  -2   4   11.69    0.82
  -6  -2   4   11.93    1.00
   5   2  -4  117.54    5.20
   5   2  -4  107.52    5.17
  -5  -2   4  113.37    5.21
  -5  -2   4  112.78    5.11
   4   2  -4    0.22    0.24
   4   2  -4   -0.57    0.32
  -4  -2   4    0.04    0.22
  -4  -2   4    0.44    0.26
   3   2  -4  181.07    8.64
   3   2  -4  185.16    8.62
   3   2  -4  202.79    8.64
  -3  -2   4  202.28    8.64
  -3  -2   4  196.00    8.54
   2   2  -4   -0.02    0.20
   2   2  -4    0.22    0.20
   2   2  -4   -0.06    0.25
  -2  -2   4   -0.17    0.21
   1   2  -4   43.24    2.00
   1   2  -4   41.99    1.99
   1   2  -4   41.62    2.03
  -1  -2   4   44.42    2.00
  -1  -2   4   44.26    2.02
   0   2  -4    0.82    0.18
   0   2  -4    1.06    0.18
   0   2  -4    1.25    0.19
   0   2  -4    0.99    0.28
   0  -2   4    1.07    0.19
   0  -2   4    1.12    0.19
  -1   2  -4    0.24    0.22
  -1   2  -4    0.47    0.16
  -1   2  -4    0.29    0.15
   1  -2   4    0.44    0.16
   1  -2   4    0.47    0.15
  -2   2  -4    0.20    0.16
  -2   2  -4    0.27    0.26
  -2   2  -4    0.16    0.17
   2  -2   4    0.20    0.14
   2  -2   4   -0.17    0.19
  -3   2  -4  164.19    7.73
  -3   2  -4  168.77    7.63
  -3   2  -4  184.48    7.64
  -3   2  -4  166.53    7.62
   3  -2   4  172.72    7.59
  -4   2  -4    1.07    0.45
  -4   2  -4    0.63    0.30
  -4   2  -4    1.01    0.27
  -4   2  -4    0.45    0.22
   4  -2   4    0.83    0.22
  -5   2  -4   54.71    2.80
  -5   2  -4   56.02    2.68
   5  -2   4   57.45    2.60
  -6   2  -4    0.29    0.41
  -6   2  -4   -0.13    0.39
   6  -2   4    0.10    0.27
  -7   2  -4   -0.18    0.60
  -7   2  -4    0.20    0.42
  -8   2  -4    0.50    0.49
  -8   2  -4    0.89    0.75
  -9   2  -4   14.80    1.25
  -9   2  -4   16.75    1.59
 -10   2  -4    1.91    0.91
 -10   2  -4    0.71    0.58
  12   1  -4    9.57    1.06
 -12  -1   4   11.28    1.20
  11   1  -4    2.25    0.71
 -11  -1   4    2.04    0.82
 -11  -1   4    1.69    0.72
  10   1  -4   19.83    1.50
 -10  -1   4   22.95    1.64
 -10  -1   4   21.52    1.51
   9   1  -4    5.78    0.79
  -9  -1   4    5.03    0.82
  -9  -1   4    5.28    0.75
   8   1  -4    8.52    0.79
   8   1  -4    6.05    0.75
  -8  -1   4    6.92    0.77
  -8  -1   4    7.69    0.88
   7   1  -4   15.88    1.07
   7   1  -4   15.47    1.06
  -7  -1   4   15.35    1.11
  -7  -1   4   16.71    1.12
   6   1  -4   17.73    1.17
   6   1  -4   18.57    1.18
  -6  -1   4   16.71    1.07
  -6  -1   4   19.84    1.24
   5   1  -4    0.74    0.31
   5   1  -4    0.67    0.38
  -5  -1   4    0.32    0.29
  -5  -1   4    0.07    0.36
   4   1  -4  113.23    5.48
   4   1  -4  121.82    5.44
   4   1  -4  117.98    5.48
  -4  -1   4  121.64    5.43
  -4  -1   4  129.24    5.53
   3   1  -4   12.45    0.75
   3   1  -4   11.48    0.66
   3   1  -4   11.99    0.74
   3   1  -4   12.33    0.76
  -3  -1   4   13.53    0.79
  -3  -1   4   11.13    0.64
   2   1  -4  162.33    7.56
   2   1  -4  171.68    7.52
   2   1  -4  175.09    7.58
   2   1  -4  162.41    7.58
  -2  -1   4  174.33    7.58
  -2  -1   4  176.07    7.58
   1   1  -4   19.01    0.97
   1   1  -4   18.01    0.96
   1   1  -4   19.04    1.00
  -1  -1   4   20.75    0.95
  -1  -1   4   20.67    0.98
  -1  -1   4   21.80    1.01
   0   1  -4    5.69    0.47
   0   1  -4    6.59    0.38
   0   1  -4    5.61    0.35
   0   1  -4    5.72    0.35
   0  -1   4    6.48    0.34
  -1   1  -4   16.23    0.84
  -1   1  -4   15.51    0.74
  -1   1  -4   14.43    0.73
   1  -1   4   15.85    0.71
  -2   1  -4   95.42    4.47
  -2   1  -4   98.43    4.37
  -2   1  -4   98.75    4.37
   2  -1   4   94.97    4.34
   2  -1   4  103.91    4.37
  -3   1  -4   17.35    1.07
  -3   1  -4   18.98    0.93
  -3   1  -4   17.84    0.93
   3  -1   4   18.13    0.95
  -4   1  -4   62.91    2.96
  -4   1  -4   63.06    3.10
  -4   1  -4   68.19    2.98
   4  -1   4   62.19    2.89
  -5   1  -4    0.21    0.35
  -5   1  -4   -0.05    0.17
  -5   1  -4    0.19    0.32
   5  -1   4    0.22    0.22
  -6   1  -4   -0.11    0.35
  -6   1  -4    0.30    0.53
   6  -1   4   -0.12    0.25
  -7   1  -4    3.90    0.67
  -7   1  -4    4.89    0.60
  -8   1  -4   15.32    1.19
  -8   1  -4   14.60    1.41
  -9   1  -4    2.57    0.71
  -9   1  -4    2.98    0.63
  12   0  -4    1.93    0.71
 -12   0   4    0.64    0.74
  11   0  -4   10.07    1.03
 -11   0   4    8.59    1.05
  10   0  -4    2.60    0.66
 -10   0   4    2.79    0.82
 -10   0   4    2.38    0.71
   9   0  -4    2.26    0.65
  -9   0   4    1.04    0.59
  -9   0   4    2.04    0.68
   8   0  -4   12.69    1.00
  -8   0   4   13.45    1.05
  -8   0   4   12.93    1.06
   7   0  -4   13.35    1.06
   7   0  -4   12.71    1.08
  -7   0   4   13.92    1.02
  -7   0   4   13.71    1.09
   6   0  -4   63.52    3.11
   6   0  -4   67.00    3.10
  -6   0   4   61.24    3.05
  -6   0   4   64.03    3.13
   5   0  -4   46.79    2.36
   5   0  -4   47.71    2.37
  -5   0   4   50.81    2.40
  -5   0   4   48.48    2.34
   4   0  -4    1.81    0.38
   4   0  -4    1.68    0.32
   4   0  -4    1.50    0.35
   4   0  -4    0.93    0.41
  -4   0   4    1.29    0.39
  -4   0   4    2.05    0.35
   3   0  -4   27.77    1.43
   3   0  -4   26.32    1.40
   3   0  -4   27.06    1.42
   3   0  -4   29.11    1.39
  -3   0   4   29.50    1.44
  -3   0   4   28.60    1.36
   2   0  -4  122.34    5.74
   2   0  -4  119.93    5.74
   2   0  -4  127.95    5.76
   2   0  -4  131.25    5.72
  -2   0   4  131.01    5.72
  -2   0   4  130.64    5.76
  -2   0   4  136.78    5.74
   1   0  -4   14.00    0.73
   1   0  -4   14.25    0.73
   1   0  -4   14.13    0.77
  -1   0   4   14.87    0.69
  -1   0   4   14.83    0.74
   0   0  -4   77.11    3.61
   0   0  -4   79.65    3.53
   0   0  -4   82.82    3.54
  -1   0  -4  107.29    4.79
  -1   0  -4  111.03    4.80
  -2   0  -4    8.31    0.44
  -2   0  -4    7.39    0.60
  -2   0  -4    8.20    0.45
  -3   0  -4   67.09    2.98
  -3   0  -4   64.55    3.10
   3   0   4   64.08    2.90
   3   0   4   66.11    2.90
  -4   0  -4   38.57    1.81
  -4   0  -4   37.10    1.95
  -4   0  -4   36.16    1.76
  -5   0  -4    0.13    0.17
  -5   0  -4   -0.42    0.32
   5   0   4   -0.15    0.35
  -6   0  -4   18.10    1.32
  -7   0  -4    3.44    0.65
  -8   0  -4    6.66    0.74
  -8   0  -4    7.78    0.93
  -9   0  -4   16.95    1.56
 -10   0  -4    0.16    0.61
  12  -1  -4    2.17    0.74
 -12   1   4    2.36    0.83
  11  -1  -4    3.57    0.73
 -11   1   4    3.37    0.85
 -11   1   4    4.23    0.86
  10  -1  -4    0.29    0.60
 -10   1   4   -0.66    0.59
   9  -1  -4   32.85    1.93
  -9   1   4   32.65    1.93
   8  -1  -4    1.65    0.56
   8  -1  -4    1.89    0.41
  -8   1   4    2.82    0.61
   7  -1  -4   32.87    1.78
  -7   1   4   32.73    1.81
  -7   1   4   32.93    1.88
   6  -1  -4    5.11    0.60
   6  -1  -4    5.09    0.60
  -6   1   4    5.85    0.62
  -6   1   4    4.66    0.66
   5  -1  -4    7.04    0.64
   5  -1  -4    7.65    0.64
  -5   1   4    6.82    0.69
  -5   1   4    7.16    0.65
   4  -1  -4    6.37    0.60
   4  -1  -4    4.95    0.55
   4  -1  -4    5.80    0.50
  -4   1   4    4.33    0.46
  -4   1   4    4.97    0.51
   3  -1  -4   74.80    3.34
   3  -1  -4   71.76    3.32
   3  -1  -4   72.93    3.39
   3  -1  -4   66.54    3.35
  -3   1   4   76.47    3.31
   2  -1  -4   10.91    0.63
   2  -1  -4   10.83    0.67
   2  -1  -4   10.99    0.61
   2  -1  -4    9.25    0.65
  -2   1   4   11.65    0.62
  -2   1   4   10.86    0.64
  -2   1   4   10.63    0.60
   1  -1  -4  134.96    5.90
   1  -1  -4  135.17    5.91
   1  -1  -4  126.68    5.89
  -1   1   4  134.11    5.86
   0  -1  -4    1.32    0.13
  -1  -1  -4   11.18    0.50
  -1  -1  -4   10.94    0.50
  -2  -1  -4   29.27    1.47
  -2  -1  -4   27.59    1.32
  -2  -1  -4   29.08    1.30
  -3  -1  -4   10.94    0.67
  -3  -1  -4   12.44    0.64
  -3  -1  -4   12.89    0.86
  -3  -1  -4   11.71    0.71
   3   1   4   11.81    0.54
  -4  -1  -4    2.30    0.32
  -4  -1  -4    2.24    0.34
  -4  -1  -4    2.55    0.31
  -4  -1  -4    2.05    0.41
   4   1   4    2.44    0.22
  -5  -1  -4   86.48    4.16
  -5  -1  -4   83.34    4.02
  -5  -1  -4   91.10    3.92
  -6  -1  -4    3.51    0.51
  -6  -1  -4    2.59    0.65
  -7  -1  -4   16.98    1.42
  -7  -1  -4   20.58    1.27
  -8  -1  -4    6.88    0.97
  -9  -1  -4    0.37    0.76
 -10  -1  -4    0.90    0.60
  11  -2  -4    1.79    0.73
 -11   2   4    2.48    0.84
 -11   2   4    2.39    0.73
  10  -2  -4   32.66    2.03
 -10   2   4   35.57    2.08
 -10   2   4   33.53    2.07
   9  -2  -4    0.96    0.42
   9  -2  -4    1.03    0.61
  -9   2   4    0.60    0.63
  -9   2   4    1.25    0.65
   8  -2  -4   43.15    2.15
   8  -2  -4   40.67    2.33
  -8   2   4   44.75    2.29
  -8   2   4   44.97    2.38
   7  -2  -4    2.65    0.45
   7  -2  -4    2.17    0.57
  -7   2   4    1.46    0.47
  -7   2   4    1.65    0.45
   6  -2  -4    3.91    0.52
   6  -2  -4    3.88    0.60
  -6   2   4    6.37    0.68
  -6   2   4    4.07    0.60
   5  -2  -4   10.80    0.91
   5  -2  -4   13.42    0.81
   5  -2  -4   12.13    0.88
  -5   2   4   12.74    0.85
  -5   2   4   11.82    0.88
   4  -2  -4   48.24    2.36
   4  -2  -4   43.95    2.16
   4  -2  -4   42.94    2.24
  -4   2   4   47.70    2.14
  -4   2   4   48.19    2.25
  -4   2   4   43.10    2.22
   3  -2  -4    2.74    0.31
   3  -2  -4    2.40    0.38
   3  -2  -4    3.35    0.40
  -3   2   4    2.02    0.34
  -3   2   4    2.43    0.28
   2  -2  -4   70.82    3.50
   2  -2  -4   78.60    3.46
   2  -2  -4   83.06    3.54
  -2   2   4   76.26    3.49
  -2   2   4   76.82    3.45
   1  -2  -4    1.54    0.22
   1  -2  -4    1.69    0.44
   1  -2  -4    1.96    0.21
   1  -2  -4    2.00    0.25
  -1   2   4    2.14    0.19
  -1   2   4    2.34    0.23
   0  -2  -4   50.97    2.33
   0  -2  -4   52.76    2.34
   0  -2  -4   49.68    2.49
   0   2   4   52.95    2.30
   0   2   4   52.46    2.31
  -1  -2  -4   13.85    0.66
  -1  -2  -4   13.49    0.88
  -1  -2  -4   13.46    0.66
  -2  -2  -4   22.97    1.03
  -2  -2  -4   21.79    1.19
  -2  -2  -4   20.69    1.03
  -3  -2  -4    7.62    0.49
  -3  -2  -4    6.84    0.45
  -3  -2  -4    7.42    0.61
   3   2   4    7.20    0.36
   3   2   4    6.64    0.37
  -4  -2  -4   99.72    4.78
  -4  -2  -4  102.91    4.91
  -4  -2  -4  112.22    4.75
  -4  -2  -4  107.12    4.79
  -5  -2  -4   17.18    0.90
  -5  -2  -4   14.90    0.98
  -5  -2  -4   15.03    1.08
  -6  -2  -4   36.70    1.95
  -6  -2  -4   39.01    2.08
  -7  -2  -4    0.24    0.46
  -7  -2  -4    0.44    0.64
  -8  -2  -4    0.05    0.50
  -8  -2  -4    0.05    0.70
  -9  -2  -4    0.71    0.59
  12  -3  -4    3.86    0.85
  11  -3  -4    8.65    0.94
 -11   3   4   10.37    1.14
 -11   3   4    8.07    1.11
  10  -3  -4    0.90    0.65
 -10   3   4    0.81    0.65
 -10   3   4   -0.32    0.68
   9  -3  -4   12.93    1.16
  -9   3   4   12.84    1.08
  -9   3   4   14.43    1.26
   8  -3  -4    4.30    0.63
   8  -3  -4    4.27    0.57
  -8   3   4    5.20    0.78
  -8   3   4    5.74    0.82
   7  -3  -4    5.70    0.62
   7  -3  -4    3.87    0.69
  -7   3   4    4.13    0.60
  -7   3   4    3.83    0.67
   6  -3  -4   22.53    1.33
   6  -3  -4   21.71    1.42
  -6   3   4   24.30    1.36
  -6   3   4   23.69    1.42
   5  -3  -4   10.27    0.84
   5  -3  -4   11.17    0.89
  -5   3   4    9.68    0.86
  -5   3   4    9.93    0.84
   4  -3  -4    4.23    0.55
   4  -3  -4    4.86    0.45
   4  -3  -4    4.81    0.55
  -4   3   4    5.84    0.42
  -4   3   4    4.66    0.53
   3  -3  -4   73.59    3.25
   3  -3  -4   68.11    3.41
   3  -3  -4   69.14    3.34
  -3   3   4   74.22    3.23
  -3   3   4   74.33    3.33
   2  -3  -4    0.16    0.24
   2  -3  -4    0.77    0.42
   2  -3  -4    0.58    0.16
   2  -3  -4    1.24    0.27
  -2   3   4    0.73    0.21
   1  -3  -4   64.14    2.92
   1  -3  -4   62.84    2.98
   1  -3  -4   63.11    3.14
   1  -3  -4   71.90    3.00
  -1   3   4   65.42    2.95
   0  -3  -4   50.67    2.26
   0  -3  -4   46.00    2.40
   0  -3  -4   48.20    2.25
   0   3   4   52.09    2.26
  -1  -3  -4    6.29    0.58
  -1  -3  -4    7.20    0.44
  -1  -3  -4    7.13    0.45
   1   3   4    7.41    0.40
   1   3   4    7.33    0.40
  -2  -3  -4   18.09    0.90
  -2  -3  -4   17.10    1.07
  -2  -3  -4   18.94    0.92
   2   3   4   17.86    0.87
  -3  -3  -4   36.73    1.89
  -3  -3  -4   37.55    1.80
  -3  -3  -4   38.23    1.78
   3   3   4   39.12    1.75
  -4  -3  -4    0.22    0.35
  -4  -3  -4    0.46    0.29
  -5  -3  -4   51.54    2.54
  -5  -3  -4   54.39    2.50
  -5  -3  -4   51.71    2.67
  -6  -3  -4    0.76    0.43
  -6  -3  -4    1.10    0.49
  -7  -3  -4    0.39    0.68
  -7  -3  -4    1.65    0.52
  -8  -3  -4   25.44    1.67
  -8  -3  -4   23.82    1.55
  -9  -3  -4    4.13    0.74
  11  -4  -4    1.36    0.73
 -11   4   4    1.02    0.83
 -11   4   4    2.38    0.82
  10  -4  -4    7.63    0.87
 -10   4   4    8.06    0.95
 -10   4   4    6.64    0.96
   9  -4  -4    3.08    0.77
   9  -4  -4    5.20    0.64
  -9   4   4    4.31    0.81
  -9   4   4    4.90    0.87
   8  -4  -4   -0.02    0.39
   8  -4  -4    0.65    0.61
  -8   4   4    0.01    0.61
  -8   4   4    0.01    0.56
   7  -4  -4   36.96    1.97
   7  -4  -4   37.99    2.11
  -7   4   4   37.12    2.08
  -7   4   4   39.35    2.12
   6  -4  -4   14.11    1.02
   6  -4  -4   14.92    1.03
  -6   4   4   14.62    1.10
  -6   4   4   14.24    1.15
   5  -4  -4   22.32    1.37
   5  -4  -4   22.81    1.32
  -5   4   4   24.24    1.36
   4  -4  -4   11.40    0.93
   4  -4  -4   10.99    0.87
  -4   4   4   12.21    0.82
  -4   4   4   11.11    0.62
   3  -4  -4    0.93    0.33
   3  -4  -4   -0.08    0.31
   3  -4  -4    0.58    0.45
  -3   4   4    0.65    0.14
  -3   4   4    0.61    0.31
   2  -4  -4    1.10    0.31
   2  -4  -4    2.13    0.35
   2  -4  -4    1.14    0.37
  -2   4   4    1.78    0.30
   1  -4  -4   61.97    2.76
   1  -4  -4   56.07    2.74
   1  -4  -4   59.49    2.90
  -1   4   4   60.69    2.72
   0  -4  -4    0.15    0.23
   0  -4  -4    0.39    0.43
   0  -4  -4    0.31    0.22
   0   4   4    0.34    0.18
  -1  -4  -4   76.38    3.68
  -1  -4  -4   81.92    3.51
  -1  -4  -4   80.89    3.52
  -1  -4  -4   73.99    3.51
   1   4   4   73.86    3.48
  -2  -4  -4    5.59    0.43
  -2  -4  -4    4.82    0.60
  -2  -4  -4    5.46    0.47
  -3  -4  -4    7.03    0.56
  -3  -4  -4    6.51    0.68
  -4  -4  -4    1.44    0.36
  -4  -4  -4    1.76    0.45
  -5  -4  -4    0.45    0.39
  -5  -4  -4    1.15    0.41
  -5  -4  -4    0.15    0.55
  -6  -4  -4   -0.05    0.45
  -6  -4  -4   -0.25    0.60
  -7  -4  -4   37.38    2.11
  -7  -4  -4   34.60    1.99
  -8  -4  -4    1.40    0.82
  -8  -4  -4    0.84    0.61
  -9  -4  -4    5.07    0.85
  11  -5  -4   -0.01    0.71
 -11   5   4    0.42    0.77
  10  -5  -4    1.10    0.75
 -10   5   4    0.41    0.70
 -10   5   4    0.06    0.79
   9  -5  -4    1.77    0.73
   9  -5  -4    2.76    0.59
  -9   5   4    2.57    0.76
  -9   5   4    0.68    0.59
   8  -5  -4   31.19    1.92
   8  -5  -4   29.35    1.71
  -8   5   4   33.70    1.87
  -8   5   4   29.44    1.79
   7  -5  -4    0.51    0.47
   7  -5  -4    0.21    0.45
  -7   5   4    0.28    0.51
  -7   5   4    0.04    0.66
   6  -5  -4   11.51    0.95
   6  -5  -4   11.73    1.03
  -6   5   4    9.85    0.92
   5  -5  -4   -0.29    0.44
   5  -5  -4    0.28    0.47
  -5   5   4   -0.15    0.41
  -5   5   4    0.30    0.34
   4  -5  -4    7.20    0.79
   4  -5  -4    7.40    0.71
  -4   5   4    8.00    0.44
  -4   5   4    6.75    0.65
   3  -5  -4    1.30    0.41
   3  -5  -4    1.67    0.54
  -3   5   4    2.02    0.38
   2  -5  -4   55.16    2.71
   2  -5  -4   61.70    2.73
   2  -5  -4   54.60    2.84
  -2   5   4   57.84    2.68
   1  -5  -4    1.91    0.35
   1  -5  -4    2.95    0.50
   1  -5  -4    3.46    0.40
  -1   5   4    1.52    0.29
   0  -5  -4   69.83    3.05
   0  -5  -4   65.77    3.20
   0  -5  -4   66.89    3.36
   0  -5  -4   68.18    3.06
   0  -5  -4   76.78    3.22
   0   5   4   68.74    3.16
  -1  -5  -4    4.58    0.57
  -1  -5  -4    4.70    0.44
   1   5   4    3.58    0.36
  -2  -5  -4   13.92    1.08
  -2  -5  -4   14.83    0.90
   2   5   4   16.48    0.85
  -3  -5  -4    0.34    0.43
  -3  -5  -4   -0.07    0.30
  -4  -5  -4    9.52    0.79
  -4  -5  -4   11.13    0.87
  -5  -5  -4   -0.39    0.39
  -5  -5  -4    0.24    0.45
  -5  -5  -4   -0.23    0.42
  -6  -5  -4   56.45    2.73
  -6  -5  -4   52.75    2.93
  -7  -5  -4    2.55    0.69
  -7  -5  -4    2.71    0.64
  -8  -5  -4    3.47    0.72
  10  -6  -4    5.87    0.98
 -10   6   4    4.51    0.94
 -10   6   4    7.96    1.16
   9  -6  -4   12.04    1.20
   9  -6  -4   11.62    1.00
  -9   6   4   11.32    1.30
  -9   6   4   12.35    1.19
   8  -6  -4   -0.96    0.61
   8  -6  -4    0.25    0.50
  -8   6   4   -0.76    0.59
   7  -6  -4   23.68    1.49
   7  -6  -4   25.56    1.63
  -7   6   4   22.02    1.56
   6  -6  -4    5.35    0.77
   6  -6  -4    5.98    0.77
  -6   6   4    4.86    0.71
   5  -6  -4    1.29    0.58
   5  -6  -4    0.80    0.50
  -5   6   4   -0.01    0.43
   4  -6  -4    1.48    0.61
   4  -6  -4    0.81    0.47
  -4   6   4    1.36    0.43
   3  -6  -4  109.35    5.04
   3  -6  -4  105.09    4.88
  -3   6   4  102.97    4.83
   2  -6  -4    1.38    0.49
   2  -6  -4    1.47    0.42
  -2   6   4    2.48    0.39
   1  -6  -4   30.48    1.76
   1  -6  -4   30.51    1.62
  -1   6   4   32.96    1.58
   0  -6  -4    6.68    0.81
   0  -6  -4    6.16    0.57
   0   6   4    5.42    0.49
  -1  -6  -4   10.15    0.87
  -1  -6  -4    9.74    0.73
   1   6   4    9.24    0.66
  -2  -6  -4   11.01    0.90
  -2  -6  -4   11.18    0.79
  -3  -6  -4    7.78    0.81
  -3  -6  -4    7.12    0.65
  -4  -6  -4    9.29    0.82
  -4  -6  -4   11.41    0.98
  -5  -6  -4   12.72    1.03
  -6  -6  -4   -0.18    0.48
  -6  -6  -4   -0.29    0.70
  -7  -6  -4    6.14    0.78
  -7  -6  -4    4.86    1.00
 -10   7   4    4.31    0.89
   9  -7  -4    1.18    0.99
   9  -7  -4    0.68    0.77
  -9   7   4    0.74    0.74
   8  -7  -4    4.16    0.73
   8  -7  -4    7.23    0.94
  -8   7   4    4.22    0.82
   7  -7  -4    7.47    0.98
   7  -7  -4   10.06    0.98
  -7   7   4    9.01    0.93
   6  -7  -4   -0.24    0.42
   6  -7  -4   -0.24    0.53
  -6   7   4    0.16    0.52
   5  -7  -4   24.03    1.54
   5  -7  -4   24.05    1.60
  -5   7   4   23.45    1.43
   4  -7  -4    2.03    0.70
   4  -7  -4    2.86    0.58
  -4   7   4    2.61    0.50
   3  -7  -4   26.65    1.69
   3  -7  -4   26.31    1.50
  -3   7   4   24.49    1.40
   2  -7  -4    3.46    0.55
   2  -7  -4    2.43    0.58
  -2   7   4    3.47    0.47
   1  -7  -4    6.13    0.61
   1  -7  -4    4.45    0.71
  -1   7   4    6.16    0.56
   0  -7  -4   11.61    0.87
   0  -7  -4   12.45    1.02
   0   7   4   10.95    0.76
  -1  -7  -4   18.46    1.41
  -1  -7  -4   19.42    1.16
  -2  -7  -4    0.05    0.42
  -2  -7  -4    0.86    0.61
  -3  -7  -4   25.88    1.52
  -3  -7  -4   28.04    1.72
  -4  -7  -4    6.92    0.70
  -4  -7  -4    7.53    0.87
  -5  -7  -4    2.21    0.58
  -6  -7  -4    4.31    0.70
  -6  -7  -4    2.94    0.89
  -9   8   4    0.48    0.73
   8  -8  -4    2.14    0.83
   8  -8  -4    1.73    0.69
  -8   8   4    0.92    0.69
   7  -8  -4    3.04    0.82
   7  -8  -4    0.50    0.66
  -7   8   4    2.22    0.63
   6  -8  -4   23.94    1.62
   6  -8  -4   23.18    1.49
  -6   8   4   20.65    1.48
   5  -8  -4    0.39    0.58
   5  -8  -4   -0.04    0.63
  -5   8   4   -0.11    0.46
   4  -8  -4   21.85    1.51
   4  -8  -4   23.30    1.46
  -4   8   4   23.69    1.42
   3  -8  -4    1.89    0.58
   3  -8  -4    1.47    0.72
  -3   8   4    1.36    0.46
   2  -8  -4    1.26    0.50
   2  -8  -4    0.04    0.67
  -2   8   4    0.61    0.39
   1  -8  -4    0.27    0.45
   1  -8  -4    0.20    0.70
   0  -8  -4   19.36    1.24
   0  -8  -4   18.91    1.51
  -1  -8  -4    0.59    0.51
  -1  -8  -4    0.44    0.48
  -2  -8  -4   25.32    1.49
  -2  -8  -4   25.82    1.77
  -3  -8  -4    3.12    0.61
  -3  -8  -4    3.09    0.77
  -4  -8  -4    1.19    0.55
  -4  -8  -4    0.39    0.63
  -5  -8  -4   -0.13    0.51
   8  -9  -4    0.14    0.67
  -8   9   4    1.94    0.76
   7  -9  -4   10.16    1.14
   7  -9  -4   11.53    1.20
  -7   9   4   10.56    1.18
   6  -9  -4    0.75    0.72
   6  -9  -4   -0.16    0.62
  -6   9   4    0.66    0.60
   5  -9  -4    2.86    0.87
   5  -9  -4    4.38    0.80
   4  -9  -4    0.64    0.78
   4  -9  -4   -0.17    0.59
   3  -9  -4   -0.53    0.55
   3  -9  -4    0.78    0.78
   2  -9  -4    2.26    0.60
   2  -9  -4    1.85    0.66
   1  -9  -4   11.29    0.96
   1  -9  -4   10.95    1.12
   0  -9  -4    4.47    0.68
   0  -9  -4    5.65    0.87
  -1  -9  -4   10.39    0.94
  -1  -9  -4   11.49    1.24
  -2  -9  -4    0.38    0.77
  -2  -9  -4    0.31    0.55
  -3  -9  -4    2.56    0.80
  -3  -9  -4    1.20    0.58
  -4  -9  -4    3.00    0.81
  -4  -9  -4    1.18    0.62
   6 -10  -4    3.33    0.92
   5 -10  -4    5.28    1.03
   5 -10  -4    4.67    0.88
   4 -10  -4    0.39    0.85
   4 -10  -4   -0.50    0.65
   3 -10  -4    7.94    0.92
   3 -10  -4    8.13    1.06
   2 -10  -4    3.94    1.00
   2 -10  -4    3.35    0.71
   1 -10  -4    2.99    0.69
   1 -10  -4    2.42    0.77
   0 -10  -4    0.89    0.63
   0 -10  -4    1.04    0.70
  -1 -10  -4   -0.26    0.55
  -1 -10  -4    0.15    0.80
  -2 -10  -4    0.23    0.83
   1 -12   5    0.08    0.85
   2 -12   5    9.86    1.14
   3  11  -5    1.30    0.80
  -3 -11   5    0.15    0.81
   2  11  -5    8.55    1.01
  -2 -11   5    9.11    1.01
   1  11  -5    0.37    0.61
  -1 -11   5   -0.39    0.67
   0  11  -5    2.72    0.76
   0 -11   5    1.89    0.74
  -1  11  -5    6.49    0.80
   1 -11   5    4.93    0.85
  -2  11  -5    0.20    0.66
   2 -11   5   -1.28    0.63
   3 -11   5    2.28    0.95
   6  10  -5    0.28    0.65
   5  10  -5    3.81    0.83
   5  10  -5    4.81    0.85
  -5 -10   5    2.35    0.80
   4  10  -5    3.14    0.74
   4  10  -5    2.24    0.74
  -4 -10   5    2.63    0.79
   3  10  -5   18.46    1.38
   3  10  -5   17.01    1.40
  -3 -10   5   16.63    1.38
   2  10  -5    0.53    0.60
   2  10  -5    0.39    0.53
  -2 -10   5    0.62    0.64
   1  10  -5   17.43    1.23
   1  10  -5   16.98    1.22
  -1 -10   5   17.41    1.22
   0  10  -5    1.20    0.52
   0  10  -5    0.94    0.62
   0 -10   5    0.61    0.61
  -1  10  -5   -0.01    0.59
  -1  10  -5    0.91    0.49
   1 -10   5   -0.06    0.58
  -2  10  -5    0.43    0.61
  -2  10  -5    0.94    0.57
   2 -10   5   -0.12    0.56
  -3  10  -5   14.58    1.11
  -3  10  -5   15.37    1.25
   3 -10   5   12.83    1.20
  -4  10  -5    0.03    0.59
  -4  10  -5   -0.85    0.53
  -5  10  -5    9.30    0.95
   7   9  -5    0.49    0.66
   7   9  -5   -0.98    0.58
   6   9  -5    3.76    0.77
   6   9  -5    4.11    0.80
  -6  -9   5    2.67    0.80
   5   9  -5   -0.04    0.62
   5   9  -5    1.09    0.62
  -5  -9   5    0.25    0.51
   4   9  -5   18.29    1.34
   4   9  -5   18.37    1.39
  -4  -9   5   18.94    1.43
   3   9  -5    0.80    0.57
   3   9  -5   -1.24    0.45
  -3  -9   5   -0.37    0.55
   2   9  -5   31.34    1.83
   2   9  -5   37.68    1.94
  -2  -9   5   30.65    1.87
   1   9  -5    4.71    0.71
   1   9  -5    3.92    0.62
  -1  -9   5    3.17    0.65
   0   9  -5    0.60    0.45
   0   9  -5    0.14    0.52
   0  -9   5    0.35    0.40
  -1   9  -5    0.75    0.48
  -1   9  -5    0.20    0.54
   1  -9   5    0.74    0.54
  -2   9  -5    2.73    0.61
  -2   9  -5    2.28    0.63
   2  -9   5    1.82    0.58
  -3   9  -5    1.02    0.52
  -3   9  -5    0.46    0.56
   3  -9   5    0.81    0.53
  -4   9  -5   17.30    1.31
  -4   9  -5   19.20    1.26
   4  -9   5   15.45    1.24
  -5   9  -5   -0.59    0.55
  -5   9  -5   -0.66    0.53
  -6   9  -5    5.08    0.82
  -6   9  -5    5.29    0.81
  -7   9  -5   -0.14    0.63
   8   8  -5    6.74    0.93
   7   8  -5    0.16    0.63
   7   8  -5   -0.37    0.62
  -7  -8   5   -0.17    0.70
   6   8  -5    9.05    1.00
   6   8  -5    9.69    1.00
  -6  -8   5   10.52    0.98
   5   8  -5   11.70    0.96
   5   8  -5   11.51    1.05
  -5  -8   5   11.23    1.05
   4   8  -5    0.34    0.54
   4   8  -5    0.31    0.53
  -4  -8   5   -0.64    0.54
   3   8  -5   23.13    1.44
   3   8  -5   23.95    1.46
  -3  -8   5   21.73    1.36
   2   8  -5    2.46    0.56
   2   8  -5    2.64    0.56
  -2  -8   5    2.03    0.54
   1   8  -5    0.20    0.47
   1   8  -5    0.38    0.44
  -1  -8   5   -0.18    0.46
   0   8  -5   16.31    1.09
   0   8  -5   16.78    1.16
   0  -8   5   14.97    1.11
  -1   8  -5   -0.05    0.42
  -1   8  -5    0.20    0.46
   1  -8   5    0.06    0.43
  -2   8  -5    8.82    0.82
  -2   8  -5    9.22    0.82
   2  -8   5    6.88    0.74
  -3   8  -5   16.75    1.22
  -3   8  -5   18.26    1.19
   3  -8   5   16.43    1.14
  -4   8  -5    0.19    0.49
  -4   8  -5   -0.49    0.48
   4  -8   5   -0.16    0.43
  -5   8  -5    6.66    0.83
  -5   8  -5    7.25    0.81
  -5   8  -5    5.55    0.92
  -6   8  -5    5.74    0.99
  -6   8  -5    3.83    0.74
  -7   8  -5    1.42    0.65
  -7   8  -5    1.70    0.85
  -8   8  -5    1.24    0.89
   9   7  -5    8.52    1.02
   8   7  -5    2.28    0.76
   8   7  -5    1.92    0.71
  -8  -7   5    0.69    0.69
   7   7  -5   19.27    1.42
   7   7  -5   19.99    1.36
  -7  -7   5   18.64    1.51
   6   7  -5    0.46    0.44
   6   7  -5    1.10    0.47
  -6  -7   5    0.82    0.60
   5   7  -5    6.90    0.82
   5   7  -5    4.84    0.71
  -5  -7   5    5.76    0.75
   4   7  -5    8.05    0.81
   4   7  -5    6.82    0.81
  -4  -7   5    9.22    0.84
   3   7  -5    8.57    0.83
   3   7  -5   11.26    0.92
  -3  -7   5    8.20    0.81
   2   7  -5    4.39    0.60
   2   7  -5    4.99    0.61
  -2  -7   5    3.71    0.58
   1   7  -5   35.14    1.80
   1   7  -5   34.97    1.79
  -1  -7   5   30.15    1.76
   0   7  -5   -0.24    0.40
   0   7  -5   -0.33    0.39
   0  -7   5   -0.55    0.37
  -1   7  -5   11.18    0.89
  -1   7  -5   11.91    0.91
   1  -7   5   10.78    0.87
  -2   7  -5   50.66    2.51
  -2   7  -5   49.60    2.49
   2  -7   5   50.13    2.46
  -3   7  -5    1.23    0.41
  -3   7  -5    0.91    0.44
  -3   7  -5    1.80    0.53
   3  -7   5    1.35    0.41
  -4   7  -5    6.21    0.73
  -4   7  -5    5.50    0.67
  -4   7  -5    6.92    0.83
   4  -7   5    5.42    0.61
  -5   7  -5   29.56    1.83
  -5   7  -5   29.45    1.73
  -6   7  -5    0.00    0.67
  -6   7  -5   -1.10    0.47
  -7   7  -5   13.72    1.19
  -7   7  -5   11.97    1.30
  -8   7  -5    2.30    0.93
  -8   7  -5    2.42    0.71
  10   6  -5   11.74    1.18
   9   6  -5    0.99    0.59
   9   6  -5    0.75    0.70
  -9  -6   5    1.98    0.82
   8   6  -5   27.95    1.89
   8   6  -5   29.45    1.86
  -8  -6   5   30.50    1.83
   7   6  -5    0.72    0.56
   7   6  -5    0.35    0.61
  -7  -6   5    1.00    0.64
   6   6  -5   19.97    1.44
   6   6  -5   20.97    1.39
  -6  -6   5   22.73    1.36
   5   6  -5    0.78    0.49
   5   6  -5    0.58    0.42
  -5  -6   5    0.55    0.50
  -5  -6   5    0.07    0.29
   4   6  -5   11.06    0.99
   4   6  -5   11.84    0.97
  -4  -6   5   11.30    0.96
  -4  -6   5   12.10    0.72
   3   6  -5    0.25    0.43
   3   6  -5    0.98    0.43
  -3  -6   5    0.41    0.21
  -3  -6   5    0.45    0.42
   2   6  -5   99.18    4.58
   2   6  -5   96.49    4.56
  -2  -6   5  106.71    4.45
  -2  -6   5   92.18    4.56
   1   6  -5   -0.03    0.37
   1   6  -5    0.26    0.28
  -1  -6   5    0.74    0.36
  -1  -6   5    0.37    0.20
   0   6  -5   61.85    2.99
   0   6  -5   63.98    3.01
   0  -6   5   65.43    2.90
   0  -6   5   61.11    2.98
  -1   6  -5    1.44    0.39
  -1   6  -5    1.29    0.44
   1  -6   5    1.89    0.38
  -2   6  -5    4.97    0.61
  -2   6  -5    4.28    0.54
  -2   6  -5    6.05    0.55
   2  -6   5    3.98    0.50
  -3   6  -5    0.75    0.41
  -3   6  -5    1.67    0.49
  -3   6  -5    0.33    0.45
   3  -6   5    0.81    0.38
  -4   6  -5   24.33    1.49
  -4   6  -5   24.07    1.39
   4  -6   5   23.51    1.32
  -5   6  -5   -0.15    0.57
  -5   6  -5   -0.17    0.43
   5  -6   5   -0.07    0.36
  -6   6  -5   22.39    1.63
  -6   6  -5   21.49    1.40
  -7   6  -5    1.11    0.80
  -7   6  -5    0.37    0.53
  -8   6  -5   10.46    1.01
  -8   6  -5   12.31    1.36
  -9   6  -5    0.36    0.90
  10   5  -5    2.11    0.69
   9   5  -5   16.00    1.47
   9   5  -5   17.79    1.44
  -9  -5   5   15.87    1.43
   8   5  -5   -0.09    0.44
   8   5  -5   -0.29    0.46
  -8  -5   5    1.48    0.69
   7   5  -5   23.62    1.47
   7   5  -5   20.22    1.39
  -7  -5   5   22.01    1.49
  -7  -5   5   21.61    1.28
   6   5  -5   19.07    1.23
   6   5  -5   17.67    1.26
  -6  -5   5   19.43    1.32
  -6  -5   5   18.80    1.10
   5   5  -5   -0.01    0.33
   5   5  -5    0.45    0.49
  -5  -5   5    0.79    0.44
  -5  -5   5    0.62    0.30
   4   5  -5   31.26    1.74
   4   5  -5   30.76    1.70
  -4  -5   5   29.35    1.65
  -4  -5   5   33.64    1.51
   3   5  -5   19.04    1.13
   3   5  -5   19.52    1.16
  -3  -5   5   20.18    1.16
  -3  -5   5   19.00    0.93
   2   5  -5   -0.24    0.31
   2   5  -5    0.11    0.36
  -2  -5   5    0.17    0.13
  -2  -5   5   -0.23    0.32
  -2  -5   5   -0.01    0.10
   1   5  -5   50.46    2.54
   1   5  -5   51.68    2.58
  -1  -5   5   57.35    2.40
  -1  -5   5   52.56    2.53
   0   5  -5    8.18    0.66
   0   5  -5    6.89    0.67
   0  -5   5    7.95    0.62
   0  -5   5    8.53    0.50
  -1   5  -5   14.43    0.79
  -1   5  -5   12.97    0.86
  -1   5  -5   13.57    0.86
   1  -5   5   13.82    0.84
   1  -5   5   13.43    0.78
  -2   5  -5   28.52    1.52
  -2   5  -5   27.89    1.49
  -2   5  -5   28.50    1.51
   2  -5   5   30.37    1.47
  -3   5  -5   18.40    1.10
  -3   5  -5   17.20    1.15
   3  -5   5   18.89    1.02
  -4   5  -5    1.50    0.41
  -4   5  -5    2.03    0.56
   4  -5   5    1.89    0.37
  -5   5  -5   72.49    3.54
  -5   5  -5   76.14    3.72
   5  -5   5   74.51    3.46
  -6   5  -5    1.25    0.51
  -6   5  -5    0.73    0.69
  -7   5  -5   11.09    1.00
  -7   5  -5   11.63    1.14
  -8   5  -5    7.69    1.14
  -8   5  -5    8.20    0.89
  -9   5  -5    2.72    0.69
  -9   5  -5    4.40    1.06
  11   4  -5   13.37    1.27
  10   4  -5    4.37    0.85
 -10  -4   5    3.55    0.89
   9   4  -5    2.81    0.68
   9   4  -5    1.61    0.78
  -9  -4   5    1.02    0.70
  -9  -4   5    1.87    0.77
   8   4  -5    5.68    0.74
   8   4  -5    3.58    0.74
  -8  -4   5    2.89    0.77
  -8  -4   5    5.02    0.66
   7   4  -5   46.70    2.44
   7   4  -5   48.00    2.46
  -7  -4   5   45.29    2.31
  -7  -4   5   46.71    2.44
   6   4  -5    0.24    0.37
   6   4  -5    0.37    0.52
  -6  -4   5    0.19    0.48
  -6  -4   5    0.40    0.33
   5   4  -5   43.11    2.27
   5   4  -5   44.25    2.29
  -5  -4   5   46.61    2.14
  -5  -4   5   45.76    2.26
   4   4  -5   16.04    1.08
   4   4  -5   19.09    1.08
  -4  -4   5   17.93    0.89
  -4  -4   5   16.09    1.08
   3   4  -5    0.46    0.29
   3   4  -5    0.91    0.35
  -3  -4   5    0.54    0.32
  -3  -4   5    0.23    0.10
   2   4  -5   42.16    1.93
   2   4  -5   38.14    1.94
  -2  -4   5   38.13    1.92
   1   4  -5   20.43    1.12
   1   4  -5   20.69    1.14
  -1  -4   5   21.32    1.11
   0   4  -5    3.87    0.49
   0   4  -5    3.20    0.39
   0   4  -5    5.05    0.44
   0  -4   5    3.98    0.38
   0  -4   5    3.87    0.28
  -1   4  -5  183.76    7.68
  -1   4  -5  167.20    7.65
  -1   4  -5  165.55    7.67
  -1   4  -5  163.47    7.72
   1  -4   5  170.93    7.65
   1  -4   5  179.99    7.63
  -2   4  -5    8.07    0.56
  -2   4  -5    6.45    0.62
  -2   4  -5    5.93    0.54
   2  -4   5    7.24    0.53
  -3   4  -5   12.49    0.81
  -3   4  -5   14.74    0.82
  -3   4  -5   12.59    1.00
   3  -4   5   12.15    0.76
  -4   4  -5   21.41    1.28
  -4   4  -5   16.72    1.07
   4  -4   5   16.90    0.98
  -5   4  -5    5.89    0.82
  -5   4  -5    6.26    0.62
   5  -4   5    6.63    0.54
  -6   4  -5    6.00    0.67
  -6   4  -5    7.09    0.92
  -7   4  -5   27.41    1.88
  -7   4  -5   26.62    1.61
  -8   4  -5    1.60    0.61
  -8   4  -5    1.96    0.85
  -9   4  -5    5.25    0.77
  -9   4  -5    3.58    1.04
  11   3  -5    2.31    0.76
  10   3  -5    1.17    0.64
 -10  -3   5    0.60    0.75
 -10  -3   5    0.21    0.55
   9   3  -5   -0.12    0.47
   9   3  -5    0.32    0.56
  -9  -3   5    1.17    0.52
  -9  -3   5    0.44    0.66
   8   3  -5   38.83    2.07
   8   3  -5   34.87    1.99
  -8  -3   5   35.32    2.10
  -8  -3   5   33.47    1.87
   7   3  -5   -0.02    0.40
   7   3  -5   -0.04    0.37
  -7  -3   5    0.19    0.39
  -7  -3   5    0.16    0.55
   6   3  -5   26.37    1.48
   6   3  -5   23.24    1.49
  -6  -3   5   23.57    1.31
  -6  -3   5   25.15    1.51
   5   3  -5    2.89    0.50
   5   3  -5    3.28    0.49
  -5  -3   5    3.49    0.48
  -5  -3   5    3.08    0.37
   4   3  -5   19.70    1.24
   4   3  -5   21.43    1.19
  -4  -3   5   21.81    1.21
  -4  -3   5   20.72    1.03
   3   3  -5    1.19    0.39
   3   3  -5    1.35    0.28
  -3  -3   5    1.62    0.36
   2   3  -5   24.91    1.34
   2   3  -5   24.31    1.35
   2   3  -5   28.32    1.34
  -2  -3   5   28.19    1.35
   1   3  -5    0.07    0.20
   1   3  -5    0.16    0.30
   1   3  -5    0.09    0.21
  -1  -3   5    0.32    0.21
   0   3  -5  123.38    5.59
   0   3  -5  117.29    5.65
   0   3  -5  122.08    5.53
   0   3  -5  134.10    5.59
   0  -3   5  127.14    5.57
  -1   3  -5   -0.09    0.31
  -1   3  -5   -0.43    0.23
  -1   3  -5   -0.20    0.20
  -1   3  -5    0.09    0.20
   1  -3   5   -0.06    0.17
  -2   3  -5   60.52    2.81
  -2   3  -5   64.17    2.82
  -2   3  -5   61.59    2.90
   2  -3   5   58.79    2.78
  -3   3  -5    1.28    0.29
  -3   3  -5    1.30    0.30
  -3   3  -5    0.99    0.41
   3  -3   5    1.27    0.24
  -4   3  -5    1.59    0.34
  -4   3  -5    1.72    0.52
   4  -3   5    1.43    0.27
  -5   3  -5    0.76    0.37
  -5   3  -5    1.72    0.59
   5  -3   5    0.63    0.29
  -6   3  -5   23.07    1.62
  -6   3  -5   23.86    1.38
  -7   3  -5    1.43    0.50
  -7   3  -5    0.90    0.57
  -8   3  -5   21.12    1.41
  -8   3  -5   21.51    1.72
  -9   3  -5    2.40    0.91
  -9   3  -5    2.19    0.64
  11   2  -5    2.43    0.71
 -11  -2   5    1.32    0.81
 -11  -2   5    2.27    0.78
  10   2  -5    2.19    0.68
 -10  -2   5    1.17    0.60
 -10  -2   5    2.88    0.80
   9   2  -5   22.69    1.58
   9   2  -5   19.65    1.36
  -9  -2   5   20.87    1.43
  -9  -2   5   20.35    1.37
   8   2  -5    8.00    0.89
   8   2  -5    9.89    0.99
  -8  -2   5    8.13    0.94
  -8  -2   5    8.36    0.81
   7   2  -5   33.50    1.89
   7   2  -5   33.81    1.90
  -7  -2   5   31.49    1.76
  -7  -2   5   35.19    1.93
   6   2  -5    0.26    0.35
   6   2  -5    0.27    0.42
  -6  -2   5    0.77    0.36
  -6  -2   5    0.48    0.47
   5   2  -5   28.92    1.65
   5   2  -5   28.74    1.62
   5   2  -5   32.58    1.55
  -5  -2   5   31.42    1.53
  -5  -2   5   31.87    1.69
   4   2  -5   37.47    1.86
   4   2  -5   34.29    1.88
   4   2  -5   39.37    1.74
  -4  -2   5   37.43    1.88
  -4  -2   5   36.07    1.73
   3   2  -5   13.42    0.82
   3   2  -5   12.23    0.85
   3   2  -5   13.82    0.82
  -3  -2   5   13.77    0.83
   2   2  -5   19.02    1.11
   2   2  -5   20.26    1.06
   2   2  -5   21.37    1.06
  -2  -2   5   21.05    1.06
   1   2  -5  116.15    5.00
   1   2  -5  108.13    5.05
   1   2  -5  106.97    4.99
  -1  -2   5  114.79    4.99
   0   2  -5   10.25    0.58
   0   2  -5   10.28    0.57
   0   2  -5    9.70    0.57
   0   2  -5   10.15    0.65
   0  -2   5    9.98    0.56
  -1   2  -5   52.82    2.51
  -1   2  -5   53.85    2.58
  -1   2  -5   59.60    2.52
  -2   2  -5   20.81    1.05
  -2   2  -5   22.32    1.06
  -2   2  -5   21.36    1.18
  -3   2  -5    0.44    0.38
  -3   2  -5    0.27    0.21
  -3   2  -5    0.16    0.21
  -4   2  -5    3.30    0.56
  -4   2  -5    3.49    0.40
  -4   2  -5    2.83    0.37
  -4   2  -5    2.62    0.36
   4  -2   5    3.46    0.33
  -5   2  -5   22.54    1.23
  -5   2  -5   24.04    1.47
   5  -2   5   21.46    1.11
  -6   2  -5   -0.06    0.57
  -6   2  -5    0.62    0.39
  -7   2  -5   40.01    2.12
  -7   2  -5   43.23    2.42
  -8   2  -5    0.24    0.50
  -8   2  -5    1.28    0.79
  -9   2  -5    4.22    1.00
  -9   2  -5    3.26    0.64
  12   1  -5    1.71    0.85
 -12  -1   5    1.67    0.76
  11   1  -5   16.36    1.39
 -11  -1   5   17.60    1.58
 -11  -1   5   17.43    1.40
  10   1  -5    4.02    0.80
 -10  -1   5    3.33    0.70
 -10  -1   5    5.13    0.77
   9   1  -5    7.12    0.88
  -9  -1   5    6.65    0.84
  -9  -1   5    6.44    0.89
   8   1  -5   16.59    1.31
   8   1  -5   17.70    1.32
  -8  -1   5   19.94    1.36
  -8  -1   5   16.76    1.24
   7   1  -5   17.56    1.27
   7   1  -5   18.07    1.25
  -7  -1   5   16.64    1.27
  -7  -1   5   18.86    1.14
   6   1  -5   28.29    1.63
   6   1  -5   29.55    1.57
  -6  -1   5   26.65    1.50
  -6  -1   5   30.03    1.65
   5   1  -5   32.72    1.77
   5   1  -5   35.95    1.75
   5   1  -5   34.14    1.69
  -5  -1   5   32.92    1.64
  -5  -1   5   31.24    1.74
   4   1  -5    0.40    0.32
   4   1  -5    0.72    0.26
   4   1  -5    1.33    0.38
  -4  -1   5    0.61    0.24
  -4  -1   5    0.49    0.36
   3   1  -5   15.19    0.84
   3   1  -5   12.50    0.84
   3   1  -5   15.35    0.84
   3   1  -5   14.13    0.74
  -3  -1   5   12.09    0.84
   2   1  -5   75.60    3.35
   2   1  -5   73.60    3.35
   2   1  -5   73.09    3.29
   2   1  -5   70.31    3.37
  -2  -1   5   75.39    3.37
   1   1  -5    2.16    0.33
   1   1  -5    2.23    0.23
   1   1  -5    1.91    0.23
  -1  -1   5    2.12    0.25
  -1  -1   5    2.01    0.21
   0   1  -5   85.96    3.91
   0   1  -5   89.86    3.91
   0   1  -5   86.70    3.95
   0   1  -5   85.82    4.01
   0  -1   5   87.33    3.91
   0  -1   5   91.65    3.89
  -1   1  -5   18.12    0.87
  -1   1  -5   17.84    0.98
  -1   1  -5   18.93    0.87
  -2   1  -5   28.14    1.29
  -2   1  -5   25.63    1.42
  -2   1  -5   28.74    1.29
  -3   1  -5   82.07    3.69
  -3   1  -5   77.12    3.83
  -3   1  -5   81.41    3.68
   3  -1   5   85.63    3.62
   3  -1   5   82.03    3.61
  -4   1  -5   15.80    1.08
  -4   1  -5   16.49    0.89
  -4   1  -5   12.71    0.83
   4  -1   5   15.57    0.74
  -5   1  -5   18.83    1.07
  -5   1  -5   19.89    1.32
  -6   1  -5   24.77    1.38
  -6   1  -5   25.57    1.55
  -7   1  -5    2.35    0.73
  -7   1  -5    2.63    0.50
  -8   1  -5    3.74    0.89
  -8   1  -5    4.58    0.62
  -9   1  -5   17.00    1.26
  -9   1  -5   18.01    1.64
  12   0  -5   11.45    1.16
 -12   0   5   10.84    1.19
  11   0  -5    1.39    0.68
 -11   0   5    1.71    0.72
  10   0  -5   17.48    1.39
 -10   0   5   16.74    1.33
 -10   0   5   16.20    1.47
   9   0  -5    2.77    0.58
  -9   0   5    1.28    0.59
  -9   0   5    2.09    0.71
   8   0  -5    2.17    0.62
   8   0  -5    0.34    0.55
  -8   0   5   -0.41    0.55
  -8   0   5    0.30    0.48
   7   0  -5   10.71    0.81
   7   0  -5    7.62    0.77
  -7   0   5    7.20    0.74
  -7   0   5    9.15    0.88
   6   0  -5   98.23    4.57
   6   0  -5   98.91    4.54
  -6   0   5   91.67    4.47
  -6   0   5  100.49    4.59
   5   0  -5    3.25    0.51
   5   0  -5    2.63    0.47
  -5   0   5    3.07    0.44
  -5   0   5    2.65    0.38
   4   0  -5  123.68    5.54
   4   0  -5  117.79    5.50
   4   0  -5  115.74    5.52
   4   0  -5  128.01    5.49
  -4   0   5  117.73    5.44
  -4   0   5  124.21    5.54
   3   0  -5    7.00    0.51
   3   0  -5    6.49    0.55
   3   0  -5    6.65    0.55
   3   0  -5    7.28    0.59
  -3   0   5    6.70    0.59
   2   0  -5   52.98    2.56
   2   0  -5   55.04    2.56
   2   0  -5   56.18    2.53
   2   0  -5   54.42    2.57
  -2   0   5   57.24    2.56
   1   0  -5    0.81    0.19
   1   0  -5    0.89    0.18
   1   0  -5    0.52    0.24
  -1   0   5    0.74    0.13
   0   0  -5   42.47    1.87
   0   0  -5   39.39    1.98
   0   0  -5   43.11    1.88
  -1   0  -5    2.23    0.14
  -1   0  -5    2.38    0.14
  -2   0  -5   94.56    4.23
  -2   0  -5   96.17    4.40
  -2   0  -5   96.51    4.24
  -3   0  -5    0.05    0.17
  -3   0  -5    0.09    0.36
  -3   0  -5    0.14    0.17
  -4   0  -5   31.96    1.75
  -4   0  -5   29.68    1.54
  -4   0  -5   33.66    1.56
  -5   0  -5    0.49    0.52
  -5   0  -5   -0.01    0.29
  -5   0  -5    0.42    0.25
  -6   0  -5   -0.05    0.35
  -6   0  -5    0.51    0.57
  -7   0  -5    3.04    0.78
  -7   0  -5    2.75    0.51
  -8   0  -5   20.19    1.35
  -8   0  -5   23.43    1.71
  -9   0  -5    0.84    0.82
  -9   0  -5    1.14    0.52
  12  -1  -5    1.18    0.79
 -12   1   5    1.87    0.79
  11  -1  -5   15.71    1.37
 -11   1   5   13.12    1.27
 -11   1   5   12.24    1.22
  10  -1  -5    3.80    0.75
 -10   1   5    2.63    0.73
   9  -1  -5    1.38    0.51
   9  -1  -5    1.76    0.46
  -9   1   5    1.83    0.62
   8  -1  -5    5.78    0.78
  -8   1   5    5.78    0.73
   7  -1  -5   20.01    1.27
   7  -1  -5   20.23    1.35
  -7   1   5   18.75    1.24
   6  -1  -5    2.21    0.54
   6  -1  -5    2.65    0.49
  -6   1   5    2.08    0.45
   5  -1  -5   87.18    3.98
   5  -1  -5   89.62    4.05
  -5   1   5   80.70    3.94
   4  -1  -5    3.09    0.41
   4  -1  -5    2.91    0.45
   4  -1  -5    2.81    0.47
   3  -1  -5   86.06    3.82
   3  -1  -5   76.57    3.79
   3  -1  -5   86.35    3.78
   3  -1  -5   79.58    3.74
   2  -1  -5   19.37    1.10
   2  -1  -5   20.30    1.12
   2  -1  -5   23.62    1.12
   2  -1  -5   20.58    1.07
  -2   1   5   22.46    1.07
  -2   1   5   20.95    1.07
   1  -1  -5   50.57    2.35
   1  -1  -5   52.56    2.38
   1  -1  -5   51.53    2.36
  -1   1   5   52.83    2.29
  -1   1   5   49.44    2.29
   0  -1  -5    1.69    0.17
   0  -1  -5    1.43    0.25
   0  -1  -5    1.64    0.15
  -1  -1  -5   37.28    2.12
  -2  -1  -5    3.30    0.20
  -3  -1  -5   90.20    3.86
  -3  -1  -5   85.93    4.07
  -3  -1  -5   89.20    4.00
  -3  -1  -5   81.45    3.88
  -4  -1  -5    1.24    0.33
  -4  -1  -5    1.12    0.39
  -4  -1  -5    1.16    0.28
  -5  -1  -5    4.51    0.48
  -5  -1  -5    3.70    0.66
  -6  -1  -5    5.08    0.70
  -7  -1  -5   27.18    1.82
  -8  -1  -5    3.03    0.56
  -8  -1  -5    3.96    0.90
  -9  -1  -5   24.56    1.55
  -9  -1  -5   26.22    1.94
  11  -2  -5    1.62    0.60
 -11   2   5    2.10    0.71
 -11   2   5    1.71    0.78
  10  -2  -5    1.58    0.67
 -10   2   5    1.36    0.70
 -10   2   5    0.50    0.68
   9  -2  -5   11.17    0.89
   9  -2  -5   11.93    1.06
  -9   2   5   10.67    1.06
  -9   2   5    9.69    1.02
   8  -2  -5   14.90    1.10
   8  -2  -5   14.15    0.99
  -8   2   5   14.64    1.15
  -8   2   5   13.44    1.20
   7  -2  -5   24.49    1.41
   7  -2  -5   21.60    1.51
  -7   2   5   26.46    1.55
  -7   2   5   23.90    1.46
   6  -2  -5   35.66    1.87
   6  -2  -5   37.18    1.86
   6  -2  -5   34.65    1.89
  -6   2   5   35.58    1.94
  -6   2   5   35.97    1.89
   5  -2  -5   12.72    0.79
   5  -2  -5   10.93    0.90
  -5   2   5   11.02    0.87
  -5   2   5   10.43    0.84
   4  -2  -5    8.31    0.59
   4  -2  -5    9.47    0.75
   4  -2  -5    7.48    0.69
  -4   2   5    7.93    0.68
   3  -2  -5   66.05    2.84
   3  -2  -5   54.32    2.79
   3  -2  -5   60.30    2.74
  -3   2   5   59.20    2.72
  -3   2   5   57.75    2.76
   2  -2  -5    5.73    0.42
   2  -2  -5    5.64    0.50
   2  -2  -5    5.96    0.50
  -2   2   5    4.95    0.41
   1  -2  -5   39.83    1.84
   1  -2  -5   39.61    1.85
  -1   2   5   39.42    1.79
  -1   2   5   39.93    1.80
   0  -2  -5   66.96    2.85
   0  -2  -5   61.80    3.05
   0  -2  -5   62.16    2.83
   0  -2  -5   62.16    2.89
  -1  -2  -5    8.74    0.44
  -1  -2  -5    8.43    0.44
  -1  -2  -5    8.41    0.68
  -2  -2  -5   96.55    4.38
  -2  -2  -5  101.66    4.37
  -2  -2  -5   98.14    4.57
  -3  -2  -5   22.91    1.09
  -3  -2  -5   22.92    1.14
  -3  -2  -5   23.50    1.27
  -4  -2  -5    7.72    0.60
  -4  -2  -5    8.35    0.68
  -4  -2  -5    6.62    0.76
  -5  -2  -5   26.58    1.64
  -6  -2  -5    6.76    0.66
  -6  -2  -5    7.90    0.84
  -7  -2  -5    1.71    0.49
  -7  -2  -5    2.15    0.76
  -8  -2  -5   12.73    1.30
  11  -3  -5    2.36    0.79
 -11   3   5   -0.28    0.74
 -11   3   5    2.83    0.79
  10  -3  -5   24.31    1.70
 -10   3   5   22.72    1.66
 -10   3   5   22.25    1.66
   9  -3  -5   -0.27    0.38
   9  -3  -5   -0.43    0.46
  -9   3   5    0.99    0.61
  -9   3   5   -0.14    0.61
   8  -3  -5    7.60    0.75
   8  -3  -5    7.45    0.90
  -8   3   5    6.96    0.84
  -8   3   5    5.96    0.84
   7  -3  -5    8.61    0.89
   7  -3  -5    8.39    0.82
  -7   3   5    7.77    0.84
  -7   3   5    8.49    0.87
   6  -3  -5    1.88    0.55
   6  -3  -5    1.96    0.52
  -6   3   5    0.79    0.48
  -6   3   5    1.37    0.54
   5  -3  -5    2.42    0.56
   5  -3  -5    2.88    0.42
   5  -3  -5    2.17    0.50
  -5   3   5    3.16    0.49
   4  -3  -5   53.21    2.65
   4  -3  -5   54.47    2.53
   4  -3  -5   53.01    2.74
  -4   3   5   54.73    2.51
  -4   3   5   56.33    2.61
   3  -3  -5    0.22    0.31
   3  -3  -5    0.19    0.46
   3  -3  -5    0.32    0.22
   3  -3  -5    0.30    0.32
  -3   3   5    0.41    0.19
  -3   3   5    0.62    0.29
   2  -3  -5   90.55    4.24
   2  -3  -5   96.15    4.18
   2  -3  -5   94.61    4.43
  -2   3   5   92.35    4.20
   1  -3  -5   16.82    1.21
   1  -3  -5   18.26    0.91
   1  -3  -5   19.49    0.97
   1  -3  -5   18.24    0.94
   0  -3  -5    2.24    0.25
   0  -3  -5    2.24    0.26
   0  -3  -5    2.08    0.44
   0  -3  -5    2.15    0.25
   0   3   5    2.39    0.20
   0   3   5    1.95    0.19
  -1  -3  -5    8.15    0.48
  -1  -3  -5    7.69    0.78
  -1  -3  -5    8.69    0.49
  -2  -3  -5   22.14    1.10
  -2  -3  -5   23.37    1.32
  -2  -3  -5   22.91    1.09
  -3  -3  -5   -0.07    0.41
  -3  -3  -5    0.70    0.23
  -4  -3  -5   80.86    3.83
  -4  -3  -5   75.69    3.63
  -4  -3  -5   81.64    3.72
  -5  -3  -5    1.30    0.39
  -5  -3  -5    1.03    0.58
  -6  -3  -5    3.86    0.68
  -6  -3  -5    4.21    0.56
  -7  -3  -5    5.77    0.68
  -7  -3  -5    6.40    0.97
  -8  -3  -5    0.53    0.61
  -8  -3  -5    1.05    0.52
  11  -4  -5   18.17    1.51
 -11   4   5   19.44    1.58
 -11   4   5   17.82    1.40
  10  -4  -5    0.48    0.73
 -10   4   5   -0.15    0.67
 -10   4   5    0.74    0.76
   9  -4  -5   17.16    1.29
   9  -4  -5   17.55    1.20
  -9   4   5   15.88    1.23
  -9   4   5   15.66    1.37
   8  -4  -5   -0.68    0.53
   8  -4  -5    0.96    0.53
  -8   4   5    0.06    0.56
  -8   4   5   -0.19    0.63
   7  -4  -5    2.20    0.55
   7  -4  -5    1.58    0.51
  -7   4   5    2.38    0.66
  -7   4   5    1.10    0.57
   6  -4  -5   14.93    1.12
   6  -4  -5   14.61    1.17
  -6   4   5   14.80    1.08
   5  -4  -5   68.04    3.38
   5  -4  -5   73.63    3.46
  -5   4   5   68.65    3.35
   4  -4  -5    3.88    0.67
   4  -4  -5    2.57    0.50
  -4   4   5    3.45    0.49
  -4   4   5    4.25    0.36
   3  -4  -5   25.02    1.52
   3  -4  -5   25.18    1.17
   3  -4  -5   23.42    1.33
  -3   4   5   24.10    1.26
   2  -4  -5    0.16    0.36
   2  -4  -5   -0.05    0.26
   2  -4  -5    0.45    0.30
   2  -4  -5    0.25    0.13
  -2   4   5    0.45    0.23
   1  -4  -5    5.33    0.46
   1  -4  -5    5.70    0.35
   1  -4  -5    6.55    0.51
   1  -4  -5    5.56    0.66
  -1   4   5    5.41    0.42
   0  -4  -5    8.88    0.60
   0  -4  -5    9.18    0.90
   0  -4  -5    9.51    0.60
   0  -4  -5    9.17    0.53
  -1  -4  -5   22.84    1.42
  -1  -4  -5   23.61    1.16
  -1  -4  -5   23.12    1.16
   1   4   5   23.25    1.09
  -2  -4  -5    0.54    0.24
  -2  -4  -5   -0.03    0.42
   2   4   5    0.48    0.15
  -3  -4  -5   72.49    3.45
  -3  -4  -5   71.53    3.30
  -4  -4  -5   12.50    0.91
  -4  -4  -5   11.79    0.81
  -5  -4  -5   28.72    1.53
  -5  -4  -5   27.32    1.78
  -6  -4  -5    0.99    0.46
  -6  -4  -5    1.93    0.74
  -7  -4  -5   -0.52    0.70
  -7  -4  -5    0.54    0.49
  -8  -4  -5    0.33    0.52
 -11   5   5    0.37    0.72
  10  -5  -5    7.05    0.99
 -10   5   5    4.82    0.91
 -10   5   5    6.54    1.05
   9  -5  -5    4.77    0.86
   9  -5  -5    3.51    0.71
  -9   5   5    5.75    0.99
  -9   5   5    5.32    0.86
   8  -5  -5   -0.59    0.64
   8  -5  -5    0.12    0.48
  -8   5   5    0.05    0.58
   7  -5  -5   12.52    0.97
   7  -5  -5   12.94    1.13
  -7   5   5   12.35    1.12
   6  -5  -5   14.44    1.23
   6  -5  -5   16.32    1.11
  -6   5   5   16.23    1.13
   5  -5  -5    0.72    0.46
   5  -5  -5    0.45    0.55
  -5   5   5    0.43    0.42
   4  -5  -5   16.95    1.10
   4  -5  -5   16.44    1.25
  -4   5   5   16.04    1.01
   3  -5  -5    5.91    0.80
   3  -5  -5    5.05    0.58
  -3   5   5    5.62    0.52
   2  -5  -5   29.47    1.51
   2  -5  -5   27.30    1.65
  -2   5   5   29.10    1.43
   1  -5  -5   15.60    0.92
   1  -5  -5   16.15    1.13
  -1   5   5   16.49    0.88
   0  -5  -5    8.20    0.51
   0  -5  -5    9.76    0.97
   0  -5  -5    7.76    0.63
  -1  -5  -5   11.99    0.76
  -1  -5  -5   11.45    0.93
  -2  -5  -5   39.53    2.05
  -2  -5  -5   35.77    1.81
  -3  -5  -5   -0.17    0.47
  -3  -5  -5   -0.04    0.29
  -4  -5  -5   22.79    1.28
  -4  -5  -5   22.97    1.44
  -5  -5  -5    4.73    0.57
  -5  -5  -5    2.90    0.80
  -6  -5  -5    0.28    0.71
  -6  -5  -5    1.46    0.52
  -7  -5  -5   14.56    1.41
  -8  -5  -5    2.99    0.65
  10  -6  -5    5.27    0.95
 -10   6   5    4.49    0.92
   9  -6  -5    1.96    0.79
   9  -6  -5    0.26    0.53
  -9   6   5    0.55    0.64
   8  -6  -5   13.57    1.15
   8  -6  -5   13.33    1.24
  -8   6   5   12.84    1.17
   7  -6  -5    8.24    0.95
   7  -6  -5    7.57    0.89
  -7   6   5    6.37    0.80
   6  -6  -5    4.10    0.75
   6  -6  -5    4.47    0.76
  -6   6   5    4.58    0.67
   5  -6  -5    3.40    0.62
   5  -6  -5    3.30    0.72
  -5   6   5    3.18    0.54
   4  -6  -5    0.76    0.48
   4  -6  -5    2.04    0.67
  -4   6   5    1.20    0.40
   3  -6  -5   -0.05    0.44
   3  -6  -5    0.65    0.41
  -3   6   5    0.56    0.33
   2  -6  -5   19.88    1.20
   2  -6  -5   20.09    1.48
  -2   6   5   20.81    1.13
   1  -6  -5    2.82    0.44
   1  -6  -5    2.21    0.71
  -1   6   5    2.43    0.37
   0  -6  -5   43.38    2.33
   0  -6  -5   40.42    2.04
  -1  -6  -5    3.74    0.45
  -1  -6  -5    4.50    0.75
  -2  -6  -5   -0.23    0.32
  -2  -6  -5   -0.68    0.50
  -3  -6  -5   -0.03    0.35
  -3  -6  -5    0.68    0.55
  -4  -6  -5    2.71    0.49
  -4  -6  -5    3.73    0.66
  -5  -6  -5    0.48    0.44
  -6  -6  -5   12.20    1.05
  -6  -6  -5   13.34    1.30
  -7  -6  -5    0.72    0.56
 -10   7   5    0.72    0.76
   9  -7  -5   14.53    1.31
   9  -7  -5   13.18    1.19
  -9   7   5   12.35    1.20
   8  -7  -5   -1.03    0.70
   8  -7  -5   -0.63    0.57
  -8   7   5    0.45    0.57
   7  -7  -5    3.87    0.83
   7  -7  -5    3.93    0.78
  -7   7   5    4.54    0.75
   6  -7  -5    0.38    0.61
   6  -7  -5   -0.69    0.58
  -6   7   5    0.66    0.52
   5  -7  -5   -1.04    0.60
   5  -7  -5    0.26    0.57
  -5   7   5   -0.20    0.44
   4  -7  -5    0.46    0.66
   4  -7  -5   -0.27    0.48
  -4   7   5    0.13    0.43
   3  -7  -5   38.79    2.10
   3  -7  -5   35.06    1.92
  -3   7   5   35.48    1.85
   2  -7  -5    1.51    0.72
   2  -7  -5    1.36    0.45
   1  -7  -5   26.98    1.83
   1  -7  -5   28.94    1.54
   0  -7  -5    0.75    0.41
   0  -7  -5    2.36    0.75
  -1  -7  -5   -0.28    0.35
  -1  -7  -5    1.24    0.53
  -2  -7  -5    0.22    0.62
  -2  -7  -5   -0.51    0.39
  -3  -7  -5    5.84    0.64
  -3  -7  -5    6.44    0.85
  -4  -7  -5   -0.30    0.43
  -4  -7  -5    0.14    0.59
  -5  -7  -5   30.35    1.72
  -6  -7  -5    1.78    0.58
   9  -8  -5   -0.10    0.64
   8  -8  -5    4.68    0.97
   8  -8  -5    6.34    0.93
   7  -8  -5    2.43    0.81
   7  -8  -5    4.67    0.89
   6  -8  -5    0.40    0.65
   6  -8  -5    0.40    0.72
   5  -8  -5    0.01    0.61
   5  -8  -5    1.19    0.79
   4  -8  -5   42.33    2.29
   4  -8  -5   43.82    2.53
   3  -8  -5    1.51    0.78
   3  -8  -5    1.37    0.55
   2  -8  -5   14.84    1.25
   2  -8  -5   14.73    1.14
   1  -8  -5    1.23    0.50
   1  -8  -5    0.48    0.57
   0  -8  -5    1.91    0.54
   0  -8  -5    3.62    0.73
  -1  -8  -5    4.63    0.62
  -1  -8  -5    5.85    0.96
  -2  -8  -5    4.64    0.89
  -2  -8  -5    3.89    0.59
  -3  -8  -5    5.90    0.95
  -3  -8  -5    6.90    0.72
  -4  -8  -5    9.13    0.85
  -4  -8  -5   11.43    1.65
  -5  -8  -5    0.02    0.54
   8  -9  -5    3.94    0.87
   7  -9  -5   -0.02    0.75
   6  -9  -5    5.87    0.91
   6  -9  -5    5.71    1.02
   5  -9  -5    2.06    0.70
   5  -9  -5    0.45    0.67
   4  -9  -5   11.72    1.19
   4  -9  -5   10.52    1.03
   3  -9  -5    3.82    0.70
   3  -9  -5    4.14    0.83
   2  -9  -5    2.38    0.91
   2  -9  -5    0.70    0.55
   1  -9  -5    3.18    0.94
   1  -9  -5    4.26    0.67
   0  -9  -5   22.42    1.44
   0  -9  -5   21.43    1.75
  -1  -9  -5    3.41    0.64
  -1  -9  -5    2.86    0.90
  -2  -9  -5    7.76    0.81
  -2  -9  -5    9.40    1.18
  -3  -9  -5    3.83    0.63
  -3  -9  -5    5.02    0.97
   3 -10  -5    2.09    0.73
   3 -10  -5    3.33    1.02
   2 -10  -5   -0.20    0.62
   2 -10  -5    0.55    0.58
   1 -10  -5   15.36    1.30
   1 -10  -5   15.42    1.57
   0 -10  -5    0.81    1.06
   0 -10  -5    0.04    0.55
  -3 -11   6   -0.62    0.77
  -2 -11   6   -0.34    0.60
  -1 -11   6    1.11    0.66
   0 -11   6    9.21    1.00
   1 -11   6   -0.68    0.74
   5  10  -6    8.21    1.02
  -5 -10   6    4.63    0.93
   4  10  -6    0.44    0.66
   4  10  -6    0.16    0.56
  -4 -10   6   -1.97    0.62
   3  10  -6    0.02    0.59
   3  10  -6    0.96    0.68
  -3 -10   6   -0.37    0.48
   2  10  -6    0.30    0.56
   2  10  -6    0.52    0.63
  -2 -10   6    0.76    0.65
   1  10  -6    7.29    0.83
   1  10  -6    6.85    0.88
  -1 -10   6    7.46    0.88
   0  10  -6    0.62    0.57
   0  10  -6    0.44    0.54
   0 -10   6    0.35    0.58
  -1  10  -6   24.55    1.60
  -1  10  -6   24.39    1.49
   1 -10   6   21.16    1.49
  -2  10  -6    0.90    0.55
  -2  10  -6    0.59    0.62
  -3  10  -6    6.99    0.84
  -3  10  -6    5.91    0.85
  -4  10  -6    2.83    0.74
  -5  10  -6    2.03    0.70
   6   9  -6    8.23    0.99
   6   9  -6    6.89    0.95
  -6  -9   6    6.40    0.97
   5   9  -6    5.76    0.87
   5   9  -6    6.87    0.91
  -5  -9   6    3.93    0.80
   4   9  -6    1.88    0.69
   4   9  -6    2.00    0.66
  -4  -9   6    2.80    0.72
   3   9  -6   10.44    0.98
   3   9  -6    9.87    0.98
  -3  -9   6    8.83    0.87
   2   9  -6    2.83    0.64
   2   9  -6    1.94    0.59
  -2  -9   6    2.41    0.65
   1   9  -6    6.75    0.78
   1   9  -6    6.27    0.72
  -1  -9   6    4.69    0.70
   0   9  -6   23.51    1.41
   0   9  -6   22.09    1.45
   0  -9   6   20.10    1.40
  -1   9  -6    0.92    0.56
  -1   9  -6    0.12    0.51
   1  -9   6    0.51    0.52
  -2   9  -6    3.13    0.62
  -2   9  -6    3.72    0.66
   2  -9   6    2.79    0.63
  -3   9  -6   12.39    1.15
  -3   9  -6   13.30    1.12
  -4   9  -6    1.01    0.61
  -4   9  -6    0.61    0.60
  -5   9  -6    2.72    0.61
  -5   9  -6    2.90    0.70
  -6   9  -6    8.70    1.03
   7   8  -6    1.39    0.58
   7   8  -6    0.83    0.68
  -7  -8   6    0.52    0.71
   6   8  -6    9.60    1.04
   6   8  -6   10.14    1.07
  -6  -8   6   11.65    1.07
   5   8  -6    1.57    0.53
   5   8  -6    1.95    0.68
  -5  -8   6    0.98    0.64
   4   8  -6   29.09    1.77
   4   8  -6   28.21    1.77
  -4  -8   6   31.50    1.77
   3   8  -6    1.11    0.57
   3   8  -6    2.07    0.58
  -3  -8   6    1.02    0.54
   2   8  -6   27.83    1.61
   2   8  -6   26.21    1.59
  -2  -8   6   26.64    1.59
   1   8  -6    2.76    0.58
   1   8  -6    2.46    0.57
  -1  -8   6    1.95    0.50
   0   8  -6   10.59    0.95
   0   8  -6   12.74    0.99
   0  -8   6    8.86    0.84
  -1   8  -6    0.47    0.50
  -1   8  -6    1.07    0.51
   1  -8   6    0.42    0.46
  -2   8  -6   26.08    1.50
  -2   8  -6   28.42    1.59
   2  -8   6   24.73    1.51
  -3   8  -6   -0.36    0.37
  -3   8  -6    0.17    0.47
   3  -8   6   -0.31    0.45
  -4   8  -6   16.82    1.28
  -4   8  -6   19.21    1.34
  -5   8  -6    1.41    0.67
  -5   8  -6   -0.42    0.51
  -6   8  -6    2.37    0.66
  -6   8  -6    5.46    0.84
   8   7  -6   -0.26    0.65
   8   7  -6    0.32    0.54
  -8  -7   6    0.06    0.74
   7   7  -6   12.16    1.06
   7   7  -6   11.42    1.14
  -7  -7   6   10.55    1.11
   6   7  -6   -0.56    0.53
   6   7  -6    0.08    0.59
  -6  -7   6   -0.43    0.58
   5   7  -6   32.64    1.85
   5   7  -6   31.32    1.79
  -5  -7   6   30.58    1.84
   4   7  -6    1.14    0.58
   4   7  -6    1.34    0.52
  -4  -7   6    1.22    0.53
   3   7  -6   41.30    2.11
   3   7  -6   38.44    2.07
  -3  -7   6   40.99    2.11
   2   7  -6    3.85    0.62
   2   7  -6    3.42    0.58
  -2  -7   6    4.51    0.59
   1   7  -6   -0.37    0.43
   1   7  -6   -0.39    0.41
  -1  -7   6    0.00    0.40
   0   7  -6    1.69    0.52
   0   7  -6    1.97    0.45
   0  -7   6    1.51    0.44
  -1   7  -6    8.83    0.81
  -1   7  -6    7.86    0.73
   1  -7   6    7.82    0.69
  -2   7  -6    2.62    0.51
  -2   7  -6    1.47    0.55
   2  -7   6    1.69    0.45
  -3   7  -6   41.66    2.09
  -3   7  -6   43.51    2.19
  -3   7  -6   37.18    2.10
   3  -7   6   39.70    2.06
  -4   7  -6    0.76    0.44
  -4   7  -6    0.41    0.48
  -4   7  -6    0.23    0.55
  -5   7  -6    1.87    0.75
  -5   7  -6    2.87    0.62
  -6   7  -6    1.17    0.73
  -6   7  -6    0.48    0.56
  -7   7  -6    6.66    1.06
  -7   7  -6    5.30    0.77
  -8   7  -6    0.88    0.90
   9   6  -6   14.31    1.31
  -9  -6   6   15.87    1.34
   8   6  -6    1.40    0.75
   8   6  -6    1.29    0.70
  -8  -6   6    0.93    0.72
   7   6  -6    8.75    1.02
   7   6  -6    8.74    0.92
  -7  -6   6    8.12    0.95
   6   6  -6   17.47    1.20
   6   6  -6   18.55    1.37
  -6  -6   6   17.72    1.21
   5   6  -6    0.05    0.41
   5   6  -6   -0.05    0.37
  -5  -6   6   -0.14    0.49
   4   6  -6   26.98    1.61
   4   6  -6   25.49    1.53
  -4  -6   6   27.28    1.55
   3   6  -6    2.56    0.52
   3   6  -6    3.42    0.60
  -3  -6   6    3.06    0.46
   2   6  -6    0.55    0.46
   2   6  -6    1.26    0.36
  -2  -6   6    1.44    0.41
   1   6  -6   28.07    1.54
   1   6  -6   27.52    1.58
  -1  -6   6   28.79    1.50
   0   6  -6   11.23    0.91
   0   6  -6   11.10    0.84
   0  -6   6   10.36    0.81
  -1   6  -6    4.48    0.63
  -1   6  -6    4.37    0.54
   1  -6   6    5.70    0.53
  -2   6  -6   20.94    1.19
  -2   6  -6   20.81    1.17
  -2   6  -6   18.08    1.18
   2  -6   6   19.73    1.15
  -3   6  -6    2.52    0.49
  -3   6  -6    3.04    0.56
  -3   6  -6    2.38    0.49
   3  -6   6    2.00    0.41
  -4   6  -6    4.99    0.59
  -4   6  -6    4.98    0.70
  -5   6  -6   16.86    1.18
  -6   6  -6    1.92    0.78
  -6   6  -6    3.05    0.63
  -7   6  -6    0.78    0.76
  -7   6  -6    0.88    0.54
  -8   6  -6    7.84    1.16
  -8   6  -6    5.75    0.79
  10   5  -6   16.97    1.52
   9   5  -6    1.08    0.59
   9   5  -6    1.18    0.72
  -9  -5   6    0.93    0.75
   8   5  -6   16.21    1.22
   8   5  -6   15.62    1.30
  -8  -5   6   13.87    1.29
   7   5  -6    4.69    0.70
   7   5  -6    3.24    0.68
  -7  -5   6    3.69    0.65
   6   5  -6    3.83    0.62
   6   5  -6    3.74    0.66
  -6  -5   6    3.81    0.67
   5   5  -6   14.02    1.06
   5   5  -6   11.90    1.10
  -5  -5   6   15.08    1.05
   4   5  -6   30.34    1.76
   4   5  -6   32.47    1.71
  -4  -5   6   31.30    1.71
   3   5  -6    4.37    0.55
   3   5  -6    4.09    0.61
  -3  -5   6    4.55    0.54
   2   5  -6   58.95    2.79
   2   5  -6   58.81    2.81
  -2  -5   6   56.50    2.76
   1   5  -6    2.33    0.48
   1   5  -6    2.74    0.42
  -1  -5   6    2.02    0.38
   0   5  -6    4.91    0.60
   0   5  -6    4.15    0.49
   0  -5   6    4.89    0.47
  -1   5  -6   40.10    2.00
  -1   5  -6   43.37    1.93
  -1   5  -6   38.91    2.09
   1  -5   6   39.47    1.96
   1  -5   6   40.66    1.90
  -2   5  -6   11.94    0.84
  -2   5  -6   12.13    0.86
  -2   5  -6   12.36    0.85
   2  -5   6   12.08    0.77
  -3   5  -6   20.42    1.19
  -3   5  -6   21.10    1.33
  -3   5  -6   20.00    1.25
   3  -5   6   23.09    1.17
  -4   5  -6   37.85    1.99
  -4   5  -6   41.76    2.21
  -5   5  -6    0.14    0.40
  -5   5  -6    0.23    0.71
  -6   5  -6   14.67    1.08
  -6   5  -6   16.51    1.41
  -7   5  -6    5.07    0.70
  -7   5  -6    6.14    1.03
  -8   5  -6    2.96    0.96
  -8   5  -6    3.21    0.65
  10   4  -6   -0.46    0.85
  10   4  -6    0.49    0.67
 -10  -4   6   -0.26    0.68
   9   4  -6   29.42    1.93
   9   4  -6   30.61    1.87
  -9  -4   6   32.16    1.99
   8   4  -6    0.04    0.46
   8   4  -6   -0.55    0.59
  -8  -4   6    0.37    0.49
   7   4  -6   10.90    0.95
   7   4  -6   10.49    0.92
  -7  -4   6    9.89    0.94
   6   4  -6    0.43    0.48
   6   4  -6    0.22    0.54
  -6  -4   6    0.65    0.50
  -6  -4   6    1.08    0.32
   5   4  -6   28.17    1.67
   5   4  -6   32.90    1.71
  -5  -4   6   28.30    1.68
  -5  -4   6   31.93    1.46
   4   4  -6    0.39    0.30
   4   4  -6   -0.10    0.31
  -4  -4   6   -0.24    0.34
   3   4  -6   94.65    4.21
   3   4  -6   90.83    4.25
  -3  -4   6   87.24    4.19
   2   4  -6    4.94    0.50
   2   4  -6    5.40    0.55
  -2  -4   6    5.41    0.50
   1   4  -6   66.20    2.85
   1   4  -6   56.97    2.85
   1   4  -6   57.01    2.78
  -1  -4   6   57.62    2.76
   0   4  -6    0.46    0.39
   0   4  -6    1.12    0.30
   0   4  -6    0.91    0.31
   0  -4   6    0.85    0.28
  -1   4  -6   11.99    0.81
  -1   4  -6   14.73    0.81
  -1   4  -6   13.81    0.96
  -1   4  -6   13.14    0.81
   1  -4   6   13.20    0.76
  -2   4  -6    0.94    0.32
  -2   4  -6    1.03    0.39
  -2   4  -6    1.18    0.45
   2  -4   6    1.15    0.26
  -3   4  -6   28.40    1.47
  -3   4  -6   27.83    1.63
   3  -4   6   29.43    1.41
  -4   4  -6    2.11    0.57
  -4   4  -6    3.28    0.46
  -5   4  -6   42.62    2.36
  -5   4  -6   42.04    2.12
  -6   4  -6   -0.48    0.63
  -6   4  -6    0.41    0.43
  -7   4  -6    2.58    0.53
  -7   4  -6    3.14    0.85
  -8   4  -6    1.72    0.52
  -8   4  -6    0.81    0.85
  -9   4  -6    2.59    0.65
  -9   4  -6    2.61    0.99
  11   3  -6    0.31    0.58
  10   3  -6   14.55    1.26
  10   3  -6   12.24    1.29
 -10  -3   6   13.86    1.23
   9   3  -6    1.91    0.70
   9   3  -6    3.28    0.67
  -9  -3   6    2.66    0.75
   8   3  -6   10.11    1.04
   8   3  -6    8.54    0.96
  -8  -3   6    9.97    0.88
  -8  -3   6    8.01    0.97
   7   3  -6   13.33    0.98
   7   3  -6   11.90    0.96
  -7  -3   6   10.89    0.85
  -7  -3   6   10.36    1.02
   6   3  -6   -0.08    0.49
   6   3  -6    0.15    0.47
  -6  -3   6    0.24    0.30
  -6  -3   6   -0.03    0.48
   5   3  -6   23.00    1.39
   5   3  -6   23.91    1.42
  -5  -3   6   24.13    1.42
  -5  -3   6   25.42    1.20
   4   3  -6   26.87    1.49
   4   3  -6   26.35    1.53
  -4  -3   6   29.39    1.50
   3   3  -6    0.01    0.27
   3   3  -6    0.33    0.29
  -3  -3   6    0.40    0.30
   2   3  -6   67.32    3.24
   2   3  -6   71.55    3.19
   2   3  -6   65.57    3.18
  -2  -3   6   70.94    3.19
   1   3  -6    1.65    0.35
   1   3  -6    2.18    0.33
   1   3  -6    2.07    0.30
  -1  -3   6    1.65    0.29
   0   3  -6    5.98    0.47
   0   3  -6    6.91    0.49
   0   3  -6    5.96    0.43
   0   3  -6    6.59    0.56
   0  -3   6    6.42    0.46
  -1   3  -6   40.58    2.01
  -1   3  -6   47.18    1.98
  -1   3  -6   37.85    2.08
  -1   3  -6   40.73    1.97
   1  -3   6   42.29    1.94
  -2   3  -6   47.05    2.37
  -2   3  -6   51.71    2.27
  -2   3  -6   46.88    2.25
   2  -3   6   47.89    2.21
  -3   3  -6    0.32    0.25
  -3   3  -6    1.31    0.44
   3  -3   6    0.61    0.32
  -4   3  -6  109.77    5.19
  -4   3  -6  111.02    5.00
  -5   3  -6   11.57    1.11
  -5   3  -6   10.90    0.80
  -6   3  -6    3.54    0.79
  -6   3  -6    3.34    0.52
  -7   3  -6    5.76    0.66
  -7   3  -6    6.03    0.99
  -8   3  -6    1.31    0.55
  -8   3  -6    3.33    0.93
  -9   3  -6    3.59    1.02
  -9   3  -6    2.82    0.61
  11   2  -6    4.61    0.89
 -11  -2   6    3.78    0.90
  10   2  -6    0.65    0.68
 -10  -2   6    0.36    0.65
   9   2  -6    3.78    0.75
   9   2  -6    1.03    0.71
  -9  -2   6    2.52    0.56
  -9  -2   6    1.69    0.72
   8   2  -6   39.05    2.13
   8   2  -6   37.28    2.12
  -8  -2   6   35.66    1.95
  -8  -2   6   36.38    2.12
   7   2  -6    0.18    0.53
   7   2  -6    0.40    0.54
  -7  -2   6    0.48    0.37
  -7  -2   6    0.39    0.51
   6   2  -6   38.50    2.07
   6   2  -6   38.96    2.03
  -6  -2   6   37.60    2.08
  -6  -2   6   39.23    1.89
   5   2  -6   50.07    2.49
   5   2  -6   48.87    2.49
  -5  -2   6   50.91    2.49
  -5  -2   6   50.81    2.33
   4   2  -6    1.41    0.23
   4   2  -6    1.37    0.44
   4   2  -6    1.35    0.36
  -4  -2   6    1.88    0.43
   3   2  -6   24.53    1.25
   3   2  -6   22.60    1.30
   3   2  -6   22.49    1.25
  -3  -2   6   24.34    1.26
   2   2  -6   51.24    2.41
   2   2  -6   51.92    2.48
   2   2  -6   53.78    2.42
  -2  -2   6   48.85    2.40
   1   2  -6    0.70    0.22
   1   2  -6    0.66    0.23
   1   2  -6    1.11    0.16
   1   2  -6    1.04    0.29
  -1  -2   6    0.81    0.22
   0   2  -6  165.53    7.30
   0   2  -6  167.74    7.41
   0   2  -6  175.23    7.30
   0   2  -6  164.26    7.31
   0  -2   6  150.01    7.27
  -1   2  -6    9.51    0.55
  -1   2  -6    9.49    0.68
  -1   2  -6    9.54    0.56
  -1   2  -6   10.20    0.68
   1  -2   6    9.29    0.50
  -2   2  -6    2.30    0.40
  -2   2  -6    2.58    0.27
  -2   2  -6    2.57    0.27
   2  -2   6    2.61    0.23
  -3   2  -6   17.96    1.16
  -3   2  -6   17.15    0.95
  -3   2  -6   19.11    0.99
   3  -2   6   19.34    0.87
  -4   2  -6    5.37    0.71
  -4   2  -6    6.91    0.54
  -5   2  -6    6.02    0.53
  -5   2  -6    5.84    0.80
  -6   2  -6   31.74    1.87
  -7   2  -6    0.81    0.72
  -7   2  -6    1.47    0.45
  -8   2  -6    8.21    1.13
  -8   2  -6    6.92    0.74
  -9   2  -6   14.20    1.31
  -9   2  -6   10.33    0.94
  11   1  -6    2.75    0.80
 -11  -1   6    0.39    0.75
  10   1  -6    0.83    0.55
 -10  -1   6   -0.52    0.53
 -10  -1   6   -0.51    0.67
   9   1  -6   33.30    2.06
   9   1  -6   35.44    2.07
  -9  -1   6   33.36    1.90
  -9  -1   6   36.35    2.07
   8   1  -6    0.74    0.60
   8   1  -6    0.83    0.59
  -8  -1   6    0.00    0.47
  -8  -1   6    0.55    0.55
   7   1  -6   22.34    1.47
   7   1  -6   21.63    1.44
  -7  -1   6   25.14    1.49
  -7  -1   6   21.61    1.26
   6   1  -6   10.51    0.90
   6   1  -6    9.62    0.87
  -6  -1   6   10.16    0.91
  -6  -1   6    8.70    0.71
   5   1  -6    5.00    0.60
   5   1  -6    5.98    0.57
   5   1  -6    5.28    0.63
  -5  -1   6    4.31    0.43
  -5  -1   6    5.04    0.60
   4   1  -6    3.07    0.47
   4   1  -6    3.90    0.39
   4   1  -6    3.08    0.42
  -4  -1   6    4.14    0.51
   3   1  -6   44.62    2.20
   3   1  -6   45.52    2.18
   3   1  -6   43.69    2.18
   3   1  -6   46.99    2.10
  -3  -1   6   45.04    2.19
   2   1  -6    5.09    0.43
   2   1  -6    5.40    0.47
   2   1  -6    4.38    0.41
   2   1  -6    4.78    0.36
  -2  -1   6    5.64    0.48
   1   1  -6   78.38    3.65
   1   1  -6   78.28    3.58
   1   1  -6   81.25    3.58
   0   1  -6    4.05    0.33
   0   1  -6    3.40    0.46
   0   1  -6    4.70    0.41
   0   1  -6    5.04    0.32
   0  -1   6    4.42    0.25
   0  -1   6    4.55    0.27
  -1   1  -6   74.14    3.25
  -1   1  -6   70.03    3.25
  -1   1  -6   74.79    3.37
  -2   1  -6    0.01    0.14
  -2   1  -6    0.13    0.13
  -2   1  -6    0.44    0.32
  -3   1  -6    0.44    0.39
  -3   1  -6    0.49    0.18
  -3   1  -6    0.54    0.21
  -4   1  -6    0.59    0.24
  -4   1  -6    1.36    0.49
  -5   1  -6   52.69    2.69
  -6   1  -6    4.17    0.77
  -6   1  -6    3.42    0.46
  -7   1  -6   23.41    1.68
  -7   1  -6   21.45    1.27
  -8   1  -6    3.33    0.76
  -8   1  -6    2.90    0.53
  -9   1  -6    0.92    0.48
  -9   1  -6    0.07    0.90
  11   0  -6    0.80    0.67
 -11   0   6    1.84    0.71
  10   0  -6   25.79    1.68
 -10   0   6   21.14    1.51
   9   0  -6    6.50    0.89
   9   0  -6    7.02    0.90
  -9   0   6    8.83    0.88
  -9   0   6    6.07    0.83
   8   0  -6   23.13    1.53
   8   0  -6   21.35    1.45
  -8   0   6   21.57    1.33
  -8   0   6   20.90    1.46
   7   0  -6    2.61    0.58
   7   0  -6    1.66    0.55
  -7   0   6    2.56    0.59
  -7   0   6    1.53    0.43
   6   0  -6    5.54    0.59
   6   0  -6    6.25    0.71
  -6   0   6    6.39    0.70
  -6   0   6    5.25    0.56
   5   0  -6   22.79    1.42
   5   0  -6   26.93    1.37
  -5   0   6   25.07    1.43
   4   0  -6   24.03    1.31
   4   0  -6   24.58    1.24
   4   0  -6   23.41    1.32
   4   0  -6   22.25    1.24
  -4   0   6   21.47    1.28
   3   0  -6    0.86    0.34
   3   0  -6    1.04    0.32
   3   0  -6    0.69    0.25
   3   0  -6    0.58    0.31
  -3   0   6    0.76    0.31
   2   0  -6   94.29    4.30
   2   0  -6   90.27    4.31
   2   0  -6   92.17    4.33
   2   0  -6  102.88    4.30
   1   0  -6    0.99    0.19
   1   0  -6    1.39    0.32
   1   0  -6    1.09    0.23
  -1   0   6    1.11    0.13
  -1   0   6    0.95    0.15
   0   0  -6   90.24    3.83
   0   0  -6   84.97    3.84
   0   0  -6   83.56    3.96
  -1   0  -6   32.93    1.47
  -1   0  -6   33.48    1.48
  -2   0  -6   22.46    1.29
  -2   0  -6   23.09    1.04
  -2   0  -6   23.75    1.05
  -3   0  -6    3.91    0.29
  -3   0  -6    3.94    0.32
  -3   0  -6    3.33    0.53
  -4   0  -6   31.85    1.51
  -4   0  -6   32.97    1.80
  -4   0  -6   31.08    1.65
  -5   0  -6    0.48    0.28
  -5   0  -6    0.10    0.52
  -6   0  -6   35.22    1.76
  -6   0  -6   34.64    2.07
  -7   0  -6    4.03    0.86
  -7   0  -6    2.77    0.47
  -8   0  -6    1.78    0.47
  -8   0  -6    1.88    0.82
  -9   0  -6    4.48    0.61
  11  -1  -6    2.07    0.76
 -11   1   6    1.48    0.72
 -11   1   6    2.83    0.78
  10  -1  -6    1.56    0.68
 -10   1   6    1.17    0.63
   9  -1  -6   18.16    1.38
  -9   1   6   15.01    1.20
   8  -1  -6   16.91    1.25
   8  -1  -6   16.89    1.31
  -8   1   6   15.92    1.15
   7  -1  -6   15.80    1.14
   7  -1  -6   17.12    1.25
  -7   1   6   15.83    1.13
   6  -1  -6   24.82    1.52
   6  -1  -6   26.10    1.43
  -6   1   6   24.24    1.38
   5  -1  -6    4.90    0.55
   5  -1  -6    4.05    0.58
   4  -1  -6   11.83    0.95
   4  -1  -6   15.69    0.97
   4  -1  -6   15.13    0.90
   3  -1  -6   84.56    3.61
   3  -1  -6   71.98    3.58
   3  -1  -6   75.49    3.55
  -3   1   6   77.37    3.55
   2  -1  -6    2.34    0.36
   2  -1  -6    2.49    0.37
   2  -1  -6    3.04    0.36
  -2   1   6    2.83    0.28
   1  -1  -6   43.29    2.08
   1  -1  -6   43.16    2.03
   1  -1  -6   43.52    2.04
  -1   1   6   43.20    1.95
  -1   1   6   46.28    1.95
   0  -1  -6   48.11    2.23
   0  -1  -6   50.80    2.35
   0  -1  -6   50.90    2.23
  -1  -1  -6    0.36    0.49
  -2  -1  -6   63.51    3.39
  -3  -1  -6    3.02    0.23
  -3  -1  -6    3.24    0.25
  -3  -1  -6    3.57    0.53
  -3  -1  -6    3.07    0.54
  -4  -1  -6    7.54    0.79
  -4  -1  -6    6.58    0.67
  -4  -1  -6    6.44    0.48
  -5  -1  -6   24.88    1.26
  -5  -1  -6   23.14    1.55
  -6  -1  -6    2.98    0.43
  -6  -1  -6    3.74    0.77
  -7  -1  -6    2.51    0.46
  -7  -1  -6    4.19    0.88
  -8  -1  -6   17.64    1.60
  -8  -1  -6   17.95    1.17
  11  -2  -6    7.96    1.04
 -11   2   6    7.38    0.99
 -11   2   6    7.47    1.01
  10  -2  -6    3.37    0.80
 -10   2   6    2.61    0.73
 -10   2   6    2.56    0.73
   9  -2  -6    1.98    0.72
   9  -2  -6    1.56    0.56
  -9   2   6    1.45    0.63
  -9   2   6    1.44    0.61
   8  -2  -6    0.48    0.52
   8  -2  -6   -0.61    0.52
  -8   2   6    0.44    0.52
  -8   2   6    0.62    0.52
   7  -2  -6   86.67    3.89
   7  -2  -6   80.91    3.97
   7  -2  -6   83.44    3.94
  -7   2   6   76.41    3.88
  -7   2   6   80.93    3.95
   6  -2  -6    0.47    0.46
   6  -2  -6    0.80    0.39
  -6   2   6    0.78    0.44
   5  -2  -6   51.71    2.59
   5  -2  -6   51.91    2.50
  -5   2   6   52.21    2.58
   4  -2  -6    0.79    0.29
   4  -2  -6    0.26    0.39
   4  -2  -6    1.28    0.40
  -4   2   6    0.41    0.31
   3  -2  -6    4.48    0.43
   3  -2  -6    5.57    0.54
   3  -2  -6    3.88    0.49
  -3   2   6    4.00    0.42
   2  -2  -6    0.54    0.27
   2  -2  -6    0.65    0.25
   2  -2  -6    0.19    0.26
  -2   2   6    0.50    0.18
   1  -2  -6   36.34    1.75
   1  -2  -6   37.68    1.75
   1  -2  -6   34.25    1.71
  -1   2   6   38.74    1.64
  -1   2   6   36.52    1.64
   0  -2  -6    0.93    0.17
   0  -2  -6    0.81    0.28
   0  -2  -6    0.54    0.14
   0  -2  -6    0.41    0.49
  -1  -2  -6   40.11    1.75
  -1  -2  -6   37.98    2.08
  -2  -2  -6    0.22    0.42
  -2  -2  -6    0.08    0.12
  -2  -2  -6    0.15    0.08
  -3  -2  -6   14.57    0.76
  -3  -2  -6   15.39    1.05
  -4  -2  -6    3.08    0.64
  -4  -2  -6    4.16    0.56
  -4  -2  -6    4.06    0.37
  -5  -2  -6    1.35    0.34
  -5  -2  -6    1.41    0.61
  -6  -2  -6    0.88    0.51
  -7  -2  -6   29.01    1.97
  -8  -2  -6    1.30    0.83
  11  -3  -6    2.83    0.82
 -11   3   6    1.16    0.77
 -11   3   6    1.80    0.74
  10  -3  -6    0.45    0.70
 -10   3   6    0.37    0.65
 -10   3   6   -0.39    0.66
   9  -3  -6    5.13    0.69
   9  -3  -6    4.34    0.83
  -9   3   6    5.30    0.82
  -9   3   6    5.98    0.84
   8  -3  -6   17.09    1.34
   8  -3  -6   16.17    1.16
  -8   3   6   16.04    1.26
  -8   3   6   14.50    1.24
   7  -3  -6   -0.16    0.48
   7  -3  -6   -1.40    0.48
  -7   3   6    0.37    0.50
   6  -3  -6   24.38    1.56
   6  -3  -6   23.79    1.56
   6  -3  -6   26.67    1.42
  -6   3   6   26.42    1.50
   5  -3  -6    0.24    0.53
   5  -3  -6    0.24    0.29
   5  -3  -6    0.55    0.44
  -5   3   6    0.28    0.37
   4  -3  -6   32.66    1.54
   4  -3  -6   29.56    1.80
   4  -3  -6   32.75    1.68
   4  -3  -6   27.72    1.64
  -4   3   6   30.73    1.60
   3  -3  -6    4.32    0.71
   3  -3  -6    4.14    0.50
   3  -3  -6    3.05    0.44
   3  -3  -6    3.73    0.38
  -3   3   6    3.69    0.40
   2  -3  -6   33.47    1.69
   2  -3  -6   31.18    1.89
   2  -3  -6   37.10    1.74
   2  -3  -6   35.36    1.65
  -2   3   6   35.93    1.63
   1  -3  -6    1.41    0.26
   1  -3  -6    1.58    0.26
   1  -3  -6    0.93    0.57
  -1   3   6    1.45    0.17
   0  -3  -6   52.61    2.74
   0  -3  -6   55.92    2.53
   0  -3  -6   55.43    2.50
   0  -3  -6   54.03    2.48
  -1  -3  -6    2.42    0.24
  -1  -3  -6    2.34    0.48
  -1  -3  -6    2.45    0.23
  -2  -3  -6   40.00    2.09
  -2  -3  -6   39.13    1.81
  -3  -3  -6    0.20    0.21
  -3  -3  -6   -0.02    0.41
  -4  -3  -6   10.18    0.70
  -4  -3  -6   11.62    0.91
  -4  -3  -6    9.22    0.97
  -5  -3  -6    4.71    0.50
  -5  -3  -6    5.01    0.82
  -6  -3  -6   25.81    1.43
  -6  -3  -6   26.44    1.79
  -7  -3  -6    0.11    0.48
  -7  -3  -6   -0.37    0.69
 -11   4   6    2.80    0.74
 -11   4   6    1.71    0.86
  10  -4  -6    3.40    0.84
 -10   4   6    2.16    0.82
 -10   4   6    3.66    0.78
   9  -4  -6   11.54    1.08
   9  -4  -6   11.87    1.16
  -9   4   6   10.38    1.12
  -9   4   6   10.28    1.00
   8  -4  -6    4.56    0.81
   8  -4  -6    2.99    0.64
  -8   4   6    4.77    0.75
   7  -4  -6   15.07    1.26
   7  -4  -6   17.08    1.23
  -7   4   6   15.72    1.21
   6  -4  -6    2.16    0.53
   6  -4  -6    0.94    0.58
  -6   4   6    3.18    0.55
   5  -4  -6    5.98    0.83
   5  -4  -6    6.44    0.74
  -5   4   6    7.96    0.72
   4  -4  -6   37.79    1.75
   4  -4  -6   33.99    1.90
   4  -4  -6   37.40    2.09
  -4   4   6   36.36    1.83
   3  -4  -6   12.52    1.15
   3  -4  -6   13.47    0.88
   3  -4  -6   12.88    0.71
  -3   4   6   12.73    0.79
   2  -4  -6   21.79    1.43
   2  -4  -6   22.57    1.23
   2  -4  -6   24.13    1.11
   1  -4  -6   39.74    2.09
   1  -4  -6   38.63    1.75
   1  -4  -6   35.82    1.80
   0  -4  -6   11.70    0.66
   0  -4  -6   10.30    1.01
   0  -4  -6   10.21    0.65
   0   4   6   11.11    0.54
  -1  -4  -6   30.18    1.79
  -1  -4  -6   31.41    1.48
  -2  -4  -6   20.00    1.32
  -2  -4  -6   18.78    0.98
  -3  -4  -6    3.94    0.39
  -3  -4  -6    4.51    0.66
  -4  -4  -6    6.26    0.53
  -4  -4  -6    5.58    0.67
  -5  -4  -6   10.92    1.12
  -6  -4  -6    1.93    0.62
  -6  -4  -6    1.16    0.44
  -7  -4  -6    8.85    1.13
 -11   5   6   12.28    1.25
  10  -5  -6    1.15    0.74
 -10   5   6    1.74    0.69
   9  -5  -6    3.12    0.80
   9  -5  -6    3.29    0.73
  -9   5   6    3.44    0.76
   8  -5  -6    6.21    0.91
   8  -5  -6    7.85    0.89
  -8   5   6    4.50    0.78
   7  -5  -6    2.46    0.71
   7  -5  -6    1.71    0.64
  -7   5   6    1.47    0.58
   6  -5  -6    1.01    0.62
   6  -5  -6    0.84    0.59
  -6   5   6    0.85    0.52
   5  -5  -6   38.29    2.07
   5  -5  -6   34.69    2.02
  -5   5   6   37.48    1.92
   4  -5  -6    4.29    0.58
   4  -5  -6    5.19    0.72
  -4   5   6    5.03    0.54
   3  -5  -6   30.82    1.83
   3  -5  -6   31.40    1.66
  -3   5   6   32.47    1.59
   2  -5  -6    3.91    0.78
   2  -5  -6    4.35    0.48
  -2   5   6    5.87    0.49
   1  -5  -6   -0.18    0.29
   1  -5  -6    0.14    0.60
   0  -5  -6    6.57    0.58
   0  -5  -6    6.66    0.78
  -1  -5  -6   13.75    1.19
  -1  -5  -6   14.23    0.84
  -2  -5  -6    0.64    0.56
  -2  -5  -6    0.44    0.28
  -3  -5  -6   48.40    2.52
  -3  -5  -6   47.98    2.29
  -4  -5  -6    4.96    0.52
  -4  -5  -6    5.54    0.72
  -5  -5  -6    3.87    0.54
  -5  -5  -6    4.09    0.86
  -6  -5  -6    2.43    0.68
 -10   6   6    5.75    1.01
   9  -6  -6    0.75    0.61
   9  -6  -6   -0.49    0.55
  -9   6   6    0.47    0.66
   8  -6  -6    0.32    0.70
   8  -6  -6    0.72    0.64
  -8   6   6    0.22    0.62
   7  -6  -6    8.81    1.02
   7  -6  -6    8.68    0.99
  -7   6   6    9.07    0.93
   6  -6  -6   28.98    1.86
   6  -6  -6   30.50    1.79
  -6   6   6   27.43    1.65
   5  -6  -6   -0.75    0.63
   5  -6  -6    0.39    0.55
  -5   6   6    0.78    0.43
   4  -6  -6   11.65    1.19
   4  -6  -6   12.55    1.00
  -4   6   6   11.80    0.94
   3  -6  -6   -0.33    0.39
   3  -6  -6    0.41    0.70
   2  -6  -6   -0.23    0.47
   2  -6  -6    0.17    0.34
   1  -6  -6    0.11    0.33
   1  -6  -6   -0.51    0.48
   0  -6  -6   15.03    0.97
   0  -6  -6   19.30    1.43
  -1  -6  -6    2.29    0.71
  -1  -6  -6    2.54    0.42
  -2  -6  -6   54.34    2.79
  -2  -6  -6   50.67    2.49
  -3  -6  -6    7.47    0.89
  -3  -6  -6    6.13    0.59
  -4  -6  -6   14.75    1.46
  -4  -6  -6   15.21    1.01
  -5  -6  -6    1.13    0.79
  -5  -6  -6    2.15    0.51
   9  -7  -6    0.33    0.64
   8  -7  -6    3.14    0.87
   8  -7  -6    4.16    0.83
   7  -7  -6    7.24    0.97
   7  -7  -6    7.29    1.00
   6  -7  -6   -0.68    0.62
   6  -7  -6    0.23    0.73
   5  -7  -6   16.70    1.28
   5  -7  -6   15.84    1.48
   4  -7  -6    0.74    0.55
   4  -7  -6    0.20    0.76
   3  -7  -6    1.96    0.53
   3  -7  -6    0.56    0.78
   2  -7  -6   12.31    1.17
   2  -7  -6   13.92    1.01
   1  -7  -6    7.02    0.69
   1  -7  -6    9.15    0.99
   0  -7  -6    5.75    0.59
   0  -7  -6    6.32    0.98
  -1  -7  -6   21.99    1.29
  -1  -7  -6   23.52    1.68
  -2  -7  -6    2.37    0.77
  -2  -7  -6    1.10    0.42
  -3  -7  -6    3.00    0.79
  -3  -7  -6    3.83    0.53
  -4  -7  -6    1.63    0.49
   9  -8  -6    5.02    0.93
   8  -8  -6    9.35    1.12
   7  -8  -6    0.95    0.78
   7  -8  -6   -0.90    0.70
   6  -8  -6   -0.38    0.74
   6  -8  -6    0.13    0.67
   5  -8  -6    0.88    0.63
   5  -8  -6    0.68    0.62
   4  -8  -6    1.57    0.59
   4  -8  -6    2.22    0.71
   3  -8  -6   12.02    1.32
   3  -8  -6   11.79    1.01
   2  -8  -6    0.66    0.64
   2  -8  -6    0.38    0.47
   1  -8  -6    6.19    0.66
   1  -8  -6    5.60    1.06
   0  -8  -6    3.75    0.79
   0  -8  -6    3.59    0.59
  -1  -8  -6    0.40    0.46
  -1  -8  -6   -0.06    0.76
  -2  -8  -6    0.54    0.72
  -2  -8  -6    0.15    0.44
  -3  -8  -6    2.17    0.54
  -3  -8  -6    2.32    0.82
  -4  -8  -6   -0.18    0.47
   6  -9  -6    0.06    0.85
   5  -9  -6    1.34    0.92
   5  -9  -6    0.96    0.66
   4  -9  -6   17.66    1.68
   4  -9  -6   15.50    1.30
   3  -9  -6   -0.38    0.57
   3  -9  -6    0.47    0.68
   2  -9  -6    7.54    1.20
   2  -9  -6    4.00    0.72
   1  -9  -6    2.28    0.60
   1  -9  -6    1.28    0.88
   0  -9  -6   -0.07    0.51
   0  -9  -6   -0.58    0.81
  -1  -9  -6   -0.02    0.50
  -1  -9  -6    0.10    0.83
  -2  -9  -6    9.69    1.23
  -2  -9  -6    7.82    0.78
  -3  -9  -6   -0.26    0.87
  -3 -11   7    0.82    0.86
   2  11  -7   17.45    1.40
   1  11  -7    1.03    0.64
   0  11  -7    0.69    0.69
  -1  11  -7    2.27    0.66
  -2  11  -7    2.21    0.68
  -5 -10   7    1.68    0.89
   4  10  -7    5.87    0.90
  -4 -10   7    3.43    0.82
   3  10  -7    3.76    0.91
   3  10  -7    3.72    0.78
  -3 -10   7    2.18    0.72
   2  10  -7    5.08    0.81
   2  10  -7    5.69    0.84
  -2 -10   7    3.70    0.75
   1  10  -7    2.26    0.68
   1  10  -7    1.83    0.68
  -1 -10   7    1.80    0.71
   0  10  -7    8.01    0.93
   0  10  -7   10.31    0.99
  -1  10  -7   -0.12    0.57
  -1  10  -7   -0.52    0.58
  -2  10  -7    3.28    0.70
  -2  10  -7    2.81    0.81
  -3  10  -7    7.43    0.92
  -4  10  -7    0.67    0.66
  -6  -9   7    0.34    0.73
   5   9  -7    4.82    0.84
   5   9  -7    3.90    0.79
  -5  -9   7    3.66    0.76
   4   9  -7    0.43    0.63
   4   9  -7    0.31    0.64
  -4  -9   7   -0.40    0.59
   3   9  -7    4.76    0.78
   3   9  -7    5.28    0.79
  -3  -9   7    2.35    0.68
   2   9  -7    7.07    0.83
   2   9  -7    7.15    0.86
  -2  -9   7    5.26    0.75
   1   9  -7   16.22    1.11
   1   9  -7   15.64    1.21
  -1  -9   7   12.70    1.14
   0   9  -7    0.06    0.55
   0   9  -7    0.33    0.55
   0  -9   7   -0.62    0.50
  -1   9  -7   33.74    1.85
  -1   9  -7   28.91    1.82
  -2   9  -7    0.86    0.61
  -2   9  -7    1.38    0.61
  -3   9  -7   -0.27    0.52
  -3   9  -7   -0.34    0.57
  -4   9  -7   -0.28    0.63
  -4   9  -7    0.43    0.60
  -5   9  -7    5.85    0.92
   7   8  -7   -0.65    0.76
  -7  -8   7    0.27    0.69
   6   8  -7    9.91    1.09
   6   8  -7   11.00    1.06
  -6  -8   7    8.80    1.00
   5   8  -7   -0.89    0.56
   5   8  -7    0.24    0.64
  -5  -8   7   -0.52    0.59
   4   8  -7    0.99    0.62
   4   8  -7    1.47    0.62
  -4  -8   7    1.18    0.58
   3   8  -7    1.91    0.51
   3   8  -7    2.09    0.62
  -3  -8   7    2.23    0.59
   2   8  -7   15.85    1.20
   2   8  -7   16.05    1.21
  -2  -8   7   16.70    1.19
   1   8  -7   -0.41    0.49
   1   8  -7   -0.18    0.49
  -1  -8   7   -0.63    0.40
   0   8  -7   33.00    1.87
   0   8  -7   33.96    1.91
   0  -8   7   34.57    1.84
  -1   8  -7    2.08    0.52
  -1   8  -7    2.89    0.54
   1  -8   7    1.31    0.58
  -2   8  -7    2.06    0.57
  -2   8  -7    1.75    0.48
  -3   8  -7    3.93    0.66
  -3   8  -7    5.84    0.80
  -4   8  -7    3.31    0.66
  -4   8  -7    4.64    0.80
  -5   8  -7    0.50    0.68
  -5   8  -7   -0.36    0.52
  -6   8  -7   17.02    1.46
   8   7  -7   -0.03    0.68
  -8  -7   7    1.12    0.75
   7   7  -7    6.16    0.95
   7   7  -7    7.48    0.93
  -7  -7   7    6.56    0.90
   6   7  -7   10.73    1.06
   6   7  -7   11.18    1.13
  -6  -7   7   10.74    1.03
   5   7  -7    0.79    0.59
   5   7  -7    1.77    0.66
  -5  -7   7    0.55    0.57
   4   7  -7   14.44    1.08
   4   7  -7   14.26    1.15
  -4  -7   7   14.42    1.13
   3   7  -7    9.39    0.85
   3   7  -7    7.60    0.86
  -3  -7   7    8.24    0.79
   2   7  -7    0.29    0.45
   2   7  -7    1.02    0.42
  -2  -7   7    0.89    0.44
   1   7  -7   31.19    1.66
   1   7  -7   28.15    1.69
  -1  -7   7   28.60    1.61
   0   7  -7    2.71    0.49
   0   7  -7    1.47    0.49
   0  -7   7    1.23    0.46
  -1   7  -7    8.22    0.75
  -1   7  -7    8.43    0.78
   1  -7   7    7.80    0.70
  -2   7  -7   21.90    1.38
  -2   7  -7   23.74    1.38
  -3   7  -7    2.58    0.66
  -3   7  -7    1.40    0.50
  -4   7  -7    2.02    0.54
  -4   7  -7    2.54    0.58
  -5   7  -7   22.97    1.47
  -5   7  -7   22.10    1.45
  -6   7  -7    1.29    0.54
  -9  -6   7    0.45    0.78
   8   6  -7    1.52    0.72
   8   6  -7    1.55    0.77
  -8  -6   7    1.25    0.74
   7   6  -7   25.06    1.60
   7   6  -7   26.51    1.69
  -7  -6   7   24.26    1.70
   6   6  -7    1.81    0.68
   6   6  -7    1.34    0.62
  -6  -6   7    1.40    0.58
   5   6  -7   33.07    1.96
   5   6  -7   35.90    1.92
  -5  -6   7   31.61    1.87
   4   6  -7    0.77    0.50
   4   6  -7    1.56    0.46
  -4  -6   7    0.81    0.49
   3   6  -7   20.88    1.37
   3   6  -7   24.29    1.45
  -3  -6   7   23.33    1.35
   2   6  -7    4.40    0.57
   2   6  -7    3.66    0.63
  -2  -6   7    3.28    0.51
   1   6  -7   14.05    0.96
   1   6  -7   13.58    0.96
  -1  -6   7   13.03    0.91
   0   6  -7    5.86    0.75
   0   6  -7    7.38    0.67
   0  -6   7    8.45    0.71
  -1   6  -7   56.37    2.70
  -1   6  -7   56.22    2.76
   1  -6   7   54.52    2.66
  -2   6  -7    0.04    0.50
  -2   6  -7    0.56    0.39
  -3   6  -7   26.85    1.48
  -3   6  -7   26.44    1.55
  -4   6  -7    1.23    0.61
  -4   6  -7    1.89    1.02
  -4   6  -7    1.39    0.46
  -5   6  -7    1.04    0.47
  -5   6  -7    1.83    0.77
  -6   6  -7   -0.17    0.67
  -6   6  -7   -0.12    0.45
  -7   6  -7   20.53    1.40
  -7   6  -7   20.03    1.79
  -8   6  -7    0.89    0.84
   9   5  -7    0.50    0.74
   9   5  -7    0.43    0.70
  -9  -5   7    0.41    0.66
   8   5  -7   16.46    1.26
   8   5  -7   17.82    1.45
  -8  -5   7   15.35    1.39
   7   5  -7   -0.01    0.63
   7   5  -7    1.18    0.65
  -7  -5   7    0.25    0.45
   6   5  -7   36.39    2.16
   6   5  -7   41.02    2.13
  -6  -5   7   38.00    2.11
   5   5  -7    1.15    0.42
   5   5  -7    2.19    0.52
  -5  -5   7    1.18    0.52
   4   5  -7   45.88    2.35
   4   5  -7   45.28    2.30
  -4  -5   7   46.43    2.32
   3   5  -7    1.34    0.43
   3   5  -7    0.70    0.49
  -3  -5   7    1.42    0.42
   2   5  -7    2.39    0.45
   2   5  -7    2.31    0.53
  -2  -5   7    1.54    0.39
   1   5  -7    3.12    0.57
   1   5  -7    3.65    0.47
  -1  -5   7    2.24    0.40
   0   5  -7   31.35    1.61
   0   5  -7   32.08    1.73
   0  -5   7   30.42    1.57
  -1   5  -7    7.58    0.67
  -1   5  -7    7.43    0.71
   1  -5   7    8.98    0.63
  -2   5  -7   39.71    2.01
  -2   5  -7   39.44    2.11
   2  -5   7   43.40    2.03
  -3   5  -7    1.43    0.52
  -3   5  -7    0.86    0.39
  -3   5  -7    0.68    0.41
  -4   5  -7   -0.33    0.37
  -4   5  -7    0.09    0.50
  -5   5  -7   -0.13    0.37
  -5   5  -7   -0.24    0.61
  -6   5  -7   13.17    1.01
  -6   5  -7   16.25    1.41
  -7   5  -7    2.28    0.57
  -7   5  -7    0.67    0.82
  -8   5  -7   14.24    1.16
  10   4  -7   11.00    1.16
 -10  -4   7    8.64    1.12
   9   4  -7    2.86    0.66
   9   4  -7    3.85    0.86
  -9  -4   7    3.62    0.82
   8   4  -7    9.57    1.04
   8   4  -7    9.67    1.06
  -8  -4   7    9.59    0.96
   7   4  -7   28.01    1.68
   7   4  -7   24.95    1.68
  -7  -4   7   25.64    1.59
   6   4  -7    2.99    0.61
   6   4  -7    1.68    0.50
  -6  -4   7    2.10    0.56
   5   4  -7   24.36    1.39
   5   4  -7   21.14    1.43
  -5  -4   7   21.57    1.35
   4   4  -7    7.95    0.83
   4   4  -7   10.22    0.83
  -4  -4   7    9.25    0.79
   3   4  -7   12.46    0.88
   3   4  -7   13.00    0.98
  -3  -4   7   11.34    0.84
   2   4  -7   30.52    1.60
   2   4  -7   30.62    1.69
  -2  -4   7   31.69    1.60
   1   4  -7   20.21    1.17
   1   4  -7   18.64    1.11
  -1  -4   7   20.60    1.09
   0   4  -7    0.33    0.28
   0   4  -7    0.49    0.33
   0  -4   7    0.15    0.25
  -1   4  -7   21.39    1.36
  -1   4  -7   21.92    1.21
  -1   4  -7   22.84    1.21
   1  -4   7   24.44    1.17
  -2   4  -7   13.61    0.93
  -2   4  -7   12.13    0.81
  -2   4  -7   13.03    0.93
   2  -4   7   13.69    0.76
  -3   4  -7    5.77    0.73
  -3   4  -7    6.84    0.60
  -4   4  -7   12.14    0.84
  -4   4  -7   14.09    1.12
  -5   4  -7    4.84    0.55
  -5   4  -7    6.33    0.93
  -6   4  -7    4.52    0.84
  -6   4  -7    1.89    0.48
  -7   4  -7   24.10    1.81
  -8   4  -7    0.95    0.48
  -8   4  -7    1.59    0.88
  10   3  -7    0.01    0.72
  10   3  -7    0.10    0.67
 -10  -3   7    0.86    0.76
   9   3  -7   13.13    1.21
   9   3  -7   13.44    1.27
  -9  -3   7   12.01    1.18
   8   3  -7    6.69    0.91
   8   3  -7    5.67    0.86
  -8  -3   7    6.18    0.86
   7   3  -7   -1.18    0.52
   7   3  -7    1.13    0.58
  -7  -3   7    0.75    0.57
   6   3  -7    6.75    0.74
   6   3  -7    7.72    0.77
  -6  -3   7    6.78    0.78
   5   3  -7   44.74    2.26
   5   3  -7   42.95    2.21
  -5  -3   7   40.53    2.19
   4   3  -7    9.95    0.78
   4   3  -7    7.47    0.71
  -4  -3   7    7.61    0.69
   3   3  -7   57.59    2.85
   3   3  -7   59.85    2.90
  -3  -3   7   62.92    2.87
   2   3  -7    4.05    0.45
   2   3  -7    4.38    0.45
   2   3  -7    4.09    0.58
  -2  -3   7    4.75    0.45
   1   3  -7    2.30    0.35
   1   3  -7    2.66    0.34
   1   3  -7    2.60    0.42
  -1  -3   7    2.15    0.31
   0   3  -7   56.22    2.51
   0   3  -7   55.51    2.47
   0   3  -7   52.78    2.50
   0   3  -7   49.89    2.62
   0  -3   7   53.42    2.47
  -1   3  -7   25.43    1.47
  -1   3  -7   25.90    1.37
  -1   3  -7   26.56    1.30
  -2   3  -7   13.16    0.79
  -2   3  -7   13.82    0.97
  -2   3  -7   14.99    1.03
  -3   3  -7   55.34    2.85
  -3   3  -7   58.82    2.66
  -4   3  -7    4.28    0.44
  -4   3  -7    4.82    0.73
  -5   3  -7   19.57    1.43
  -5   3  -7   19.16    1.11
  -6   3  -7    5.89    0.59
  -6   3  -7    6.38    0.95
  -7   3  -7    1.07    0.78
  -7   3  -7    0.11    0.39
  -8   3  -7    0.21    0.81
  -8   3  -7    0.99    0.47
 -11  -2   7   -0.69    0.72
  10   2  -7   21.72    1.71
  10   2  -7   22.11    1.72
 -10  -2   7   26.95    1.76
   9   2  -7    0.63    0.65
   9   2  -7    0.44    0.51
  -9  -2   7    0.26    0.62
   8   2  -7    0.95    0.50
   8   2  -7    0.57    0.58
  -8  -2   7    0.07    0.57
   7   2  -7    1.59    0.58
   7   2  -7    0.86    0.45
  -7  -2   7    0.69    0.56
  -7  -2   7    1.02    0.36
   6   2  -7   23.69    1.44
   6   2  -7   21.78    1.43
  -6  -2   7   22.73    1.18
  -6  -2   7   21.18    1.38
   5   2  -7    0.13    0.42
   5   2  -7    1.21    0.51
  -5  -2   7    0.79    0.43
   4   2  -7   88.81    4.11
   4   2  -7   84.92    4.12
  -4  -2   7   90.58    4.12
   3   2  -7   -0.18    0.27
   3   2  -7    0.32    0.33
   3   2  -7    0.00    0.39
  -3  -2   7    0.15    0.32
   2   2  -7   35.21    1.83
   2   2  -7   36.31    1.93
   2   2  -7   40.41    1.83
  -2  -2   7   39.14    1.85
   1   2  -7    0.62    0.22
   1   2  -7    0.64    0.31
   1   2  -7    0.30    0.18
   1   2  -7    0.52    0.23
  -1  -2   7    0.11    0.21
   0   2  -7   38.24    2.00
   0   2  -7   40.22    1.88
   0   2  -7   40.35    1.84
   0   2  -7   36.93    1.83
   0  -2   7   40.56    1.82
  -1   2  -7    1.18    0.42
  -1   2  -7    0.90    0.21
  -1   2  -7    0.67    0.21
  -1   2  -7    1.30    0.36
   1  -2   7    1.34    0.14
  -2   2  -7   39.00    1.80
  -2   2  -7   38.37    1.99
  -3   2  -7    0.51    0.21
  -3   2  -7    0.54    0.41
  -4   2  -7   28.66    1.70
  -5   2  -7    0.44    0.58
  -5   2  -7    0.49    0.29
  -6   2  -7    0.74    0.65
  -6   2  -7    0.05    0.33
  -7   2  -7    1.06    0.41
  -7   2  -7    0.39    0.73
  -8   2  -7    1.83    0.48
  -8   2  -7    1.42    0.82
 -11  -1   7    6.44    1.03
  10   1  -7    3.92    0.84
  10   1  -7    2.89    0.78
 -10  -1   7    2.27    0.73
   9   1  -7    3.79    0.81
   9   1  -7    4.34    0.82
  -9  -1   7    4.40    0.67
  -9  -1   7    4.02    0.76
   8   1  -7    4.81    0.80
   8   1  -7    7.22    0.77
  -8  -1   7    5.89    0.66
  -8  -1   7    7.08    0.84
   7   1  -7    1.31    0.57
   7   1  -7    1.89    0.59
  -7  -1   7    1.03    0.54
  -7  -1   7    1.24    0.39
   6   1  -7   18.48    1.13
   6   1  -7   15.53    1.07
  -6  -1   7   15.64    1.14
   5   1  -7   45.40    2.24
   5   1  -7   45.03    2.28
  -5  -1   7   42.41    2.25
   4   1  -7   -0.32    0.34
   4   1  -7    0.31    0.39
  -4  -1   7    0.62    0.35
   3   1  -7   30.53    1.54
   3   1  -7   32.44    1.46
   3   1  -7   27.98    1.58
   3   1  -7   31.16    1.57
  -3  -1   7   27.94    1.52
   2   1  -7   16.78    1.07
   2   1  -7   18.19    0.97
   2   1  -7   19.11    0.92
   2   1  -7   17.49    0.99
  -2  -1   7   17.91    0.97
   1   1  -7   -0.02    0.18
   1   1  -7    0.05    0.33
   1   1  -7    0.36    0.21
  -1  -1   7    0.01    0.17
   0   1  -7   11.29    0.85
   0   1  -7   13.72    0.77
   0   1  -7   11.92    0.65
   0   1  -7   12.30    0.65
  -1   1  -7   41.00    1.78
  -1   1  -7   39.00    1.78
  -1   1  -7   38.67    1.93
  -1   1  -7   37.40    1.97
  -2   1  -7    0.28    0.13
  -2   1  -7    0.18    0.39
  -2   1  -7    0.10    0.14
  -3   1  -7  111.04    5.11
  -3   1  -7  108.47    4.86
  -4   1  -7   12.32    0.70
  -4   1  -7   13.69    1.07
  -5   1  -7    3.75    0.39
  -5   1  -7    5.23    0.69
  -6   1  -7    7.64    0.98
  -6   1  -7    7.70    0.66
  -7   1  -7    5.90    0.59
  -7   1  -7   10.62    1.13
  -8   1  -7    2.59    0.85
  11   0  -7    1.19    0.85
  10   0  -7    1.72    0.73
 -10   0   7    0.73    0.63
   9   0  -7   34.17    1.98
   9   0  -7   31.66    1.83
  -9   0   7   32.06    1.95
  -9   0   7   28.88    1.77
   8   0  -7    0.77    0.64
   8   0  -7    0.56    0.43
  -8   0   7    1.38    0.49
  -8   0   7    0.42    0.47
   7   0  -7   19.31    1.28
   7   0  -7   17.90    1.32
  -7   0   7   17.54    1.10
  -7   0   7   20.24    1.32
   6   0  -7   37.10    1.95
   6   0  -7   34.01    1.88
  -6   0   7   33.99    1.91
   5   0  -7    6.86    0.72
   5   0  -7    7.39    0.64
  -5   0   7    6.32    0.69
   4   0  -7   14.33    0.99
   4   0  -7   16.14    0.97
   4   0  -7   13.99    0.98
  -4   0   7   13.53    0.92
   3   0  -7   58.36    2.68
   3   0  -7   53.42    2.69
   3   0  -7   55.45    2.69
   3   0  -7   57.97    2.64
   2   0  -7    1.51    0.28
   2   0  -7    1.42    0.30
   2   0  -7    1.49    0.38
   2   0  -7    1.79    0.34
   1   0  -7   58.83    2.67
   1   0  -7   59.37    2.70
   1   0  -7   58.14    2.78
   0   0  -7    8.49    0.69
   0   0  -7    9.33    0.46
   0   0  -7    8.50    0.50
  -1   0  -7    7.25    0.66
  -2   0  -7   31.04    1.66
  -3   0  -7   10.96    0.52
  -3   0  -7   10.77    0.91
  -4   0  -7    1.32    0.47
  -4   0  -7    0.93    0.53
  -4   0  -7    1.17    0.20
  -5   0  -7   33.57    1.99
  -5   0  -7   34.20    1.62
  -6   0  -7    4.21    0.44
  -6   0  -7    4.80    0.74
  -7   0  -7    3.69    0.86
  -8   0  -7   11.00    1.27
  11  -1  -7    0.45    0.64
 -11   1   7   -0.62    0.61
 -11   1   7    0.91    0.66
  10  -1  -7   18.21    1.52
 -10   1   7   21.25    1.49
 -10   1   7   17.00    1.42
   9  -1  -7   -0.10    0.60
   9  -1  -7    1.49    0.69
  -9   1   7   -0.61    0.48
   8  -1  -7    9.49    0.99
   8  -1  -7   11.67    1.03
  -8   1   7    8.19    0.82
   7  -1  -7   10.97    0.98
   7  -1  -7   12.87    1.11
   6  -1  -7    1.21    0.46
   6  -1  -7    1.30    0.51
   5  -1  -7    0.14    0.45
   5  -1  -7    0.15    0.37
  -5   1   7    0.01    0.37
   4  -1  -7   36.01    1.74
   4  -1  -7   31.83    1.80
  -4   1   7   33.40    1.74
   3  -1  -7   -0.05    0.30
   3  -1  -7    0.01    0.34
   3  -1  -7   -0.07    0.29
  -3   1   7    0.25    0.26
   2  -1  -7   67.57    3.17
   2  -1  -7   68.61    3.18
   2  -1  -7   66.61    3.15
  -2   1   7   70.68    3.09
   1  -1  -7    6.35    0.44
   1  -1  -7    6.33    0.47
   1  -1  -7    6.45    0.56
   0  -1  -7   49.40    2.31
   0  -1  -7   48.47    2.13
   0  -1  -7   46.28    2.14
  -1  -1  -7    2.26    0.68
  -2  -1  -7   20.01    1.59
  -3  -1  -7    5.79    0.68
  -3  -1  -7    4.52    0.62
  -4  -1  -7   44.14    2.39
  -4  -1  -7   43.73    2.26
  -4  -1  -7   46.48    2.05
  -5  -1  -7   -0.04    0.54
  -6  -1  -7   18.30    1.49
  -7  -1  -7    5.36    0.96
 -11   2   7    9.59    1.03
 -11   2   7    9.83    1.06
  10  -2  -7    3.06    0.83
 -10   2   7    2.25    0.70
 -10   2   7    1.85    0.69
   9  -2  -7   14.79    1.15
   9  -2  -7   17.12    1.39
  -9   2   7   15.63    1.25
  -9   2   7   12.56    1.18
   8  -2  -7   -0.18    0.50
   8  -2  -7   -0.09    0.56
   8  -2  -7   -0.04    0.50
  -8   2   7    0.62    0.50
   7  -2  -7    0.49    0.44
   7  -2  -7    0.50    0.56
  -7   2   7    1.31    0.50
   6  -2  -7   16.58    1.23
   6  -2  -7   19.14    1.11
  -6   2   7   15.43    1.14
   5  -2  -7   32.04    1.68
   5  -2  -7   32.97    1.80
  -5   2   7   32.78    1.72
   4  -2  -7    1.28    0.35
   4  -2  -7    0.24    0.43
  -4   2   7    1.22    0.36
   3  -2  -7   77.79    3.61
   3  -2  -7   78.73    3.65
  -3   2   7   79.03    3.58
   2  -2  -7    6.23    0.56
   2  -2  -7    6.92    0.59
   2  -2  -7    5.94    0.55
  -2   2   7    6.37    0.40
   1  -2  -7   27.41    1.37
   1  -2  -7   26.75    1.32
   1  -2  -7   25.77    1.28
   0  -2  -7   19.24    1.42
   0  -2  -7   21.94    1.15
   0  -2  -7   20.65    0.97
   0  -2  -7   21.36    1.00
  -1  -2  -7   16.75    1.14
  -2  -2  -7    2.13    0.56
  -3  -2  -7   28.78    1.62
  -3  -2  -7   28.08    1.68
  -4  -2  -7    2.27    0.63
  -4  -2  -7    1.34    0.50
  -5  -2  -7   26.80    1.65
  -6  -2  -7   -0.24    0.66
  -7  -2  -7    1.31    0.79
 -11   3   7    1.23    0.69
 -11   3   7    0.44    0.84
  10  -3  -7   11.73    1.20
 -10   3   7   10.07    1.10
 -10   3   7   11.58    1.13
   9  -3  -7    6.86    0.84
   9  -3  -7    9.32    1.04
  -9   3   7    8.00    0.92
   8  -3  -7    4.91    0.81
   8  -3  -7    3.12    0.69
  -8   3   7    3.55    0.68
   7  -3  -7   30.12    1.93
   7  -3  -7   32.80    1.81
   7  -3  -7   34.98    1.98
  -7   3   7   35.16    1.89
   6  -3  -7   10.23    0.77
   6  -3  -7    8.40    0.89
   6  -3  -7   10.76    1.08
  -6   3   7    7.41    0.77
   5  -3  -7    1.17    0.51
   5  -3  -7    2.53    0.43
   5  -3  -7    2.17    0.55
  -5   3   7    1.67    0.44
   4  -3  -7   36.59    1.93
   4  -3  -7   37.00    1.82
   4  -3  -7   34.18    2.13
  -4   3   7   39.22    1.86
   3  -3  -7    3.07    0.47
   3  -3  -7    3.56    0.65
   3  -3  -7    3.98    0.41
  -3   3   7    4.16    0.39
   2  -3  -7   14.16    0.85
   2  -3  -7   14.47    0.80
   2  -3  -7   13.00    1.24
   1  -3  -7   25.87    1.71
   1  -3  -7   26.20    1.30
   1  -3  -7   27.70    1.34
   0  -3  -7   -0.03    0.28
   0  -3  -7    0.15    0.57
   0  -3  -7    0.14    0.16
  -1  -3  -7   48.60    2.13
  -1  -3  -7   45.46    2.51
  -2  -3  -7   14.25    0.69
  -2  -3  -7   13.55    1.12
  -3  -3  -7    4.46    0.66
  -4  -3  -7    9.58    0.98
  -4  -3  -7    8.26    0.85
  -5  -3  -7    6.78    0.95
  -6  -3  -7   -0.11    0.70
  10  -4  -7    2.93    0.83
   9  -4  -7    0.07    0.55
   9  -4  -7    0.92    0.70
  -9   4   7    0.08    0.59
   8  -4  -7   45.44    2.54
   8  -4  -7   44.19    2.46
  -8   4   7   46.84    2.46
   7  -4  -7   -0.48    0.58
   7  -4  -7    0.00    0.54
  -7   4   7   -0.31    0.47
   6  -4  -7    9.58    0.95
   6  -4  -7   10.52    0.98
  -6   4   7   10.69    0.90
   5  -4  -7   -0.35    0.62
   5  -4  -7   -0.77    0.47
  -5   4   7   -0.11    0.37
   4  -4  -7    1.87    0.73
   4  -4  -7    1.24    0.50
  -4   4   7    1.69    0.39
   3  -4  -7    0.75    0.69
   3  -4  -7    0.43    0.39
   2  -4  -7   35.53    2.09
   2  -4  -7   32.46    1.71
   2  -4  -7   36.20    1.69
   1  -4  -7    4.79    0.41
   1  -4  -7    4.75    0.82
   1  -4  -7    4.47    0.42
   0  -4  -7   21.60    1.08
   0  -4  -7   20.58    1.50
   0  -4  -7   20.20    1.05
  -1  -4  -7    2.51    0.36
  -1  -4  -7    1.84    0.64
  -1  -4  -7    2.02    0.26
  -2  -4  -7    3.05    0.30
  -2  -4  -7    3.35    0.70
  -3  -4  -7   -0.19    0.58
  -3  -4  -7   -0.05    0.40
  -4  -4  -7    5.35    0.76
  -5  -4  -7    1.14    0.59
  -6  -4  -7   15.95    1.51
   9  -5  -7    5.77    0.87
   9  -5  -7    7.58    0.99
   8  -5  -7    0.84    0.63
   8  -5  -7    0.08    0.68
   7  -5  -7   14.51    1.26
   7  -5  -7   11.60    1.15
   6  -5  -7   -0.38    0.63
   6  -5  -7    0.18    0.58
   5  -5  -7    4.12    0.71
   5  -5  -7    4.67    0.67
   4  -5  -7    2.32    0.64
   4  -5  -7    1.50    0.49
   3  -5  -7   34.80    2.09
   3  -5  -7   32.18    1.75
   2  -5  -7    1.88    0.61
   2  -5  -7    2.60    0.40
   1  -5  -7   23.92    1.66
   1  -5  -7   23.19    1.24
   0  -5  -7    0.72    0.52
   0  -5  -7    0.63    0.28
  -1  -5  -7   10.91    1.08
  -1  -5  -7   10.00    0.67
  -2  -5  -7    0.11    0.63
  -2  -5  -7    0.03    0.26
  -3  -5  -7   12.69    1.06
  -3  -5  -7   13.62    1.17
  -5  -5  -7   11.98    1.18
   9  -6  -7    0.72    0.67
   8  -6  -7    7.57    1.02
   8  -6  -7    8.15    1.01
   7  -6  -7    4.20    0.84
   7  -6  -7    4.63    0.89
   6  -6  -7    0.73    0.74
   6  -6  -7   -1.37    0.56
   5  -6  -7   12.56    1.11
   5  -6  -7   13.66    1.33
   4  -6  -7    3.70    0.89
   4  -6  -7    3.04    0.56
   3  -6  -7    6.44    0.67
   3  -6  -7    5.69    1.00
   2  -6  -7   20.11    1.45
   2  -6  -7   18.19    1.14
   1  -6  -7    7.51    0.98
   1  -6  -7    9.96    0.74
   0  -6  -7   12.45    0.82
   0  -6  -7   11.20    1.22
  -1  -6  -7    4.35    0.89
  -1  -6  -7    5.08    0.49
  -2  -6  -7    3.60    0.81
  -2  -6  -7    3.01    0.42
  -3  -6  -7    1.67    0.68
   9  -7  -7    1.25    0.72
   8  -7  -7    1.01    0.79
   7  -7  -7    0.06    0.59
   7  -7  -7   -0.67    0.68
   6  -7  -7   11.36    1.11
   6  -7  -7   11.52    1.31
   5  -7  -7    1.09    0.64
   5  -7  -7    1.61    0.86
   4  -7  -7   10.98    1.28
   4  -7  -7   10.16    0.91
   3  -7  -7    9.99    0.87
   3  -7  -7    7.62    1.19
   2  -7  -7   -0.41    0.40
   2  -7  -7    0.83    0.84
   1  -7  -7    0.99    0.40
   1  -7  -7    0.49    0.62
   0  -7  -7    9.48    1.20
   0  -7  -7   11.02    0.83
  -1  -7  -7    1.43    0.42
  -1  -7  -7    1.20    0.80
  -2  -7  -7   22.15    1.68
  -2  -7  -7   22.11    1.27
  -3  -7  -7    3.49    0.84
   7  -8  -7   11.39    1.31
   6  -8  -7    1.82    0.73
   6  -8  -7    1.82    0.90
   5  -8  -7    5.16    0.78
   5  -8  -7    4.80    0.92
   4  -8  -7   -0.53    0.60
   4  -8  -7   -0.33    0.51
   3  -8  -7   -0.60    0.87
   3  -8  -7    0.48    0.53
   2  -8  -7    2.39    0.78
   2  -8  -7    1.98    0.52
   1  -8  -7   12.25    1.02
   1  -8  -7   15.51    1.50
   0  -8  -7    0.24    0.42
   0  -8  -7    0.24    0.63
  -1  -8  -7   16.60    1.61
  -2  -8  -7    1.43    0.81
  -2  -8  -7    1.42    0.49
   4  -9  -7    0.19    0.60
   3  -9  -7    4.81    0.70
   2  -9  -7    2.95    0.64
   1  -9  -7    1.21    0.56
   0  -9  -7    6.28    0.72
  -1  -9  -7   -0.93    0.45
   3  10  -8   -0.24    0.67
   2  10  -8   18.15    1.45
   1  10  -8   -0.32    0.61
   0  10  -8    1.43    0.66
  -1  10  -8    2.31    0.71
  -2  10  -8    9.84    1.05
  -6  -9   8    0.45    0.72
   5   9  -8    8.96    1.22
  -5  -9   8    8.74    1.01
   4   9  -8   -0.40    0.57
   4   9  -8    1.23    0.70
  -4  -9   8    0.13    0.70
   3   9  -8   22.61    1.59
   3   9  -8   21.48    1.56
   2   9  -8    0.92    0.60
   2   9  -8    1.11    0.66
   1   9  -8    1.30    0.58
   1   9  -8    0.71    0.63
   0   9  -8    1.14    0.63
   0   9  -8    0.71    0.59
  -1   9  -8    4.17    0.77
  -1   9  -8    3.73    0.69
  -2   9  -8    1.30    0.61
  -2   9  -8    1.49    0.70
  -3   9  -8   18.68    1.36
  -3   9  -8   18.12    1.44
  -4   9  -8   -0.41    0.65
  -7  -8   8   10.58    1.14
   6   8  -8    2.20    0.78
   6   8  -8    2.17    0.86
  -6  -8   8    0.82    0.65
   5   8  -8    4.24    0.83
   5   8  -8    2.97    0.75
  -5  -8   8    2.40    0.69
   4   8  -8    6.66    0.93
   4   8  -8    6.44    0.84
  -4  -8   8    7.33    0.84
   3   8  -8    8.30    0.96
   3   8  -8    8.54    0.88
  -3  -8   8    7.63    0.83
   2   8  -8    2.04    0.61
   2   8  -8    2.05    0.54
  -2  -8   8    1.67    0.70
   1   8  -8   18.59    1.27
   1   8  -8   20.22    1.37
   0   8  -8    0.86    0.53
   0   8  -8    2.03    0.53
  -1   8  -8    2.84    0.60
  -1   8  -8    2.83    0.59
  -2   8  -8   19.37    1.44
  -2   8  -8   19.29    1.36
  -3   8  -8    0.72    0.53
  -3   8  -8    1.21    0.53
  -4   8  -8    1.16    0.56
  -4   8  -8    0.25    0.50
  -5   8  -8   10.22    1.15
  -8  -7   8   11.20    1.21
   7   7  -8    1.43    0.72
   7   7  -8    1.23    0.75
  -7  -7   8    1.37    0.70
   6   7  -8    2.92    0.78
   6   7  -8    2.38    0.69
  -6  -7   8    2.14    0.67
   5   7  -8    3.23    0.71
   5   7  -8    2.10    0.73
  -5  -7   8    2.35    0.59
   4   7  -8   11.71    1.00
   4   7  -8   12.02    1.08
  -4  -7   8   10.25    0.96
   3   7  -8    4.88    0.66
   3   7  -8    2.61    0.70
  -3  -7   8    4.56    0.65
   2   7  -8   40.08    2.12
   2   7  -8   37.09    2.00
  -2  -7   8   35.76    1.97
   1   7  -8   -0.25    0.53
   1   7  -8    0.50    0.42
   0   7  -8   27.19    1.59
   0   7  -8   27.47    1.56
  -1   7  -8    0.18    0.42
  -1   7  -8    0.15    0.43
  -2   7  -8    0.91    0.46
  -2   7  -8   -0.29    0.58
  -3   7  -8    0.82    0.47
  -3   7  -8    0.44    0.48
  -4   7  -8   13.34    1.05
  -4   7  -8   13.34    1.11
  -5   7  -8   -0.48    0.66
  -5   7  -8   -0.75    0.44
  -6   7  -8   10.16    0.93
  -9  -6   8   19.88    1.67
   8   6  -8   -0.21    0.82
   8   6  -8    0.58    0.66
  -8  -6   8    1.08    0.71
   7   6  -8    8.03    1.03
   7   6  -8    9.76    1.03
  -7  -6   8    6.74    0.93
   6   6  -8    0.91    0.57
   6   6  -8    1.42    0.70
  -6  -6   8    0.81    0.60
   5   6  -8    6.04    0.79
   5   6  -8    6.40    0.88
  -5  -6   8    6.19    0.76
   4   6  -8    3.09    0.58
   4   6  -8    2.38    0.59
  -4  -6   8    2.51    0.55
   3   6  -8   29.27    1.71
   3   6  -8   28.64    1.60
  -3  -6   8   25.81    1.58
   2   6  -8    0.70    0.42
   2   6  -8    0.95    0.46
  -2  -6   8    1.05    0.42
   1   6  -8   25.78    1.58
   1   6  -8   26.64    1.46
  -1  -6   8   24.73    1.40
   0   6  -8    3.33    0.53
   0   6  -8    3.71    0.68
  -1   6  -8    3.76    0.69
  -1   6  -8    3.82    0.55
  -2   6  -8    1.35    0.61
  -2   6  -8    1.19    0.45
  -3   6  -8   17.10    1.20
  -3   6  -8   16.58    1.14
  -4   6  -8   -0.05    0.46
  -4   6  -8    0.87    0.46
  -5   6  -8   26.72    1.60
  -5   6  -8   29.06    1.84
  -6   6  -8    0.40    0.48
  -7   6  -8   -0.03    0.69
  -9  -5   8    0.03    0.52
   8   5  -8    4.89    0.88
   8   5  -8    4.38    0.88
  -8  -5   8    5.01    0.84
   7   5  -8   12.12    1.16
   7   5  -8   10.60    0.99
  -7  -5   8   11.49    1.08
   6   5  -8    0.42    0.58
   6   5  -8    0.37    0.46
  -6  -5   8   -0.41    0.53
   5   5  -8    8.43    0.93
   5   5  -8    7.71    0.80
  -5  -5   8    8.04    0.81
   4   5  -8   13.50    1.02
   4   5  -8   14.65    1.04
  -4  -5   8   12.32    0.98
   3   5  -8    0.45    0.38
   3   5  -8    0.37    0.54
  -3  -5   8    0.41    0.40
   2   5  -8   45.44    2.28
   2   5  -8   43.24    2.21
  -2  -5   8   44.22    2.20
   1   5  -8    4.85    0.71
   1   5  -8    6.69    0.61
  -1  -5   8    6.10    0.55
   0   5  -8   11.04    0.84
   0   5  -8   11.11    0.88
  -1   5  -8   27.55    1.47
  -1   5  -8   27.76    1.65
  -2   5  -8   12.51    0.87
  -2   5  -8   12.98    0.97
  -3   5  -8    5.15    0.76
  -3   5  -8    4.08    0.52
  -4   5  -8   20.65    1.24
  -4   5  -8   21.69    1.49
  -5   5  -8    0.52    0.42
  -7   5  -8   13.10    1.04
 -10  -4   8    0.50    0.76
   9   4  -8    1.70    0.63
   9   4  -8    3.06    0.82
  -9  -4   8    3.69    0.82
   8   4  -8   23.41    1.53
   8   4  -8   22.52    1.52
  -8  -4   8   22.28    1.57
   7   4  -8    1.18    0.54
   7   4  -8    1.60    0.65
  -7  -4   8    0.14    0.56
   6   4  -8   36.44    2.06
   6   4  -8   35.52    2.00
  -6  -4   8   33.66    1.98
   5   4  -8    3.93    0.60
   5   4  -8    3.00    0.68
  -5  -4   8    3.30    0.59
   4   4  -8   14.23    1.05
   4   4  -8   14.36    1.12
  -4  -4   8   13.18    1.01
   3   4  -8    2.39    0.58
   3   4  -8    2.76    0.50
  -3  -4   8    1.98    0.44
   2   4  -8   28.71    1.58
   2   4  -8   30.26    1.66
  -2  -4   8   32.05    1.58
   1   4  -8    6.54    0.67
   1   4  -8    6.43    0.58
  -1  -4   8    5.97    0.53
   0   4  -8   63.30    3.11
   0   4  -8   63.26    2.96
  -1   4  -8   -0.27    0.46
  -1   4  -8    0.67    0.31
  -2   4  -8   24.18    1.29
  -2   4  -8   24.87    1.51
  -3   4  -8    0.53    0.55
  -3   4  -8    1.81    0.55
  -3   4  -8    1.88    0.37
  -4   4  -8   -0.09    0.33
  -4   4  -8    0.26    0.61
  -5   4  -8    2.57    0.83
  -5   4  -8    2.37    0.43
  -6   4  -8   12.06    1.24
  -6   4  -8   11.92    0.89
  -7   4  -8    0.53    0.78
  -7   4  -8    0.15    0.42
  -8   4  -8   11.51    1.19
  -8   4  -8   14.90    1.46
 -10  -3   8    0.72    0.73
   9   3  -8   15.89    1.41
   9   3  -8   17.56    1.31
  -9  -3   8   14.19    1.30
   8   3  -8    0.25    0.64
   8   3  -8   -0.54    0.55
  -8  -3   8    0.40    0.62
   7   3  -8   55.18    2.73
   7   3  -8   49.35    2.66
  -7  -3   8   49.49    2.68
   6   3  -8    0.68    0.59
   6   3  -8    1.36    0.54
  -6  -3   8    0.89    0.52
   5   3  -8   16.37    1.18
   5   3  -8   18.51    1.17
  -5  -3   8   16.67    1.15
   4   3  -8    1.15    0.51
   4   3  -8    1.32    0.44
  -4  -3   8    1.32    0.41
   3   3  -8    6.32    0.58
   3   3  -8    4.89    0.66
  -3  -3   8    4.23    0.54
   2   3  -8    0.70    0.36
   2   3  -8    0.68    0.32
  -2  -3   8    1.21    0.32
   1   3  -8   37.27    1.96
   1   3  -8   38.48    1.86
  -1  -3   8   38.15    1.83
   0   3  -8    8.14    0.58
   0   3  -8    6.23    0.73
  -1   3  -8   35.19    1.86
  -1   3  -8   34.88    1.79
  -1   3  -8   36.05    1.71
  -2   3  -8    0.44    0.43
  -2   3  -8   -0.19    0.24
  -2   3  -8    0.49    0.37
  -3   3  -8    0.71    0.28
  -3   3  -8    0.23    0.51
  -4   3  -8    0.16    0.60
  -4   3  -8   -0.06    0.27
  -5   3  -8   21.68    1.21
  -5   3  -8   23.46    1.60
  -6   3  -8    2.14    0.77
  -6   3  -8    1.07    0.38
  -7   3  -8   36.37    2.04
  -7   3  -8   33.49    2.25
  -8   3  -8    1.14    0.88
 -11  -2   8    5.47    0.95
  10   2  -8    7.65    1.04
  10   2  -8    6.98    0.99
 -10  -2   8    5.60    0.93
   9   2  -8    5.58    0.87
   9   2  -8    5.94    0.92
  -9  -2   8    4.22    0.79
   8   2  -8   25.40    1.75
   8   2  -8   28.48    1.79
  -8  -2   8   28.25    1.71
   7   2  -8    5.65    0.78
   7   2  -8    4.59    0.77
  -7  -2   8    3.32    0.66
   6   2  -8    5.92    0.76
   6   2  -8    8.56    0.79
  -6  -2   8    6.64    0.75
   5   2  -8    9.33    0.92
   5   2  -8   10.40    0.92
  -5  -2   8   10.75    0.87
   4   2  -8    7.20    0.75
   4   2  -8    7.86    0.72
  -4  -2   8    6.90    0.66
   3   2  -8    9.87    0.71
   3   2  -8    7.43    0.69
  -3  -2   8    7.25    0.69
   2   2  -8   48.14    2.23
   2   2  -8   46.32    2.34
  -2  -2   8   44.45    2.21
   1   2  -8    1.71    0.31
   1   2  -8    1.63    0.27
   1   2  -8    1.70    0.49
   0   2  -8   23.62    1.20
   0   2  -8   25.24    1.42
   0   2  -8   23.86    1.27
   0  -2   8   23.97    1.20
  -1   2  -8   18.07    0.96
  -1   2  -8   21.01    1.14
  -1   2  -8   18.47    1.21
  -2   2  -8    1.97    0.53
  -2   2  -8    3.17    0.53
  -2   2  -8    2.36    0.26
  -3   2  -8   25.01    1.24
  -3   2  -8   26.68    1.53
  -4   2  -8   15.76    0.86
  -4   2  -8   16.35    1.23
  -5   2  -8    0.57    0.61
  -5   2  -8    0.47    0.27
  -6   2  -8   24.04    1.72
  -7   2  -8    3.80    0.90
  -8   2  -8    4.52    1.11
  10   1  -8    7.87    1.02
  10   1  -8    6.47    0.87
 -10  -1   8    4.79    0.86
   9   1  -8    6.77    0.94
   9   1  -8    7.20    0.97
  -9  -1   8    5.37    0.84
   8   1  -8    0.73    0.64
   8   1  -8    0.82    0.61
  -8  -1   8    0.83    0.56
   7   1  -8    6.11    0.79
   7   1  -8    6.48    0.82
  -7  -1   8    6.96    0.76
   6   1  -8   47.15    2.45
   6   1  -8   46.11    2.46
  -6  -1   8   48.02    2.42
   5   1  -8    4.11    0.62
   5   1  -8    3.69    0.62
  -5  -1   8    3.53    0.56
   4   1  -8   52.16    2.42
   4   1  -8   44.00    2.41
  -4  -1   8   49.04    2.38
   3   1  -8   15.62    0.97
   3   1  -8   14.98    0.97
  -3  -1   8   15.97    0.94
   2   1  -8    5.10    0.49
   2   1  -8    5.35    0.61
   1   1  -8   31.60    1.63
   1   1  -8   30.68    1.52
   0   1  -8   80.90    3.82
   0   1  -8   89.70    3.93
   0   1  -8   85.78    4.00
  -1   1  -8    3.82    0.50
  -1   1  -8    3.39    0.49
  -1   1  -8    4.14    0.31
  -2   1  -8   36.65    1.89
  -2   1  -8   35.47    1.62
  -3   1  -8    7.00    0.77
  -3   1  -8    7.44    0.41
  -4   1  -8    7.20    0.83
  -5   1  -8    7.55    0.94
  -6   1  -8    1.54    0.70
  -7   1  -8    2.65    0.84
  10   0  -8    1.29    0.71
  10   0  -8    0.90    0.74
   9   0  -8    1.51    0.68
   9   0  -8    0.69    0.62
   8   0  -8    1.06    0.65
   8   0  -8    1.19    0.62
   7   0  -8   25.16    1.58
   7   0  -8   26.90    1.67
  -7   0   8   25.67    1.58
   6   0  -8    0.94    0.55
   6   0  -8    0.06    0.47
  -6   0   8    0.15    0.45
   5   0  -8   50.47    2.56
   5   0  -8   51.84    2.58
   4   0  -8    0.42    0.40
   4   0  -8    0.38    0.40
   3   0  -8    8.18    0.75
   3   0  -8    9.36    0.76
   2   0  -8    0.28    0.31
   2   0  -8    0.77    0.39
  -2   0   8    0.87    0.20
   1   0  -8   59.76    2.79
   1   0  -8   61.46    2.90
   0   0  -8    2.08    0.45
   0   0  -8    2.04    0.23
   0   0  -8    2.12    0.20
  -1   0  -8   17.86    1.08
  -1   0  -8   17.44    1.11
  -2   0  -8   -0.31    0.38
  -3   0  -8   33.46    1.86
  -4   0  -8    0.30    0.54
  -5   0  -8    1.39    0.66
  -6   0  -8    0.87    0.72
  -7   0  -8    6.81    1.02
  10  -1  -8    0.46    0.68
 -10   1   8    0.81    0.60
   9  -1  -8    9.01    0.99
   9  -1  -8    8.07    0.92
  -9   1   8    6.94    0.87
   8  -1  -8    1.55    0.64
   8  -1  -8    2.18    0.62
  -8   1   8    2.25    0.59
   7  -1  -8    5.00    0.75
   7  -1  -8    6.30    0.73
  -7   1   8    5.26    0.69
   6  -1  -8   29.57    1.67
   6  -1  -8   31.00    1.77
  -6   1   8   29.84    1.69
   5  -1  -8    2.61    0.57
   5  -1  -8    3.14    0.53
  -5   1   8    3.36    0.51
   4  -1  -8   11.71    0.84
   4  -1  -8   10.69    0.94
  -4   1   8   12.02    0.83
   3  -1  -8    5.87    0.56
   3  -1  -8    4.48    0.53
  -3   1   8    5.47    0.48
   2  -1  -8    0.27    0.34
   2  -1  -8    1.16    0.33
  -2   1   8    1.13    0.17
   1  -1  -8    9.99    0.75
   1  -1  -8   10.70    0.63
   0  -1  -8   45.89    2.23
   0  -1  -8   47.71    2.01
   0  -1  -8   42.90    2.01
  -1  -1  -8    0.50    0.42
  -2  -1  -8   83.07    3.96
  -3  -1  -8   12.00    1.05
  -3  -1  -8   16.26    1.13
  -4  -1  -8    0.06    0.54
  -5  -1  -8   13.98    1.28
  -6  -1  -8    7.50    0.92
  -7  -1  -8    0.35    0.74
  10  -2  -8   24.54    1.79
   9  -2  -8    0.40    0.67
   9  -2  -8    0.81    0.59
   8  -2  -8    3.26    0.63
   8  -2  -8    4.25    0.78
   8  -2  -8    2.43    0.72
  -8   2   8    1.86    0.59
   7  -2  -8   25.72    1.51
   7  -2  -8   26.61    1.67
  -7   2   8   25.36    1.55
   6  -2  -8    4.50    0.57
   6  -2  -8    3.79    0.67
  -6   2   8    3.00    0.54
   5  -2  -8    6.31    0.76
   5  -2  -8    7.23    0.68
  -5   2   8    6.95    0.66
   4  -2  -8   32.80    1.78
   4  -2  -8   35.20    1.89
  -4   2   8   40.94    2.12
   3  -2  -8    0.62    0.37
   3  -2  -8    0.38    0.31
   2  -2  -8   32.68    1.66
   2  -2  -8   33.67    1.64
   1  -2  -8   12.31    0.84
   1  -2  -8   12.65    0.68
   0  -2  -8    0.10    0.09
   0  -2  -8   -0.25    0.29
   0  -2  -8   -0.21    0.61
  -1  -2  -8    7.96    0.92
  -1  -2  -8    7.57    0.72
  -2  -2  -8    6.75    0.84
  -3  -2  -8    1.07    0.57
  -3  -2  -8    1.20    0.61
  -4  -2  -8   22.91    1.56
  -5  -2  -8    3.58    0.80
  -6  -2  -8   -0.40    0.68
   9  -3  -8    3.18    0.77
   9  -3  -8    2.42    0.69
   8  -3  -8    9.57    1.05
   8  -3  -8   11.02    1.10
   7  -3  -8    0.74    0.63
   7  -3  -8    0.16    0.64
   7  -3  -8    0.05    0.48
   6  -3  -8    0.37    0.58
   6  -3  -8    1.33    0.46
   6  -3  -8    0.29    0.65
   5  -3  -8   34.96    1.96
   5  -3  -8   35.39    2.16
   4  -3  -8    0.38    0.41
   4  -3  -8    0.97    0.36
   4  -3  -8    2.35    0.79
   3  -3  -8   25.15    1.74
   3  -3  -8   23.94    1.34
   2  -3  -8    0.93    0.73
   2  -3  -8    2.62    0.37
   2  -3  -8    2.76    0.39
   1  -3  -8   10.74    0.63
   1  -3  -8   11.08    1.17
   1  -3  -8   10.71    0.73
   0  -3  -8    1.43    0.18
   0  -3  -8    1.10    0.36
   0  -3  -8    1.39    0.70
  -1  -3  -8   13.63    1.23
  -1  -3  -8   15.01    0.94
  -2  -3  -8    0.34    0.56
  -3  -3  -8   35.75    2.05
  -4  -3  -8    2.78    0.74
  -5  -3  -8    7.49    0.90
  -6  -3  -8    2.12    0.83
   9  -4  -8    1.10    0.68
   9  -4  -8    0.86    0.65
   8  -4  -8    1.55    0.69
   8  -4  -8    1.10    0.67
   7  -4  -8    3.61    0.78
   7  -4  -8    5.10    0.88
   6  -4  -8   21.73    1.48
   6  -4  -8   23.12    1.68
   5  -4  -8   -0.30    0.48
   5  -4  -8    0.31    0.53
   4  -4  -8   33.71    1.79
   4  -4  -8   31.36    1.97
   3  -4  -8    4.04    0.91
   3  -4  -8    4.36    0.53
   2  -4  -8   15.73    0.91
   2  -4  -8   14.15    1.23
   1  -4  -8    5.36    0.48
   1  -4  -8    5.52    0.82
   0  -4  -8   10.48    1.15
   0  -4  -8   11.73    0.65
  -1  -4  -8    2.30    0.72
  -2  -4  -8   28.60    1.80
  -3  -4  -8   -0.65    0.54
  -4  -4  -8   15.68    1.25
  -5  -4  -8    2.11    0.82
   9  -5  -8    0.35    0.68
   8  -5  -8   11.67    1.18
   8  -5  -8   10.89    1.17
   7  -5  -8    6.00    0.97
   7  -5  -8    6.05    0.88
   6  -5  -8    1.94    0.66
   6  -5  -8    2.72    0.85
   5  -5  -8   24.73    1.82
   5  -5  -8   25.04    1.58
   4  -5  -8    2.27    0.51
   4  -5  -8    3.36    0.88
   3  -5  -8    4.24    0.56
   3  -5  -8    4.37    0.93
   2  -5  -8   15.80    1.45
   2  -5  -8   12.46    0.86
   1  -5  -8    2.42    0.36
   1  -5  -8    2.68    0.86
   0  -5  -8   29.31    1.96
   0  -5  -8   29.18    1.44
  -1  -5  -8    9.93    1.12
  -2  -5  -8   -0.17    0.65
  -3  -5  -8    2.63    0.72
  -4  -5  -8    6.88    1.02
   9  -6  -8   19.76    1.57
   8  -6  -8    0.04    0.58
   8  -6  -8    0.09    0.71
   7  -6  -8    4.81    1.00
   7  -6  -8    5.54    0.88
   6  -6  -8    0.54    0.64
   6  -6  -8    0.30    0.80
   5  -6  -8    0.47    0.61
   5  -6  -8    1.13    0.88
   4  -6  -8    1.89    0.91
   4  -6  -8    0.16    0.48
   3  -6  -8   19.09    1.50
   3  -6  -8   18.34    1.19
   2  -6  -8    1.43    0.90
   2  -6  -8    1.32    0.41
   1  -6  -8    6.69    1.08
   1  -6  -8    5.53    0.53
   0  -6  -8    2.02    0.87
   0  -6  -8    2.59    0.39
  -1  -6  -8    0.04    0.77
  -2  -6  -8   -0.79    0.66
  -3  -6  -8    3.94    0.86
   8  -7  -8    3.81    1.10
   7  -7  -8    0.36    0.64
   6  -7  -8    0.67    0.66
   6  -7  -8   -0.25    0.85
   5  -7  -8    0.74    0.59
   5  -7  -8    2.38    0.99
   4  -7  -8   11.45    1.39
   4  -7  -8   11.98    1.07
   3  -7  -8   -0.48    0.63
   3  -7  -8   -0.38    0.44
   2  -7  -8   11.85    1.42
   2  -7  -8   12.02    0.93
   1  -7  -8    0.77    0.89
   1  -7  -8    0.26    0.39
   0  -7  -8    2.29    0.44
   0  -7  -8    2.92    0.96
  -1  -7  -8    0.87    0.82
  -2  -7  -8   11.27    1.24
   5  -8  -8    1.61    0.68
   4  -8  -8    2.35    0.61
   4  -8  -8    2.97    1.05
   3  -8  -8    7.02    1.27
   3  -8  -8    9.34    0.85
   2  -8  -8    1.85    0.52
   2  -8  -8    1.44    0.99
   1  -8  -8    0.92    0.97
   1  -8  -8    1.92    0.49
   0  -8  -8    5.29    0.61
   0  -8  -8    6.77    1.18
  -1  -8  -8    4.96    1.09
   3   9  -9    5.14    0.78
   2   9  -9    5.98    0.91
   1   9  -9    4.17    0.74
   1   9  -9    3.97    0.83
   0   9  -9    2.96    0.77
   0   9  -9    2.24    0.71
  -1   9  -9    5.46    0.89
  -2   9  -9    8.71    1.06
   5   8  -9   18.83    1.73
   4   8  -9   -0.70    0.66
   4   8  -9   -0.33    0.56
   3   8  -9   14.99    1.32
   3   8  -9   12.89    1.19
   2   8  -9    0.42    0.52
   2   8  -9    0.94    0.67
   1   8  -9    1.59    0.67
   1   8  -9    1.81    0.58
   0   8  -9    2.36    0.62
   0   8  -9    2.86    0.62
  -1   8  -9   18.74    1.31
  -1   8  -9   19.44    1.47
  -2   8  -9    0.03    0.54
  -2   8  -9    0.61    0.53
  -3   8  -9   29.04    1.71
  -3   8  -9   25.96    1.82
   6   7  -9   12.48    1.26
   6   7  -9   14.29    1.27
   5   7  -9    1.82    0.74
   5   7  -9    1.15    0.65
   4   7  -9   27.18    1.68
   4   7  -9   26.76    1.79
   3   7  -9    0.75    0.54
   3   7  -9    0.31    0.62
   2   7  -9   -0.44    0.47
   2   7  -9    0.09    0.59
   1   7  -9    2.14    0.56
   1   7  -9    1.99    0.54
   0   7  -9   23.21    1.54
   0   7  -9   21.41    1.40
  -1   7  -9    1.39    0.68
  -1   7  -9    0.20    0.45
  -2   7  -9   20.41    1.38
  -2   7  -9   20.24    1.29
  -3   7  -9   -0.86    0.46
  -3   7  -9    0.02    0.48
  -4   7  -9    3.01    0.62
  -4   7  -9    3.60    0.71
  -5   7  -9    2.99    0.62
   7   6  -9    6.25    0.92
   7   6  -9    5.35    0.95
   6   6  -9    2.25    0.66
   6   6  -9    2.25    0.79
   5   6  -9    9.96    1.08
   5   6  -9    8.62    0.93
   4   6  -9   20.24    1.34
   4   6  -9   18.06    1.44
   3   6  -9    2.34    0.54
   3   6  -9    1.55    0.53
   2   6  -9   25.97    1.51
   2   6  -9   25.41    1.55
   1   6  -9    7.16    0.87
   1   6  -9    6.84    0.68
   0   6  -9    0.04    0.57
   0   6  -9    0.87    0.43
  -1   6  -9   15.18    1.03
  -1   6  -9   15.73    1.13
  -2   6  -9    6.24    0.87
  -2   6  -9    5.76    0.62
  -3   6  -9    6.05    0.89
  -3   6  -9    5.84    0.66
  -4   6  -9    8.06    0.75
  -4   6  -9    8.25    1.02
  -5   6  -9    0.83    0.74
  -5   6  -9   -0.53    0.45
  -6   6  -9    8.26    0.78
   8   5  -9    0.60    0.57
   8   5  -9    0.30    0.64
   7   5  -9    0.22    0.65
   7   5  -9    0.31    0.52
  -7  -5   9    1.40    1.06
   6   5  -9    3.54    0.72
   6   5  -9    4.11    0.71
   5   5  -9   19.84    1.32
   5   5  -9   17.99    1.30
   4   5  -9    2.93    0.71
   4   5  -9    3.48    0.61
   3   5  -9   41.63    2.11
   3   5  -9   38.96    2.15
   2   5  -9    0.09    0.39
   2   5  -9    0.39    0.41
   1   5  -9   31.79    1.77
   1   5  -9   27.51    1.56
   0   5  -9    0.86    0.59
   0   5  -9    1.31    0.39
  -1   5  -9    2.77    0.68
  -1   5  -9    3.43    0.49
  -2   5  -9    1.78    0.53
  -2   5  -9    2.52    0.45
  -3   5  -9   18.86    1.42
  -3   5  -9   18.78    1.13
  -4   5  -9    2.86    0.75
  -4   5  -9    2.34    0.46
  -5   5  -9   24.33    1.71
  -6   5  -9    3.67    0.56
   8   4  -9    2.14    0.65
   8   4  -9    2.89    0.79
   7   4  -9    0.91    0.63
   7   4  -9    0.52    0.52
  -7  -4   9    0.00    0.54
   6   4  -9    7.81    0.94
   6   4  -9    6.55    0.83
  -6  -4   9    6.12    0.78
   5   4  -9    2.67    0.57
   5   4  -9    1.20    0.65
  -5  -4   9    1.62    0.51
   4   4  -9   48.17    2.42
   4   4  -9   44.34    2.35
   3   4  -9    1.50    0.59
   3   4  -9    1.53    0.45
   2   4  -9   19.87    1.26
   2   4  -9   19.98    1.20
   1   4  -9    3.00    0.44
   1   4  -9    2.94    0.61
   0   4  -9   -0.24    0.31
   0   4  -9    0.78    0.52
  -1   4  -9    3.38    0.67
  -1   4  -9    4.02    0.45
  -2   4  -9   26.71    1.63
  -2   4  -9   25.25    1.34
  -3   4  -9    2.04    0.38
  -3   4  -9    2.18    0.66
  -4   4  -9   34.01    2.03
  -5   4  -9    1.46    0.40
   9   3  -9    1.35    0.76
   9   3  -9    2.77    0.69
   8   3  -9   10.20    1.08
   8   3  -9    9.06    0.98
  -8  -3   9    8.70    1.43
   7   3  -9    0.33    0.49
   7   3  -9    1.25    0.65
  -7  -3   9   -0.02    0.58
   6   3  -9    7.11    0.90
   6   3  -9    7.12    0.83
  -6  -3   9    5.91    0.81
   5   3  -9   33.91    1.94
   5   3  -9   33.38    1.87
   4   3  -9    0.40    0.53
   4   3  -9    1.19    0.48
   3   3  -9   20.00    1.23
   3   3  -9   22.81    1.32
   2   3  -9   21.75    1.24
   2   3  -9   21.85    1.39
   1   3  -9    6.95    0.62
   1   3  -9    6.86    0.77
   0   3  -9   26.56    1.40
   0   3  -9   28.83    1.62
  -1   3  -9   13.13    0.99
  -1   3  -9   14.26    0.81
  -2   3  -9    0.52    0.56
  -2   3  -9    0.63    0.27
  -3   3  -9   21.28    1.31
  -3   3  -9   18.92    1.03
  -4   3  -9    1.49    0.32
  -5   3  -9    6.92    1.62
  -6   3  -9   19.68    1.65
   9   2  -9   21.51    1.63
   9   2  -9   22.29    1.68
   8   2  -9    0.55    0.67
   8   2  -9    0.47    0.63
   7   2  -9   22.88    1.63
   7   2  -9   26.17    1.63
   6   2  -9    2.47    0.63
   6   2  -9    3.09    0.58
  -6  -2   9    3.41    0.66
   5   2  -9    4.70    0.72
   5   2  -9    4.13    0.63
   4   2  -9    0.83    0.43
   4   2  -9    0.25    0.50
   3   2  -9   37.90    2.00
   3   2  -9   36.39    1.88
   2   2  -9   15.48    1.12
   2   2  -9   15.81    0.96
   1   2  -9   33.96    1.81
   1   2  -9   34.17    1.68
   0   2  -9    1.83    0.29
   0   2  -9    1.39    0.53
  -1   2  -9   20.79    1.04
  -1   2  -9   20.35    1.32
  -2   2  -9    3.86    0.60
  -2   2  -9    3.13    0.64
  -2   2  -9    4.23    0.37
  -3   2  -9    3.43    0.67
  -3   2  -9    3.85    0.60
  -4   2  -9    2.43    0.74
  -5   2  -9   19.72    1.50
  -6   2  -9    0.40    0.70
  -7   2  -9   10.22    1.22
  10   1  -9   12.25    1.24
   9   1  -9    0.26    0.66
   9   1  -9    0.10    0.65
   8   1  -9   33.72    1.98
   8   1  -9   29.12    1.90
   7   1  -9    0.97    0.64
   7   1  -9    1.43    0.51
   6   1  -9    6.90    0.83
   6   1  -9    6.97    0.82
   5   1  -9    0.33    0.49
   5   1  -9    0.75    0.47
   4   1  -9   10.34    0.96
   4   1  -9   12.89    0.89
   3   1  -9   -0.16    0.32
   3   1  -9    0.02    0.42
   2   1  -9   34.84    1.81
   2   1  -9   31.70    1.67
   1   1  -9   15.49    0.94
   1   1  -9   17.33    1.14
   1   1  -9   17.72    0.98
   0   1  -9   29.46    1.46
   0   1  -9   31.15    1.70
   0   1  -9   31.87    1.60
  -1   1  -9    0.27    0.39
  -1   1  -9   -0.18    0.14
  -1   1  -9   -0.54    0.45
  -2   1  -9    9.95    0.86
  -2   1  -9    9.11    0.88
  -3   1  -9   -0.03    0.48
  -4   1  -9   24.04    1.58
  -5   1  -9    0.46    0.63
  -7   1  -9    0.78    0.79
  10   0  -9    2.61    0.77
   9   0  -9   20.22    1.54
   9   0  -9   23.45    1.66
   8   0  -9    4.22    0.79
   8   0  -9    3.09    0.71
   7   0  -9    3.13    0.65
   7   0  -9    3.02    0.70
   6   0  -9    7.06    0.78
   6   0  -9    5.11    0.74
   5   0  -9   14.33    1.06
   5   0  -9   13.42    1.07
   4   0  -9    5.27    0.65
   4   0  -9    6.40    0.69
   3   0  -9   39.00    2.03
   3   0  -9   41.45    2.08
   2   0  -9    0.20    0.33
   2   0  -9    0.53    0.40
   1   0  -9   15.21    0.87
   1   0  -9   16.00    1.05
   0   0  -9   16.41    0.79
   0   0  -9   16.38    1.09
  -1   0  -9   -0.01    0.41
  -1   0  -9    0.07    0.37
  -2   0  -9   14.14    1.05
  -2   0  -9   14.08    1.05
  -3   0  -9    9.61    0.92
  -4   0  -9   -0.23    0.62
  -5   0  -9   30.02    1.97
  -6   0  -9    2.83    0.80
  10  -1  -9    6.00    0.87
   9  -1  -9    1.59    0.73
   9  -1  -9    2.06    0.66
   8  -1  -9    1.50    0.60
   8  -1  -9    1.79    0.71
   7  -1  -9   39.45    2.23
   7  -1  -9   45.55    2.35
   6  -1  -9    0.00    0.51
   6  -1  -9    1.16    0.50
   5  -1  -9   28.11    1.55
   5  -1  -9   26.06    1.61
   4  -1  -9   10.54    0.91
   4  -1  -9   11.26    0.87
   3  -1  -9    0.78    0.39
   3  -1  -9    0.32    0.38
   2  -1  -9   22.45    1.25
   2  -1  -9   25.60    1.36
   1  -1  -9   53.05    2.61
   1  -1  -9   53.13    2.43
   0  -1  -9    0.77    0.41
  -1  -1  -9   30.70    1.69
  -2  -1  -9   14.33    1.10
  -2  -1  -9   14.81    1.03
  -2  -1  -9   13.36    1.23
  -3  -1  -9    3.34    0.69
  -3  -1  -9    3.17    0.66
  -4  -1  -9    9.23    0.99
  -5  -1  -9    2.56    0.77
  -6  -1  -9   -0.10    0.72
  10  -2  -9    3.68    0.76
   9  -2  -9    2.39    0.76
   9  -2  -9    1.84    0.72
   9  -2  -9    1.37    0.61
   8  -2  -9   19.07    1.51
   8  -2  -9   17.09    1.36
   8  -2  -9   20.16    1.49
   7  -2  -9    0.12    0.47
   7  -2  -9    1.56    0.63
   6  -2  -9   18.67    1.15
   6  -2  -9   14.92    1.25
   5  -2  -9   -0.45    0.49
   5  -2  -9    0.38    0.41
   4  -2  -9    3.12    0.53
   4  -2  -9    4.13    0.59
   3  -2  -9    0.17    0.40
   3  -2  -9   -0.50    0.35
   2  -2  -9   40.75    2.02
   2  -2  -9   44.43    2.12
   1  -2  -9    0.23    0.39
   1  -2  -9    0.15    0.18
   0  -2  -9   31.81    1.68
   0  -2  -9   33.32    2.06
  -1  -2  -9    0.67    0.40
  -1  -2  -9   -0.10    0.65
  -2  -2  -9   11.56    1.17
  -2  -2  -9   12.74    0.99
  -3  -2  -9   -0.87    0.51
  -3  -2  -9    0.07    0.56
  -4  -2  -9    3.47    0.77
  -5  -2  -9    0.61    0.72
  10  -3  -9    2.95    0.77
   9  -3  -9    1.19    0.76
   9  -3  -9    2.34    0.77
   8  -3  -9    3.18    0.78
   8  -3  -9    3.42    0.85
   7  -3  -9   16.83    1.48
   7  -3  -9   15.49    1.33
   6  -3  -9    1.20    0.61
   6  -3  -9    2.09    0.65
   5  -3  -9    5.75    0.99
   5  -3  -9    3.16    0.64
   4  -3  -9    5.61    1.03
   4  -3  -9    6.75    0.69
   3  -3  -9   10.10    0.80
   3  -3  -9   11.23    1.12
   2  -3  -9   10.94    1.21
   2  -3  -9    8.00    0.64
   1  -3  -9   29.11    1.97
   1  -3  -9   28.48    1.36
   0  -3  -9    3.51    0.51
   0  -3  -9    2.81    0.84
  -1  -3  -9   27.71    1.76
  -1  -3  -9   22.26    1.70
  -2  -3  -9   16.45    1.36
  -3  -3  -9   -0.40    0.62
  -3  -3  -9   -0.58    0.59
  -4  -3  -9    4.76    0.87
  -5  -3  -9    9.54    1.04
  10  -4  -9    1.48    0.71
   9  -4  -9    0.78    0.73
   8  -4  -9    8.03    0.99
   8  -4  -9    8.49    1.12
   7  -4  -9    6.73    0.91
   7  -4  -9    7.46    1.07
   6  -4  -9    0.46    0.61
   6  -4  -9    0.95    0.80
   5  -4  -9   15.05    1.16
   5  -4  -9   16.30    1.36
   4  -4  -9    3.33    0.57
   4  -4  -9    2.36    0.73
   3  -4  -9    6.49    0.61
   3  -4  -9    7.58    1.12
   2  -4  -9    3.06    0.77
   2  -4  -9    3.51    0.42
   1  -4  -9    0.68    0.24
   1  -4  -9   -0.29    0.76
   0  -4  -9    4.47    0.80
  -1  -4  -9    3.17    0.84
  -2  -4  -9   -0.78    0.64
  -4  -4  -9    6.41    0.98
   9  -5  -9    1.88    0.83
   8  -5  -9    2.35    0.93
   8  -5  -9    1.22    0.83
   7  -5  -9    1.51    0.87
   7  -5  -9    0.44    0.64
   6  -5  -9    8.38    1.20
   6  -5  -9    7.95    0.94
   5  -5  -9    1.05    0.59
   5  -5  -9    1.24    0.69
   4  -5  -9   14.55    1.06
   4  -5  -9   13.18    1.36
   3  -5  -9    1.86    0.93
   3  -5  -9    2.44    0.47
   2  -5  -9    1.10    0.35
   2  -5  -9    1.40    0.68
   1  -5  -9    1.26    0.32
   1  -5  -9    1.22    0.67
   0  -5  -9   13.18    1.37
  -1  -5  -9    0.51    0.77
  -2  -5  -9   22.52    1.68
   7  -6  -9    9.92    1.29
   7  -6  -9    9.25    1.04
   6  -6  -9   -0.58    0.84
   6  -6  -9    0.22    0.64
   5  -6  -9   26.01    1.56
   5  -6  -9   19.69    1.67
   4  -6  -9    1.37    0.94
   4  -6  -9    0.90    0.52
   3  -6  -9    0.91    0.44
   3  -6  -9    0.81    0.96
   2  -6  -9    4.87    0.53
   2  -6  -9    5.42    1.12
   1  -6  -9    4.83    1.08
   0  -6  -9    1.51    0.91
  -1  -6  -9   13.19    1.40
  -2  -6  -9    0.43    0.76
   5  -7  -9    1.12    0.59
   5  -7  -9    1.94    0.90
   4  -7  -9    0.08    0.70
   4  -7  -9    0.19    0.48
   3  -7  -9    8.35    1.32
   3  -7  -9    6.80    0.71
   2  -7  -9    1.12    0.44
   2  -7  -9    0.44    0.74
   1  -7  -9    6.60    1.06
   0  -7  -9    8.96    1.29
  -1  -7  -9    2.24    0.95
  -2  -7  -9    0.49    0.83
   3  -8  -9    1.50    0.53
   2  -8  -9    0.65    0.46
   3   8 -10   11.30    1.77
   2   8 -10   -0.52    0.53
   2   8 -10   -0.47    0.67
   1   8 -10    7.20    1.00
   1   8 -10    8.56    0.87
   0   8 -10    0.00    0.66
   0   8 -10    0.55    0.57
  -1   8 -10   -0.37    0.68
  -1   8 -10   -0.03    0.51
   5   7 -10    1.71    0.89
   4   7 -10    7.24    0.88
   4   7 -10    8.93    1.07
   3   7 -10    2.73    0.63
   3   7 -10    2.08    0.62
   2   7 -10    5.78    0.79
   2   7 -10    4.82    0.69
   1   7 -10    2.39    0.77
   1   7 -10    3.11    0.59
   0   7 -10    8.94    1.07
   0   7 -10   11.12    1.00
  -1   7 -10   22.17    1.41
  -1   7 -10   22.45    1.62
  -2   7 -10   -0.17    0.51
  -2   7 -10   -0.13    0.47
  -3   7 -10   12.95    1.08
  -4   7 -10    1.90    0.64
   6   6 -10   28.28    1.80
   6   6 -10   28.95    1.80
   5   6 -10    0.32    0.53
   5   6 -10    0.48    0.58
   4   6 -10   10.03    0.92
   4   6 -10    7.92    0.91
   3   6 -10    0.85    0.52
   3   6 -10   -0.16    0.47
   2   6 -10    5.73    0.78
   2   6 -10    6.65    0.71
   1   6 -10    3.90    0.67
   1   6 -10    2.05    0.52
   0   6 -10   28.32    1.58
   0   6 -10   26.69    1.76
  -1   6 -10    0.07    0.43
  -1   6 -10    0.30    0.65
  -2   6 -10   23.12    1.34
  -2   6 -10   21.59    1.61
  -3   6 -10    1.59    0.48
  -3   6 -10    1.14    0.74
  -4   6 -10   -0.20    0.42
  -5   6 -10    2.79    0.55
   7   5 -10   15.99    1.49
   7   5 -10   18.17    1.45
   6   5 -10    2.19    0.77
   6   5 -10    1.35    0.65
   5   5 -10   19.07    1.33
   5   5 -10   16.80    1.45
   4   5 -10    0.42    0.49
   4   5 -10    0.66    0.65
   3   5 -10    1.54    0.53
   3   5 -10    0.73    0.48
   2   5 -10    0.69    0.48
   2   5 -10    0.87    0.48
   1   5 -10   28.84    1.59
   1   5 -10   28.56    1.69
   0   5 -10    0.01    0.38
   0   5 -10    0.66    0.47
  -1   5 -10   25.24    1.41
  -1   5 -10   26.87    1.70
  -2   5 -10    0.19    0.48
  -2   5 -10   -0.18    0.36
  -3   5 -10    2.79    0.65
  -3   5 -10    2.50    0.45
  -4   5 -10    0.60    0.41
  -4   5 -10    0.55    0.71
   7   4 -10    0.16    0.69
   7   4 -10    0.93    0.66
   6   4 -10    5.48    0.78
   6   4 -10    4.48    0.77
   5   4 -10   18.84    1.31
   5   4 -10   17.71    1.30
   4   4 -10    3.81    0.64
   4   4 -10    2.96    0.74
   3   4 -10   20.52    1.43
   3   4 -10   19.13    1.23
   2   4 -10   13.04    0.97
   2   4 -10   13.41    1.04
   1   4 -10    0.45    0.44
   1   4 -10    0.45    0.36
   0   4 -10   25.24    1.57
   0   4 -10   27.72    1.43
  -1   4 -10   10.66    0.76
  -1   4 -10    8.80    0.98
  -2   4 -10    2.86    0.41
  -2   4 -10    2.25    0.58
  -3   4 -10   12.31    1.04
  -3   4 -10   11.05    0.80
  -4   4 -10    2.56    0.64
   8   3 -10    0.65    0.69
   8   3 -10    0.54    0.70
   7   3 -10    5.03    0.88
   7   3 -10    5.32    0.83
   6   3 -10   15.58    1.24
   6   3 -10   19.24    1.35
   5   3 -10    3.57    0.63
   5   3 -10    3.71    0.75
   4   3 -10   44.49    2.45
   4   3 -10   46.59    2.34
   3   3 -10    3.90    0.61
   3   3 -10    3.60    0.54
   2   3 -10   18.75    1.15
   2   3 -10   20.46    1.38
   1   3 -10   -0.13    0.33
   1   3 -10    0.76    0.56
   0   3 -10   12.41    0.79
   0   3 -10   10.80    1.06
  -1   3 -10    0.88    0.29
  -1   3 -10    1.13    0.62
  -2   3 -10   26.38    1.58
  -2   3 -10   26.42    1.45
  -3   3 -10    0.68    0.65
  -4   3 -10   21.09    1.42
   9   2 -10    0.86    0.76
   8   2 -10    0.24    0.69
   8   2 -10   -0.13    0.65
   7   2 -10   15.43    1.31
   7   2 -10   12.69    1.18
   6   2 -10    1.07    0.66
   6   2 -10    0.73    0.58
   5   2 -10   49.28    2.53
   5   2 -10   47.17    2.49
   4   2 -10    1.32    0.47
   4   2 -10    1.35    0.59
   3   2 -10    6.76    0.67
   3   2 -10    8.01    0.83
   2   2 -10    7.00    0.81
   2   2 -10    7.55    0.69
   1   2 -10    2.53    0.38
   1   2 -10    2.60    0.62
   0   2 -10   -0.01    0.50
   0   2 -10   -0.04    0.24
  -1   2 -10   27.65    1.67
  -2   2 -10    1.30    0.48
  -3   2 -10   36.64    2.02
  -4   2 -10    0.93    0.65
   9   1 -10    6.89    0.99
   8   1 -10    2.76    0.74
   8   1 -10    2.38    0.73
   7   1 -10    2.57    0.71
   7   1 -10    2.65    0.73
   6   1 -10   25.00    1.62
   6   1 -10   26.72    1.65
   5   1 -10    1.26    0.51
   5   1 -10    1.59    0.59
   4   1 -10   14.57    1.15
   4   1 -10   15.62    1.10
   3   1 -10   23.08    1.41
   3   1 -10   21.61    1.31
   2   1 -10    1.60    0.40
   2   1 -10    2.09    0.55
   1   1 -10   20.80    1.12
   1   1 -10   20.29    1.33
   0   1 -10   14.56    1.09
  -1   1 -10    2.24    0.57
  -2   1 -10   18.70    1.32
  -3   1 -10    4.79    0.76
  -5   1 -10   23.67    1.82
   9   0 -10    0.65    0.65
   8   0 -10   10.87    1.07
   8   0 -10   11.89    1.10
   7   0 -10    2.74    0.67
   7   0 -10    2.51    0.69
   6   0 -10    1.69    0.60
   6   0 -10    2.14    0.61
   5   0 -10   -0.08    0.50
   5   0 -10   -0.20    0.50
   4   0 -10   27.67    1.59
   4   0 -10   28.16    1.62
   3   0 -10    1.91    0.46
   3   0 -10    2.38    0.54
   2   0 -10   29.52    1.68
   2   0 -10   30.51    1.56
   1   0 -10    1.11    0.28
   1   0 -10    1.17    0.49
   0   0 -10    4.68    0.63
  -1   0 -10    5.21    0.68
  -1   0 -10    6.00    0.71
  -2   0 -10   10.62    0.96
  -2   0 -10   10.50    0.96
  -3   0 -10    0.16    0.60
  -3   0 -10   -0.26    0.51
  -4   0 -10   14.15    1.37
  -5   0 -10    0.08    0.64
  -6   0 -10    3.80    0.90
  10  -1 -10   -0.41    0.60
  10  -1 -10    0.77    0.69
   9  -1 -10   17.75    1.48
   8  -1 -10    1.16    0.68
   8  -1 -10   -0.19    0.61
   7  -1 -10    0.85    0.54
   7  -1 -10    0.31    0.58
   6  -1 -10   -0.23    0.47
   6  -1 -10    0.28    0.52
   5  -1 -10   18.91    1.24
   5  -1 -10   17.66    1.23
   4  -1 -10    0.73    0.47
   4  -1 -10    0.56    0.46
   3  -1 -10   24.60    1.41
   3  -1 -10   26.21    1.46
   2  -1 -10    5.29    0.64
   2  -1 -10    5.63    0.49
   1  -1 -10    1.50    0.47
   0  -1 -10   -0.01    0.41
  -1  -1 -10    3.66    0.69
  -1  -1 -10    4.23    0.65
  -2  -1 -10   -0.55    0.49
  -2  -1 -10   -0.02    0.64
  -2  -1 -10   -0.32    0.46
  -3  -1 -10   23.59    1.53
  -3  -1 -10   26.97    1.65
  -4  -1 -10    0.80    0.66
  10  -2 -10    8.85    1.10
   9  -2 -10    2.87    0.83
   8  -2 -10    1.27    0.79
   8  -2 -10    1.94    0.70
   7  -2 -10    6.43    0.85
   6  -2 -10   13.82    1.12
   6  -2 -10   10.48    1.15
   5  -2 -10   -0.40    0.49
   5  -2 -10    0.09    0.43
   4  -2 -10   17.32    1.18
   4  -2 -10   18.18    1.13
   3  -2 -10    0.00    0.37
   3  -2 -10    0.05    0.44
   2  -2 -10    7.20    0.58
   2  -2 -10    7.57    0.71
   1  -2 -10    5.85    1.03
   1  -2 -10    6.11    0.67
   0  -2 -10    0.83    0.78
   0  -2 -10    0.51    0.47
  -1  -2 -10    7.46    0.74
  -1  -2 -10    9.11    1.09
  -2  -2 -10   19.87    1.44
  -2  -2 -10   21.26    1.55
  -3  -2 -10   -0.85    0.51
  -3  -2 -10   -0.72    0.56
  -4  -2 -10   11.24    1.16
  -5  -2 -10    2.63    0.83
   9  -3 -10    0.60    0.79
   8  -3 -10   18.87    1.56
   8  -3 -10   17.38    1.60
   7  -3 -10   -0.68    0.57
   7  -3 -10   -0.02    0.77
   6  -3 -10    8.73    0.97
   6  -3 -10   10.30    1.26
   5  -3 -10    7.24    0.99
   5  -3 -10    4.72    0.72
   4  -3 -10    0.24    0.43
   4  -3 -10    0.17    0.60
   3  -3 -10   16.49    1.05
   3  -3 -10   17.41    1.64
   2  -3 -10   38.37    2.41
   2  -3 -10   36.43    1.78
   1  -3 -10    0.98    0.87
   0  -3 -10   15.80    1.35
  -1  -3 -10   19.97    1.62
  -2  -3 -10    0.71    0.71
  -3  -3 -10    2.15    0.73
  -4  -3 -10    4.05    0.88
   8  -4 -10    2.88    0.95
   7  -4 -10   11.55    1.09
   7  -4 -10   10.57    1.30
   6  -4 -10   -0.50    0.84
   6  -4 -10   -0.10    0.60
   5  -4 -10   -0.86    0.59
   5  -4 -10   -0.38    0.51
   4  -4 -10    0.14    0.65
   4  -4 -10    0.75    0.45
   3  -4 -10   23.41    1.30
   3  -4 -10   23.43    1.93
   2  -4 -10    0.42    0.66
   1  -4 -10   17.63    1.48
   0  -4 -10   -0.96    0.75
  -1  -4 -10    5.43    0.99
  -2  -4 -10   -0.37    0.69
  -3  -4 -10    4.05    0.87
   7  -5 -10    2.66    1.12
   7  -5 -10    2.89    0.75
   6  -5 -10    0.59    0.90
   6  -5 -10    0.03    0.60
   5  -5 -10    1.45    0.77
   5  -5 -10    3.01    0.63
   4  -5 -10    3.12    0.55
   4  -5 -10    2.93    0.85
   3  -5 -10    2.96    0.48
   3  -5 -10    2.70    1.04
   2  -5 -10   25.30    2.00
   1  -5 -10   -0.20    0.64
   0  -5 -10    6.59    1.15
  -1  -5 -10    9.42    1.21
  -2  -5 -10    0.39    0.77
   6  -6 -10    4.94    0.93
   5  -6 -10    1.73    0.62
   4  -6 -10    1.93    0.84
   4  -6 -10    2.06    0.53
   3  -6 -10    6.83    0.63
   3  -6 -10    5.03    1.21
   2  -6 -10    1.76    0.81
   1  -6 -10   -0.62    0.66
   0  -6 -10    4.64    1.07
  -1  -6 -10    0.11    0.86
   4  -7 -10    0.60    0.52
   2   7 -11    0.87    0.59
   1   7 -11   12.80    1.40
   1   7 -11   15.06    1.19
   0   7 -11   -0.28    0.46
  -1   7 -11    0.12    0.48
  -2   7 -11    0.39    0.50
   4   6 -11   19.64    1.61
   4   6 -11   22.22    1.50
   3   6 -11    0.91    0.54
   3   6 -11   -0.21    0.49
   2   6 -11   11.69    1.00
   2   6 -11   11.20    1.06
   1   6 -11    0.89    0.70
   1   6 -11    0.33    0.49
   0   6 -11    0.15    0.49
   0   6 -11   -0.17    0.45
  -1   6 -11    0.70    0.45
  -1   6 -11    1.52    0.76
  -2   6 -11   18.96    1.21
  -3   6 -11   -0.65    0.43
   5   5 -11   16.88    1.28
   5   5 -11   14.06    1.24
   4   5 -11    0.78    0.52
   4   5 -11    1.52    0.56
   3   5 -11    3.85    0.70
   3   5 -11    4.31    0.63
   2   5 -11   10.80    0.98
   2   5 -11   11.08    1.11
   1   5 -11    5.12    0.62
   1   5 -11    5.36    0.88
   0   5 -11   23.31    1.38
   0   5 -11   25.18    1.56
  -1   5 -11    0.06    0.37
  -1   5 -11   -0.64    0.65
  -2   5 -11   14.10    1.30
   6   4 -11    1.06    0.73
   6   4 -11    0.84    0.63
   5   4 -11    1.06    0.55
   5   4 -11    1.15    0.75
   4   4 -11   -0.44    0.65
   4   4 -11   -0.14    0.50
   3   4 -11    8.95    1.03
   3   4 -11    9.94    0.86
   2   4 -11    3.15    0.53
   2   4 -11    4.86    0.81
   1   4 -11   23.02    1.62
   1   4 -11   25.33    1.39
   0   4 -11    0.11    0.47
   0   4 -11    0.38    0.36
  -1   4 -11   16.12    1.34
  -2   4 -11   -0.37    0.64
  -3   4 -11   -0.57    0.66
   7   3 -11    1.33    0.68
   7   3 -11   -0.36    0.69
   6   3 -11    6.79    0.89
   6   3 -11    6.35    0.94
   5   3 -11    1.38    0.68
   5   3 -11   -0.13    0.50
   4   3 -11    1.27    0.69
   4   3 -11    1.46    0.54
   3   3 -11    0.52    0.61
   3   3 -11    0.28    0.44
   2   3 -11   41.31    2.12
   2   3 -11   43.46    2.27
   1   3 -11   -0.04    0.33
   1   3 -11   -0.62    0.40
   0   3 -11   19.58    1.12
   0   3 -11   23.45    1.50
  -1   3 -11    1.86    0.67
  -2   3 -11    0.42    0.65
  -3   3 -11    1.52    0.73
   8   2 -11    0.59    0.69
   7   2 -11    2.85    0.64
   7   2 -11    5.09    0.79
   6   2 -11   20.85    1.47
   6   2 -11   18.58    1.36
   5   2 -11    1.01    0.54
   5   2 -11    1.31    0.66
   4   2 -11    8.58    0.84
   4   2 -11   10.02    0.99
   3   2 -11   13.63    1.04
   3   2 -11   13.27    1.00
   2   2 -11    1.53    0.41
   2   2 -11    0.22    0.56
   1   2 -11   18.97    1.35
   0   2 -11   18.45    1.34
  -1   2 -11    0.99    0.49
  -2   2 -11    1.87    0.69
  -3   2 -11    2.96    0.76
  -4   2 -11    6.22    0.94
   8   1 -11    4.39    0.85
   7   1 -11   17.64    1.42
   7   1 -11   15.90    1.38
   6   1 -11    0.16    0.63
   6   1 -11   -0.02    0.55
   5   1 -11   28.62    1.70
   5   1 -11   28.29    1.75
   4   1 -11    2.64    0.66
   4   1 -11    2.43    0.54
   3   1 -11    6.44    0.65
   3   1 -11    6.73    0.81
   2   1 -11    2.75    0.44
   2   1 -11    1.55    0.58
   1   1 -11   15.24    1.18
   0   1 -11    0.06    0.55
  -1   1 -11   18.33    1.33
  -2   1 -11    0.90    0.62
  -3   1 -11   19.23    1.44
  -4   1 -11    8.11    0.98
   9   0 -11    0.95    0.69
   8   0 -11    9.11    1.14
   8   0 -11   10.53    1.06
   7   0 -11    0.21    0.57
   7   0 -11    0.76    0.60
   6   0 -11   30.01    1.90
   6   0 -11   34.14    1.92
   5   0 -11    2.54    0.69
   5   0 -11    1.87    0.57
   4   0 -11    3.06    0.57
   4   0 -11    4.64    0.68
   3   0 -11    0.28    0.40
   3   0 -11    0.17    0.50
   2   0 -11    4.48    0.66
   2   0 -11    2.88    0.42
   1   0 -11    1.84    0.56
   0   0 -11   37.01    2.02
  -1   0 -11    0.94    0.56
  -2   0 -11   23.86    1.52
  -3   0 -11   -0.57    0.53
  -4   0 -11    2.32    0.70
   7  -1 -11   19.16    1.47
   7  -1 -11   19.41    1.36
   6  -1 -11    0.00    0.57
   6  -1 -11    0.82    0.55
   5  -1 -11    7.88    0.83
   5  -1 -11    6.93    0.78
   4  -1 -11   19.34    1.25
   4  -1 -11   19.94    1.30
   3  -1 -11    0.08    0.38
   3  -1 -11    0.84    0.50
   2  -1 -11   22.77    1.44
   1  -1 -11   15.00    1.08
   0  -1 -11    0.18    0.47
  -1  -1 -11    4.82    0.95
  -1  -1 -11    4.15    0.66
  -2  -1 -11    3.02    0.64
  -2  -1 -11    3.40    0.84
  -3  -1 -11    0.26    0.54
  -4  -1 -11   15.68    1.27
   8  -2 -11    1.43    0.68
   7  -2 -11   -0.06    0.57
   7  -2 -11    0.56    0.84
   6  -2 -11    0.31    0.58
   5  -2 -11   21.57    1.41
   4  -2 -11   -0.28    0.43
   2  -2 -11    0.93    0.90
   1  -2 -11   -1.00    0.75
   0  -2 -11    1.88    0.88
  -1  -2 -11    5.65    0.83
  -1  -2 -11    8.05    1.09
  -2  -2 -11   -0.35    0.67
  -2  -2 -11    2.38    0.81
  -3  -2 -11    9.10    1.04
  -4  -2 -11    1.35    0.73
   7  -3 -11    0.50    0.69
   7  -3 -11    2.26    0.65
   6  -3 -11   13.69    1.21
   6  -3 -11   14.51    1.51
   5  -3 -11    0.71    0.52
   5  -3 -11    1.12    0.94
   4  -3 -11   13.17    1.47
   4  -3 -11   10.87    0.95
   3  -3 -11    4.71    1.11
   2  -3 -11    0.84    0.94
   1  -3 -11   -0.35    0.86
   0  -3 -11    8.14    1.22
  -1  -3 -11    0.18    0.72
  -2  -3 -11   16.10    1.38
  -3  -3 -11   -0.31    0.67
   6  -4 -11    0.13    0.52
   5  -4 -11   13.65    1.50
   5  -4 -11    9.95    0.90
   4  -4 -11    0.40    0.94
   4  -4 -11    1.12    0.46
   3  -4 -11    0.78    0.93
   2  -4 -11    2.24    1.05
   1  -4 -11   -0.80    0.85
   0  -4 -11    3.68    1.01
  -1  -4 -11   13.16    1.38
   6  -5 -11    2.33    0.83
   5  -5 -11    0.77    0.55
   4  -5 -11    1.89    0.68
   2  -5 -11    1.89    1.15
   1  -5 -11    4.23    1.27
   0  -5 -11   13.18    1.65
   2   6 -12   -0.73    0.49
   0   6 -12    0.73    0.46
  -1   6 -12    0.19    0.45
   4   5 -12   30.07    1.77
   3   5 -12    0.39    0.83
   3   5 -12   -0.08    0.49
   2   5 -12    9.25    1.10
   2   5 -12    9.31    0.82
   1   5 -12    1.82    0.75
   1   5 -12    1.18    0.47
   0   5 -12    1.29    0.44
   5   4 -12   28.09    1.76
   5   4 -12   30.57    1.98
   4   4 -12    1.09    0.73
   4   4 -12    0.15    0.53
   3   4 -12    5.12    0.67
   3   4 -12    5.96    0.81
   2   4 -12    2.40    0.49
   2   4 -12    1.13    0.54
   1   4 -12    0.43    0.39
   1   4 -12   -0.59    0.65
   0   4 -12   -0.61    0.47
  -1   4 -12   15.65    1.38
   6   3 -12   14.80    1.41
   5   3 -12    1.21    0.73
   5   3 -12    0.91    0.58
   4   3 -12    3.40    0.80
   4   3 -12    3.68    0.66
   3   3 -12   13.73    1.04
   3   3 -12   14.84    1.30
   2   3 -12    3.90    0.78
   2   3 -12    4.35    0.55
   1   3 -12   15.25    1.16
   0   3 -12    2.52    0.74
  -1   3 -12   11.89    1.05
  -2   3 -12    4.92    0.77
   7   2 -12    1.18    0.75
   6   2 -12    1.07    0.58
   6   2 -12    0.19    0.68
   5   2 -12    1.34    0.71
   5   2 -12    1.98    0.55
   4   2 -12   14.77    1.11
   4   2 -12   15.27    1.32
   3   2 -12    0.92    0.64
   3   2 -12    1.68    0.48
   2   2 -12   21.60    1.52
   1   2 -12    0.83    0.62
   0   2 -12   10.74    0.97
  -1   2 -12   -1.17    0.57
  -2   2 -12    4.95    0.85
   7   1 -12    1.23    0.72
   6   1 -12    1.13    0.62
   6   1 -12    1.42    0.71
   5   1 -12    6.09    0.75
   5   1 -12    6.83    0.88
   4   1 -12    0.42    0.45
   4   1 -12   -0.17    0.45
   3   1 -12   31.06    1.71
   3   1 -12   33.05    1.89
   2   1 -12    2.91    0.67
   1   1 -12   10.41    1.00
   0   1 -12    1.58    0.63
  -1   1 -12    0.23    0.60
  -2   1 -12    1.26    0.65
   8   0 -12    0.74    0.68
   7   0 -12   14.13    1.64
   7   0 -12   13.09    1.24
   6   0 -12   -0.50    0.58
   6   0 -12    0.02    0.52
   5   0 -12    2.02    0.73
   5   0 -12    2.31    0.56
   4   0 -12    5.65    0.80
   4   0 -12    7.13    0.70
   3   0 -12    1.97    0.60
   2   0 -12   11.91    1.05
   1   0 -12    8.27    0.88
   0   0 -12    0.94    0.64
  -1   0 -12    3.99    0.71
  -2   0 -12    7.37    0.88
  -3   0 -12   -0.09    0.61
   6  -1 -12    9.54    0.90
   5  -1 -12    3.52    0.60
   4  -1 -12    2.29    0.51
   0  -1 -12   22.54    1.84
  -1  -1 -12    2.16    0.88
   6  -2 -12    1.80    0.61
   5  -2 -12    0.64    0.50
   5  -2 -12    2.08    1.10
   4  -2 -12    0.09    0.92
   3  -2 -12    6.77    1.21
   2  -2 -12    0.63    0.87
   1  -2 -12   22.09    1.70
   0  -2 -12    1.31    0.87
  -1  -2 -12    7.13    1.11
   6  -3 -12    0.61    0.58
   5  -3 -12    6.38    0.71
   3  -3 -12   12.67    1.75
   2  -3 -12    9.07    1.21
   1  -3 -12    0.76    0.72
   0  -3 -12    4.54    1.06
  -1  -3 -12    1.31    0.89
   3   4 -13    1.65    0.54
   4   3 -13    0.60    0.50
   3   3 -13    3.93    0.62
   2   3 -13    1.64    0.82
   5   2 -13    0.00    0.57
   5   2 -13    0.34    0.52
   4   2 -13    7.29    0.94
   4   2 -13    5.39    0.68
   3   2 -13    1.53    0.70
   2   2 -13    1.31    0.69
   1   2 -13   -0.45    0.61
   0   2 -13   13.61    1.38
   6   1 -13   -0.14    0.73
   5   1 -13    3.23    0.61
   5   1 -13    3.50    0.78
   4   1 -13   10.59    1.08
   3   1 -13    0.42    0.63
   2   1 -13   16.39    1.32
   1   1 -13    2.78    0.70
   0   1 -13    3.71    0.77
   5   0 -13   11.54    1.01
   2   0 -13    1.90    0.98
   1   0 -13    1.65    0.76
   0   0 -13    0.56    0.70
   0   0   0    0.00    0.00
;
_shelx_hkl_checksum              27381
_olex2_submission_special_instructions 'No special instructions were received'
loop_
_space_group_symop_operation_xyz
'x, y, z'
'-x, -y, -z'
loop_
_atom_site_label
_atom_site_type_symbol
_atom_site_fract_x
_atom_site_fract_y
_atom_site_fract_z
_atom_site_U_iso_or_equiv
_atom_site_adp_type
_atom_site_occupancy
_atom_site_site_symmetry_order
_atom_site_calc_flag
_atom_site_refinement_flags_posn
_atom_site_refinement_flags_adp
_atom_site_refinement_flags_occupancy
_atom_site_disorder_assembly
_atom_site_disorder_group
Br1 Br 1.07284(3) 0.46503(3) 0.17592(3) 0.02173(8) Uani 1 1 d . . . . .
Br2 Br 0.57209(3) 0.11872(3) 0.36307(3) 0.01591(7) Uani 1 1 d . . . . .
O1 O 1.3937(2) 0.3699(2) 0.5900(2) 0.0197(4) Uani 1 1 d . . . . .
H1 H 1.382(4) 0.437(4) 0.647(3) 0.029 Uiso 1 1 d R . . . .
O2 O 0.7641(2) 0.0234(2) 0.66109(19) 0.0196(4) Uani 1 1 d . . . . .
O3 O 1.0269(2) 0.1123(2) 0.73270(18) 0.0172(4) Uani 1 1 d . . . . .
O4 O 0.6482(2) 0.4409(2) 0.17627(19) 0.0210(4) Uani 1 1 d . . . . .
N1 N 0.6997(3) 0.2310(2) 0.0368(2) 0.0171(4) Uani 1 1 d . . . . .
C1 C 1.1492(3) 0.2056(3) 0.6820(3) 0.0155(5) Uani 1 1 d . . . . .
H1A H 1.2372 0.1435 0.6685 0.019 Uiso 1 1 calc R . . . .
H1B H 1.1950 0.3016 0.7515 0.019 Uiso 1 1 calc R . . . .
C2 C 1.0627(3) 0.2488(3) 0.5398(3) 0.0132(5) Uani 1 1 d . . . . .
C3 C 0.9023(3) 0.1856(3) 0.5165(3) 0.0125(5) Uani 1 1 d . . . . .
C4 C 0.7902(3) 0.2053(3) 0.3933(3) 0.0132(5) Uani 1 1 d . . . . .
C5 C 0.8417(3) 0.2899(3) 0.2914(3) 0.0138(5) Uani 1 1 d . . . . .
C6 C 0.7215(3) 0.3254(3) 0.1616(3) 0.0158(5) Uani 1 1 d . . . . .
C7 C 0.5841(3) 0.2635(3) -0.0885(3) 0.0245(6) Uani 1 1 d . . . . .
H7A H 0.4839 0.1918 -0.1018 0.037 Uiso 1 1 calc GR . . . .
H7B H 0.6286 0.2477 -0.1749 0.037 Uiso 1 1 calc GR . . . .
H7C H 0.5621 0.3730 -0.0733 0.037 Uiso 1 1 calc GR . . . .
C8 C 1.2956(3) 0.4002(3) 0.4593(3) 0.0164(5) Uani 1 1 d . . . . .
H8A H 1.3364 0.3532 0.3770 0.020 Uiso 1 1 calc R . . . .
H8B H 1.3038 0.5158 0.4572 0.020 Uiso 1 1 calc R . . . .
C9 C 1.1199(3) 0.3344(3) 0.4405(3) 0.0143(5) Uani 1 1 d . . . . .
C10 C 1.0045(3) 0.3519(3) 0.3182(3) 0.0143(5) Uani 1 1 d . . . . .
C11 C 0.8810(3) 0.0973(3) 0.6386(3) 0.0159(5) Uani 1 1 d . . . . .
C12 C 0.7820(4) 0.0921(3) 0.0179(3) 0.0289(7) Uani 1 1 d . . . . .
H12A H 0.8497 0.0777 0.1110 0.043 Uiso 1 1 calc GR . . . .
H12B H 0.8495 0.1069 -0.0521 0.043 Uiso 1 1 calc GR . . . .
H12C H 0.7021 -0.0015 -0.0177 0.043 Uiso 1 1 calc GR . . . .
loop_
_atom_site_aniso_label
_atom_site_aniso_U_11
_atom_site_aniso_U_22
_atom_site_aniso_U_33
_atom_site_aniso_U_23
_atom_site_aniso_U_13
_atom_site_aniso_U_12
Br1 0.02153(15) 0.02870(15) 0.01560(14) 0.00951(11) 0.00459(11) -0.00139(11)
Br2 0.01115(12) 0.01897(13) 0.01630(13) 0.00161(10) 0.00137(10) 0.00015(9)
O1 0.0138(9) 0.0263(10) 0.0163(10) 0.0000(8) -0.0007(8) 0.0020(8)
O2 0.0174(10) 0.0249(10) 0.0161(9) 0.0050(8) 0.0034(8) -0.0018(8)
O3 0.0170(9) 0.0200(9) 0.0135(9) 0.0055(7) 0.0002(7) 0.0003(7)
O4 0.0241(10) 0.0203(9) 0.0163(9) 0.0007(8) -0.0024(8) 0.0081(8)
N1 0.0195(11) 0.0193(11) 0.0111(10) 0.0014(8) -0.0006(9) 0.0049(9)
C1 0.0140(12) 0.0168(12) 0.0137(12) 0.0023(10) -0.0004(10) 0.0002(9)
C2 0.0133(12) 0.0146(11) 0.0109(12) -0.0004(9) 0.0010(10) 0.0037(9)
C3 0.0121(12) 0.0142(11) 0.0110(12) 0.0028(9) 0.0015(9) 0.0023(9)
C4 0.0100(11) 0.0140(11) 0.0143(12) -0.0008(9) 0.0016(10) 0.0004(9)
C5 0.0150(12) 0.0153(11) 0.0099(12) -0.0003(9) 0.0000(10) 0.0036(9)
C6 0.0160(13) 0.0161(12) 0.0140(13) 0.0038(10) 0.0002(10) 0.0003(9)
C7 0.0270(16) 0.0299(15) 0.0140(13) 0.0035(11) -0.0034(12) 0.0080(12)
C8 0.0127(12) 0.0201(12) 0.0153(13) 0.0020(10) 0.0018(10) 0.0003(10)
C9 0.0130(12) 0.0134(11) 0.0154(12) -0.0013(9) 0.0029(10) 0.0006(9)
C10 0.0173(13) 0.0147(12) 0.0115(12) 0.0034(10) 0.0043(10) 0.0016(10)
C11 0.0196(13) 0.0174(12) 0.0104(12) 0.0000(10) 0.0030(10) 0.0030(10)
C12 0.0416(19) 0.0277(15) 0.0170(14) -0.0011(12) 0.0011(13) 0.0178(13)
loop_
_atom_type_symbol
_atom_type_description
_atom_type_scat_dispersion_real
_atom_type_scat_dispersion_imag
_atom_type_scat_source
C C 0.0033 0.0016 'International Tables Vol C Tables 4.2.6.8 and 6.1.1.4'
H H 0.0000 0.0000 'International Tables Vol C Tables 4.2.6.8 and 6.1.1.4'
Br Br -0.2901 2.4595 'International Tables Vol C Tables 4.2.6.8 and 6.1.1.4'
N N 0.0061 0.0033 'International Tables Vol C Tables 4.2.6.8 and 6.1.1.4'
O O 0.0106 0.0060 'International Tables Vol C Tables 4.2.6.8 and 6.1.1.4'
loop_
_geom_angle_atom_site_label_1
_geom_angle_atom_site_label_2
_geom_angle_atom_site_label_3
_geom_angle
_geom_angle_site_symmetry_1
_geom_angle_site_symmetry_3
_geom_angle_publ_flag
C8 O1 H1 103(2) . . ?
C11 O3 C1 111.45(18) . . ?
C6 N1 C7 119.0(2) . . ?
C6 N1 C12 124.0(2) . . ?
C7 N1 C12 117.0(2) . . ?
O3 C1 H1A 110.8 . . ?
O3 C1 H1B 110.8 . . ?
O3 C1 C2 104.74(19) . . ?
H1A C1 H1B 108.9 . . ?
C2 C1 H1A 110.8 . . ?
C2 C1 H1B 110.8 . . ?
C3 C2 C1 107.7(2) . . ?
C3 C2 C9 121.7(2) . . ?
C9 C2 C1 130.6(2) . . ?
C2 C3 C4 121.6(2) . . ?
C2 C3 C11 108.7(2) . . ?
C4 C3 C11 129.7(2) . . ?
C3 C4 Br2 121.18(18) . . ?
C5 C4 Br2 120.15(18) . . ?
C5 C4 C3 118.7(2) . . ?
C4 C5 C6 120.4(2) . . ?
C4 C5 C10 118.2(2) . . ?
C10 C5 C6 121.2(2) . . ?
O4 C6 N1 123.1(2) . . ?
O4 C6 C5 118.5(2) . . ?
N1 C6 C5 118.5(2) . . ?
N1 C7 H7A 109.5 . . ?
N1 C7 H7B 109.5 . . ?
N1 C7 H7C 109.5 . . ?
H7A C7 H7B 109.5 . . ?
H7A C7 H7C 109.5 . . ?
H7B C7 H7C 109.5 . . ?
O1 C8 H8A 109.0 . . ?
O1 C8 H8B 109.0 . . ?
O1 C8 C9 113.0(2) . . ?
H8A C8 H8B 107.8 . . ?
C9 C8 H8A 109.0 . . ?
C9 C8 H8B 109.0 . . ?
C2 C9 C8 123.3(2) . . ?
C10 C9 C2 115.2(2) . . ?
C10 C9 C8 121.5(2) . . ?
C5 C10 Br1 117.44(18) . . ?
C9 C10 Br1 117.94(18) . . ?
C9 C10 C5 124.6(2) . . ?
O2 C11 O3 121.6(2) . . ?
O2 C11 C3 131.0(2) . . ?
O3 C11 C3 107.4(2) . . ?
N1 C12 H12A 109.5 . . ?
N1 C12 H12B 109.5 . . ?
N1 C12 H12C 109.5 . . ?
H12A C12 H12B 109.5 . . ?
H12A C12 H12C 109.5 . . ?
H12B C12 H12C 109.5 . . ?
loop_
_geom_bond_atom_site_label_1
_geom_bond_atom_site_label_2
_geom_bond_distance
_geom_bond_site_symmetry_2
_geom_bond_publ_flag
Br1 C10 1.903(2) . ?
Br2 C4 1.889(2) . ?
O1 H1 0.78(3) . ?
O1 C8 1.415(3) . ?
O2 C11 1.199(3) . ?
O3 C1 1.446(3) . ?
O3 C11 1.362(3) . ?
O4 C6 1.239(3) . ?
N1 C6 1.334(3) . ?
N1 C7 1.456(3) . ?
N1 C12 1.461(3) . ?
C1 H1A 0.9900 . ?
C1 H1B 0.9900 . ?
C1 C2 1.505(3) . ?
C2 C3 1.387(3) . ?
C2 C9 1.394(3) . ?
C3 C4 1.391(3) . ?
C3 C11 1.487(3) . ?
C4 C5 1.388(3) . ?
C5 C6 1.515(3) . ?
C5 C10 1.400(3) . ?
C7 H7A 0.9800 . ?
C7 H7B 0.9800 . ?
C7 H7C 0.9800 . ?
C8 H8A 0.9900 . ?
C8 H8B 0.9900 . ?
C8 C9 1.518(3) . ?
C9 C10 1.394(3) . ?
C12 H12A 0.9800 . ?
C12 H12B 0.9800 . ?
C12 H12C 0.9800 . ?
loop_
_geom_torsion_atom_site_label_1
_geom_torsion_atom_site_label_2
_geom_torsion_atom_site_label_3
_geom_torsion_atom_site_label_4
_geom_torsion
_geom_torsion_site_symmetry_1
_geom_torsion_site_symmetry_2
_geom_torsion_site_symmetry_3
_geom_torsion_site_symmetry_4
_geom_torsion_publ_flag
Br2 C4 C5 C6 5.2(3) . . . . ?
Br2 C4 C5 C10 -179.98(17) . . . . ?
O1 C8 C9 C2 -1.9(3) . . . . ?
O1 C8 C9 C10 -179.8(2) . . . . ?
O3 C1 C2 C3 1.2(3) . . . . ?
O3 C1 C2 C9 -178.3(2) . . . . ?
C1 O3 C11 O2 179.7(2) . . . . ?
C1 O3 C11 C3 -0.4(3) . . . . ?
C1 C2 C3 C4 179.9(2) . . . . ?
C1 C2 C3 C11 -1.5(3) . . . . ?
C1 C2 C9 C8 1.9(4) . . . . ?
C1 C2 C9 C10 179.9(2) . . . . ?
C2 C3 C4 Br2 -179.90(18) . . . . ?
C2 C3 C4 C5 0.4(4) . . . . ?
C2 C3 C11 O2 -178.9(3) . . . . ?
C2 C3 C11 O3 1.2(3) . . . . ?
C2 C9 C10 Br1 -179.26(17) . . . . ?
C2 C9 C10 C5 -0.3(4) . . . . ?
C3 C2 C9 C8 -177.6(2) . . . . ?
C3 C2 C9 C10 0.4(3) . . . . ?
C3 C4 C5 C6 -175.1(2) . . . . ?
C3 C4 C5 C10 -0.3(3) . . . . ?
C4 C3 C11 O2 -0.4(5) . . . . ?
C4 C3 C11 O3 179.6(2) . . . . ?
C4 C5 C6 O4 83.1(3) . . . . ?
C4 C5 C6 N1 -96.9(3) . . . . ?
C4 C5 C10 Br1 179.21(17) . . . . ?
C4 C5 C10 C9 0.3(4) . . . . ?
C6 C5 C10 Br1 -6.0(3) . . . . ?
C6 C5 C10 C9 175.1(2) . . . . ?
C7 N1 C6 O4 -0.3(4) . . . . ?
C7 N1 C6 C5 179.8(2) . . . . ?
C8 C9 C10 Br1 -1.2(3) . . . . ?
C8 C9 C10 C5 177.8(2) . . . . ?
C9 C2 C3 C4 -0.5(4) . . . . ?
C9 C2 C3 C11 178.1(2) . . . . ?
C10 C5 C6 O4 -91.5(3) . . . . ?
C10 C5 C6 N1 88.4(3) . . . . ?
C11 O3 C1 C2 -0.5(3) . . . . ?
C11 C3 C4 Br2 1.8(4) . . . . ?
C11 C3 C4 C5 -177.9(2) . . . . ?
C12 N1 C6 O4 -178.5(3) . . . . ?
C12 N1 C6 C5 1.6(4) . . . . ?
