#------------------------------------------------------------------------------
#$Date: 2021-02-05 00:42:03 +0200 (Fri, 05 Feb 2021) $
#$Revision: 261558 $
#$URL: file:///home/coder/svn-repositories/cod/cif/7/12/76/7127643.cif $
#------------------------------------------------------------------------------
#
# This file is available in the Crystallography Open Database (COD),
# http://www.crystallography.net/
#
# All data on this site have been placed in the public domain by the
# contributors.
#
data_7127643
loop_
_publ_author_name
'Li, Jun-Yi'
'Xu, Qiu-Ling'
'Ye, Si-Yu'
'Tong, Liang'
'Chen, Xiang'
'Chen, Li-Zhuang'
_publ_section_title
;
 A multiaxial molecular ferroelectric with record high
 <i>T</i><sub>C</sub> designed by intermolecular interaction modulation.
;
_journal_issue                   7
_journal_name_full
'Chemical communications (Cambridge, England)'
_journal_page_first              943
_journal_page_last               946
_journal_paper_doi               10.1039/d0cc07377f
_journal_volume                  57
_journal_year                    2021
_chemical_formula_sum            'C26 H34 Cu2 N2 O10 S2'
_chemical_formula_weight         725.75
_space_group_crystal_system      triclinic
_space_group_IT_number           2
_space_group_name_Hall           '-P 1'
_space_group_name_H-M_alt        'P -1'
_atom_sites_solution_hydrogens   mixed
_audit_block_doi                 10.5517/ccdc.csd.cc1qccfw
_audit_creation_method           SHELXL-2013
_audit_update_record
;
2017-12-07 deposited with the CCDC.	2020-12-17 downloaded from the CCDC.
;
_cell_angle_alpha                98.809(10)
_cell_angle_beta                 90.521(8)
_cell_angle_gamma                95.037(9)
_cell_formula_units_Z            1
_cell_length_a                   4.9010(5)
_cell_length_b                   9.8031(13)
_cell_length_c                   15.0217(15)
_cell_measurement_reflns_used    3125
_cell_measurement_temperature    293(2)
_cell_measurement_theta_max      70.02
_cell_measurement_theta_min      3.05
_cell_volume                     710.26(14)
_computing_structure_refinement  'SHELXL-2013 (Sheldrick, 2013)'
_diffrn_ambient_temperature      293(2)
_diffrn_measured_fraction_theta_full 0.790
_diffrn_measured_fraction_theta_max 0.964
_diffrn_measurement_device_type  'SuperNova (Cu) X-ray Source'
_diffrn_radiation_type           CuK\a
_diffrn_radiation_wavelength     1.54184
_diffrn_reflns_av_R_equivalents  0.0314
_diffrn_reflns_av_unetI/netI     0.0439
_diffrn_reflns_Laue_measured_fraction_full 0.790
_diffrn_reflns_Laue_measured_fraction_max 0.964
_diffrn_reflns_limit_h_max       5
_diffrn_reflns_limit_h_min       -4
_diffrn_reflns_limit_k_max       10
_diffrn_reflns_limit_k_min       -10
_diffrn_reflns_limit_l_max       16
_diffrn_reflns_limit_l_min       -14
_diffrn_reflns_number            3058
_diffrn_reflns_point_group_measured_fraction_full 0.790
_diffrn_reflns_point_group_measured_fraction_max 0.964
_diffrn_reflns_theta_full        67.684
_diffrn_reflns_theta_max         59.995
_diffrn_reflns_theta_min         2.978
_exptl_absorpt_coefficient_mu    3.749
_exptl_absorpt_correction_T_max  1.0000
_exptl_absorpt_correction_T_min  0.6806
_exptl_absorpt_correction_type   multi-scan
_exptl_absorpt_process_details
; 
CrysAlisPro 1.171.38.41r (Rigaku Oxford Diffraction, 2015)
Empirical absorption correction using spherical harmonics,
 implemented in SCALE3 ABSPACK scaling algorithm.
;
_exptl_crystal_colour            green
_exptl_crystal_density_diffrn    1.697
_exptl_crystal_description       prism
_exptl_crystal_F_000             374
_exptl_crystal_size_max          0.25
_exptl_crystal_size_mid          0.12
_exptl_crystal_size_min          0.11
_refine_diff_density_max         0.689
_refine_diff_density_min         -0.574
_refine_diff_density_rms         0.120
_refine_ls_extinction_method     none
_refine_ls_goodness_of_fit_ref   1.242
_refine_ls_hydrogen_treatment    mixed
_refine_ls_matrix_type           full
_refine_ls_number_parameters     200
_refine_ls_number_reflns         2028
_refine_ls_number_restraints     0
_refine_ls_restrained_S_all      1.242
_refine_ls_R_factor_all          0.0702
_refine_ls_R_factor_gt           0.0626
_refine_ls_shift/su_max          0.000
_refine_ls_shift/su_mean         0.000
_refine_ls_structure_factor_coef Fsqd
_refine_ls_weighting_details
'w=1/[\s^2^(Fo^2^)+(0.0241P)^2^+6.6068P] where P=(Fo^2^+2Fc^2^)/3'
_refine_ls_weighting_scheme      calc
_refine_ls_wR_factor_gt          0.1574
_refine_ls_wR_factor_ref         0.1600
_reflns_Friedel_coverage         0.000
_reflns_number_gt                1758
_reflns_number_total             2028
_reflns_threshold_expression     'I > 2\s(I)'
_cod_data_source_file            d0cc07377f2.cif
_cod_data_source_block           5RS
_cod_depositor_comments
'Adding full bibliography for 7127643--7127646.cif.'
_cod_database_code               7127643
_shelx_space_group_comment
;
The symmetry employed for this shelxl refinement is uniquely defined
by the following loop, which should always be used as a source of
symmetry information in preference to the above space-group names.
They are only intended as comments.
;
_oxdiff_exptl_absorpt_empirical_full_min 0.423
_oxdiff_exptl_absorpt_empirical_full_max 1.861
_oxdiff_exptl_absorpt_empirical_details
;
Empirical correction (ABSPACK) includes:
- Absorption correction using spherical harmonics
- Frame scaling
;
_shelxl_version_number           2013-4
_shelx_res_file
;
TITL
CELL  1.54184   4.9010   9.8031  15.0217   98.809   90.521   95.037
ZERR     1.00   0.0005   0.0013   0.0015    0.010    0.008    0.009
LATT   1
SFAC  C    H    N    O    CU   S
UNIT  26   34   2    10   2    2
MERG   2
OMIT    -3.00 120.00
FMAP   2
PLAN   20
ACTA
L.S.  20
WGHT    0.024100    6.606800
FVAR       6.95589
CU1   5    0.124914    0.164467    0.395024    11.00000    0.02138    0.02495 =
         0.01548    0.00721   -0.00003    0.00826
S1    6    0.146737   -0.182540    0.020805    11.00000    0.03282    0.03738 =
         0.02246    0.00446   -0.00964    0.00096
O4    4    0.406130    0.042617    0.414152    11.00000    0.02670    0.02700 =
         0.02034    0.00942    0.00135    0.01354
O10   4   -0.128786    0.291378    0.376747    11.00000    0.01942    0.02756 =
         0.02181    0.00772   -0.00042    0.00559
O2    4   -0.452017    0.490365    0.394284    11.00000    0.03092    0.02346 =
         0.02369    0.00683    0.00432    0.01189
O8    4    0.768779   -0.049660    0.349504    11.00000    0.01938    0.03155 =
         0.01963    0.00771   -0.00187    0.01072
O2W   4   -0.014772    0.160336    0.518728    11.00000    0.02873    0.02720 =
         0.01665    0.00823    0.00077    0.01487
N5    3    0.283291    0.162419    0.277974    11.00000    0.02253    0.02865 =
         0.01073    0.00398   -0.00326    0.00805
C13   1   -0.284874    0.483506    0.322158    11.00000    0.02567    0.01532 =
         0.02116    0.00134   -0.00574    0.00731
C6    1    0.064378    0.357975    0.240508    11.00000    0.01953    0.01701 =
         0.01870    0.00292   -0.00471    0.00383
C4    1    0.347781   -0.069549    0.195354    11.00000    0.02188    0.03178 =
         0.01904    0.00651   -0.00171    0.00507
AFIX  23
H2A1  2    0.464391   -0.144778    0.194137    11.00000   -1.20000
H2A2  2    0.172379   -0.098879    0.218971    11.00000   -1.20000
AFIX   0
C3AA  1   -0.112117    0.372952    0.314884    11.00000    0.01816    0.02574 =
         0.01787    0.00590   -0.00290   -0.00444
C14   1   -0.272655    0.576392    0.261699    11.00000    0.02832    0.01495 =
         0.02806    0.00430   -0.00355    0.00246
AFIX  43
H4AA  2   -0.382289    0.649902    0.269030    11.00000   -1.20000
AFIX   0
C5    1   -0.608024    0.606994    0.412803    11.00000    0.02402    0.02531 =
         0.03239    0.00346   -0.00090    0.00696
AFIX 137
H5A1  2   -0.486598    0.690476    0.422684    11.00000   -1.50000
H5A2  2   -0.713596    0.599966    0.465690    11.00000   -1.50000
H5A3  2   -0.729014    0.609139    0.362516    11.00000   -1.50000
AFIX   0
C16   1    0.069333    0.455758    0.178819    11.00000    0.02949    0.02407 =
         0.01770    0.00710   -0.00040    0.00164
AFIX  43
H6AA  2    0.188111    0.447129    0.130755    11.00000   -1.20000
AFIX   0
C9    1    0.389428   -0.308961    0.019723    11.00000    0.03297    0.04377 =
         0.02756   -0.00288   -0.00148   -0.00028
AFIX 137
H7A1  2    0.567487   -0.268777    0.006667    11.00000   -1.50000
H7A2  2    0.335577   -0.387023   -0.025666    11.00000   -1.50000
H7A3  2    0.395381   -0.338885    0.077587    11.00000   -1.50000
AFIX   0
C3    1    0.479642    0.058998    0.258167    11.00000    0.01633    0.02220 =
         0.02214    0.00772   -0.00128    0.00021
AFIX  13
H8AA  2    0.641990    0.098690    0.230363    11.00000   -1.20000
AFIX   0
C2    1    0.305761   -0.040208    0.100330    11.00000    0.04010    0.02695 =
         0.02103    0.00528   -0.00822    0.00036
AFIX  23
H9A1  2    0.482710   -0.011373    0.077564    11.00000   -1.20000
H9A2  2    0.194029    0.037150    0.102846    11.00000   -1.20000
AFIX   0
C15   1   -0.093893    0.559568    0.188949    11.00000    0.03261    0.01928 =
         0.02512    0.00962   -0.00510    0.00704
AFIX  43
H0BA  2   -0.088853    0.621048    0.147464    11.00000   -1.20000
AFIX   0
C1BA  1    0.560466    0.012813    0.347136    11.00000    0.01156    0.02643 =
         0.01706    0.00367   -0.00281   -0.00678
C21   1    0.255923    0.254811    0.227473    11.00000    0.01910    0.02503 =
         0.01563    0.00221   -0.00384   -0.00098
AFIX  43
H0    2    0.369869    0.254854    0.178306    11.00000   -1.20000
AFIX   0
H1W   2   -0.213342    0.113508    0.516376    11.00000    0.03124
H2W   2    0.052992    0.125481    0.547415    11.00000    0.04804
HKLF    4

REM
REM R1 =  0.0626 for    1758 Fo > 4sig(Fo)  and  0.0702 for all    2028 data
REM    200 parameters refined using      0 restraints

END

WGHT      0.0240      6.5916

REM Highest difference peak  0.689,  deepest hole -0.574,  1-sigma level  0.120
Q1    1   0.1301  0.2819  0.4127  11.00000  0.05    0.69
Q2    1   0.0945  0.0489  0.3807  11.00000  0.05    0.69
Q3    1   0.2633  0.2614  0.4138  11.00000  0.05    0.66
Q4    1   0.3177  0.1125  0.4169  11.00000  0.05    0.62
Q5    1   0.1229  0.1338  0.3127  11.00000  0.05    0.53
Q6    1  -0.0433  0.0982  0.3959  11.00000  0.05    0.53
Q7    1   0.1084  0.1857  0.4813  11.00000  0.05    0.52
Q8    1   0.3545 -0.0081  0.3263  11.00000  0.05    0.50
Q9    1   0.7261  0.0493  0.3605  11.00000  0.05    0.48
Q10   1  -0.0006  0.3607  0.3853  11.00000  0.05    0.47
Q11   1  -0.0578  0.2266  0.3725  11.00000  0.05    0.42
Q12   1   0.2447 -0.0989  0.0430  11.00000  0.05    0.42
Q13   1  -0.2080  0.0482  0.5578  11.00000  0.05    0.42
Q14   1   0.5461  0.1467  0.4525  11.00000  0.05    0.42
Q15   1   0.0137 -0.2628  0.0241  11.00000  0.05    0.41
Q16   1   0.0234 -0.1542 -0.0203  11.00000  0.05    0.41
Q17   1   0.0110  0.2704  0.5403  11.00000  0.05    0.40
Q18   1   0.3820  0.0457  0.4757  11.00000  0.05    0.40
Q19   1  -0.0372 -0.2615  0.0595  11.00000  0.05    0.40
Q20   1   0.3502 -0.0103  0.2595  11.00000  0.05    0.38
;
_shelx_res_checksum              24909
_shelx_hkl_file
;
   0   0  -1 209199. 1301.96  13
   0   0  -2 8576.42 436.347  13
   0   0  -3 238813. 2421.84  13
   0   0  -4 19990.0 860.961  13
   0   0  -5 438480. 4092.75  13
   0   0  -6 18151.5 1010.77  13
   0   0  -7 29.9461 507.432  13
   0   0   8 80861.1 3244.93   1
   0   0  -8 84287.4 2438.72  13
   0   0  -9 45916.8 1985.98  13
   0   0   9 46550.4 2695.17   1
   0   0  10 89824.7 3927.09   1
   0   0 -10 90782.3 2954.63  13
   0   0  11 4453.10 643.509   3
   0   0 -11 3569.38 832.902  13
   0   0  11 4515.90 1213.54   1
   0   0  12 8218.47 824.436   3
   0   0  13 414.046 612.368   3
   0   0  14 50119.3 1779.77   2
   0   0  14 47757.6 1543.71   3
   0   0  15 14666.7 1093.40   2
   0   0  15 11613.7 859.651   3
   0   0  16 6608.64 654.637   3
   0   0  16 7765.76 805.315   2
   0   0  17 284.635 380.375   3
   0   0  17 925.902 494.259   2
   0   0  18 6.34268 316.386   2
   0  -1  18 496.477 352.535   2
   0  -1  17 18989.3 954.400   2
   0  -1  16 8187.99 725.247   3
   0  -1  16 10043.2 968.843   2
   0  -1  15 11486.5 847.282   3
   0  -1  15 13969.7 1066.94   2
   0  -1  14 1610.51 722.472   3
   0  -1  14 2411.02 970.346   2
   0  -1  13 10558.1 1061.98   2
   0  -1  13 9497.91 878.151   3
   0  -1  12 69552.0 1750.19   3
   0  -1  11 1818.86 1088.02   1
   0  -1  11 1579.47 546.247   3
   0   1 -11 1382.58 711.180  13
   0  -1  10 7012.32 1274.17   1
   0   1 -10 6815.14 1001.42  13
   0  -1   9 29609.1 2164.08   1
   0   1  -9 30344.7 1683.78  13
   0   1  -8 81683.3 2493.01  13
   0  -1   8 80274.7 3203.49   1
   0   1  -7 351443. 4684.06  13
   0  -1   7 350616. 6036.93   1
   0   1  -6 2147.38 582.861  13
   0  -1   6 2138.60 820.416   1
   0   1  -5 18853.7 980.021  13
   0  -1   5 19022.6 1312.41   1
   0  -1   4 52407.2 1819.75   1
   0   1  -4 52087.7 1391.67  13
   0  -1   3 13679.5 1000.79   1
   0   1  -3 13158.3 702.054  13
   0  -1   2 57958.5 1312.19   1
   0   1  -2 56530.2 1056.57  13
   0  -1   1 73579.0 1164.71  14
   0  -1   1 74815.2 1258.44   1
   0  -1   0 76338.1 1159.31  14
   0  -1   0 75797.2 1181.15   1
   0  -1  -2 423789. 2819.51  13
   0  -1  -3 12446.4 710.746  13
   0  -1  -4 1856.49 417.606  13
   0  -1  -5 34406.5 1234.89  13
   0  -1  -6 43419.6 1507.83  13
   0  -1  -7 164446. 3088.17  13
   0  -1  -8 319.348 494.998  13
   0  -1  -9 24455.7 1473.56  13
   0   1  10 32072.8 2567.18   1
   0   1  10 34865.5 1222.95   3
   0  -1 -10 33347.7 1828.66  13
   0   1  11 277.804 535.265   3
   0  -1 -11-436.289 665.934  13
   0   1  11 232.083 880.027   1
   0   1  12 67010.9 1803.85   3
   0   1  13 1817.72 666.819   3
   0   1  14 1976.44 662.129   3
   0   1  15 37311.2 1450.18   2
   0   1  15 33519.4 1252.54   3
   0   1  16 18268.1 977.953   2
   0   1  16 17323.5 849.815   3
   0   1  17 18444.9 818.404   2
   0   1  17 16250.2 685.019   3
   0   1  18 467.905 283.842   2
   0  -2  18 496.441 382.949   2
   0  -2  17 11287.6 887.553   2
   0  -2  16 16991.0 1093.41   2
   0  -2  15 733.558 586.246   3
   0  -2  15 1290.14 843.982   2
   0  -2  14 12645.1 889.268   3
   0  -2  14 15008.0 1129.56   2
   0  -2  13 18853.7 1013.20   3
   0  -2  13 21072.8 1244.11   2
   0  -2  12 275.423 733.093   2
   0  -2  12 759.669 579.166   3
   0  -2  11 5557.18 629.505   3
   0  -2  11 5747.33 761.717   2
   0  -2  11 5047.49 1196.49   1
   0   2 -10 37811.8 2056.07  13
   0  -2  10 37329.9 1324.23   2
   0  -2  10 38968.6 2565.78   1
   0   2  -9 8544.83 1047.54  13
   0  -2   9 8660.30 1307.14   1
   0  -2   8 16170.0 1588.13   1
   0   2  -8 16645.2 1285.77  13
   0   2  -7 293960. 4551.86  13
   0  -2   7 293450. 5564.44   1
   0   2  -6 2416.25 652.375  13
   0  -2   6 2296.79 863.937   1
   0  -2   5 9929.96 1091.47   1
   0   2  -5 10477.9 831.863  13
   0  -2   4 220284. 3745.63   1
   0   2  -4 221171. 2960.70  13
   0   2  -3 1941.56 470.464  13
   0  -2   3 1972.10 666.500   1
   0  -2   2 443526. 4488.50   1
   0  -2   2 446093. 4108.02  14
   0  -2   1 353.187 576.781   1
   0  -2   1 1098.64 735.902  14
   0  -2   0 19844.1 1029.24   1
   0  -2   0 18944.4 1070.45  14
   0  -2  -1 61722.9 1708.90  14
   0  -2  -3 74065.4 1515.94  13
   0  -2  -4 3658.60 522.101  13
   0  -2  -5 48251.4 1484.27  13
   0  -2  -6 1819.70 544.569  13
   0  -2  -7 109006. 2552.63  13
   0  -2  -8 253372. 4221.58  13
   0  -2  -9 56284.9 1600.10  12
   0  -2  -9 55520.1 2180.24  13
   0   2  11 2348.45 635.914   3
   0  -2 -11 2463.55 1217.32  14
   0   2  12 43891.0 1516.19   3
   0  -2 -12 33831.9 2927.95  14
   0   2  13 25821.8 1217.46   3
   0   2  14 14601.9 981.152   3
   0   2  15 4727.36 663.600   3
   0   2  16 2398.70 556.335   2
   0   2  16 1991.14 481.984   3
   0   2  17 19770.8 681.770   3
   0   2  17 21812.2 796.439   2
   0  -3  18 4055.82 451.943   2
   0  -3  17 8509.99 728.410   2
   0  -3  16 10397.5 904.755   2
   0  -3  15 24961.0 1291.26   2
   0  -3  14 48544.0 1728.27   2
   0  -3  13 336.142 504.950   3
   0  -3  13 1110.84 703.983   2
   0  -3  12 781.781 529.504   3
   0  -3  12 777.975 653.442   2
   0  -3  11 6504.88 761.805   2
   0  -3  11 5691.69 617.403   3
   0  -3  11 6311.38 1336.43   1
   0  -3  10 41346.8 2726.76   1
   0  -3  10 37408.7 1347.11   2
   0  -3   9 109654. 4101.56   1
   0  -3   8 2530.92 995.036   1
   0  -3   7 9397.27 1305.18   1
   0  -3   6 10137.7 1277.33   1
   0  -3   5 35962.1 1936.08   1
   0  -3   4 8135.69 1005.76   1
   0  -3   3 343.355 594.503   1
   0  -3   2 52836.8 1816.59  14
   0  -3   2 56091.5 1995.40   1
   0  -3   1 654.995 582.612   1
   0  -3   1 281.520 696.376  14
   0  -3   0 88432.8 2274.36  14
   0  -3  -1 80990.9 2267.67  14
   0  -3  -2 28558.1 1074.34  13
   0  -3  -2 35459.8 1656.72  14
   0  -3  -3 2861.83 469.887  13
   0  -3  -5 104335. 2245.92  13
   0  -3  -6 4850.05 635.882  13
   0  -3  -7 25223.8 1326.10  13
   0  -3  -9 65392.6 3594.84  14
   0  -3  -9 59145.6 1718.40  12
   0  -3 -10 100488. 4647.54  14
   0  -3 -10 102083. 2324.96  12
   0  -3 -11 8357.69 1877.65  14
   0   3  11 6026.80 803.241   3
   0   3  12 4695.35 776.436   3
   0   3  13 23502.4 1172.26   3
   0   3  14 10316.5 839.870   3
   0   3  15 10247.8 746.103   3
   0   3  16 806.517 404.171   3
   0   3  16 1031.47 455.516   2
   0   3  17 616.736 287.506   2
   0  -4  18 1687.55 354.536   2
   0  -4  17 38653.0 1171.47   2
   0  -4  16 3776.22 677.990   2
   0  -4  15 503.032 679.575   2
   0  -4  14 13264.7 1072.60   2
   0  -4  13 386.560 677.812   2
   0  -4  12 16374.2 880.796   7
   0  -4  12 18689.0 1160.25   2
   0  -4  11 14.5531 590.617   2
   0  -4  11 212.173 461.419   7
   0  -4  10 405.996 566.018   2
   0  -4  10-445.319 956.654   1
   0  -4  10 185.533 421.497   7
   0  -4   9 103031. 2104.55   2
   0  -4   9 115522. 4363.09   1
   0  -4   8 7196.86 1283.28   1
   0  -4   7 2259.01 918.754   1
   0  -4   6 253.400 788.156   1
   0  -4   5 58307.0 2619.97   1
   0  -4   4 14898.3 1401.34   1
   0  -4   4 14882.5 1251.08  14
   0  -4   3 11579.1 1221.63   1
   0  -4   3 11517.4 1165.56  14
   0  -4   2 5281.40 941.865   1
   0  -4   2 5362.27 928.540  14
   0  -4   1-21.4293 715.351  14
   0  -4   0 7433.37 1032.82  14
   0  -4  -1 32413.2 1810.82  14
   0  -4  -2 23547.3 1683.78  14
   0  -4  -2 22034.3 1013.99  13
   0  -4  -3 30533.4 1953.14  14
   0  -4  -4 21157.0 1819.95  14
   0  -4  -5 50602.0 2829.65  14
   0  -4  -6 18716.6 1958.63  14
   0  -4  -7 38544.0 1186.62   8
   0  -4  -7 41157.3 1342.03  12
   0  -4  -8 337.473 530.070  12
   0  -4  -8 301.061 1038.06  14
   0   4   8 381.570 465.900  11
   0  -4  -9 3175.10 757.325  12
   0  -4  -9 2304.61 1329.16  14
   0  -4 -10 23487.6 1291.54  12
   0  -4 -10 20020.5 2456.07  14
   0   4  12 8123.55 892.846   3
   0   4  13 1773.27 654.281   3
   0   4  14 195.656 523.778   3
   0   4  15 10033.2 674.497   3
   0   4  16 518.952 336.316   2
   0   4  16 703.474 329.688   3
   0  -5  18 2243.74 312.616   2
   0  -5  17 15093.3 731.631   2
   0  -5  16 29508.0 1130.93   2
   0  -5  15 17713.4 1077.48   2
   0  -5  14 206.832 671.322   2
   0  -5  13 1596.66 731.807   2
   0  -5  13 1045.62 479.890   7
   0  -5  12 15281.6 1102.51   2
   0  -5  12 14079.5 852.979   7
   0  -5  11 10293.8 793.348   7
   0  -5  11 10972.2 953.324   2
   0  -5  10 21299.4 2192.12   1
   0  -5  10 21297.9 1024.62   7
   0  -5  10 23506.4 1195.12   2
   0  -5   9 10054.6 1591.15   1
   0  -5   9 9272.19 830.273   2
   0  -5   9 9608.13 741.283   7
   0  -5   8 329.515 536.758   2
   0  -5   8 157.400 409.638   7
   0  -5   8 287.761 821.203   1
   0  -5   7 99308.8 3952.06   1
   0  -5   6 12215.6 1510.59   1
   0  -5   5 19898.3 1779.91   1
   0  -5   4 823.843 785.273   1
   0  -5   4 842.728 780.399  14
   0  -5   3 1768.71 860.666   1
   0  -5   3 1433.58 799.411  14
   0  -5   2 58035.6 2493.19  14
   0  -5   1 19708.2 1625.94  14
   0  -5   0 29426.8 1913.97  14
   0  -5  -1 21614.8 1732.39  14
   0  -5  -2 3267.57 1022.20  14
   0  -5  -3 13650.5 1623.82  14
   0  -5  -4 2780.29 1122.29  14
   0  -5  -5 4088.64 1298.99  14
   0  -5  -6 1444.25 487.960   8
   0  -5  -6 1203.56 556.842  12
   0  -5  -6 1902.50 1091.96  14
   0  -5  -7 7772.49 731.752   8
   0   5   7 9498.84 718.518  11
   0  -5  -7 8380.55 825.074  12
   0  -5  -7 8762.74 1774.14  14
   0  -5  -8 5486.34 1647.62  14
   0  -5  -8 6577.88 831.350  12
   0   5   8 7085.35 692.425  11
   0  -5  -9 7504.85 1844.22  14
   0  -5  -9 10392.6 993.995  12
   0  -5 -10 2239.35 753.112  12
   0   5  12 276.009 634.623   3
   0   5  13 792.808 577.637   3
   0   5  14 2532.86 540.876   3
   0   5  15 2036.01 387.486   3
   0  -6  17 147.945 311.305   2
   0  -6  16 14481.0 777.907   2
   0  -6  15 5135.79 710.170   2
   0  -6  14 35570.4 1393.73   2
   0  -6  13 11593.5 1008.42   2
   0  -6  12 4215.89 793.085   2
   0  -6  11 32650.6 1421.43   2
   0  -6  11 31638.0 1250.34   7
   0  -6  10 44236.9 3164.02   1
   0  -6  10 46551.4 1629.29   2
   0  -6  10 45853.9 1486.31   7
   0  -6   9 37797.8 2901.15   1
   0  -6   9 40155.7 1470.08   2
   0  -6   9 38834.2 1368.41   7
   0  -6   8 23745.4 2292.47   1
   0  -6   8 23728.5 1154.71   2
   0  -6   8 22828.8 1069.28   7
   0  -6   7 4714.67 677.140   2
   0  -6   7 4997.30 1231.27   1
   0  -6   7 4670.70 601.238   7
   0  -6   6 15794.2 839.653   7
   0  -6   6 15890.7 938.444   2
   0  -6   6 17088.4 1892.80   1
   0  -6   5 72137.7 3473.82   1
   0  -6   4 20804.9 1952.27   1
   0  -6   3 12076.9 1465.90  14
   0  -6   2 58946.0 2891.98  14
   0  -6   1 41471.8 2564.46  14
   0  -6   0 98195.8 3830.36  14
   0  -6  -1 8664.20 1425.59  14
   0  -6  -2 32764.9 2479.76  14
   0  -6  -3 108142. 4537.05  14
   0  -6  -3 102313. 2102.01  12
   0  -6  -4 6491.75 752.690  12
   0  -6  -4 5826.45 1472.20  14
   0  -6  -5 1793.38 651.632  12
   0  -6  -5 993.783 1131.03  14
   0  -6  -5 1852.26 516.150   8
   0  -6  -6 5048.69 765.892  12
   0  -6  -6 4342.04 626.226   8
   0  -6  -6 4239.85 1573.21  14
   0  -6  -7 2795.30 1501.16  14
   0  -6  -7 3491.17 770.781  12
   0  -6  -8 18933.7 1188.71  12
   0  -6  -9 9234.56 964.067  12
   0  -6 -10 13519.5 1083.11  12
   0   6  12 1489.45 611.442   3
   0   6  13 5849.61 622.417   3
   0   6  14 1632.37 376.070   3
   0  -7  16 1133.12 385.450   2
   0  -7  15 2568.99 533.674   2
   0  -7  14 18538.1 983.991   2
   0  -7  13 2261.75 720.918   2
   0  -7  12 38421.4 1483.77   2
   0  -7  11 530.811 634.110   2
   0  -7  10 3347.09 733.667   2
   0  -7   9 84366.5 2130.49   2
   0  -7   9 72842.7 4073.81   1
   0  -7   8 59619.0 1794.68   2
   0  -7   8 56614.4 3613.24   1
   0  -7   7 61609.3 1795.11   2
   0  -7   6 220.785 574.915   2
   0  -7   5 121.456 516.621   2
   0   7  -4 41021.6 1078.36   4
   0   7  -3 16203.7 823.275   4
   0   7  -2 32086.1 980.135   4
   0   7  -1 6649.27 624.563   4
   0  -7   1 2353.76 1201.08  14
   0   7   0 7368.51 615.121   4
   0  -7   0 6021.11 1388.60  14
   0   7   1 33208.1 1069.62   4
   0  -7  -1 30893.0 2698.45  14
   0   7   2 67683.1 1498.80   4
   0  -7  -2 64513.7 3836.79  14
   0  -7  -2 69008.8 1923.38  12
   0  -7  -3 11812.0 988.640  12
   0  -7  -3 13023.5 2083.41  14
   0  -7  -4 4132.80 1580.72  14
   0  -7  -4 5312.45 825.882  12
   0  -7  -5 11856.6 2205.66  14
   0  -7  -5 12110.7 1051.40  12
   0  -7  -5 11275.8 752.448   8
   0  -7  -6 1559.00 720.792  12
   0  -7  -7 33159.5 1488.13  12
   0  -7  -8 3989.08 845.407  12
   0  -7  -9 1056.44 737.873  12
   0  -7 -10 19925.1 1126.98  12
   0   7  11 3184.51 656.077   3
   0   7  12 3767.61 538.202   3
   0   7  13-74.7890 316.276   3
   0   8 -14 44.4369 210.522   4
   0  -8  13 2196.00 568.586   2
   0   8 -13 1959.90 353.486   4
   0   8 -12 5596.61 505.290   4
   0  -8  12 6037.92 748.655   2
   0  -8  11 103.931 607.055   2
   0   8 -11 706.585 431.230   4
   0   8 -10 13303.5 737.390   4
   0  -8  10 13085.7 999.290   2
   0   8  -9-26.7067 447.382   4
   0  -8   9 369.947 639.561   2
   0   8  -8 4895.74 583.996   4
   0   8  -7 42595.2 1182.21   4
   0   8  -6 6918.37 632.123   4
   0   8  -5 28199.7 1005.02   4
   0   8  -4 11491.0 752.085   4
   0   8  -3 17547.9 924.181   4
   0   8  -2 48168.5 1303.85   4
   0   8  -1 12644.9 947.868   4
   0   8   0 25944.0 1052.57   4
   0   8   1 15879.8 882.662   4
   0   8   2 4807.34 627.323   4
   0  -8  -2 2697.27 1569.70  14
   0  -8  -2 5040.54 831.343  12
   0  -8  -3 16397.6 1149.46  12
   0  -8  -4 1372.48 739.988  12
   0  -8  -5 7930.73 957.339  12
   0  -8  -6 12021.1 1061.65  12
   0  -8  -7 4982.12 836.940  12
   0  -8  -8 23286.0 1213.13  12
   0  -8  -9 8929.08 860.987  12
   0   8  10 229.168 499.087   3
   0   8  11 11415.8 663.018   3
   0   9 -13 1186.40 266.424   4
   0   9 -12 31.5898 302.839   4
   0   9 -11 10340.1 587.764   4
   0   9 -10 3117.54 481.035   4
   0   9  -9 12239.6 700.164   4
   0   9  -8 2130.93 504.164   4
   0   9  -7 1134.76 507.361   4
   0   9  -6 27854.6 1020.61   4
   0   9  -5 8805.32 747.695   4
   0   9  -4 15977.7 915.900   4
   0   9  -3 31430.1 1142.72   4
   0   9  -2 43128.7 1360.43   4
   0   9  -1 90064.6 1852.43   4
   0  -9   0 99980.5 2433.85  12
   0   9   0 96668.3 1948.82   4
   0  -9  -1 8285.12 1035.11  12
   0   9   1 8013.40 806.002   4
   0  -9  -2 2195.84 773.450  12
   0  -9  -3 8895.33 960.976  12
   0  -9  -4 5508.77 869.160  12
   0  -9  -5 23464.6 1232.63  12
   0  -9  -6 454.366 640.657  12
   0  -9  -7 4017.98 699.863  12
   0  -9  -8 26788.8 1029.70  12
   0   9   9 2467.70 466.868   3
   0   9  10 16247.4 634.588   3
   0  10 -12 3330.73 292.252   4
   0  10 -11 158.505 277.922   4
   0  10 -10 499.422 326.854   4
   0  10  -9 10950.1 606.522   4
   0  10  -8 4427.11 523.484   4
   0  10  -7 25352.4 916.877   4
   0  10  -6 4082.03 594.252   4
   0  10  -5 483.733 502.739   4
   0  10  -4 1593.79 553.640   4
   0  10  -3 11551.3 847.591   4
   0  10  -2 27187.5 1067.19   4
   0  10  -1 14735.3 910.790   4
   0 -10   1 15057.8 1141.92  12
   0 -10   0 12118.6 1017.33  12
   0 -10  -1 24644.5 1217.90  12
   0 -10  -2 1755.87 675.716  12
   0 -10  -3 3285.09 699.767  12
   0 -10  -4 83.1205 543.073  12
   0 -10  -5 444.339 513.906  12
   0 -10  -6 2655.34 522.999  12
   0 -10  -7 3427.49 472.795  12
   0  11 -10 183.281 209.402   4
   0  11  -9 237.009 253.982   4
   0  11  -8 6392.69 448.511   4
   0  11  -7 13665.5 608.230   4
   0  11  -6 964.745 380.855   4
   0  11  -5 1083.51 413.382   4
   0  11  -4 4281.98 507.477   4
   0 -11   4 3182.08 566.123  12
   0 -11   3 2308.08 587.349  12
   0  11  -3 2758.98 500.443   4
   0 -11   2 1828.52 551.356  12
   0 -11   1 1800.90 557.383  12
   0 -11   0 1806.92 539.592  12
   0 -11  -1 1536.17 500.555  12
   0 -11  -2 864.680 439.544  12
   0 -11  -3 1733.19 430.986  12
   0 -11  -4 134.512 329.744  12
   1 -12   1 5364.87 439.711  12
   1 -12   2 6532.99 519.778  12
   1 -12   3 5824.30 485.752  12
   1 -12   4 2948.72 417.212  12
   1 -12   5 4634.35 410.458  12
   1 -11  -5 452.463 293.005  12
   1 -11  -4 440.771 354.710  12
   1 -11  -3 97.6656 388.672  12
   1 -11  -2 1117.12 468.231  12
   1 -11  -1 9890.82 748.912  12
   1 -11   0 1661.49 567.963  12
   1 -11   1 3942.85 698.149  12
   1 -11   2 16220.4 935.451  12
   1 -11   3 15016.6 952.293  12
  -1  11  -3 10203.8 647.300   4
  -1  11  -4 5457.20 541.207   4
   1 -11   4 8014.15 739.803  12
  -1  11  -5 2629.35 462.906   4
  -1  11  -6 5867.22 503.433   4
  -1  11  -7 5440.35 466.089   4
  -1  11  -8 8383.82 482.252   4
  -1  11  -9 139.387 263.096   4
  -1  11 -10 462.558 227.090   4
   1 -10  -7 2315.04 435.373  12
   1 -10  -6 4865.27 578.016  12
   1 -10  -5 7556.37 700.041  12
   1 -10  -4 5920.81 715.861  12
   1 -10  -3 2408.88 670.743  12
   1 -10  -2 2109.15 709.592  12
   1 -10  -1 9247.89 926.333  12
   1 -10   0 6758.40 964.496  12
  -1  10  -1 13824.9 787.775   4
   1 -10   1 16219.7 1123.12  12
  -1  10  -2 3595.54 616.793   4
  -1  10  -3 4502.47 658.351   4
  -1  10  -4 16084.3 824.974   4
  -1  10  -5 2658.81 571.596   4
  -1  10  -6 2087.13 507.892   4
  -1  10  -7 713.992 458.332   4
  -1  10  -8 959.812 427.290   4
  -1  10  -9 16688.7 703.603   4
  -1  10 -10 6231.48 476.900   4
  -1  10 -11 5371.23 410.816   4
  -1  10 -12 607.890 249.438   4
  -1   9  10 505.704 313.705   3
   1  -9  -9 1392.56 432.936  12
   1  -9  -8 13896.0 822.625  12
   1  -9  -7 6779.01 752.477  12
   1  -9  -6 3622.34 728.149  12
   1  -9  -5 484.528 668.641  12
   1  -9  -5-459.878 426.764   8
   1  -9  -4 10307.0 988.133  12
   1  -9  -4 7891.42 622.853   8
   1  -9  -3 4484.53 518.056   8
   1  -9  -3 6537.28 887.509  12
   1  -9  -2 2997.98 793.898  12
  -1   9   1-200.083 458.233   4
   1  -9  -1 969.290 733.962  12
  -1   9   0 2271.35 604.431   4
  -1   9  -1 23826.1 999.963   4
  -1   9  -2 6543.44 726.015   4
  -1   9  -3 1944.10 540.692   4
  -1   9  -4 4556.71 678.815   4
  -1   9  -5 32055.0 1089.80   4
  -1   9  -6 2847.10 578.750   4
  -1   9  -7 2211.58 532.607   4
  -1   9  -8 8708.56 667.872   4
  -1   9  -9 451.854 471.945   4
  -1   9 -10 511.305 435.477   4
  -1   9 -11 18194.6 728.387   4
  -1   9 -12 247.588 332.299   4
  -1   9 -13 1446.90 309.219   4
  -1   9 -14 3374.02 281.920   4
  -1   8  11 19535.1 800.750   3
   1  -8  -9 905.887 598.675  12
   1  -8  -8 24867.4 1220.82  12
   1  -8  -7 9169.12 946.678  12
   1  -8  -6 31180.2 1442.52  12
   1  -8  -6 26648.6 1095.03   8
   1  -8  -5 515.472 706.523  12
   1  -8  -5 187.682 485.856   8
   1  -8  -4 414.970 683.748  12
   1  -8  -4 567.988 473.760   8
   1  -8  -3 24739.4 1340.22  12
   1  -8  -3 22833.7 922.862   8
   1  -8  -2 2.65373 390.596   8
   1  -8  -2-186.706 1245.64  14
   1  -8  -2 197.893 653.335  12
   1  -8  -1 13799.5 689.470   8
  -1   8   1 13594.3 767.602   4
   1  -8  -1 11377.5 2167.78  14
   1  -8   0-91.0282 1406.21  14
  -1   8   0 691.117 474.714   4
  -1   8  -1 9364.57 780.276   4
   1  -8   1 2546.74 1762.46  14
   1  -8   2 51469.2 3839.77  14
  -1   8  -2 60645.9 1424.64   4
  -1   8  -3 54593.4 1364.57   4
  -1   8  -4 5746.14 680.489   4
  -1   8  -5 8127.37 670.272   4
   1  -8  11 12360.7 942.834   2
  -1   8 -15 157.047 218.587   4
  -1   7  12 322.016 429.778   3
   1  -7 -10 35669.9 1367.63  12
   1  -7  -9 45645.1 1594.99  12
   1  -7  -8 846.216 704.279  12
   1  -7  -7 4329.85 831.860  12
   1  -7  -7 3789.78 690.574   8
   1  -7  -6 31314.9 1195.83   8
   1  -7  -6 31950.1 1484.96  12
   1  -7  -5 21649.0 2804.95  14
   1  -7  -5 25263.9 1033.62   8
   1  -7  -5 25129.6 1335.32  12
   1  -7  -4 21603.5 920.023   8
   1  -7  -4 24338.1 1265.84  12
   1  -7  -3 703.656 612.474  12
   1  -7  -3 826.718 436.443   8
   1  -7  -3-201.857 1203.68  14
   1  -7  -2 8755.20 1767.43  14
   1  -7  -2 10450.5 666.713   8
   1  -7  -1 68985.4 1353.16   8
   1  -7  -1 66639.1 3923.37  14
   1  -7   0 38373.5 3076.35  14
  -1   7   0 43281.9 1131.16   4
  -1   7  -1 110239. 1710.75   4
   1  -7   1 111180. 4827.23  14
  -1   7  -2 24119.3 945.536   4
   1  -7   2 10676.5 2006.70  14
   1  -7   3 2495.12 1203.68  14
   1  -7   4 107642. 4584.62  14
   1  -7   4 101035. 1957.97   7
   1  -7   5 20838.4 995.564   7
   1  -7   6 9065.15 852.883   2
   1  -7   6 9423.85 768.664   7
   1  -7   7 6720.75 799.821   2
   1  -7   7 6770.32 716.108   7
   1  -7   8 129.070 590.917   2
   1  -7   8 84.1584 515.741   7
   1  -7   9 88917.1 1993.80   7
   1  -7   9 91355.1 2232.14   2
   1  -7  10 6257.24 758.871   7
   1  -7  10 6631.67 853.759   2
   1  -7  11 1708.87 673.174   2
   1  -7  11 2023.36 623.712   7
   1  -7  12 95.4605 545.138   7
   1  -7  12 322.749 615.696   2
   1  -7  13 1446.43 593.085   2
   1  -7  13 1241.86 523.813   7
   1  -7  14 4120.56 604.917   2
   1  -7  15 4116.77 507.430   2
  -1   6  14-107.445 300.037   3
  -1   6  13 11684.6 702.293   3
  -1   6  12 5779.48 689.792   3
   1  -6 -10 407.844 683.056  12
   1  -6  -9 1485.87 729.612  12
   1  -6  -8 110842. 2537.50  12
   1  -6  -8 109791. 2213.22   8
   1  -6  -7 9096.32 918.477  12
   1  -6  -7 8908.00 2008.37  14
   1  -6  -7 8988.87 793.884   8
   1  -6  -6 3264.80 1483.76  14
   1  -6  -6 3522.49 734.543  12
   1  -6  -6 3678.44 609.617   8
   1  -6  -5 19829.5 1134.01  12
   1  -6  -5 18438.0 2409.71  14
   1  -6  -5 19294.9 897.234   8
   1  -6  -4 436.906 1063.82  14
   1  -6  -4 396.751 408.761   8
   1  -6  -4 825.430 559.745  12
   1  -6  -3 41027.4 1070.03   8
   1  -6  -3 40960.9 1384.76  12
   1  -6  -3 39057.4 2945.51  14
   1  -6  -2 2501.62 1156.64  14
   1  -6  -1 5380.91 1342.06  14
   1  -6   0 24419.6 2299.36  14
   1  -6   1 90317.6 4040.47  14
   1  -6   2 51366.9 3110.02  14
   1  -6   3 11676.7 1671.72  14
   1  -6   4 3677.41 1229.19  14
   1  -6   5 3375.45 1102.81  14
   1  -6   6 47683.6 1477.06   2
   1  -6   6 51484.5 1374.20   7
   1  -6   7 7085.67 744.128   2
   1  -6   7 7374.83 682.182   7
   1  -6   8 16807.6 1028.82   2
   1  -6   8 17266.8 948.235   7
   1  -6   9 47446.5 1467.95   7
   1  -6   9 46362.5 1617.38   2
   1  -6  10 6347.51 735.415   7
   1  -6  10 6202.45 837.849   2
   1  -6  11 47726.0 1525.32   7
   1  -6  11 49126.6 1707.23   2
   1  -6  12 2935.64 653.345   7
   1  -6  12 3482.53 759.881   2
   1  -6  13 3444.47 620.884   7
   1  -6  13 3260.86 707.399   2
   1  -6  14 4737.87 609.185   7
   1  -6  14 4972.62 695.108   2
   1  -6  15 541.339 465.167   2
   1  -6  16 12311.9 642.994   2
  -1   5  14 548.137 444.328   3
  -1   5  13 8673.85 736.086   3
  -1   5  12 6523.87 759.540   3
   1  -5 -10 592.021 686.200  12
   1  -5  -9 834.030 616.257   8
   1  -5  -9-436.132 1299.81  14
   1  -5  -9 1685.09 732.285  12
   1  -5  -8 40786.9 1520.64  12
   1  -5  -8 38548.4 1325.53   8
   1  -5  -7 46044.9 1556.35  12
   1  -5  -7 46674.1 3579.89  14
   1  -5  -7 44488.8 1324.30   8
   1  -5  -6 94023.8 1743.14   8
   1  -5  -6 95273.4 2094.45  12
   1  -5  -6 100202. 4821.56  14
   1  -5  -5 5439.01 520.952   8
   1  -5  -5 6227.61 1496.35  14
   1  -5  -4 17064.0 1987.76  14
   1  -5  -3 87020.0 3876.98  14
   1  -5  -2 88299.6 3768.50  14
   1  -5  -1 162353. 4858.15  14
   1  -5   0 23200.0 2026.68  14
   1  -5   1 15898.7 1868.21  14
   1  -5   2 226086. 5671.65  14
   1  -5   3 54307.0 2916.96  14
   1  -5   4 81609.8 3497.05  14
   1  -5   5 9329.58 1418.61  14
   1  -5   8 63262.4 1712.09   2
   1  -5   8 64382.6 1539.60   7
   1  -5   9 34923.1 1393.19   2
   1  -5   9 36007.4 1240.35   7
   1  -5  10 6866.41 846.083   2
   1  -5  10 7855.08 745.308   7
   1  -5  11 15941.5 955.760   7
   1  -5  11 16413.2 1096.76   2
   1  -5  12 41128.8 1395.94   7
   1  -5  12 42128.4 1611.44   2
   1  -5  13 29068.2 1348.29   2
   1  -5  13 28586.2 1168.07   7
   1  -5  14 331.988 483.315   7
   1  -5  14 748.367 623.552   2
   1  -5  15 371.441 418.201   7
   1  -5  15 442.219 517.379   2
   1  -5  16 9336.16 647.577   2
   1  -5  17 4738.92 419.499   2
  -1   4  16 693.304 349.912   2
  -1   4  15 14725.3 694.685   3
  -1   4  14 8562.51 672.672   3
  -1   4  13 8091.76 756.293   3
  -1   4  12 1668.22 640.943   3
   1  -4 -10 22213.2 2751.76  14
   1  -4 -10 28954.4 1366.25  12
   1  -4  -9 9620.60 895.046  12
   1  -4  -9 8427.28 754.980   8
   1  -4  -9 7377.76 1881.35  14
   1  -4  -8 9319.95 1888.57  14
   1  -4  -8 8611.87 806.776  12
   1  -4  -8 8110.47 676.132   8
   1  -4  -7 12650.6 846.039  12
   1  -4  -7 13063.4 1998.09  14
   1  -4  -7 11186.7 682.178   8
   1  -4  -6 16058.3 2042.59  14
   1  -4  -5 13767.8 1831.02  14
   1  -4  -4 7976.22 1445.40  14
   1  -4  -3 2401.26 1078.90  14
   1  -4  -2 19344.5 1810.13  14
   1  -4  -1 48217.1 2556.53  14
   1  -4   0 208592. 4920.71  14
   1  -4   1 99572.3 3529.81  14
   1  -4   2 4924.78 1267.28  14
   1  -4   3 6927.12 1286.05  14
  -1   4  -4 105229. 2314.41  13
   1  -4   4 104824. 3646.73  14
  -1   4  -5 22687.7 1261.03  13
   1  -4   5 22931.6 1846.30  14
   1  -4   5 22387.7 1571.71   1
   1  -4   6 117244. 3408.89   1
  -1   4  -6 112401. 2916.91  13
  -1   4  -7 44514.0 2041.40  13
   1  -4   7 44323.9 2212.85   1
  -1   4  -8 26747.8 1730.56  13
   1  -4   9 160725. 2652.36   2
  -1   4  -9 166167. 4406.65  13
   1  -4   9 162056. 2311.89   7
   1  -4  10 61571.6 1794.99   2
  -1   4 -10 62254.6 2952.21  13
   1  -4  10 61353.1 1537.99   7
   1  -4  11 45131.9 1615.05   2
   1  -4  11 44348.3 1379.39   7
   1  -4  12 11672.8 822.163   7
   1  -4  12 11162.5 971.328   2
   1  -4  13 10338.9 786.591   7
   1  -4  13 10189.6 952.134   2
   1  -4  14 45959.2 1585.91   2
   1  -4  14 45851.8 1338.90   7
   1  -4  15 6280.58 706.827   2
   1  -4  15 5259.79 565.827   7
   1  -4  16 2363.42 520.710   2
   1  -4  17 8481.02 550.838   2
  -1   3  17 651.824 299.336   2
  -1   3  16 439.478 442.471   2
  -1   3  15 3707.34 505.926   3
  -1   3  14 433.049 478.447   3
  -1   3  13 4142.41 654.426   3
  -1   3  12 116.571 560.915   3
   1  -3 -10 22566.6 1215.58  12
   1  -3 -10 19995.3 2482.20  14
   1  -3  -9 97.9060 435.300   8
   1  -3  -9 334.251 1177.91  14
   1  -3  -9 645.705 573.078  12
   1  -3  -8 28962.2 2729.25  14
   1  -3  -8 25948.5 1114.10  12
   1  -3  -7-3.37131 1109.91  14
   1  -3  -6 20315.8 2082.98  14
   1  -3  -5 9920.62 1565.19  14
   1  -3  -4 3779.75 1196.87  14
   1  -3  -3 983.806 897.041  14
   1  -3  -2 13305.4 1381.91  14
   1  -3  -1 12795.4 1331.30  14
   1  -3   0 109886. 3250.01  14
   1  -3   1 34485.6 1984.46  14
   1  -3   2 183580. 4299.82  14
  -1   3  -2 183371. 2210.95  13
   1  -3   3 46159.0 2276.36  14
  -1   3  -3 46550.3 1357.42  13
  -1   3  -4 91.7756 421.533  13
   1  -3   4-88.5037 596.991   1
   1  -3   4 305.162 874.735  14
  -1   3  -5 49185.7 1748.69  13
   1  -3   5 47889.6 1887.80   1
   1  -3   6 31053.3 1631.82   1
  -1   3  -6 32413.0 1577.43  13
  -1   3  -7 12.5121 561.596  13
   1  -3   7 170.871 600.559   1
  -1   3  -8 53677.1 2319.69  13
  -1   3  -9 6361.52 1029.85  13
   1  -3  10 62543.3 1741.78   2
  -1   3 -10 60973.2 2825.08  13
   1  -3  10 58974.2 1403.65   7
   1  -3  10 59324.2 1604.05   3
  -1   3 -11 85434.7 3546.90  13
   1  -3  11 82701.9 1730.42   7
   1  -3  11 82752.0 1962.00   3
   1  -3  11 82421.6 2051.26   2
  -1   3 -12 3105.92 970.165  13
   1  -3  12 3528.30 733.187   2
   1  -3  12 3200.63 703.794   3
   1  -3  12 3433.39 580.872   7
   1  -3  13 4176.94 746.689   2
   1  -3  13 4155.06 585.906   7
   1  -3  13 4203.39 743.121   3
   1  -3  14 14795.3 1018.58   2
   1  -3  14 14753.9 824.171   7
   1  -3  14 15931.4 1026.13   3
   1  -3  15 395.086 546.776   2
   1  -3  16 32375.1 1140.05   2
   1  -3  17 2659.56 466.377   2
  -1   2  17 20064.3 765.869   2
  -1   2  16 16031.1 887.999   2
  -1   2  15 2161.89 488.822   3
  -1   2  14 1585.72 538.775   3
  -1   2  13-47.5975 523.138   3
  -1   2  12 4732.94 666.739   3
  -1   2  11 11400.5 2022.73   1
  -1   2  11 13929.1 921.721   3
   1  -2 -10-79.9024 1153.67  14
   1  -2  -9-277.080 1138.42  14
   1  -2  -9-198.160 507.929  12
   1  -2  -9-12.0946 384.111   8
   1  -2  -8 67641.0 3710.94  14
   1  -2  -7 27364.3 2338.65  14
   1  -2  -6 59847.6 3122.26  14
   1  -2  -5 9294.88 1401.71  14
   1  -2  -4 30732.8 1896.02  14
   1  -2  -3 656.301 745.614  14
   1  -2  -2 13056.3 1232.90  14
   1  -2  -1 53190.8 2093.33  14
  -1   2   0 61490.4 854.941  13
   1  -2   0 60447.2 2224.57  14
   1  -2   1 203.718 801.577  14
  -1   2  -1-206.249 332.561  13
   1  -2   2 90682.5 2766.52  14
  -1   2  -2 92427.0 1710.30  13
   1  -2   3 7448.77 1112.92  14
  -1   2  -3 7160.62 676.992  13
  -1   2  -4 33540.4 1320.74  13
   1  -2   4 33469.9 1211.73   1
   1  -2   5 78742.1 1943.80   1
  -1   2  -5 77699.3 2137.29  13
  -1   2  -6 99175.2 2600.32  13
   1  -2   6 99620.1 2431.14   1
  -1   2  -7 5490.18 878.003  13
  -1   2  -8-14.6787 587.627  13
  -1   2  -9 17701.7 1476.92  13
   1  -2  10 13.7227 348.124   7
  -1   2 -10 160.192 661.686  13
   1  -2  10 97.6007 505.765   3
   1  -2  10 318.812 544.830   2
   1  -2  11 10737.3 936.489   2
  -1   2 -11 10229.9 1372.58  13
   1  -2  11 10810.4 893.098   3
   1  -2  11 10982.0 728.530   7
   1  -2  12 19920.9 1151.06   3
   1  -2  12 19087.0 920.215   7
  -1   2 -12 17975.7 1767.12  13
   1  -2  12 19641.7 1150.06   2
   1  -2  13 5021.80 765.872   2
   1  -2  13 5865.29 815.154   3
   1  -2  13 5750.61 601.418   7
   1  -2  14 415.036 653.993   3
   1  -2  14 490.094 631.427   2
   1  -2  15 756.525 633.632   3
   1  -2  15 2881.10 696.080   2
   1  -2  16 27732.9 1187.85   2
   1  -2  17 8938.36 619.955   2
  -1   1  17 3047.02 495.563   2
  -1   1  16 2484.85 625.741   2
  -1   1  15 31160.9 1359.52   2
  -1   1  13 42286.3 1368.36   3
  -1   1  12 2665.62 601.474   3
  -1   1  12 1867.58 1317.46   1
  -1   1  11 2638.01 1341.24   1
  -1   1  10 28577.3 2644.65   1
   1  -1  -9 66964.4 3426.01  14
   1  -1  -8 75647.7 3502.43  14
   1  -1  -7 34004.3 2356.47  14
   1  -1  -6 268465. 5594.88  14
   1  -1  -5 138992. 3613.50  14
   1  -1  -4 16089.8 1252.80  14
   1  -1  -3 2496.76 708.843  14
   1  -1  -2 73292.3 2015.97  14
   1  -1  -1 127451. 2614.24  14
   1  -1   0 2113.38 882.533  14
   1  -1   1 289348. 4165.24  14
  -1   1  -1 287651. 2928.67  13
   1  -1   2 17463.5 1334.89  14
  -1   1  -2 16408.3 879.557  13
  -1   1  -3 17984.5 987.773  13
   1  -1   4 68001.4 1238.17   1
  -1   1  -4 69554.1 1952.14  13
   1  -1   5 14276.6 766.449   1
  -1   1  -5 14316.5 1063.98  13
   1  -1   6 27950.3 1189.89   1
  -1   1  -6 27720.4 1502.37  13
  -1   1  -7 12449.0 1141.42  13
  -1   1  -8 15276.5 1267.93  13
  -1   1  -9 67113.4 2629.11  13
   1  -1  10 12673.1 641.138   7
   1  -1  10 12861.8 840.403   3
  -1   1 -10 12293.1 1315.24  13
   1  -1  11 74475.2 1504.79   7
   1  -1  11 71484.4 1915.34   2
  -1   1 -11 76379.5 3187.86  13
   1  -1  11 74569.0 1871.42   3
   1  -1  12 16199.3 826.712   7
   1  -1  12 15782.6 1070.91   3
   1  -1  12 15648.7 1084.37   2
  -1   1 -12 15903.1 1678.51  13
   1  -1  13 2058.18 697.328   2
   1  -1  13 2163.63 720.178   3
   1  -1  14 4294.82 805.127   3
   1  -1  14 3840.30 733.744   2
   1  -1  15 5560.94 756.820   3
   1  -1  15 6195.74 756.326   2
   1  -1  16 25943.7 1088.26   2
   1  -1  16 24480.7 1081.59   3
   1  -1  17 3500.33 518.241   2
  -1   0  18 9820.99 536.305   2
  -1   0  17 5215.46 604.977   2
  -1   0  16 8176.64 823.651   2
  -1   0  15 5617.49 925.621   2
  -1   0  14 8649.90 960.079   2
  -1   0  12 9250.73 1963.31   1
  -1   0  11 35305.2 3000.14   1
  -1   0  10 29956.7 2597.72   1
  -1   0   9 35736.8 2622.80   1
  -1   0   8 153205. 4845.65   1
   1   0  -8 149702. 4201.12  14
   1   0  -7 60769.1 2556.02  14
   1   0  -6 106616. 2971.72  14
   1   0  -5 184744. 3361.81  14
   1   0  -4 65174.2 1731.21  14
   1   0  -3 34276.0 1130.61  14
   1   0  -2 52493.6 1357.15  14
   1   0  -1 13477.1 952.215  14
  -1   0   0 45285.1 1078.84   1
   1   0   0 43635.5 1478.30  14
   1   0   1 63969.7 1408.35  10
  -1   0  -1 57960.8 762.398   1
  -1   0  -2 1947.75 640.463  13
  -1   0  -3 95828.2 2252.13  13
  -1   0  -4 62792.9 1947.55  13
  -1   0  -5 37512.8 1665.55  13
   1   0   6 234.995 537.667   1
  -1   0  -6 832.218 710.536  13
  -1   0  -7 10189.5 1104.11  13
  -1   0  -8 27396.4 1652.61  13
  -1   0  -9 5479.87 923.553  13
  -1   0 -10 2180.52 766.923  13
   1   0  10 3134.67 606.665   3
  -1   0 -11 70887.1 3036.45  13
   1   0  11 72161.2 1827.05   3
  -1   0 -12 1139.48 826.069  13
   1   0  12 969.351 640.895   3
   1   0  13 507.470 648.150   3
   1   0  13 1128.60 615.067   2
   1   0  14 28166.0 1263.42   3
   1   0  14 25147.2 1202.36   2
   1   0  15 5670.59 664.155   2
   1   0  15 6495.65 771.081   3
   1   0  16 1810.51 493.684   2
   1   0  16 1614.79 558.580   3
   1   0  17 1164.32 371.618   2
   1   0  17 899.827 400.088   3
  -1  -1  18 2370.95 466.597   2
  -1  -1  17 24563.9 1001.87   2
  -1  -1  16 19265.1 1090.37   2
  -1  -1  15 45435.3 1763.75   2
  -1  -1  14 1076.54 761.047   2
  -1  -1  13 38913.4 1734.35   2
  -1  -1  12 57784.9 1801.13   2
  -1  -1  12 53492.7 3671.25   1
  -1  -1  11 28323.0 2692.79   1
  -1  -1  10 938.255 1094.30   1
  -1  -1   9 32957.2 2467.40   1
  -1  -1   8 138875. 4551.97   1
  -1  -1   7 96998.6 3541.25   1
  -1  -1   6 164000. 4202.48   1
   1   1  -5 1451.07 355.595  14
  -1  -1   5 2739.58 889.531   1
   1   1  -4 1168.69 214.325  14
  -1  -1   4 2075.25 802.136   1
  -1  -1   3 225048. 3835.79   1
  -1  -1   2 135745. 2706.68   1
  -1  -1   1 362583. 3904.02   1
  -1  -1   0 25858.3 1032.75   1
   1   1   1 150649. 2448.08  10
  -1  -1  -1 150982. 1984.04   1
   1   1   2 926859. 6083.38  10
  -1  -1  -3 1058.22 607.487  13
  -1  -1  -4 22066.2 1336.80  13
  -1  -1  -5 5405.10 969.433  13
  -1  -1  -6 1069.97 694.045  13
  -1  -1  -7 161228. 3816.47  13
  -1  -1  -8 26587.6 1678.87  13
   1   1   9 64493.9 1534.14   3
  -1  -1  -9 68478.3 2684.27  13
   1   1  10 12130.4 839.689   3
  -1  -1 -10 11932.9 1317.04  13
   1   1  11 37977.7 1367.23   3
  -1  -1 -11 37598.6 2250.05  13
   1   1  12 8726.16 862.281   3
  -1  -1 -12 7735.12 1220.82  13
   1   1  13 3852.44 727.531   3
   1   1  14 495.372 647.579   3
   1   1  14 138.339 530.837   2
   1   1  15 9585.29 819.724   3
   1   1  15 8983.82 742.771   2
   1   1  16 16679.0 784.883   2
   1   1  16 18688.2 862.505   3
   1   1  17 342.759 340.594   3
   1   1  17-381.603 241.763   2
  -1  -2  18 8178.23 534.039   2
  -1  -2  17 7346.88 784.861   2
  -1  -2  16 11330.6 950.534   2
  -1  -2  15 74200.3 2043.58   2
  -1  -2  14 3973.46 788.260   2
  -1  -2  13 48339.1 1703.49   2
  -1  -2  12 5575.57 845.120   2
  -1  -2  12 5675.50 1549.45   1
  -1  -2  11 37763.5 1403.08   2
  -1  -2  11 36617.9 2972.35   1
  -1  -2  10 113667. 2173.16   2
  -1  -2  10 120441. 4817.27   1
  -1  -2   9-68.4211 885.194   1
  -1  -2   8 46898.0 2739.65   1
  -1  -2   7 51362.8 2696.20   1
  -1  -2   6 94591.4 3322.58   1
  -1  -2   5 239205. 4837.58   1
  -1  -2   4 70575.7 2514.76   1
  -1  -2   3 77861.1 2501.05   1
  -1  -2   2 1018.26 662.568   1
  -1  -2   1 155150. 3001.81   1
  -1  -2   0 387735. 4471.14   1
   1   2   1 993927. 7056.20  10
  -1  -2  -1 999999. 6831.14   1
   1   2   2 91888.3 2191.65  10
  -1  -2  -3 326083. 4854.79  13
  -1  -2  -4 422017. 5653.93  13
  -1  -2  -5-84.9006 701.270  13
  -1  -2  -6 79315.4 2677.03  13
  -1  -2  -7 28439.5 1738.76  13
  -1  -2  -8 24039.1 1658.81  13
   1   2   9 186283. 2598.41  11
   1   2   9 186945. 2681.65   3
   1   2  10-61.0441 510.631   3
  -1  -2 -10-281.379 696.439  13
  -1  -2 -11 14243.3 1473.35  13
   1   2  11 15227.1 990.869   3
   1   2  12 3545.88 712.377   3
   1   2  13 876.272 632.326   3
   1   2  14 16879.2 1022.48   3
   1   2  15 750.380 479.793   2
   1   2  15 126.463 531.179   3
   1   2  16 5141.40 502.495   2
   1   2  16 5700.87 565.833   3
   1   2  17 4553.81 405.216   3
  -1  -3  18 785.063 343.715   2
  -1  -3  17 1405.06 484.869   2
  -1  -3  16 939.709 590.934   2
  -1  -3  15 14161.4 1022.56   2
  -1  -3  14 6604.50 851.290   2
  -1  -3  13 2048.08 710.245   2
  -1  -3  12 3002.94 1439.80   1
  -1  -3  12 3184.58 694.224   2
  -1  -3  11 33606.4 2888.89   1
  -1  -3  11 30569.7 1273.31   2
   1   3 -11 33634.9 1011.79   6
  -1  -3  10 387.816 496.807   2
  -1  -3  10 1144.23 1069.54   1
   1   3 -10 766.310 376.528   6
  -1  -3   9 1165.90 998.480   1
  -1  -3   8 131667. 4658.52   1
  -1  -3   7 1202.05 909.745   1
  -1  -3   6 58830.0 2891.38   1
  -1  -3   5 50020.3 2558.20   1
  -1  -3   4 507.523 835.161   1
  -1  -3   3 114671. 3291.53   1
  -1  -3   2 2978.41 819.241   1
  -1  -3   1 8081.16 1012.21   1
  -1  -3   1 6222.30 678.908  14
  -1  -3   0 223928. 4077.66   1
   1   3   1 64836.1 2107.73  10
   1   3   2 350746. 4696.62  10
  -1  -3  -3 11.1236 715.416  13
  -1  -3  -4 1406.96 694.819  13
  -1  -3  -5 63422.8 2478.10  13
  -1  -3  -6 14422.3 1329.21  13
  -1  -3  -7 30799.0 1884.40  13
   1   3   8 2109.48 574.479  11
  -1  -3  -8 2406.45 612.062  12
  -1  -3  -8 1387.31 746.584  13
   1   3   9 57353.0 1530.11  11
  -1  -3  -9 54915.9 2527.33  13
  -1  -3  -9 56937.8 1694.07  12
   1   3  10 19823.9 1044.03  11
   1   3  10 17658.8 1064.48   3
   1   3  11 5232.35 767.244   3
   1   3  12 3149.36 721.124   3
   1   3  13 9798.93 894.154   3
   1   3  14 3124.41 662.316   3
   1   3  15 641.646 436.200   2
   1   3  15 1581.09 526.201   3
   1   3  16 16160.6 697.634   3
  -1  -4  17 7185.72 585.908   2
  -1  -4  16 600.939 520.112   2
  -1  -4  15 8734.11 832.351   2
  -1  -4  14 11445.7 947.948   2
  -1  -4  13 6693.18 832.976   2
  -1  -4  12 2970.62 698.874   2
  -1  -4  11 21093.3 1116.19   2
  -1  -4  11 22329.8 2499.58   1
   1   4 -11 20802.9 875.373   6
   1   4 -10 20464.4 872.269   6
  -1  -4  10 20898.1 2386.69   1
  -1  -4  10 20746.4 1066.32   2
   1   4  -9 1505.32 411.680   6
  -1  -4   9 1302.21 1073.29   1
  -1  -4   9 1799.97 528.611   2
  -1  -4   8 54702.0 3261.83   1
  -1  -4   7 84524.4 3852.16   1
  -1  -4   6 52080.5 2931.03   1
  -1  -4   5 19003.4 1793.17   1
  -1  -4   4 1578.90 913.215   1
  -1  -4   3 150555. 4241.74   1
  -1  -4   2 54302.2 2531.61   1
  -1  -4   1 9884.19 976.334  14
  -1  -4   1 10207.8 1278.86   1
  -1  -4   0 15841.8 1233.61  14
   1   4   0 15265.5 1258.81  10
   1   4   1 46499.4 1946.64  10
  -1  -4  -3-488.210 791.981  13
  -1  -4  -4 24369.7 1654.42  13
  -1  -4  -5 10320.9 1179.47  13
  -1  -4  -6 547.702 620.252  13
   1   4   7 50091.2 1354.51  11
  -1  -4  -7 50229.6 1507.42  12
   1   4   8 11771.8 829.364  11
  -1  -4  -8 11863.1 930.937  12
  -1  -4  -9 48112.1 1655.95  12
   1   4   9 50059.5 1514.68  11
   1   4  10 1062.14 661.480  11
   1   4  10 575.996 637.422   3
   1   4  11 4822.04 793.666   3
   1   4  12 37029.9 1444.69   3
   1   4  13 1154.80 642.193   3
   1   4  14 9969.98 765.441   3
   1   4  15 1531.14 481.949   3
   1   4  15 1.35536 271.223   2
   1   4  16 4413.16 367.493   3
  -1  -5  17 1721.52 384.623   2
  -1  -5  16 1043.73 475.269   2
  -1  -5  15 32935.0 1238.19   2
  -1  -5  14 7255.43 809.967   2
  -1  -5  13 15874.1 1032.56   2
  -1  -5  12 901.380 619.031   2
  -1  -5  11 1132.11 629.173   2
  -1  -5  11 114.749 1120.87   1
  -1  -5  10 43128.8 1511.47   2
   1   5 -10 44560.1 1271.87   6
  -1  -5  10 47475.1 3454.04   1
  -1  -5   9 5826.21 726.331   2
   1   5  -9 5436.66 585.734   6
  -1  -5   9 6135.78 1544.69   1
   1   5  -8 6362.50 600.858   6
  -1  -5   8 7116.97 1484.85   1
  -1  -5   8 6215.36 687.851   2
   1   5  -7 45455.6 1217.73   6
  -1  -5   7 43144.6 1340.30   2
  -1  -5   6 26346.6 2310.19   1
  -1  -5   5 17922.6 1875.15   1
  -1  -5   4-270.155 888.460   1
  -1  -5   3 20976.9 1924.47   1
  -1  -5   2 25301.2 2034.35   1
   1   5  -1 30907.4 1809.25  10
  -1  -5   0 29000.5 1827.10  14
   1   5   0 29094.1 1712.98  10
   1   5   1 297.408 549.949  10
  -1  -5  -1 443.838 754.174  14
  -1  -5  -2 702.225 892.264  14
  -1  -5  -3 288.406 860.056  14
  -1  -5  -3 204.412 620.268  13
  -1  -5  -4 18787.1 1967.10  14
  -1  -5  -5 7840.51 734.534  12
   1   5   5 7247.84 623.395  11
  -1  -5  -5 8725.33 1614.52  14
  -1  -5  -6 6815.40 775.833  12
  -1  -5  -6 6324.18 1577.57  14
   1   5   6 6083.71 657.138  11
  -1  -5  -7 4465.58 1540.00  14
  -1  -5  -7 4598.42 742.109  12
   1   5   7 3952.04 646.689  11
  -1  -5  -8 3774.33 1549.48  14
   1   5   8 4140.28 690.901  11
  -1  -5  -8 7116.66 848.258  12
  -1  -5  -9 42637.2 1613.21  12
   1   5   9 42443.8 1450.36  11
   1   5  10 24055.6 1167.40  11
   1   5  10 26190.0 1310.07   3
   1   5  11 21710.7 1209.41   3
   1   5  12 11145.0 896.123   3
   1   5  13 3522.52 627.459   3
   1   5  14 27228.3 955.955   3
   1   5  15 442.521 296.854   3
  -1  -6  16 1813.20 428.320   2
  -1  -6  15 397.360 460.740   2
  -1  -6  14 14268.1 883.753   2
  -1  -6  13 11873.1 892.139   2
  -1  -6  12 2054.19 645.653   2
  -1  -6  11 3806.24 703.006   2
  -1  -6  10 11438.4 924.724   2
  -1  -6   9 8544.72 1725.91   1
  -1  -6   9 7187.98 788.360   2
  -1  -6   8 28970.2 2757.71   1
  -1  -6   8 26512.0 1197.02   2
   1   6  -7 3.22582 343.987   4
  -1  -6   7 352.907 510.300   2
  -1  -6   7 742.192 995.852   1
   1   6  -6 2133.71 380.073   4
  -1  -6   6 2541.45 578.293   2
  -1  -6   6 2449.42 1149.29   1
  -1  -6   5 25355.5 1092.12   2
   1   6  -5 23713.0 761.627   4
  -1  -6   4 9770.86 1600.67   1
  -1  -6   3 215.177 840.235   1
   1   6  -2 1820.84 782.042  10
   1   6  -1 8425.55 1180.41  10
   1   6   0 35356.8 1018.36   4
   1   6   0 40331.5 2024.16  10
   1   6   1 1150.10 430.009   4
  -1  -6  -1 920.481 921.654  14
   1   6   1 367.310 404.869  11
   1   6   2 22411.1 885.231   4
  -1  -6  -2 22503.2 2119.94  14
   1   6   2 20988.1 870.905  11
  -1  -6  -2 22163.4 1069.24  12
  -1  -6  -3 4170.49 1303.49  14
  -1  -6  -3 4162.68 662.366  12
   1   6   3 3825.32 527.442  11
  -1  -6  -4 2427.77 1300.70  14
  -1  -6  -4 2886.79 662.893  12
   1   6   4 2257.82 527.526  11
   1   6   5 1980.97 551.349  11
  -1  -6  -5 2370.00 1381.24  14
  -1  -6  -5 2075.84 671.254  12
  -1  -6  -6 1399.73 1388.06  14
  -1  -6  -6 2934.56 708.079  12
   1   6   6 5196.22 691.229  11
  -1  -6  -7 19214.5 1189.46  12
   1   6   7 19768.8 1049.05  11
  -1  -6  -8 708.273 687.186  12
   1   6   8 1009.86 621.356  11
  -1  -6  -9 3199.04 778.672  12
   1   6   9 2224.99 665.758  11
   1   6  10 24310.5 1233.28   3
   1   6  11 12998.8 927.801   3
   1   6  12 1968.52 547.565   3
   1   6  13 1645.69 474.386   3
   1   6  14 3877.74 377.443   3
   1   7 -16 3314.80 301.618  11
  -1  -7  15 6193.79 540.228   2
  -1  -7  14 1066.89 480.811   2
  -1  -7  13 1664.15 572.247   2
  -1  -7  12 27549.7 1179.44   2
  -1  -7  11 7040.84 768.810   2
  -1  -7  10-71.4288 561.642   2
   1   7 -10-222.265 353.082   4
  -1  -7   9 5449.26 738.404   2
   1   7  -9 5133.04 508.535   4
   1   7  -8 12280.0 660.812   4
  -1  -7   8 12346.7 931.904   2
   1   7  -7 16894.3 751.320   4
  -1  -7   7 17282.5 1041.23   2
  -1  -7   7 17571.5 2287.88   1
  -1  -7   6 3714.40 1475.31   1
   1   7  -6 4492.01 501.954   4
   1   7  -6 4811.82 582.243  11
  -1  -7   6 4184.91 671.698   2
   1   7  -5 1755.75 501.341  11
  -1  -7   5 1627.10 1182.85   1
   1   7  -5 1254.81 418.461   4
   1   7  -4 1102.46 484.399  11
   1   7  -4 1043.28 418.036   4
   1   7  -3 3630.96 492.511   4
   1   7  -3 4124.55 557.604  11
   1   7  -2 3131.53 544.384   4
   1   7  -2 1750.30 550.397  11
   1   7  -1 10125.1 699.855   4
   1   7  -1 9909.36 710.611  11
   1   7   0 5918.28 645.589   4
   1   7   0 6425.00 672.203  11
   1   7   1 3439.10 579.954   4
  -1  -7  -1 2188.55 670.828  12
   1   7   1 2478.17 552.108  11
  -1  -7  -2 24301.7 1221.86  12
   1   7   2 24186.2 990.754  11
  -1  -7  -3 11510.0 970.512  12
   1   7   3 11776.8 783.693  11
  -1  -7  -4 5836.22 828.733  12
  -1  -7  -4 4328.63 1698.76  14
   1   7   4 5548.35 662.920  11
   1   7   5 16281.7 938.643  11
  -1  -7  -5 15450.5 1103.45  12
  -1  -7  -6-21.1538 650.352  12
   1   7   6 937.861 562.816  11
  -1  -7  -7 4550.66 789.431  12
   1   7   7 4219.58 682.696  11
  -1  -7  -8 157.924 630.281  12
   1   7   8-538.746 562.749  11
  -1  -7  -9 5672.94 775.092  12
   1   7  10 6333.93 718.298   3
   1   7  11 485.007 447.782   3
   1   7  12 4989.71 485.156   3
   1   8 -14 3315.89 363.449  11
   1   8 -13 6977.76 498.234  11
   1   8 -12 4074.06 480.471  11
   1   8 -11 582.524 420.491  11
   1   8 -10 25817.2 849.096   4
   1   8 -10 27223.9 981.885  11
   1   8  -9 7509.40 578.680   4
   1   8  -9 8363.19 669.240  11
   1   8  -8 2804.58 477.746   4
   1   8  -8 3575.64 576.924  11
   1   8  -7 29680.0 986.684   4
   1   8  -7 32259.4 1099.87  11
   1   8  -6 6361.91 599.101   4
   1   8  -6 6098.00 666.852  11
   1   8  -5 39181.1 1136.57   4
   1   8  -5 42221.7 1247.69  11
   1   8  -4 7083.88 696.819   4
   1   8  -4 5666.77 705.055  11
   1   8  -3 6941.90 680.764   4
   1   8  -3 6588.87 706.463  11
   1   8  -2 15604.4 858.301   4
   1   8  -2 15216.2 888.785  11
   1   8  -1 20923.6 1020.29   4
   1   8  -1 21276.2 1025.51  11
   1   8   0 32039.2 1191.44   4
  -1  -8   0 28312.5 1332.12  12
   1   8   0 30861.1 1140.23  11
  -1  -8  -1 11287.7 995.935  12
   1   8   1 12556.7 838.259  11
   1   8   2 2433.92 578.027  11
  -1  -8  -2 2268.73 704.380  12
  -1  -8  -3 10170.0 942.368  12
   1   8   3 9742.75 766.230  11
   1   8   4 20096.2 984.073  11
  -1  -8  -4 21840.8 1223.59  12
  -1  -8  -5 6545.04 836.509  12
   1   8   5 7290.20 694.481  11
  -1  -8  -6 458.981 620.161  12
   1   8   6 477.525 532.225  11
  -1  -8  -7 16033.1 1008.11  12
   1   8   7 14515.6 863.724  11
  -1  -8  -8 148.622 526.747  12
   1   8   9 10132.3 697.532   3
   1   8  10 271.548 346.842   3
   1   9 -12 4406.22 385.763  11
   1   9 -11 981.121 341.069  11
   1   9 -10 301.076 327.282   4
   1   9 -10 230.621 363.030  11
   1   9  -9 5104.86 501.248   4
   1   9  -9 4050.69 493.508  11
   1   9  -8 36536.3 1043.70   4
   1   9  -8 35767.5 1068.06  11
   1   9  -7 12370.0 730.683   4
   1   9  -7 11521.0 704.400  11
   1   9  -6 6406.45 626.063  11
   1   9  -6 7827.29 662.296   4
   1   9  -5 26896.7 1004.55   4
   1   9  -5 26134.5 996.168  11
   1   9  -4 21404.3 1012.84   4
   1   9  -4 15493.1 996.386  11
   1   9  -3 33927.1 1145.88   4
   1   9  -3 34979.9 1167.84  11
   1   9  -2 14355.1 961.393   4
   1   9  -2 11946.2 931.976  11
   1   9  -1 5128.30 715.421   4
   1   9  -1 3156.29 602.085  11
  -1  -9   1 3195.44 769.295  12
  -1  -9   0 12485.2 935.976  12
   1   9   0 11584.7 769.118  11
  -1  -9  -1 4827.64 767.526  12
   1   9   1 5989.34 665.897  11
  -1  -9  -2 26617.3 1207.65  12
   1   9   2 24615.3 991.450  11
  -1  -9  -3-441.344 575.158  12
   1   9   3-592.768 530.706  11
  -1  -9  -4 2796.66 645.305  12
   1   9   4 3113.31 541.684  11
  -1  -9  -5 6297.61 708.470  12
  -1  -9  -6 154.143 485.217  12
  -1  -9  -7 2299.77 488.024  12
   1   9   8-313.579 246.906   3
   1  10 -10 167.353 209.715   4
   1  10  -9 6319.26 448.756   4
   1  10  -8-76.2221 339.042   4
   1  10  -8-849.389 367.336  11
   1  10  -7 19667.3 778.112   4
   1  10  -7 18226.3 725.033  11
   1  10  -6 16594.8 769.491   4
   1  10  -6 14355.9 684.362  11
   1  10  -5 1930.15 522.070   4
   1  10  -4 4177.36 564.211   4
   1  10  -3 6371.48 673.018   4
  -1 -10   3 6482.44 726.871  12
  -1 -10   2 11525.3 844.339  12
  -1 -10   1 13491.2 855.942  12
  -1 -10   0 7285.93 727.575  12
  -1 -10  -1 9629.31 733.610  12
  -1 -10  -2 6157.20 635.736  12
  -1 -10  -3-69.4156 446.616  12
  -1 -10  -4 5314.77 542.823  12
  -1 -10  -5 2703.10 442.889  12
   2 -11  -2 668.790 330.318  12
   2 -11  -1 3595.23 449.452  12
   2 -11   0 2895.87 465.920  12
   2 -11   1 1149.53 428.256  12
   2 -11   2 1775.68 457.099  12
   2 -11   3 3946.55 519.140  12
   2 -11   4 9459.34 725.361  12
   2 -11   5 19637.0 803.300  12
  -2  11  -6 1909.22 346.526   4
   2 -11   6 163.819 355.962  12
  -2  11  -7-693.964 314.968   4
   2 -10  -6 4044.64 406.221  12
   2 -10  -5 1530.15 408.233  12
   2 -10  -4 3021.69 497.240  12
   2 -10  -4 3071.50 398.748   8
   2 -10  -3 262.731 342.668   8
   2 -10  -3 204.633 434.367  12
   2 -10  -2 5254.43 622.935  12
   2 -10  -2 5330.39 461.826   8
   2 -10  -1 3632.91 604.144  12
   2 -10  -1 2811.84 407.510   8
   2 -10   0 4633.35 703.858  12
   2 -10   0 3322.60 453.070   8
   2 -10   1 21055.7 1027.98  12
   2 -10   2 15031.8 1065.19  12
  -2  10  -4 4633.47 523.622   4
  -2  10  -5 6163.43 547.667   4
  -2  10  -6 9678.40 613.688   4
  -2  10  -7 8808.00 587.748   4
  -2  10  -8 584.905 368.860   4
  -2  10  -9 12315.4 589.977   4
  -2  10 -10 12523.0 548.383   4
  -2  10 -11 5923.11 380.660   4
   2  -9  -8 1698.91 381.270  12
   2  -9  -7 1262.40 439.104  12
   2  -9  -6 2058.11 466.138   8
   2  -9  -6 1436.16 489.287  12
   2  -9  -5 2497.71 485.338   8
   2  -9  -5 2662.78 577.847  12
   2  -9  -4 145.675 431.840   8
   2  -9  -4 743.283 555.962  12
   2  -9  -3 1464.10 593.482  12
   2  -9  -3 1729.00 469.857   8
   2  -9  -2 5322.21 758.439  12
   2  -9  -2 3479.01 504.204   8
   2  -9  -1 2014.40 650.903  12
   2  -9  -1 1703.44 460.434   8
   2  -9   0 7686.01 587.040   8
   2  -9   0 7173.23 843.840  12
   2  -9   1 9217.00 628.746   8
   2  -9   2 34619.1 1063.85   8
   2  -9   3 59544.0 1239.01   8
  -2   9  -3 60628.6 1367.26   4
  -2   9  -4 14423.3 833.011   4
  -2   9  -5 660.753 474.402   4
  -2   9  -6 29113.4 997.232   4
  -2   9  -7 11882.2 729.475   4
  -2   9  -8 20732.3 857.008   4
  -2   9  -9 431.829 436.457   4
  -2   9 -10 1596.72 429.094   4
  -2   9 -11 28619.7 845.435   4
  -2   9 -12 6275.32 447.605   4
  -2   9 -13 5312.94 353.925   4
   2  -8 -10 197.631 243.352   6
   2  -8  -8 40.7280 470.651  12
   2  -8  -7 283.060 501.859   8
   2  -8  -7-697.031 537.292  12
   2  -8  -6 5475.24 731.166  12
   2  -8  -6 5649.69 661.084   8
   2  -8  -5 5036.81 744.311  12
   2  -8  -5 5186.99 648.569   8
   2  -8  -4 42253.8 1258.85   8
   2  -8  -4 37372.8 1480.96  12
   2  -8  -3 422.353 597.367  12
   2  -8  -3 499.924 491.372   8
   2  -8  -2 8543.08 660.164   8
   2  -8  -2 7222.96 814.517  12
   2  -8  -1 6615.84 610.160   8
   2  -8  -1 5285.81 769.345  12
   2  -8   0 8989.24 676.693   8
   2  -8   1 11443.5 693.392   8
   2  -8   2 7036.45 766.933   8
   2  -8   3 31203.0 977.535   8
  -2   8  -3 30439.4 996.673   4
   2  -8   4 8859.70 689.290   8
  -2   8  -4 10349.1 700.719   4
   2  -8   5 4539.28 498.416   8
   2  -8   6 2089.01 544.619   7
   2  -8   6 2535.93 435.142   8
   2  -8   7 34.5106 480.226   7
   2  -8   8 21573.5 1032.39   7
   2  -8   9 1994.61 560.318   7
   2  -8  10 30286.6 1150.58   7
   2  -8  11 374.264 471.995   7
  -2   7  11-178.164 403.649   3
   2  -7 -11 0.78265 261.312   6
   2  -7 -10 611.355 356.578   6
   2  -7  -9 6753.11 702.095  12
   2  -7  -8 311.452 584.782   8
   2  -7  -8 38.6153 570.277  12
   2  -7  -7 11329.2 913.832  12
   2  -7  -7 13628.0 873.921   8
   2  -7  -6 656.256 545.784   8
   2  -7  -6 463.364 585.202  12
   2  -7  -5-236.535 601.897  12
   2  -7  -5 719.394 525.275   8
   2  -7  -4 42842.2 1248.73   8
   2  -7  -4 40492.9 1500.68  12
   2  -7  -3 386.274 445.583   8
   2  -7  -3-117.433 1298.35  14
   2  -7  -3 368.323 573.462  12
   2  -7  -2 3710.44 519.608   8
   2  -7  -2 3031.34 1559.84  14
   2  -7  -2 3251.17 665.641  12
   2  -7  -1 11573.5 694.953   8
   2  -7  -1 10537.6 2152.81  14
   2  -7   0 5101.28 571.715   8
   2  -7   0 3202.81 1601.58  14
   2  -7   1 10657.6 674.563   8
   2  -7   1 8854.43 1981.94  14
   2  -7   2 3321.36 548.588   8
   2  -7   2 3952.84 1617.80  14
   2  -7   3 2602.63 558.562   8
   2  -7   3 1132.04 1253.00  14
   2  -7   4 32613.7 3061.87  14
   2  -7   4 34750.7 1042.95   8
   2  -7   4 33025.4 1160.28   7
   2  -7   5 1295.57 462.293   8
   2  -7   5 1677.13 1493.36  14
   2  -7   5 833.188 488.889   7
   2  -7   6 25360.0 922.691   8
   2  -7   6 24396.9 1075.22   7
   2  -7   7 17174.0 958.172   7
   2  -7   8 7883.42 746.636   7
   2  -7   9 1601.61 584.690   7
   2  -7  10 23945.0 1113.87   7
   2  -7  11 3977.33 670.342   7
   2  -7  12 7457.47 724.380   7
   2  -7  13 900.569 489.313   7
   2  -7  14 138.077 388.266   7
   2  -6 -11 12791.0 651.392   6
   2  -6  -9 4125.15 677.591   8
   2  -6  -9 3483.50 664.881  12
   2  -6  -8 60302.6 1767.56  12
   2  -6  -8 63099.5 1628.67   8
   2  -6  -7 58717.1 1739.90  12
   2  -6  -7 61561.1 1566.39   8
   2  -6  -6 11951.2 786.548   8
   2  -6  -6 9821.51 2295.20  14
   2  -6  -6 10419.5 883.695  12
   2  -6  -5 1529.00 499.759   8
   2  -6  -5 1849.19 614.487  12
   2  -6  -5 656.176 1518.10  14
   2  -6  -4 40891.8 1163.60   8
   2  -6  -4 40813.2 3680.78  14
   2  -6  -4 38318.3 1390.76  12
   2  -6  -3 10978.3 676.413   8
   2  -6  -3 10996.0 2093.16  14
   2  -6  -3 10918.7 829.113  12
   2  -6  -2 26807.0 927.435   8
   2  -6  -2 25207.6 2721.76  14
   2  -6  -2 25310.0 1096.47  12
   2  -6  -1 1086.48 1274.24  14
   2  -6  -1 1225.22 396.726   8
   2  -6   0 1063.44 458.037   8
   2  -6   0 1212.29 1324.79  14
   2  -6   1 43592.3 1115.30   8
   2  -6   1 41397.9 3278.09  14
   2  -6   2 15340.7 2294.21  14
   2  -6   2 16126.1 894.465   8
   2  -6   3 85608.0 1563.05   8
   2  -6   3 87437.1 4521.51  14
   2  -6   4 7219.82 1698.87  14
   2  -6   4 7603.49 629.820   7
   2  -6   5 197.712 1133.96  14
   2  -6   5 877.057 473.629   7
   2  -6   6 79942.6 1714.88   7
   2  -6   7 7257.88 690.585   7
   2  -6   8 8962.90 761.305   7
   2  -6   9 5917.22 698.935   7
   2  -6  10 1631.85 539.631   2
   2  -6  10 2526.16 612.356   7
   2  -6  11 32761.0 1266.15   7
   2  -6  11 25995.4 1088.41   2
   2  -6  12 8604.32 800.297   7
   2  -6  13 10591.0 799.591   7
   2  -6  14 3080.47 539.839   7
   2  -6  15 746.685 371.376   7
   2  -5 -12 568.127 343.301   6
   2  -5 -11 26344.5 988.516   6
   2  -5 -10 493.569 528.565   8
   2  -5  -9 56881.8 1698.64  12
   2  -5  -9 60187.4 1559.04   8
   2  -5  -8 8431.12 818.870  12
   2  -5  -8 9374.93 754.080   8
   2  -5  -7 9890.33 2456.25  14
   2  -5  -7 7827.30 799.402  12
   2  -5  -7 8291.60 693.331   8
   2  -5  -6 210304. 2557.72   8
   2  -5  -6 211163. 2997.66  12
   2  -5  -5 32699.8 1027.27   8
   2  -5  -5 35470.8 3324.55  14
   2  -5  -5 32700.6 1218.53  12
   2  -5  -4 20997.0 805.508   8
   2  -5  -4 22637.0 2653.62  14
   2  -5  -3 1479.75 1291.94  14
   2  -5  -3 1100.93 353.263   8
   2  -5  -2 2634.60 1325.63  14
   2  -5  -1 17864.4 2165.39  14
   2  -5   0 12990.2 1970.93  14
   2  -5   1 69013.1 3910.62  14
   2  -5   2 16311.3 2169.11  14
   2  -5   3 21197.1 2299.65  14
   2  -5   4 22417.4 2346.98  14
   2  -5   6 10311.8 661.309   7
   2  -5   7 11720.4 730.586   7
   2  -5   8 75525.3 1677.48   7
   2  -5   9 11915.0 833.612   7
   2  -5  10 43197.5 1386.88   7
   2  -5  11 1211.87 582.208   7
   2  -5  12 396.170 560.358   7
   2  -5  13 18665.8 975.408   7
   2  -5  14 5967.11 641.365   7
   2  -5  15 5236.81 543.334   7
   2  -5  16 2149.64 349.216   7
  -2   4  15 2147.93 419.258   2
   2  -4 -12 159.373 380.717   6
   2  -4 -11 7477.07 638.481   6
   2  -4 -10 1743.87 541.308   8
   2  -4 -10 1550.11 510.140   6
   2  -4  -9 5712.40 718.179  12
   2  -4  -9 6181.04 659.199   8
   2  -4  -8 187.566 450.769   8
   2  -4  -8 656.871 1710.54  14
   2  -4  -8 808.304 562.178  12
   2  -4  -7 38729.6 1127.23   8
   2  -4  -7 44428.6 3880.55  14
   2  -4  -6 11340.8 640.890   8
   2  -4  -6 11614.7 2126.71  14
   2  -4  -5 18963.5 732.885   8
   2  -4  -5 20720.0 2486.81  14
   2  -4  -4 104065. 4800.71  14
   2  -4  -3-179.664 1096.52  14
   2  -4  -2 33548.7 2670.57  14
   2  -4  -1 38201.3 2797.50  14
   2  -4   0 25335.5 2461.44  14
   2  -4   1 285025. 7163.67  14
   2  -4   2 3543.73 1386.20  14
   2  -4   3 39100.0 2787.38  14
   2  -4   4 62404.3 3483.82  14
  -2   4  -5 13069.9 1045.10  13
  -2   4  -6 65033.9 2360.05  13
  -2   4  -7 7421.98 996.983  13
   2  -4   7 7468.67 565.668   7
  -2   4  -8 507.259 655.310  13
   2  -4   8 362.729 395.905   7
  -2   4  -9 37509.7 2307.59  13
   2  -4   9 37983.5 1226.43   7
  -2   4 -10 34845.6 2343.33  13
   2  -4  10 40301.2 1309.80   7
   2  -4  11 50158.0 1475.90   7
   2  -4  12 6501.36 735.672   7
   2  -4  13 6593.14 732.146   7
   2  -4  14 4228.55 601.844   7
   2  -4  15 1772.90 460.441   7
   2  -4  16 839.908 339.175   7
  -2   3  15 399.828 425.778   2
   2  -3 -13 44688.2 1079.72   6
   2  -3 -12 3738.03 497.414   6
   2  -3 -11 15817.4 848.749   6
   2  -3 -10 1450.28 515.348   8
   2  -3 -10 1064.43 476.705   6
   2  -3  -9 579.790 457.778   8
   2  -3  -8 42297.8 3490.89  14
   2  -3  -8 48369.9 1234.96   8
   2  -3  -7 49369.4 1147.85   8
   2  -3  -7 41829.5 3373.85  14
   2  -3  -6 70711.9 4096.31  14
   2  -3  -5 5336.67 1453.36  14
   2  -3  -4 14067.2 1847.35  14
   2  -3  -3 62547.6 3260.21  14
   2  -3  -2 44875.2 2742.34  14
   2  -3  -1 115958. 4140.30  14
   2  -3   0 56176.2 3036.52  14
   2  -3   1 372328. 7429.53  14
   2  -3   2 283410. 6527.34  14
  -2   3  -2 280798. 3582.51  13
   2  -3   3 247664. 6242.30  14
  -2   3  -3 243475. 3666.83  13
  -2   3  -4 3002.10 626.291  13
  -2   3  -5 24288.5 1405.73  13
  -2   3  -6 115034. 3132.32  13
  -2   3  -7 33336.1 1863.67  13
  -2   3  -8 63455.9 2707.18  13
   2  -3   8 60941.9 1565.32   3
   2  -3   8 59541.4 1331.76   7
  -2   3  -9 1382.74 816.130  13
   2  -3   9 2082.95 482.661   7
   2  -3   9 1992.73 593.441   3
  -2   3 -10-114.288 861.492  13
   2  -3  10 652.510 467.489   7
   2  -3  10 674.090 604.795   3
  -2   3 -11 64218.5 3254.31  13
   2  -3  11 68215.0 1878.51   3
   2  -3  11 69793.2 1664.03   7
   2  -3  12 6605.86 832.656   3
   2  -3  12 6464.25 708.533   7
   2  -3  13 48364.1 1440.10   7
   2  -3  14 840.462 503.149   7
   2  -3  15 157.449 432.277   7
   2  -3  16 17026.9 647.235   7
  -2   2  16 2998.65 434.943   2
  -2   2  15 2802.05 553.346   2
   2  -2 -13 555.439 372.090   6
   2  -2 -12 8251.99 628.463   6
   2  -2 -11 14046.8 805.559   6
  -2   2  10 160.437 1197.95   1
   2  -2 -10-126.272 439.355   6
   2  -2  -9 13132.1 775.463   6
   2  -2  -9 11905.6 719.670   8
   2  -2  -7-173.732 922.982  14
   2  -2  -6 116585. 4308.33  14
   2  -2  -5 30810.8 2223.55  14
   2  -2  -4 46934.6 2574.04  14
   2  -2  -3 22318.8 1820.56  14
   2  -2  -2 13980.1 1478.97  14
   2  -2  -1 88917.8 3290.38  14
  -2   2   0 12001.0 897.064  13
   2  -2   0 11726.9 1490.83  14
   2  -2   1 70774.4 3009.30  14
  -2   2  -1 72689.5 2022.52  13
   2  -2   2 23250.7 1928.39  14
  -2   2  -2 24378.5 1313.61  13
  -2   2  -3 88726.2 2486.36  13
  -2   2  -4 155511. 3458.30  13
  -2   2  -5 64200.0 2430.40  13
  -2   2  -6 3430.84 840.290  13
  -2   2  -7 8565.18 1143.19  13
  -2   2  -8 33163.4 2024.30  13
   2  -2   8 32866.9 1147.86   3
   2  -2   8 31279.2 957.001   7
   2  -2   8 31417.4 754.285   9
  -2   2  -9 89482.7 3434.85  13
   2  -2   9 85573.7 1895.72   3
   2  -2   9 85924.0 1641.18   7
   2  -2   9 84954.1 1303.71   9
  -2   2 -10 96863.0 3767.72  13
   2  -2  10 94730.5 2065.67   3
   2  -2  10 96388.8 1822.36   7
  -2   2 -11 398.246 795.391  13
   2  -2  11 1454.73 618.938   7
   2  -2  11 1366.21 723.203   3
   2  -2  12 1336.41 587.251   7
   2  -2  12 1217.04 713.283   3
   2  -2  13 60722.7 1546.70   7
   2  -2  13 60880.7 1714.78   3
   2  -2  14 9602.99 861.129   3
   2  -2  14 9889.12 744.664   7
   2  -2  15 19831.6 831.059   7
  -2   1  16 408.609 399.481   2
  -2   1  15 23138.3 1002.53   2
  -2   1  14 4817.00 712.388   2
   2  -1 -13 3730.01 486.631   6
   2  -1 -12 2309.26 476.346   6
  -2   1  11 498.898 1172.01   1
   2  -1 -11 147.993 425.027   6
  -2   1  10 3041.60 1474.83   1
   2  -1 -10 1867.54 485.250   6
  -2   1   9 7986.72 1719.59   1
   2  -1  -9 7728.49 647.765   6
   2  -1  -8 5261.99 522.119   6
  -2   1   8 5835.78 1475.19   1
   2  -1  -6 16336.2 1476.60  14
   2  -1  -5 3205.87 847.264  14
   2  -1  -4 11782.8 1254.92  14
   2  -1  -3 681.282 741.665  14
   2  -1  -2 17793.3 1457.22  14
   2  -1  -1 53015.4 2316.61  14
   2  -1  -1 59312.7 1712.46  10
   2  -1   0 1761.99 871.029  14
   2  -1   0 1934.90 559.115  10
   2  -1   1 64172.1 2683.20  14
  -2   1  -1 63470.8 1406.99   1
  -2   1  -2 11761.9 1110.87  13
  -2   1  -3 51250.6 2101.87  13
  -2   1  -4 9605.04 1253.29  13
  -2   1  -5 4730.57 935.790  13
  -2   1  -6 80752.5 2994.22  13
  -2   1  -7 982.678 736.904  13
  -2   1  -8 214.644 747.227  13
  -2   1  -9 20389.3 1778.45  13
   2  -1   9 21613.0 1051.56   3
   2  -1   9 21330.2 897.613   7
   2  -1   9 21554.6 679.342   9
   2  -1  10 7221.85 829.325   3
   2  -1  10 7292.14 707.879   7
  -2   1 -10 5976.70 1167.24  13
  -2   1 -11 74891.6 3460.86  13
   2  -1  11 76040.0 1885.44   3
   2  -1  11 77944.0 1674.95   7
   2  -1  12 29841.9 1275.12   3
   2  -1  12 31773.7 1124.73   7
   2  -1  13 5136.19 770.045   7
   2  -1  13 4654.85 882.343   3
   2  -1  14 11736.6 739.539   7
   2  -1  14 12241.2 898.096   3
   2  -1  15 10572.0 651.132   7
   2  -1  15 11123.3 821.056   3
  -2   0  16 19738.1 868.203   2
  -2   0  15 786.754 582.278   2
   2   0 -14 776.793 414.785   6
  -2   0  14 503.725 682.690   2
  -2   0  13 29386.2 1313.23   2
   2   0 -13 28273.7 964.628   6
   2   0 -12 6937.40 606.121   6
  -2   0  12 6999.18 811.940   2
  -2   0  11 7697.27 1837.98   1
   2   0 -11 9332.01 685.739   6
  -2   0  10 1672.34 1308.82   1
   2   0 -10 2320.95 490.207   6
  -2   0   9-51.0866 1016.37   1
   2   0  -9-20.7750 396.030   6
  -2   0   8 31469.3 2619.23   1
  -2   0   7 20531.3 2035.77   1
  -2   0   6 26034.2 2093.37   1
  -2   0   5 18935.8 1709.83   1
   2   0  -4 1098.71 666.566  14
  -2   0   4 1666.41 837.574   1
  -2   0   3 938.571 749.680   1
   2   0  -3 339.921 572.429  14
  -2   0   2 107.784 623.580   1
   2   0  -2 128.818 607.364  14
  -2   0   1 10192.8 936.122   1
  -2   0   0-28.0189 396.414   1
   2   0   0-75.6718 567.720  10
  -2   0  -1 28652.4 918.364   1
   2   0   1 28400.6 1390.14  10
  -2   0  -3 103890. 3134.75  13
  -2   0  -4 448.924 745.476  13
  -2   0  -5 3032.73 910.664  13
  -2   0  -6 49647.5 2472.11  13
  -2   0  -7 14531.7 1503.61  13
  -2   0  -8 34428.0 2245.19  13
  -2   0  -9 47517.9 2683.88  13
   2   0   9 47054.9 1413.48   3
   2   0   9 48253.7 907.261   9
  -2   0 -10-80.2980 789.138  13
   2   0  10 20.0554 527.875   3
   2   0  11 29055.4 1253.60   3
   2   0  11 30658.0 1082.13   7
   2   0  12 20187.2 1088.77   3
   2   0  12 21140.8 925.279   7
   2   0  13 21274.6 897.890   7
   2   0  13 21932.6 1074.01   3
   2   0  14 8202.99 604.564   7
   2   0  14 8892.12 778.333   3
   2   0  15 556.384 499.502   3
   2   0  16 4787.23 508.000   3
  -2  -1  17 3949.54 446.367   2
  -2  -1  16 19408.7 899.627   2
  -2  -1  15 11102.2 852.780   2
  -2  -1  14 21319.8 1131.97   2
   2   1 -14 20274.0 796.189   6
  -2  -1  13 1599.54 869.055   2
   2   1 -13 1347.62 584.167   6
  -2  -1  12 496.505 637.624   2
   2   1 -12 359.929 446.335   6
  -2  -1  11 12756.1 940.726   2
   2   1 -11 13446.5 773.470   6
  -2  -1  11 12051.4 2033.42   1
   2   1 -10 16262.6 810.902   6
  -2  -1  10 17419.5 2195.73   1
  -2  -1  10 18051.4 1012.13   2
   2   1  -9 32961.0 1039.83   6
  -2  -1   9 32152.7 2725.53   1
  -2  -1   8 6984.43 1458.47   1
  -2  -1   7 2210.02 1042.76   1
  -2  -1   6 119643. 4150.74   1
  -2  -1   5 143458. 4204.27   1
  -2  -1   4 169079. 4244.48   1
  -2  -1   3 52837.7 2255.04   1
  -2  -1   2 8549.61 1048.20   1
  -2  -1   1 9528.06 995.590   1
  -2  -1   0 25166.0 1281.37   1
   2   1   0 22842.4 1445.95  10
   2   1   1 11946.7 1136.51  10
  -2  -1  -1 12763.6 835.475   1
   2   1   2 20565.8 1394.18  10
  -2  -1  -3 3592.20 993.543  13
  -2  -1  -4 60643.4 2662.02  13
  -2  -1  -5 36932.7 2174.72  13
  -2  -1  -6-116.274 738.302  13
  -2  -1  -7 4957.69 1074.97  13
  -2  -1  -8 11925.9 1494.85  13
   2   1   8 13121.7 841.199   3
   2   1   8 12677.7 761.650  11
  -2  -1  -9 4984.49 1150.77  13
   2   1   9 4578.62 634.315   3
   2   1   9 5598.44 654.779  11
  -2  -1 -10 39982.1 2536.71  13
   2   1  10 41090.6 1378.42   3
   2   1  11 660.685 557.549   3
   2   1  12 94.7278 390.988   7
   2   1  12 483.197 582.393   3
   2   1  13 12692.4 691.659   7
   2   1  13 14241.1 913.893   3
   2   1  14 743.606 542.195   3
   2   1  15 2320.88 508.100   3
   2   1  16 1341.29 384.144   3
  -2  -2  16 3482.07 609.848   2
  -2  -2  15 12849.9 864.667   2
  -2  -2  14 18132.3 1072.90   2
   2   2 -14 16555.9 761.377   6
  -2  -2  13 34655.9 1362.16   2
   2   2 -13 32789.5 1046.88   6
  -2  -2  12 13066.7 946.550   2
   2   2 -12 13516.8 774.229   6
   2   2 -11 3207.45 544.648   6
  -2  -2  11 3359.37 670.824   2
  -2  -2  11 3212.45 1394.21   1
   2   2 -10 6142.79 586.001   6
  -2  -2  10 6479.61 1511.75   1
  -2  -2   9 12480.0 1798.97   1
   2   2  -9 13042.6 722.781   6
   2   2  -8 19670.7 792.761   6
  -2  -2   8 17632.6 1941.81   1
  -2  -2   7 36678.8 2513.50   1
  -2  -2   6 3210.82 1053.78   1
  -2  -2   5 6396.74 1177.94   1
  -2  -2   4 209435. 4903.68   1
  -2  -2   3 10315.8 1239.27   1
  -2  -2   2 3757.77 917.211   1
  -2  -2   1 44244.1 2015.08   1
  -2  -2   0 228.127 621.615   1
   2   2   0 283.125 789.575  10
   2   2   1 112653. 3095.86  10
  -2  -2  -1 107817. 2580.02   1
   2   2   2 483.988 653.846  10
  -2  -2  -3 488.598 788.590  13
  -2  -2  -4 41483.7 2337.11  13
  -2  -2  -5 63886.4 2881.91  13
  -2  -2  -6 1049.06 761.665  13
  -2  -2  -7 3378.31 1007.33  13
   2   2   7 4385.81 543.069  11
  -2  -2  -8 6709.55 1258.29  13
   2   2   8 8285.51 715.120   3
   2   2   8 7029.21 663.300  11
  -2  -2  -9 2613.38 1039.30  13
   2   2   9 3530.69 662.944   3
   2   2   9 3272.67 627.420  11
  -2  -2 -10 8270.39 1346.87  13
   2   2  10 9849.55 813.630  11
   2   2  10 10162.3 829.264   3
   2   2  11 18414.5 1035.36   3
   2   2  12-3.88178 371.201   7
   2   2  12 220.303 569.179   3
   2   2  13-120.151 348.281   7
   2   2  13 137.565 536.265   3
   2   2  14 2455.25 549.450   3
   2   2  15 2717.26 466.307   3
   2   2  16 69.7326 290.798   3
  -2  -3  16 19906.4 794.318   2
  -2  -3  15 872.681 493.648   2
  -2  -3  14 208.698 531.660   2
   2   3 -14 114.482 345.354   6
  -2  -3  13 30147.8 1267.17   2
   2   3 -13 28976.2 997.207   6
  -2  -3  12 31745.1 1330.22   2
   2   3 -12 31205.0 1084.06   6
  -2  -3  11 123310. 2399.37   2
  -2  -3  11 115545. 5408.86   1
   2   3 -11 120841. 2043.35   6
  -2  -3  10 11997.5 1943.71   1
   2   3 -10 12614.3 763.462   6
  -2  -3   9 16937.5 2094.55   1
   2   3  -9 17876.5 841.852   6
  -2  -3   8 108912. 4590.87   1
   2   3  -8 106261. 1794.25   6
  -2  -3   7 51005.8 3056.70   1
   2   3  -7 50803.7 1197.44   6
  -2  -3   6 88883.5 3793.99   1
  -2  -3   5 9926.18 1428.42   1
  -2  -3   4 49229.9 2645.64   1
  -2  -3   3 74450.9 3071.51   1
  -2  -3   2 23021.2 1744.82   1
  -2  -3   1 1482.21 795.153   1
   2   3   0 21567.6 1679.92  10
  -2  -3   0 19938.1 1470.61   1
   2   3   1 7919.34 1090.59  10
   2   3   2 89388.7 2954.82  10
  -2  -3  -3 304920. 6386.38  13
  -2  -3  -4 4343.90 1030.49  13
  -2  -3  -5 22646.6 1874.79  13
  -2  -3  -6 12702.1 1530.66  13
   2   3   6 13512.6 750.611  11
  -2  -3  -7 9380.39 1404.11  13
   2   3   7 12539.7 843.450   3
   2   3   7 10182.7 746.397  11
  -2  -3  -8 56442.6 3160.21  13
   2   3   8 62036.4 1676.69   3
   2   3   8 59515.6 1551.83  11
  -2  -3  -9 99.1871 789.248  13
   2   3   9 862.759 598.840  11
   2   3   9 389.226 543.680   3
   2   3  10 1337.02 670.626  11
   2   3  10 992.637 622.608   3
   2   3  11 38268.5 1385.76   3
   2   3  12 2186.40 407.867   7
   2   3  12 2801.14 650.552   3
   2   3  13 26325.9 1090.47   3
   2   3  14 7544.18 639.995   3
   2   3  15 183.574 339.211   3
  -2  -4  16 1910.49 391.518   2
  -2  -4  15 24766.9 940.947   2
   2   4 -14 24659.8 830.810   6
  -2  -4  14 27851.2 1119.78   2
  -2  -4  13-198.863 533.417   2
   2   4 -13 174.211 401.774   6
  -2  -4  12 2910.81 654.347   2
   2   4 -12 2284.94 521.865   6
  -2  -4  11 15330.7 984.859   2
   2   4 -11 15443.0 858.370   6
  -2  -4  10 18396.5 1014.58   2
  -2  -4  10 17150.6 2240.27   1
   2   4 -10 18016.0 896.967   6
  -2  -4   9 97565.3 4733.86   1
   2   4  -9 97688.6 1825.31   6
  -2  -4   8 13166.0 1927.79   1
   2   4  -8 13636.4 766.923   6
   2   4  -8 13844.0 661.591   5
  -2  -4   7 31752.4 2581.71   1
   2   4  -7 32286.6 1029.18   6
   2   4  -7 31202.8 879.088   5
  -2  -4   6 133714. 4890.16   1
   2   4  -6 126256. 1896.24   6
  -2  -4   5 28167.9 2272.06   1
  -2  -4   4 71102.7 3356.33   1
  -2  -4   3 5839.46 1214.09   1
  -2  -4   2 3227.72 1097.27   1
   2   4  -1 70533.6 3011.88  10
  -2  -4   1 65261.8 2930.03   1
   2   4   0 9348.71 1400.17  10
   2   4   1 148630. 4135.75  10
  -2  -4  -3 7064.04 1320.98  13
  -2  -4  -4 156249. 4900.11  13
   2   4   4 141884. 2061.04  11
   2   4   5 47788.7 1300.76  11
  -2  -4  -5 49858.6 2814.90  13
  -2  -4  -6 2073.89 947.674  13
   2   4   6 2335.80 534.436  11
   2   4   7 8093.34 752.027  11
   2   4   7 8605.05 810.952   3
   2   4   8 13435.6 921.387  11
   2   4   8 13051.7 923.982   3
   2   4   9 40348.1 1433.74   3
   2   4   9 39894.8 1387.45  11
   2   4  10 9363.90 884.208   3
   2   4  10 10352.9 943.188  11
   2   4  11 3184.14 679.035   3
   2   4  12 4285.17 718.301   3
   2   4  13 4376.70 594.189   3
   2   4  14 465.209 365.148   3
  -2  -5  15 10313.1 609.633   2
  -2  -5  14 5106.43 608.785   2
  -2  -5  13 25485.7 1068.90   2
   2   5 -12 14658.7 798.551   6
  -2  -5  12 14607.3 900.165   2
  -2  -5  11 3347.96 626.070   2
   2   5 -11 3482.42 561.686   6
  -2  -5  10 2255.08 624.369   2
   2   5 -10 2215.92 544.644   6
   2   5  -9 2284.87 541.021   6
  -2  -5   9 1564.99 1115.47   1
  -2  -5   8 21995.9 2405.51   1
   2   5  -8 23270.7 985.438   6
   2   5  -7 3148.65 556.356   6
  -2  -5   7 2182.64 1193.41   1
   2   5  -7 2917.25 416.103   5
   2   5  -6 5104.58 556.845   6
  -2  -5   6 4853.91 1328.18   1
   2   5  -6 5466.44 475.342   5
  -2  -5   5 15293.1 1883.49   1
   2   5  -5 15132.0 778.701   6
  -2  -5   4 18701.5 1993.21   1
   2   5  -4 17857.1 806.702   6
   2   5  -4 17662.8 815.136  11
   2   5  -3 18665.4 834.038  11
  -2  -5   3 19525.4 2002.67   1
  -2  -5   2 4876.53 1232.99   1
   2   5  -2 5448.66 632.283  11
   2   5  -2 6111.62 1291.16  10
   2   5  -1 8357.32 631.801  11
   2   5  -1 10300.4 1441.26  10
   2   5   0 1896.02 590.448  11
   2   5   0 1972.11 1026.60  10
   2   5   1 112127. 1939.35  11
   2   5   1 128489. 4038.02  10
   2   5   2 11148.5 745.687  11
  -2  -5  -3 6619.51 1300.40  13
   2   5   3 7111.46 639.606  11
  -2  -5  -4 27081.0 2234.41  13
   2   5   4 32028.1 1110.63  11
  -2  -5  -5 5369.97 1247.75  13
   2   5   5 7011.09 707.212  11
   2   5   6 54871.6 1518.70  11
   2   5   7 984.026 614.330  11
   2   5   8 1386.03 670.360  11
   2   5   8 502.561 563.566   3
   2   5   9 35090.5 1334.86   3
   2   5   9 38124.8 1392.67  11
   2   5  10 7750.81 753.327   3
   2   5  10 8368.82 826.096  11
   2   5  11 38578.8 1252.72   3
   2   5  12 5397.09 576.953   3
   2   5  13 571.311 353.693   3
   2   6 -16 3044.21 269.636  11
  -2  -6  14 2727.03 441.386   2
  -2  -6  13 24126.0 958.972   2
  -2  -6  12 186.251 529.275   2
  -2  -6  11 2110.41 555.528   2
  -2  -6  10 4949.01 663.072   2
  -2  -6   7 4609.70 1370.60   1
  -2  -6   6 46259.2 3317.66   1
   2   6  -6 48999.9 1318.87  11
  -2  -6   5 3758.79 1334.33   1
   2   6  -5 4036.31 568.769  11
  -2  -6   4-112.097 979.996   1
   2   6  -4 2250.76 585.929  11
   2   6  -3 28229.8 971.414   4
   2   6  -3 29545.3 1073.38  11
   2   6  -3 26787.4 2207.87  10
   2   6  -2 38920.8 1173.32   4
   2   6  -2 34612.0 1270.03  11
   2   6  -1 52049.5 1347.46   4
   2   6  -1 55314.1 1431.99  11
   2   6  -1 51765.3 2880.93  10
   2   6   0 22585.2 1103.38  11
   2   6   0 14631.1 1703.00  10
   2   6   1 57462.1 1502.80  11
  -2  -6  -2 35049.1 2731.87  13
   2   6   2 46368.6 1363.48  11
   2   6   3 24261.0 1064.62  11
   2   6   4 7724.30 759.277  11
   2   6   5 5031.14 714.574  11
   2   6   6 13168.6 937.203  11
   2   6   7 3747.39 743.210  11
   2   6   8 5468.47 781.445  11
   2   6   9 907.591 624.751  11
   2   6   9 84.3754 445.292   3
   2   6  10 702.831 427.065   3
   2   6  11 10849.9 608.221   3
   2   7 -15 2149.31 264.151  11
   2   7 -14 4824.51 409.657  11
   2   7 -13 595.389 382.135  11
   2   7 -12-74.9203 440.216  11
   2   7 -11 679.491 497.586  11
   2   7 -10 1151.33 552.086  11
   2   7  -9 5706.53 663.775  11
   2   7  -8 1124.77 548.518  11
   2   7  -7 4608.56 656.075  11
   2   7  -6 49424.2 1358.62  11
   2   7  -5 6250.17 559.364   4
   2   7  -5 7111.16 715.375  11
   2   7  -4 3758.11 532.334   4
   2   7  -4 4914.06 676.163  11
   2   7  -3 6965.60 619.821   4
   2   7  -3 8005.63 738.203  11
   2   7  -2 12757.9 816.100   4
   2   7  -2 10301.0 925.471  11
   2   7  -1 30252.2 1185.74  11
   2   7   0 8336.40 883.195  11
   2   7   1 1134.80 595.450  11
   2   7   2 25447.8 1110.95  11
   2   7   3 5057.31 725.272  11
   2   7   4 16616.5 1002.31  11
   2   7   5 495.187 627.858  11
   2   7   6 5785.93 769.860  11
   2   7   7 3067.19 678.835  11
   2   7   8 2061.18 603.400  11
   2   7   9 13019.4 787.158  11
   2   8 -13 9135.31 464.793  11
   2   8 -12 3160.22 409.554  11
   2   8 -11 520.281 393.764  11
   2   8 -10 5461.54 553.991  11
   2   8  -9 931.023 480.482  11
   2   8  -8 11611.9 730.721  11
   2   8  -7 1421.33 542.865  11
   2   8  -6 3972.27 482.078   4
   2   8  -6 5631.44 674.196  11
   2   8  -5 9394.44 646.226   4
   2   8  -5 12792.8 843.840  11
   2   8  -4 7491.07 627.410   4
   2   8  -4 9332.01 803.350  11
   2   8  -3 1393.65 656.104  11
   2   8  -2 1576.54 639.399  11
   2   8  -1 5726.74 718.852  11
   2   8   0 1589.55 633.400  11
   2   8   1 2674.93 638.687  11
   2   8   2 1406.07 602.549  11
   2   8   3 2034.73 629.621  11
   2   8   4 2404.20 631.345  11
   2   8   5 402.884 543.116  11
   2   8   6 4311.90 628.594  11
   2   8   7 356.837 483.202  11
   2   8   8 4808.16 522.263  11
   2   9 -12 2854.78 280.873  11
   2   9 -11 7080.62 423.106  11
   2   9 -10 374.528 319.098  11
   2   9  -9 339.539 364.610  11
   2   9  -8 31866.9 944.217  11
   2   9  -7 1224.79 465.443  11
   2   9  -6 1645.49 499.909  11
   2   9  -5 4883.12 593.534  11
   2   9  -4 1384.28 577.667  11
   2   9  -3 3146.24 575.874  11
   2   9  -2 1563.66 549.223  11
   2   9  -1 153.137 495.701  11
   2   9   0 901.022 527.608  11
   2   9   1 987.451 509.846  11
   2   9   2 6198.02 660.787  11
   2   9   3 744.567 489.421  11
   2   9   4 833.059 460.153  11
   2   9   5 201.468 409.339  11
   2   9   6 5865.71 505.806  11
   2  10  -9 1131.73 259.384  11
   2  10  -8 1209.56 302.013  11
   2  10  -7 2586.28 375.883  11
   2  10  -6 23956.2 745.466  11
   2  10  -5 6665.15 510.775  11
   2  10  -4 3821.70 455.183  11
   2  10  -3 3153.86 464.016  11
   2  10  -2 2878.44 476.863  11
   2  10  -1 5595.77 497.340  11
   2  10   0 2825.89 465.782  11
   2  10   1 5414.86 485.826  11
   2  10   2 2664.54 412.473  11
   2  10   3 500.849 334.032  11
   3 -10  -4 5668.00 384.867   8
   3 -10  -3 6917.06 430.581   8
   3 -10  -2 12489.5 542.468   8
   3 -10  -1 3840.92 399.020   8
   3 -10   0 1433.64 357.548   8
   3 -10   1 12916.7 648.445   8
   3 -10   2 30834.5 811.921   8
   3 -10   3 24850.9 750.333   8
   3 -10   4 17947.5 602.259   8
   3 -10   5 7189.47 403.881   8
   3  -9  -7 5669.32 381.347   6
   3  -9  -6 10905.8 553.765   8
   3  -9  -5 21342.9 761.864   8
   3  -9  -4 612.519 388.209   8
   3  -9  -3 2292.36 456.575   8
   3  -9  -2 19420.7 782.271   8
   3  -9  -1 7229.83 601.964   8
   3  -9   0 17192.6 753.961   8
   3  -9   1 7647.37 637.484   8
   3  -9   2 12456.3 770.284   8
   3  -9   3 30255.2 924.493   8
   3  -9   4 19616.2 807.709   8
   3  -9   5 16610.0 685.105   8
   3  -9   6 779.538 361.860   8
   3  -9   7 434.967 321.127   8
   3  -9   8 12819.6 514.556   8
  -3   9  -9 12995.7 551.684   4
  -3   9 -10 1490.80 303.493   4
   3  -8  -9 3048.68 312.384   6
   3  -8  -8 1155.93 326.333   6
   3  -8  -7 653.392 410.720   8
   3  -8  -6 9056.37 635.478   8
   3  -8  -5 13200.2 739.242   8
   3  -8  -4 12604.2 737.213   8
   3  -8  -3 11600.3 734.960   8
   3  -8  -2 7381.52 638.887   8
   3  -8  -1 2889.43 557.007   8
   3  -8   0 5593.91 600.051   8
   3  -8   1 4219.77 692.785   8
   3  -8   2 18889.4 845.713   8
   3  -8   3 3881.02 677.965   8
   3  -8   4 2378.78 609.437   8
   3  -8   5 28751.6 981.710   8
   3  -8   6 5409.63 573.794   8
   3  -8   7 18246.7 782.139   8
   3  -8   8 10648.3 608.819   8
   3  -8   8 9347.42 672.742   7
   3  -8   9 706.138 367.502   8
   3  -8   9 721.404 429.969   7
   3  -8  10 27000.9 746.752   8
   3  -8  10 26141.2 920.890   7
   3  -8  11 10262.7 449.926   8
   3  -7 -10 977.677 289.043   6
   3  -7  -9 5299.98 483.395   6
   3  -7  -8 1923.85 481.281   8
   3  -7  -7 11064.2 733.015   8
   3  -7  -6 3647.86 575.487   8
   3  -7  -5 273.279 491.149   8
   3  -7  -4 6344.58 642.390   8
   3  -7  -3 4590.56 602.975   8
   3  -7  -2 10847.3 732.578   8
   3  -7  -1 1975.54 529.492   8
   3  -7   0 3108.80 566.021   8
   3  -7   1 7400.48 674.780   8
   3  -7   2 13338.5 911.621   8
   3  -7   3 40883.8 1237.05   8
   3  -7   4 17780.0 942.869   8
   3  -7   5 2124.86 590.876   8
   3  -7   6 14383.3 821.752   8
   3  -7   6 11218.4 772.649   7
   3  -7   7 69592.1 1538.99   8
   3  -7   7 65699.8 1645.07   7
   3  -7   8 8657.10 693.781   8
   3  -7   8 8032.40 722.591   7
   3  -7   9 1338.66 490.707   8
   3  -7   9 425.752 502.803   7
   3  -7  10 27391.2 914.816   8
   3  -7  10 27367.4 1083.41   7
   3  -7  11 24899.8 806.851   8
   3  -7  11 26014.7 1005.69   7
   3  -7  12 55495.0 1029.03   8
   3  -7  12 61020.8 1334.64   7
   3  -7  13 1855.79 375.897   7
   3  -6 -11 2560.32 358.215   6
   3  -6 -10 2481.15 420.536   6
   3  -6  -9 1400.84 476.847   8
   3  -6  -9 1008.11 437.797   6
   3  -6  -8 576.234 478.369   8
   3  -6  -7 1959.74 522.890   8
   3  -6  -6 375.752 473.866   8
   3  -6  -5 31120.5 1079.66   8
   3  -6  -4 4347.06 572.873   8
   3  -6  -3 6505.83 606.510   8
   3  -6  -2 870.488 456.165   8
   3  -6  -2 247.956 1460.68  14
   3  -6  -1 3634.08 566.619   8
   3  -6  -1 3767.75 1854.21  14
   3  -6   0 24688.3 976.878   8
   3  -6   0 23015.9 2977.69  14
   3  -6   1 3005.02 611.977   8
   3  -6   1 2334.62 1762.83  14
   3  -6   2 4233.79 635.339   8
   3  -6   2 2263.01 1689.90  14
   3  -6   3 22370.9 986.898   8
   3  -6   3 17940.4 2591.11  14
   3  -6   4 40199.0 1241.14   8
   3  -6   6 9725.74 753.004   7
   3  -6   7 565.635 496.303   7
   3  -6   8 1651.79 556.881   7
   3  -6   9 18541.0 1002.25   7
   3  -6  10 21159.0 1034.79   7
   3  -6  11 1122.90 542.263   7
   3  -6  12 13006.2 789.529   7
   3  -6  13 5869.76 556.436   7
   3  -6  14 3983.59 416.883   7
   3  -5 -12 4620.34 404.236   6
   3  -5 -11 4996.41 526.061   6
   3  -5 -10 400.208 428.909   6
   3  -5  -9 2694.49 519.185   8
   3  -5  -9 1183.72 499.244   6
   3  -5  -8 1044.83 480.440   8
   3  -5  -7 1764.38 503.616   8
   3  -5  -6 3093.25 527.187   8
   3  -5  -5 3222.76 504.092   8
   3  -5  -5 2551.58 1915.63  14
   3  -5  -4 3651.79 533.254   8
   3  -5  -4 3914.64 1968.29  14
   3  -5  -3 19909.9 856.080   8
   3  -5  -3 17495.0 2834.42  14
   3  -5  -2 931.171 433.134   8
   3  -5  -2 557.788 1476.96  14
   3  -5  -1 2630.38 493.831   8
   3  -5  -1 3075.80 1594.48  14
   3  -5   0 14696.5 752.948   8
   3  -5   0 13117.3 2319.21  14
   3  -5   1 784.473 476.775   8
   3  -5   1-450.001 1240.57  14
   3  -5   2 5601.47 606.961   8
   3  -5   2 5065.36 1726.11  14
   3  -5   3 16691.3 2463.28  14
   3  -5   5 90113.8 1794.79   7
   3  -5   6 1312.21 501.434   7
   3  -5   7 26500.0 1102.68   7
   3  -5   8 48589.5 1471.78   7
   3  -5   9 8155.99 778.767   7
   3  -5  10 2189.55 606.948   7
   3  -5  11 3645.09 659.223   7
   3  -5  12 7943.54 731.899   7
   3  -5  13 8090.33 663.630   7
   3  -5  14-184.294 363.999   7
   3  -5  15 3988.48 368.470   7
   3  -4 -13 2633.85 330.561   6
   3  -4 -12 52313.5 1135.97   6
   3  -4 -11 4790.22 540.377   6
   3  -4 -10 3499.97 575.160   6
   3  -4  -9 6326.67 679.618   6
   3  -4  -9 5488.86 608.528   8
   3  -4  -8 2521.80 498.981   8
   3  -4  -8 2892.06 584.606   6
   3  -4  -7 128475. 1958.70   8
   3  -4  -6 29487.3 1005.58   8
   3  -4  -5 5762.54 549.595   8
   3  -4  -5 5461.70 1974.07  14
   3  -4  -4 84054.6 1526.93   8
   3  -4  -4 77315.9 4730.16  14
   3  -4  -3 31338.2 970.518   8
   3  -4  -3 29186.0 2951.03  14
   3  -4  -2 53461.4 1226.37   8
   3  -4  -2 54474.3 3808.79  14
   3  -4  -1 1335.27 403.546   8
   3  -4  -1 420.041 1212.80  14
   3  -4   0 7155.78 581.796   8
   3  -4   0 6914.95 1688.13  14
   3  -4   1 22169.7 878.429   8
   3  -4   1 22308.3 2570.78  14
   3  -4   2 46769.2 3552.81  14
   3  -4   3 35255.3 774.006   9
   3  -4   4 6106.66 395.769   9
   3  -4   5 14305.1 763.322   7
   3  -4   5 13548.9 542.906   9
   3  -4   6 662.384 439.801   7
   3  -4   6 901.475 319.048   9
   3  -4   7 26410.1 1066.57   7
   3  -4   7 26577.9 789.669   9
   3  -4   8-43.0593 483.834   7
   3  -4   9 1039.78 551.365   7
   3  -4  10 7212.32 744.754   7
   3  -4  11 383.776 554.514   7
   3  -4  12 50809.8 1456.73   7
   3  -4  13 542.868 489.422   7
   3  -4  14 5013.78 525.416   7
   3  -4  15 2842.65 370.364   7
   3  -3 -14 14298.3 490.190   6
   3  -3 -13 2383.37 387.069   6
   3  -3 -12 7264.41 569.630   6
   3  -3 -11 14439.7 788.202   6
   3  -3 -10 33076.8 1161.36   6
   3  -3  -9 2254.43 559.327   6
   3  -3  -8 4756.20 671.049   6
   3  -3  -7 7330.88 682.545   6
   3  -3  -7 6008.57 549.897   8
   3  -3  -6 39031.0 1057.37   8
   3  -3  -5 196006. 2183.60   8
   3  -3  -4 3710.50 435.088   8
   3  -3  -4 3104.81 1246.96  14
   3  -3  -3 5413.68 1310.41  14
   3  -3  -2 57728.2 3435.57  14
   3  -3  -1 6143.17 1434.95  14
   3  -3   0 40835.0 2953.12  14
   3  -3   1 9857.70 1733.24  14
   3  -3   4 2889.16 338.622   9
  -3   3  -5 48749.6 2410.57  13
   3  -3   5 53213.3 1267.88   7
   3  -3   5 50435.2 998.482   9
  -3   3  -6 307.105 687.220  13
   3  -3   6 1079.12 437.827   7
   3  -3   6 621.923 295.989   9
  -3   3  -7 5413.92 1112.73  13
   3  -3   7 5802.30 606.662   7
   3  -3   7 5999.22 439.202   9
   3  -3   8 11468.6 787.313   7
   3  -3   8 11984.9 578.821   9
   3  -3   9 3813.42 615.085   7
   3  -3  10 24154.1 1095.27   7
   3  -3  11 234.146 533.570   7
   3  -3  12 14086.4 886.561   7
   3  -3  13 14504.6 821.646   7
   3  -3  14 6651.94 567.860   7
   3  -3  15 3357.12 404.233   7
   3  -2 -14 28142.0 733.352   6
   3  -2 -13 6544.38 509.324   6
   3  -2 -12 7623.21 619.111   6
   3  -2 -11 24777.7 997.630   6
   3  -2 -10 12858.9 804.924   6
   3  -2  -9 27091.8 1082.62   6
   3  -2  -8 394.428 482.321   6
  -3   2   8-1304.51 1271.46   1
   3  -2  -7 1658.37 497.989   6
  -3   2   7-896.366 1198.42   1
  -3   2   6 31916.8 2809.04   1
   3  -2  -6 33342.4 1143.94   6
  -3   2   5 38470.5 2836.10   1
   3  -2  -5 41011.4 1197.10   6
   3  -2  -3 8735.69 1362.81  14
   3  -2  -2 3315.43 1040.85  14
   3  -2  -1 206.156 890.426  14
   3  -2   0 39186.0 2725.16  14
  -3   2  -1 58780.8 2537.81  13
  -3   2  -2 58827.4 2539.91  13
  -3   2  -3 39137.0 2191.08  13
  -3   2  -4 7737.14 1168.18  13
   3  -2   4 8137.24 480.444   9
  -3   2  -5 67758.3 3037.47  13
   3  -2   5 68327.7 1376.03   7
   3  -2   5 65359.0 1169.94   9
   3  -2   6 18607.8 818.871   7
  -3   2  -6 17048.6 1688.68  13
   3  -2   6 17064.0 652.145   9
  -3   2  -7 41071.5 2580.01  13
   3  -2   7 43828.5 1242.35   7
   3  -2   7 42107.7 965.843   9
   3  -2   8 21034.3 952.868   7
   3  -2   8 21226.1 710.232   9
  -3   2  -9-208.235 864.812  13
   3  -2   9 504.656 481.505   7
   3  -2   9 834.642 347.233   9
   3  -2  10 98322.3 1954.63   7
   3  -2  11 2973.81 643.322   7
   3  -2  12 16709.7 964.841   7
   3  -2  13 12395.7 772.514   7
   3  -2  14 1690.69 457.431   7
   3  -2  15 13943.3 603.234   7
   3  -1 -15 1452.80 252.057   6
   3  -1 -14 11505.7 551.432   6
   3  -1 -13 7546.78 565.034   6
   3  -1 -12 40757.5 1172.37   6
   3  -1 -11 11413.5 767.751   6
   3  -1 -10 575.520 485.536   6
   3  -1  -9 25077.2 1047.09   6
  -3   1   9 22791.3 2701.30   1
  -3   1   8 2325.55 1401.48   1
   3  -1  -8 1665.18 513.157   6
  -3   1   7 56173.0 3760.29   1
   3  -1  -7 56164.9 1442.13   6
   3  -1  -6 4562.48 542.095   6
  -3   1   6 4969.91 1380.54   1
  -3   1   5 6833.99 1392.46   1
   3  -1  -5 7149.77 592.808   6
  -3   1   4 107545. 4117.04   1
  -3   1   3 11241.3 1365.88   1
   3  -1  -2 89407.0 2666.42  10
   3  -1  -1 3394.24 813.323  10
  -3   1  -1 55391.8 2641.92  13
  -3   1  -2 117109. 3816.47  13
  -3   1  -3 247793. 5589.88  13
  -3   1  -4 3171.27 991.460  13
  -3   1  -5 14236.0 1619.40  13
   3  -1   5 14385.7 628.851   9
  -3   1  -6 56449.1 2971.12  13
   3  -1   6 52351.7 1100.59   9
  -3   1  -7 30843.0 2359.11  13
   3  -1   7 29628.5 841.881   9
  -3   1  -8 13588.0 1661.31  13
   3  -1   8 15406.5 631.403   9
  -3   1  -9 619.734 842.771  13
   3  -1   9 1192.81 493.950   7
   3  -1   9 1065.54 562.450   3
   3  -1   9 1304.25 348.573   9
   3  -1  10 54089.7 1658.06   3
   3  -1  10 54560.3 1499.43   7
   3  -1  10 53934.6 1086.70   9
   3  -1  11 20674.4 1040.79   3
   3  -1  11 21436.6 965.430   7
   3  -1  12 38075.2 1193.21   7
   3  -1  13 2697.98 589.255   7
   3  -1  14 2313.20 436.964   7
   3  -1  15 11194.2 540.905   7
   3   0 -15 924.178 260.847   6
   3   0 -14 2499.04 458.640   6
   3   0 -13 5040.21 543.697   6
   3   0 -12 464.705 523.430   6
   3   0 -11 4006.46 608.915   6
   3   0 -10 643.156 491.314   6
  -3   0   9 5197.75 1588.58   1
   3   0  -9 6574.60 676.281   6
  -3   0   8 763.536 1248.61   1
   3   0  -8 414.605 455.674   6
   3   0  -7 11226.0 741.530   6
  -3   0   7 10264.5 1819.90   1
   3   0  -6 23491.8 921.418   6
  -3   0   6 24520.3 2357.68   1
   3   0  -5 35355.6 1041.92   6
  -3   0   5 32969.1 2482.76   1
  -3   0   4 6026.68 1231.93   1
   3   0  -3 5739.02 976.526  10
  -3   0   3 6416.03 1086.75   1
   3   0  -2 47332.0 2251.14  10
   3   0  -1 23535.7 1621.01  10
   3   0   0 31128.6 1769.83  10
  -3   0  -2 1610.86 941.886  13
  -3   0  -3 149860. 4591.11  13
  -3   0  -4 50601.0 2761.42  13
   3   0   4 43611.4 1007.82   9
  -3   0  -5 90424.7 3717.33  13
   3   0   5 82721.1 1387.08   9
  -3   0  -6 5578.00 1273.50  13
   3   0   6 5255.75 470.641   9
  -3   0  -7 1141.25 923.629  13
   3   0   7 851.461 343.533   9
  -3   0  -8 72787.4 3645.98  13
   3   0   8 76882.5 1266.16   9
   3   0   9 5110.62 691.955   3
   3   0   9 4874.51 416.216   9
   3   0  10 11232.0 866.707   3
   3   0  10 10279.2 767.391   7
   3   0  10 9640.17 503.716   9
   3   0  11 782.633 491.456   7
   3   0  11 488.653 543.537   3
   3   0  12 3258.00 551.403   7
   3   0  12 2311.05 586.992   3
   3   0  13 45664.5 1260.95   3
   3   0  13 47380.7 1166.50   7
   3   0  14 11637.3 585.775   7
   3   0  15 1729.23 304.876   7
   3   1 -15 570.356 259.240   6
   3   1 -14 17795.9 686.558   6
   3   1 -13 3176.92 528.679   6
   3   1 -12 486.231 463.216   6
   3   1 -11 7441.91 679.271   6
   3   1 -10 3813.72 574.232   6
  -3  -1   9 11822.0 2058.58   1
   3   1  -9 12877.0 789.705   6
   3   1  -8 182.396 437.815   6
  -3  -1   8 769.297 1185.39   1
   3   1  -7 1720.39 458.239   6
  -3  -1   7 2095.10 1201.17   1
  -3  -1   6 28359.0 2447.35   1
   3   1  -6 29314.0 997.318   6
  -3  -1   5 16784.1 1846.16   1
   3   1  -5 17735.4 753.476   6
  -3  -1   4 19144.0 1803.59   1
  -3  -1   3 1495.64 779.288   1
   3   1  -2 330.941 694.511  10
   3   1  -1 2728.56 866.682  10
   3   1   0 4436.93 940.021  10
   3   1   1 17158.8 1449.99  10
  -3  -1  -2 2704.94 1053.80  13
  -3  -1  -3 6760.24 1308.11  13
   3   1   3 5018.26 431.614   9
  -3  -1  -4 9760.30 1468.61  13
   3   1   4 8848.97 539.905   9
  -3  -1  -5 29751.5 2360.35  13
   3   1   5 28535.8 857.385   9
  -3  -1  -6 803.883 827.070  13
   3   1   6 956.342 337.870   9
  -3  -1  -7 12745.3 1701.09  13
   3   1   7 13145.1 786.316  11
   3   1   7 14246.6 626.431   9
  -3  -1  -8 13134.2 1744.20  13
   3   1   8 12605.0 797.514  11
   3   1   8 14387.1 600.824   9
   3   1   9 2751.41 337.791   9
   3   1  10 15274.1 952.128   3
   3   1  11 506.037 441.571   7
   3   1  11-119.294 506.693   3
   3   1  12 17028.3 887.050   3
   3   1  12 17929.3 796.507   7
   3   1  13 2131.74 420.356   7
   3   1  13 1551.00 463.523   3
   3   1  14 2267.65 344.997   7
   3   2 -15 91.8019 241.394   6
   3   2 -14 5064.66 486.847   6
   3   2 -14 4320.29 389.393   5
   3   2 -13 14442.8 716.993   6
   3   2 -12 11192.9 714.479   6
   3   2 -11 1546.11 518.582   6
   3   2 -10 4400.78 589.389   6
  -3  -2   9 14572.4 2188.06   1
   3   2  -9 16981.1 869.763   6
  -3  -2   8 3582.10 1378.71   1
   3   2  -8 4602.12 559.716   6
  -3  -2   7 8518.83 1689.18   1
   3   2  -7 10201.4 681.601   6
  -3  -2   6 4005.40 1243.63   1
   3   2  -6 4008.50 495.971   6
  -3  -2   5 1228.21 885.657   1
   3   2  -5 1903.97 408.450   6
  -3  -2   4 48693.1 2813.77   1
   3   2  -4 49366.1 1134.73   6
  -3  -2   3 33976.6 2335.42   1
   3   2  -3 33952.7 2277.50  10
   3   2  -3 31237.7 899.289   5
   3   2  -2 2291.04 1119.32  10
   3   2  -1 30104.6 2131.55  10
   3   2   0 1255.08 964.160  10
   3   2   1 26136.8 1867.10  10
   3   2   2 3396.43 420.206   9
  -3  -2  -3 20922.8 2115.23  13
   3   2   3 18403.9 742.789   9
  -3  -2  -4 1558.77 957.985  13
   3   2   4 976.846 395.347  11
   3   2   4 895.134 358.893   9
  -3  -2  -5 685.338 946.998  13
   3   2   5 880.072 446.647  11
   3   2   5 839.681 357.460   9
  -3  -2  -6 37167.3 2737.19  13
   3   2   6 36407.3 1146.86  11
   3   2   6 36857.4 954.414   9
  -3  -2  -7 18167.3 2017.04  13
   3   2   7 18778.5 920.245  11
   3   2   7 19445.3 706.042   9
   3   2   8-270.770 502.536  11
   3   2   9 823.074 535.461  11
   3   2  11 24862.6 1058.08   3
   3   2  11 24472.4 917.701   7
   3   2  12 14249.3 779.583   3
   3   2  12 15321.3 704.858   7
   3   2  13 918.000 345.692   7
   3   2  13 339.967 321.658   3
   3   2  14 1367.23 281.533   7
   3   3 -14 2982.27 387.372   6
   3   3 -13 5221.07 519.622   6
   3   3 -13 5149.63 425.885   5
   3   3 -12 1839.68 395.203   5
   3   3 -12 2045.25 481.117   6
   3   3 -11 21900.1 948.458   6
   3   3 -11 20326.1 822.205   5
   3   3 -10 10491.1 732.242   6
   3   3  -9 1283.70 480.560   6
  -3  -3   8 187.058 1100.87   1
   3   3  -8 339.726 423.483   6
  -3  -3   7 7094.28 1612.24   1
   3   3  -7 7941.16 648.944   6
  -3  -3   6 10515.0 1708.99   1
   3   3  -6 12877.8 720.687   6
   3   3  -6 12634.4 695.124   5
  -3  -3   5 32810.6 2565.59   1
   3   3  -5 34925.1 1044.80   6
   3   3  -5 31866.4 992.385  11
   3   3  -5 34598.1 1018.50   5
   3   3  -4 9001.95 580.547   6
   3   3  -4 8669.68 600.282  11
   3   3  -4 9707.12 601.920   5
   3   3  -3 3076.95 534.514  11
  -3  -3   3 1779.66 965.378   1
   3   3  -3 2575.52 1090.98  10
   3   3  -3 2451.22 395.477   6
   3   3  -3 3293.51 461.988   5
   3   3  -2 32250.8 971.933  11
   3   3  -2 33160.1 944.425   5
   3   3  -1 9889.09 724.694  11
   3   3  -1 9201.83 1666.93  10
   3   3  -1 9561.74 605.553   5
   3   3   0 6951.52 588.544  11
   3   3   0 6292.53 1294.79  10
   3   3   1 11301.4 674.244  11
   3   3   1 11924.6 1450.12  10
   3   3   2 4355.63 504.461  11
   3   3   2 3326.17 469.062   9
  -3  -3  -3 51820.2 3398.66  13
   3   3   3 49827.5 1245.53  11
   3   3   3 45352.8 1175.91   9
  -3  -3  -4 3830.72 1248.97  13
   3   3   4 5118.77 585.142  11
   3   3   4 4267.89 477.014   9
  -3  -3  -5 11124.4 1733.86  13
   3   3   5 13836.3 805.247  11
   3   3   5 12381.5 635.299   9
  -3  -3  -6-792.111 985.122  13
   3   3   6 93.3971 495.760  11
   3   3   7 4073.01 619.165  11
   3   3   8 11385.8 833.453  11
   3   3   9 2987.94 650.203  11
   3   3  12 716.583 345.885   7
   3   3  13 9590.39 483.936   7
   3   4 -14 18745.5 579.171  11
   3   4 -13 2495.00 430.025   6
   3   4 -12 12845.5 734.878   6
   3   4 -12 11665.6 545.314   5
   3   4 -11 5938.22 614.854   6
   3   4 -11 5720.22 483.475   5
   3   4 -10 3844.40 580.090   6
   3   4 -10 3265.15 444.542   5
   3   4  -9 16932.4 868.613   6
   3   4  -9 16571.8 760.578   5
   3   4  -8 1610.07 473.837   6
   3   4  -8 1887.54 442.499   5
   3   4  -7 1747.92 471.300  11
   3   4  -7 1919.50 471.489   6
   3   4  -7 1682.05 431.150   5
   3   4  -6 4409.23 568.975   6
   3   4  -6 3828.40 518.163  11
  -3  -4   6 2641.14 1189.78   1
   3   4  -6 4403.43 512.514   5
   3   4  -5 5785.26 559.426   6
   3   4  -5 6199.87 607.955  11
  -3  -4   5 5128.65 1425.89   1
   3   4  -5 6666.61 576.086   5
   3   4  -4 43371.9 1163.33   6
   3   4  -4 42903.4 1193.43  11
   3   4  -4 47238.6 2925.42  10
   3   4  -4 46159.1 1160.78   5
   3   4  -3 5250.53 528.615   6
   3   4  -3 5478.52 638.915  11
   3   4  -3 5726.92 1352.92  10
   3   4  -3 6469.56 623.888   5
   3   4  -2 7694.04 701.346  11
   3   4  -2 8758.25 1604.77  10
   3   4  -1 16923.6 876.037  11
   3   4  -1 17688.6 1893.83  10
   3   4   0 10108.0 788.670  11
   3   4   0 10731.1 1573.64  10
   3   4   1 471.950 487.193  11
  -3  -4  -2 4058.96 1443.82  13
   3   4   2 4458.14 571.710  11
   3   4   2 3578.28 504.396   9
  -3  -4  -3 1019.33 1050.46  13
   3   4   3 2642.87 552.175  11
   3   4   3 2182.11 450.105   9
  -3  -4  -4 21576.8 2352.73  13
   3   4   4 25153.4 1029.55  11
   3   4   4 21474.7 823.202   9
  -3  -4  -5 26254.6 2566.52  13
   3   4   5 37233.0 1244.50  11
   3   4   6 22753.4 1060.37  11
   3   4   7 3168.12 653.612  11
   3   4   8 443.136 574.856  11
   3   4   9 2771.56 647.265  11
   3   4  12 6417.47 452.524   7
   3   5 -14 287.369 233.704  11
   3   5 -13 13839.2 575.269  11
   3   5 -12 35696.6 955.506  11
   3   5 -11 2990.93 508.206   6
   3   5 -11 3269.81 494.436  11
   3   5 -10 8507.74 668.089   6
   3   5 -10 8589.95 652.366  11
   3   5  -9 7801.35 671.279   6
   3   5  -9 7736.30 653.426  11
   3   5  -8 44648.1 1253.46   6
   3   5  -8 43302.2 1213.19  11
   3   5  -7 54596.6 1367.53   6
   3   5  -7 55318.1 1360.44  11
   3   5  -6 2301.25 516.487  11
   3   5  -6 1767.80 468.155   6
   3   5  -5 188.371 409.465   6
   3   5  -5 136.819 891.513  10
   3   5  -4 55059.9 1369.55  11
   3   5  -4 47602.4 3043.85  10
   3   5  -3 44938.9 1387.19  11
   3   5  -3 29807.1 2671.62  10
   3   5  -2 71489.3 1609.10  11
   3   5  -2 66359.9 3570.82  10
   3   5  -1 30451.4 1254.00  11
   3   5  -1 22390.8 2371.43  10
   3   5   0 5942.09 796.769  11
   3   5   0 704.998 1005.08  10
   3   5   1 32878.1 1183.15  11
  -3  -5  -2 6489.02 1557.04  13
   3   5   2 8953.05 665.918   9
   3   5   3 35391.9 1259.27  11
   3   5   4 1104.23 610.844  11
   3   5   5 996.811 633.651  11
   3   5   6 50078.4 1490.31  11
   3   5   7 1447.01 648.768  11
   3   5   8 279.610 582.364  11
   3   5   9-84.2739 543.196  11
   3   5  11 4346.43 375.250   7
   3   6 -13 203.224 263.346  11
   3   6 -12 4652.93 442.581  11
   3   6 -11 26108.1 850.941  11
   3   6 -10 1437.50 459.915  11
   3   6  -9 12330.8 718.019  11
   3   6  -8 1218.95 495.716  11
   3   6  -7 5939.89 642.762  11
   3   6  -6 74767.9 1570.27  11
   3   6  -5 25164.1 1019.14  11
   3   6  -4 1672.34 610.481  11
   3   6  -3 5710.76 778.799  11
   3   6  -2 18291.5 955.974  11
   3   6  -1 5909.77 855.862  11
   3   6   0 8949.06 787.100  11
   3   6   1 1207.78 605.155  11
   3   6   1 208.804 399.786   9
   3   6   2 1214.32 612.730  11
   3   6   3 24794.7 1118.52  11
   3   6   4 7366.63 795.519  11
   3   6   5 35756.4 1310.43  11
   3   6   6 1125.00 633.916  11
   3   6   7 1614.12 615.358  11
   3   6   8 24637.5 1002.98  11
   3   6   9 262.988 444.426  11
   3   7 -12 264.412 270.520  11
   3   7 -11 9711.92 525.995  11
   3   7 -10 4188.13 470.618  11
   3   7  -9 2881.01 476.598  11
   3   7  -8 11770.7 692.374  11
   3   7  -7 7450.49 632.391  11
   3   7  -6 9078.26 699.882  11
   3   7  -5 16306.2 944.869  11
   3   7  -4 38671.3 1207.25  11
   3   7  -3 11686.0 1006.20  11
   3   7  -2 5874.79 697.905  11
   3   7  -1 5787.18 738.706  11
   3   7   0 9873.04 829.297  11
   3   7   1 19738.0 1009.59  11
   3   7   2 2642.01 692.731  11
   3   7   3 2120.33 659.588  11
   3   7   4 11951.0 866.296  11
   3   7   5 20275.6 965.277  11
   3   7   6 9008.68 733.282  11
   3   7   7 2365.78 513.526  11
   3   7   8 1672.22 428.277  11
   3   8 -11 564.979 248.621  11
   3   8 -10 3672.86 374.467  11
   3   8  -9 435.530 341.698  11
   3   8  -8-43.4882 368.624  11
   3   8  -7 5725.67 534.334  11
   3   8  -6 1011.83 462.092  11
   3   8  -5 2849.99 584.954  11
   3   8  -4 13170.8 765.953  11
   3   8  -3 8831.51 780.830  11
   3   8  -2 10526.8 733.625  11
   3   8  -1 7822.61 730.481  11
   3   8   0 8747.02 753.973  11
   3   8   1 23139.6 955.108  11
   3   8   2 13870.0 809.613  11
   3   8   3 20645.8 895.427  11
   3   8   4 4681.03 569.922  11
   3   8   5-39.3797 405.875  11
   3   8   6 7421.99 532.372  11
   3   8   7 955.881 305.766  11
   3   9  -9 717.886 240.540  11
   3   9  -8 211.986 262.807  11
   3   9  -7 32.7805 292.264  11
   3   9  -6 5110.57 439.987  11
   3   9  -5 4041.07 449.768  11
   3   9  -4 2678.44 431.373  11
   3   9  -3 3877.71 464.422  11
   3   9  -2 4929.54 519.081  11
   3   9  -1 4465.97 492.849  11
   3   9   0 1501.35 416.813  11
   3   9   1 666.546 369.963  11
   3   9   2 2505.84 409.446  11
   3   9   3 12607.5 600.219  11
   3   9   4 1051.15 313.160  11
   4  -9  -3 2578.48 296.191   8
   4  -9  -2 850.355 275.017   8
   4  -9  -1 3460.30 352.196   8
   4  -9   0 4746.62 403.136   8
   4  -9   1 4020.30 394.034   8
   4  -9   2 1426.64 333.287   8
   4  -9   3 2475.51 386.416   8
   4  -9   4 12837.4 524.770   8
   4  -9   5 17356.8 556.955   8
   4  -9   6 9593.26 413.787   8
   4  -8  -6 8244.76 433.154   6
   4  -8  -6 8464.06 419.487   8
   4  -8  -5 6626.87 461.523   6
   4  -8  -5 7109.27 442.662   8
   4  -8  -4 2134.04 355.804   8
   4  -8  -4 957.192 342.211   6
   4  -8  -3 23890.1 744.529   8
   4  -8  -3 19433.2 796.076   6
   4  -8  -2 7823.81 525.111   8
   4  -8  -1 15103.6 657.465   8
   4  -8   0 7238.89 549.235   8
   4  -8   1 10733.5 704.886   8
   4  -8   2 32784.7 912.230   8
   4  -8   3 13103.5 712.459   8
   4  -8   4 6498.47 544.864   8
   4  -8   5 13581.7 616.009   8
   4  -8   6 6709.13 483.527   8
   4  -8   7 16102.1 602.054   8
   4  -8   8 3080.32 344.283   8
   4  -8   9 1812.75 259.516   8
   4  -7  -8 770.225 247.360   6
   4  -7  -7 1708.76 322.641   8
   4  -7  -7 1987.15 348.623   6
   4  -7  -6 7558.83 543.261   6
   4  -7  -6 7235.40 488.773   8
   4  -7  -5 8144.64 600.350   6
   4  -7  -5 9012.87 549.019   8
   4  -7  -4 2968.62 443.602   8
   4  -7  -4 2165.64 484.774   6
   4  -7  -3 6888.99 547.291   8
   4  -7  -2 21656.9 823.156   8
   4  -7  -1 21619.3 846.173   8
   4  -7   0 4964.92 600.051   8
   4  -7   1 7580.14 665.340   8
   4  -7   2 28515.5 969.992   8
   4  -7   3 40815.5 1187.82   8
   4  -7   4 55397.4 1281.30   8
   4  -7   5 5006.75 618.040   8
   4  -7   6 6161.35 562.116   8
   4  -7   7 18906.1 751.109   8
   4  -7   8 2541.54 411.945   8
   4  -7   9 7922.60 485.398   8
   4  -7  10 251.907 267.986   8
   4  -7  11 1300.91 230.776   8
   4  -6 -10 3266.54 274.766   6
   4  -6  -9 930.811 278.262   6
   4  -6  -8 8264.69 512.620   6
   4  -6  -8 6179.02 414.623   8
   4  -6  -7 1675.44 373.328   8
   4  -6  -7 2344.53 425.350   6
   4  -6  -6 1512.70 401.484   8
   4  -6  -6 1741.62 452.799   6
   4  -6  -5 25579.1 868.655   8
   4  -6  -5 25565.0 995.170   6
   4  -6  -4 7357.33 577.646   8
   4  -6  -4 6606.36 644.515   6
   4  -6  -3 9890.62 642.717   8
   4  -6  -2 4875.52 531.426   8
   4  -6  -1 8283.36 659.119   8
   4  -6   0 31574.0 1020.57   8
   4  -6   1 4021.46 661.201   8
   4  -6   2 1695.15 524.350   8
   4  -6   3 5653.81 621.274   8
   4  -6   4 9991.80 716.856   8
   4  -6   5 21772.2 914.137   8
   4  -6   6 24377.0 952.818   8
   4  -6   7 614.309 495.800   8
   4  -6   8 2200.63 496.829   8
   4  -6   8 1508.61 406.225   7
   4  -6   9 14759.5 699.477   8
   4  -6   9 12836.8 657.042   7
   4  -6  10 3966.53 443.948   8
   4  -6  10 3023.51 412.980   7
   4  -6  11 5372.44 405.776   8
   4  -6  11 4449.10 407.061   7
   4  -6  12 330.009 220.606   8
   4  -6  12 138.354 221.379   7
   4  -5 -11 782.541 222.118   6
   4  -5 -10 492.597 283.314   6
   4  -5  -9 1435.56 362.882   6
   4  -5  -8 7045.63 548.416   6
   4  -5  -7 300.354 345.691   8
   4  -5  -7 233.583 398.367   6
   4  -5  -6 257.697 360.598   8
   4  -5  -6 266.857 418.274   6
   4  -5  -5 5974.53 529.137   8
   4  -5  -5 6028.77 616.956   6
   4  -5  -4 18823.8 787.644   8
   4  -5  -4 17444.2 878.439   6
   4  -5  -3 28033.8 954.129   8
   4  -5  -3 27196.6 1050.51   6
   4  -5  -2 847.333 432.192   8
   4  -5  -1 5162.46 577.926   8
   4  -5   0 21758.7 884.810   8
   4  -5   1 11838.0 797.521   8
   4  -5   2 17886.2 847.542   8
   4  -5   3 2687.06 602.181   8
   4  -5   4 15568.9 839.783   8
   4  -5   5 6279.72 688.466   8
   4  -5   7 34093.3 1109.22   7
   4  -5   8 2955.74 518.931   7
   4  -5   9 11529.9 707.672   7
   4  -5  10 10686.3 662.824   7
   4  -5  11 39234.2 1019.06   7
   4  -5  12 30437.5 803.949   7
   4  -5  13 3149.16 273.466   8
   4  -5  13 2945.43 297.096   7
   4  -4 -12 6916.19 339.322   6
   4  -4 -11 14965.9 553.222   6
   4  -4 -10 5539.77 458.117   6
   4  -4  -9 1864.21 422.765   6
   4  -4  -8 709.825 405.129   6
   4  -4  -7 4089.98 537.813   6
   4  -4  -6 405.413 424.731   6
   4  -4  -5 771.835 363.987   8
   4  -4  -5 851.331 433.066   6
   4  -4  -4-302.679 378.971   8
   4  -4  -4 9.52292 412.748   6
   4  -4  -3 5470.26 516.480   8
   4  -4  -3 5451.53 558.170   6
   4  -4  -2 1488.45 416.370   8
   4  -4  -1 9573.95 632.587   8
   4  -4   0 334.017 434.839   8
   4  -4   1 3266.12 518.962   8
   4  -4   2 1545.27 494.814   8
   4  -4   2 1586.78 328.587   9
   4  -4   3 1190.18 532.143   8
   4  -4   3 1454.62 350.156   9
   4  -4   4 31728.0 850.537   9
   4  -4   5 8330.21 524.204   9
   4  -4   6 4955.99 563.273   7
   4  -4   6 4980.09 457.068   9
   4  -4   7 26027.6 1022.47   7
   4  -4   8 1495.46 481.777   7
   4  -4   9 781.543 467.826   7
   4  -4  10 2465.22 495.457   7
   4  -4  11 11482.1 663.888   7
   4  -4  12 17276.1 692.619   7
   4  -4  13 15173.3 558.386   7
   4  -3 -12 795.891 264.317   6
   4  -3 -11 1281.50 331.730   6
   4  -3 -10 19071.5 741.552   6
   4  -3  -9 141.134 392.286   6
   4  -3  -8 146.466 408.517   6
   4  -3  -7 4278.52 551.462   6
   4  -3  -6 1082.37 453.923   6
   4  -3  -5 30882.8 1072.36   6
   4  -3  -4-0.76099 398.685   6
   4  -3  -3 0.30221 403.193   6
   4  -3  -1 210.274 375.418   8
   4  -3   0 4377.32 501.774   8
   4  -3   1 1158.67 443.945   8
   4  -3   1 1213.97 366.240   9
   4  -3   2 588.894 434.526   8
   4  -3   2 546.373 330.007   9
   4  -3   3 6171.23 491.027   9
   4  -3   4 37621.8 946.979   9
   4  -3   5 38084.5 945.287   9
   4  -3   6 8136.31 651.489   7
   4  -3   6 9213.07 544.452   9
   4  -3   7 1775.16 487.828   7
   4  -3   7 2599.23 412.261   9
   4  -3   8 23095.8 973.844   7
   4  -3   8 24846.9 774.600   9
   4  -3   9 35997.1 1149.28   7
   4  -3  10 5715.50 592.478   7
   4  -3  11 143.581 391.452   7
   4  -3  12 1586.12 388.292   7
   4  -3  13 265.890 286.694   7
   4  -2 -13 9410.76 400.324   6
   4  -2 -12 11055.0 507.848   6
   4  -2 -11 6503.89 488.322   6
   4  -2 -10 884.924 422.996   6
   4  -2  -9 5592.29 563.973   6
   4  -2  -8 14506.7 765.461   6
   4  -2  -7 1792.42 471.831   6
   4  -2  -6 27408.7 1012.91   6
   4  -2  -5 1066.15 444.937   6
   4  -2  -4 27162.4 983.761   6
   4  -2  -3 191450. 2315.24   6
   4  -2  -1 3129.28 440.810   9
   4  -2   0 9456.97 556.955   9
   4  -2   1 5880.69 592.996   9
   4  -2   2 53087.8 1140.82   9
   4  -2   3 789.894 414.794   9
   4  -2   4 4506.12 466.016   9
   4  -2   5 20605.0 870.932   7
   4  -2   5 22030.2 759.926   9
   4  -2   6 6242.04 595.403   7
   4  -2   6 6801.97 497.334   9
   4  -2   7 24493.7 979.830   7
   4  -2   7 25774.1 782.681   9
   4  -2   8 6158.84 624.828   7
   4  -2   8 6985.55 508.828   9
   4  -2   9 1055.97 507.609   7
   4  -2   9 1912.13 421.875   9
   4  -2  10 3715.20 529.173   7
   4  -2  11 3569.43 486.313   7
   4  -2  12 2469.52 449.232   7
   4  -2  13 663.024 296.832   7
   4  -1 -13 859.091 254.569   6
   4  -1 -12 7345.12 475.529   6
   4  -1 -11 10641.9 601.882   6
   4  -1 -10 35085.5 1080.55   6
   4  -1  -9 872.797 480.958   6
   4  -1  -8 2774.58 548.188   6
   4  -1  -7 9666.34 706.177   6
   4  -1  -6 5224.05 578.748   6
   4  -1  -5 49232.6 1317.51   6
   4  -1  -4 9360.55 679.454   6
   4  -1  -2 59547.0 1250.73   9
   4  -1  -1 30702.6 956.901   9
   4  -1   0 3037.75 505.534   9
   4  -1   1 1692.07 438.762   9
   4  -1   2 21450.7 798.347   9
   4  -1   3 13786.2 672.759   9
  -4   1  -4 7814.83 1448.73  13
   4  -1   4 13980.7 663.800   9
   4  -1   5 7449.54 615.490   7
   4  -1   5 9711.00 609.648   9
   4  -1   6 5191.07 559.218   7
   4  -1   6 6047.20 497.796   9
   4  -1   7 8875.41 678.091   7
   4  -1   7 9980.41 566.053   9
   4  -1   8 5096.79 576.207   7
   4  -1   8 5831.41 455.148   9
   4  -1   9 11737.4 721.701   7
   4  -1   9 12738.1 556.323   9
   4  -1  10 2403.42 499.550   7
   4  -1  11 2593.88 457.005   7
   4  -1  12 13190.2 617.938   7
   4  -1  13 663.051 288.787   7
   4   0 -13 6082.37 392.557   6
   4   0 -13 4334.00 341.324   5
   4   0 -12 3033.73 481.639   6
   4   0 -11 4427.74 508.013   6
   4   0 -10 64841.1 1405.49   6
   4   0  -9 11401.6 733.067   6
   4   0  -8 8530.30 695.595   6
   4   0  -7 13935.3 800.435   6
   4   0  -6 3644.00 540.320   6
   4   0  -5 111329. 1862.32   6
   4   0  -4 16522.4 768.781   6
   4   0  -4 16175.5 746.239   9
   4   0  -3 13698.2 716.112   9
   4   0  -2 22073.7 851.380   9
   4   0  -2 22192.9 837.061   5
   4   0  -1 9739.08 751.074   9
   4   0  -1 7092.83 572.138   5
  -4   0   0 26912.9 2431.40  13
   4   0   0 35872.9 1014.67   9
  -4   0  -1 541.594 1282.49  13
   4   0   1 2913.15 554.781   9
  -4   0  -2 12051.0 1739.93  13
   4   0   2 17995.7 759.167   9
  -4   0  -3 7345.63 1439.82  13
   4   0   3 11507.7 662.891   9
  -4   0  -4 16367.1 1898.39  13
   4   0   4 25388.8 863.437   9
   4   0   5 54748.5 1179.54   9
   4   0   6 1569.25 428.128   9
   4   0   7 1649.82 385.863   9
   4   0   8 2626.25 502.125   7
   4   0   8 2902.68 381.890   9
   4   0   9 6599.42 606.513   7
   4   0   9 6854.62 439.021   9
   4   0  10 9331.43 641.343   7
   4   0  11 5554.91 507.725   7
   4   0  12 807.636 332.666   7
   4   0  13 600.895 266.989   7
   4   1 -14 2376.13 253.324   6
   4   1 -13 7023.44 421.651   6
   4   1 -13 5992.38 369.790   5
   4   1 -12 28003.0 818.013   6
   4   1 -12 23546.1 734.883   5
   4   1 -11 1178.14 420.485   6
   4   1 -10 4258.83 676.316   6
   4   1  -9 9481.86 687.466   6
   4   1  -8 20169.3 904.301   6
   4   1  -7 11696.6 742.354   6
   4   1  -6 346.686 410.801   6
   4   1  -6-67.8263 420.600   9
   4   1  -5 12735.3 737.624   6
   4   1  -5 11395.3 715.802   9
   4   1  -5 13256.0 759.975   5
   4   1  -4 15534.3 731.772   6
   4   1  -4 17427.4 846.124   9
   4   1  -4 18108.4 817.637   5
   4   1  -3 46566.7 1248.37   9
   4   1  -3 46457.1 1173.81   5
   4   1  -2 20698.4 931.274   9
   4   1  -2 20605.4 821.608   5
   4   1  -1 4819.02 646.141   9
   4   1  -1 3994.13 491.398   5
  -4  -1   0 8165.26 1696.88  13
   4   1   0 10838.9 671.740   9
  -4  -1  -1 1671.42 1240.74  13
   4   1   1 1694.80 541.522   9
  -4  -1  -2 36060.0 2874.72  13
   4   1   2 46331.1 1151.21   9
  -4  -1  -3 3826.98 1303.39  13
   4   1   3 6345.97 586.933   9
   4   1   4 22307.5 860.440   9
   4   1   5 38911.4 1037.28   9
   4   1   6 13040.3 641.844   9
   4   1   7 60187.3 1155.46   9
   4   1   8 1264.06 349.292   9
   4   1   9 466.523 428.404   7
   4   1   9 611.511 286.338   9
   4   1  10 23987.1 872.400   7
   4   1  11 3119.69 421.988   7
   4   1  12 22270.8 682.950   7
   4   1  13 174.764 213.856   7
   4   2 -13 809.136 268.915   6
   4   2 -13 710.519 231.986   5
   4   2 -12 29057.2 820.618   6
   4   2 -12 25344.9 731.381   5
   4   2 -11 571.653 385.564   6
   4   2 -11 567.968 354.377   5
   4   2 -10 1928.32 450.086   5
   4   2 -10 1995.57 455.564   6
   4   2  -9 591.164 444.411   5
   4   2  -9 825.364 436.689   6
   4   2  -8 1917.21 501.720   5
   4   2  -8 1538.83 463.488   6
   4   2  -7 11977.7 727.044   6
   4   2  -7 12295.1 734.858   5
   4   2  -6 1934.19 449.473   6
   4   2  -6 2479.87 506.929   5
   4   2  -5 6875.29 573.369   6
   4   2  -5 8292.99 635.089   5
   4   2  -4 1747.73 395.085   6
   4   2  -4 2198.34 452.220   5
   4   2  -3 561.573 1016.62  10
   4   2  -3 1309.53 469.540   5
   4   2  -3 321.012 578.848   9
   4   2  -2 20970.9 822.090   5
   4   2  -2 21222.0 949.705   9
   4   2  -1 9041.69 857.629   9
  -4  -2   0 19300.7 2455.55  13
   4   2   0 27619.1 1004.08   9
  -4  -2  -1 1269.91 1347.90  13
   4   2   1 1915.69 585.687   9
   4   2   2 14137.4 770.944   9
   4   2   3 32907.0 1025.48   9
   4   2   4 38306.9 1079.71   9
   4   2   5 7246.43 565.556   9
   4   2   6 3350.28 534.692   9
   4   2   7 19553.0 689.831   9
   4   2   8 12963.4 514.020   9
   4   2  10 1084.73 381.165   7
   4   2  11 654.862 328.357   7
   4   2  12 10899.2 468.201   7
   4   3 -13 431.575 220.858   6
   4   3 -12 1357.17 318.697   6
   4   3 -12 1070.69 260.672   5
   4   3 -11 1344.36 370.748   6
   4   3 -11 1831.66 341.815   5
   4   3 -10 4850.69 515.074   6
   4   3 -10 4479.30 462.761   5
   4   3  -9 149.325 398.748   6
   4   3  -9 18.4906 378.224   5
   4   3  -8 357.140 398.768   6
   4   3  -8 898.705 437.575   5
   4   3  -7 2248.78 466.189   6
   4   3  -7 1903.75 471.518   5
   4   3  -6 613.567 388.299   6
   4   3  -6 750.502 446.887   5
   4   3  -5 8468.92 597.599   6
   4   3  -5 10439.0 675.972   5
   4   3  -4 2527.57 413.194   6
   4   3  -4 4460.56 550.129   5
   4   3  -2 12545.4 844.598   9
   4   3  -1 3150.86 676.466   9
   4   3   0 10733.0 752.036   9
   4   3   1 1230.52 519.015   9
   4   3   2 3238.92 529.724   9
   4   3   3 9113.30 647.163   9
   4   3   4 6264.77 561.654   9
   4   3   5 28294.5 882.868   9
   4   3   6 3316.01 506.374  11
   4   3   6 5736.71 475.149   9
   4   3   7-203.686 429.819  11
   4   3   7 1420.91 328.133   9
   4   3  10 1683.89 355.399   7
   4   3  11 1556.40 364.946   7
   4   4 -11 360.900 302.846   6
   4   4 -10 204.578 338.812   6
   4   4  -9 2527.51 424.621   6
   4   4  -8 416.750 367.020   6
   4   4  -7 3908.98 494.783   6
   4   4  -6-242.667 354.113   6
   4   4  -5 5693.93 505.547   6
   4   4  -3 15406.4 821.563  11
   4   4  -2 10638.5 745.745  11
   4   4  -2 7935.81 807.109   9
   4   4  -1 14213.7 920.346  11
   4   4  -1 7409.74 871.161   9
   4   4   0 31686.2 1090.09  11
   4   4   0 38862.1 1222.64   9
   4   4   1 6544.25 704.659  11
   4   4   1 4257.14 671.289   9
   4   4   2 872.419 460.918  11
   4   4   2 1596.68 468.292   9
   4   4   3-228.551 442.725  11
   4   4   3 270.725 392.840   9
   4   4   4 847.535 476.420  11
   4   4   4 1054.43 374.673   9
   4   4   5 13598.7 774.810  11
   4   4   5 16037.6 631.105   9
   4   4   6 3185.04 522.471  11
   4   4   7 11929.6 687.220  11
   4   4  10 13654.1 521.393   7
   4   5  -8-314.465 334.521  11
   4   5  -7 4997.26 494.030  11
   4   5  -6 353.571 380.259  11
   4   5  -5 7838.38 601.505  11
   4   5  -4 960.389 447.907  11
   4   5  -3 3904.75 583.307  11
   4   5  -2 13372.7 761.188  11
   4   5  -2 13512.7 800.981   9
   4   5  -1 12319.7 758.967  11
   4   5  -1 10114.6 744.346   9
   4   5   0 3411.61 575.886  11
   4   5   0 1935.27 507.891   9
   4   5   1 2224.47 519.527  11
   4   5   1 2256.21 468.708   9
   4   5   2 1396.31 483.234  11
   4   5   2 1038.71 383.839   9
   4   5   3 828.705 472.120  11
   4   5   3 827.740 347.778   9
   4   5   4 5045.96 582.363  11
   4   5   4 5634.37 413.701   9
   4   5   5 546.075 458.860  11
   4   5   6 447.696 416.154  11
   4   5   7 1583.42 418.942  11
   4   5   9 2154.99 281.869   7
   4   6  -9 1116.68 263.796  11
   4   6  -8 4283.36 405.140  11
   4   6  -7 6889.39 496.767  11
   4   6  -6 3160.62 433.576  11
   4   6  -5 5223.60 503.152  11
   4   6  -4 3677.96 548.932  11
   4   6  -3 12163.9 686.773  11
   4   6  -3 13205.9 712.189   9
   4   6  -2 8509.93 668.820  11
   4   6  -2 6820.29 597.008   9
   4   6  -1 4050.61 581.646  11
   4   6  -1 2249.70 464.610   9
   4   6   0 5277.87 557.832  11
   4   6   0 5196.55 473.546   9
   4   6   1 1666.58 477.100  11
   4   6   1 729.894 333.631   9
   4   6   2 1164.68 458.459  11
   4   6   2 951.401 299.210   9
   4   6   3 10326.4 658.643  11
   4   6   4 196.668 408.605  11
   4   6   5 12609.5 653.583  11
   4   6   6 1156.87 359.898  11
   4   7  -9 5452.08 317.718   9
   4   7  -8 2181.75 268.289  11
   4   7  -8 741.476 249.651   9
   4   7  -7 10444.7 476.382  11
   4   7  -7 11272.6 495.319   9
   4   7  -6 4724.51 398.643  11
   4   7  -6 4756.07 398.968   9
   4   7  -5 9313.04 545.805  11
   4   7  -5 8492.34 510.721   9
   4   7  -4 28854.8 826.175  11
   4   7  -4 27563.8 774.779   9
   4   7  -3 22227.0 794.998  11
   4   7  -3 17837.9 661.160   9
   4   7  -2 8728.12 623.899  11
   4   7  -2 4734.89 417.116   9
   4   7  -1 2398.98 446.031  11
   4   7  -1 1584.09 302.586   9
   4   7   0 2622.17 423.386  11
   4   7   0 2390.06 303.160   9
   4   7   1 1813.03 404.973  11
   4   7   2 4399.37 450.164  11
   4   7   3 208.976 323.910  11
   4   7   4 2451.79 358.823  11
   4   7   5 5191.90 372.877  11
   4   8  -5 16792.7 512.184  11
   4   8  -4 5670.53 406.808  11
   4   8  -3 10482.7 502.003  11
   4   8  -2 14995.6 542.082  11
   4   8  -1 5691.27 461.890  11
   4   8   0 2996.32 328.202  11
   4   8   1 2957.92 315.239  11
   5  -7  -1 11550.5 439.360   8
   5  -7   0 2890.19 362.877   8
   5  -7   1 5096.39 363.377   8
   5  -7   2 2493.44 318.884   8
   5  -7   3 781.607 300.478   8
   5  -7   4 9911.71 428.752   8
   5  -7   5 1350.76 251.498   8
   5  -7   6 3081.79 259.698   8
   5  -6  -2 1884.83 284.250   8
   5  -6  -1 836.616 280.790   8
   5  -6   0 1028.06 330.960   8
   5  -6   1 7999.12 466.947   8
   5  -6   2 5340.64 478.894   8
   5  -6   3 10926.9 542.038   8
   5  -6   4 6946.70 467.133   8
   5  -6   5 2259.46 350.440   8
   5  -6   6 18933.9 595.282   8
   5  -6   7 2303.32 291.848   8
   5  -5  -1 23888.5 675.624   8
   5  -5   0 4631.02 498.410   8
   5  -5   1 1495.82 413.427   8
   5  -5   2 10242.7 552.208   8
   5  -5   3 5376.79 487.126   8
   5  -5   4 9788.23 563.997   8
   5  -5   5 5070.05 462.151   8
   5  -5   6 460.301 343.420   8
   5  -5   7 13275.9 571.745   8
   5  -5   8 7689.34 435.528   8
   5  -4  -8 1582.28 234.070   6
   5  -4  -7 926.673 240.660   6
   5  -4  -6-34.8347 211.260   6
   5  -4   2 12131.0 604.830   8
   5  -4   3 7743.60 547.456   8
   5  -4   4 13833.4 655.500   8
   5  -4   5 1309.32 406.364   8
   5  -4   6 15195.6 682.629   8
   5  -4   7 2059.98 388.467   8
   5  -4   8 929.450 353.577   8
   5  -4   9 10816.2 487.269   8
   5  -3  -9 1437.50 228.626   6
   5  -3  -8 2743.95 300.410   6
   5  -3  -8 1064.16 207.080   5
   5  -3  -7 206.592 262.407   6
   5  -3  -6 1426.69 298.993   6
   5  -3   1 14808.4 521.646   9
   5  -3   2 4307.80 359.447   9
   5  -3   3 1165.64 280.849   9
   5  -3   4 4062.87 342.441   9
   5  -3   5 2674.95 420.922   8
   5  -3   5 2677.02 325.962   9
   5  -3   6 12679.6 652.419   8
   5  -3   6 14836.5 512.852   9
   5  -3   7 8615.80 562.005   8
   5  -3   8 13906.3 603.910   8
   5  -3   9 2871.13 335.673   8
   5  -2  -9 927.678 233.478   6
   5  -2  -9 782.393 259.117   5
   5  -2  -8 6187.60 397.731   6
   5  -2  -8 5487.38 414.891   5
   5  -2  -7 311.295 273.252   6
   5  -2  -7 1582.44 325.042   5
   5  -2  -6 1084.07 314.221   6
   5  -2  -6 847.731 338.267   5
   5  -2  -5 2506.32 370.765   5
   5  -2   0 693.310 299.352   9
   5  -2   1 1438.59 326.474   9
   5  -2   2 2985.77 353.913   9
   5  -2   3 138.933 281.918   9
   5  -2   4 2861.25 342.470   9
   5  -2   5 326.871 272.250   9
   5  -2   6 1703.01 316.139   9
   5  -2   7 4855.43 350.254   9
   5  -2   8 2890.65 314.848   7
   5  -2   9-37.4273 215.934   7
   5  -1 -10 5543.84 311.388   6
   5  -1 -10 5840.99 333.681   5
   5  -1  -9 4657.22 337.828   6
   5  -1  -9 5117.75 379.986   5
   5  -1  -8 687.560 301.974   6
   5  -1  -8 435.711 306.181   5
   5  -1  -7 6458.30 422.606   6
   5  -1  -7 6678.52 482.079   5
   5  -1  -6 4603.46 392.524   6
   5  -1  -6 5204.85 461.738   5
   5  -1  -5 324.885 314.674   5
   5  -1  -4 7422.12 488.825   5
   5  -1  -2 17348.6 654.345   9
   5  -1  -1 17378.1 677.051   9
   5  -1   0 10237.0 568.009   9
   5  -1   1 3854.83 442.652   9
   5  -1   2 1553.43 360.112   9
   5  -1   3 1173.04 359.357   9
   5  -1   4 18472.4 643.006   9
   5  -1   5 3759.63 378.398   9
   5  -1   6 26879.8 677.183   9
   5  -1   7 3322.57 378.959   7
   5  -1   7 4692.97 346.850   9
   5  -1   8 6935.10 454.460   7
   5  -1   8 8163.91 392.955   9
   5  -1   9 9424.70 459.982   7
   5   0 -10 3171.08 282.747   6
   5   0 -10 3172.95 281.117   5
   5   0  -9 3048.26 315.248   6
   5   0  -9 3178.55 331.952   5
   5   0  -8 5936.07 404.320   6
   5   0  -8 7036.86 454.514   5
   5   0  -7 342.672 278.669   6
   5   0  -7 285.374 330.645   5
   5   0  -6 1652.96 372.664   5
   5   0  -5 25.2632 308.968   5
   5   0  -4 1495.07 385.771   5
   5   0  -4 1682.80 357.517   9
   5   0  -3 27733.8 860.689   9
   5   0  -2 32122.5 936.339   9
   5   0  -1 12295.6 707.047   9
   5   0   0 13831.4 691.475   9
   5   0   1 7771.26 553.945   9
   5   0   2 1179.50 386.643   9
   5   0   3 7513.28 535.669   9
   5   0   4 4127.26 442.506   9
   5   0   5 4684.34 420.870   9
   5   0   6 18486.8 701.224   7
   5   0   6 24473.4 644.803   9
   5   0   7-146.784 305.784   7
   5   0   7 529.477 255.969   9
   5   0   8 2179.39 340.406   7
   5   0   8 3345.00 287.918   9
   5   0   9 2958.40 322.709   7
   5   1 -10 912.597 210.321   6
   5   1 -10 640.246 205.907   5
   5   1  -9 880.877 250.616   6
   5   1  -9 1191.24 264.901   5
   5   1  -8 4440.76 367.637   6
   5   1  -8 5464.61 411.406   5
   5   1  -7 1193.85 233.964   6
   5   1  -7-174.960 288.737   5
   5   1  -6 3885.78 411.446   5
   5   1  -5 335.193 344.448   9
   5   1  -5 423.421 320.733   5
   5   1  -4 3836.60 469.879   9
   5   1  -3 14589.5 729.143   9
   5   1  -2 30183.2 1008.06   9
   5   1  -1 53244.9 1253.96   9
   5   1   0 17528.2 831.674   9
   5   1   1 2050.22 485.343   9
   5   1   2 15966.2 691.563   9
   5   1   3 3054.73 451.340   9
   5   1   4 13643.9 592.155   9
   5   1   5 5326.22 579.508   7
   5   1   5 6642.56 495.092   9
   5   1   6 10819.4 567.422   7
   5   1   6 14303.9 507.064   9
   5   1   7 3354.43 424.265   7
   5   1   7 3997.11 325.942   9
   5   1   8 588.344 301.721   7
   5   1   8 1295.18 226.359   9
   5   1   9-72.1576 224.524   7
   5   2  -9 5612.27 303.503   6
   5   2  -8 3027.54 272.334   6
   5   2  -6 10133.3 579.009   9
   5   2  -5 11481.7 665.247   9
   5   2  -4 10441.3 683.263   9
   5   2  -3 3508.69 554.085   9
   5   2  -2 12250.0 922.730   9
   5   2  -1 49264.7 1229.16   9
   5   2   0 19799.4 886.528   9
   5   2   1 6876.04 570.271   9
   5   2   2 5506.65 505.781   9
   5   2   3 650.650 383.211   9
   5   2   4 22284.0 689.052   9
   5   2   5 2471.56 454.937   7
   5   2   5 2963.23 361.359   9
   5   2   6 6970.06 490.637   7
   5   2   6 8947.23 396.382   9
   5   2   7 4382.37 405.693   7
   5   2   7 6135.92 315.143   9
   5   2   8 441.930 269.471   7
   5   3  -7 1560.19 310.976   9
   5   3  -6 2411.77 410.743   9
   5   3  -5 14687.6 722.437   9
   5   3  -4 13547.0 763.993   9
   5   3  -3 27810.2 961.791   9
   5   3  -2 6067.88 652.406   9
   5   3  -1 783.369 459.122   9
   5   3   0 6120.47 551.374   9
   5   3   1 6737.62 531.379   9
   5   3   2 7598.67 501.246   9
   5   3   3 413.536 299.733   9
   5   3   4 1097.28 283.751   9
   5   3   5 3386.25 296.155   9
   5   3   6 6907.77 441.282   7
   5   3   6 9361.33 337.182   9
   5   3   7 4710.65 344.813   7
   5   4  -7 87.3146 234.324   9
   5   4  -6 1837.96 338.835   9
   5   4  -5 197.898 320.401   9
   5   4  -4 1770.01 432.498   9
   5   4  -3 14889.8 672.497   9
   5   4  -2 5708.41 584.748   9
   5   4  -1 8940.79 537.035   9
   5   4   0 1352.65 396.513   9
   5   4   1 2929.16 362.213   9
   5   4   2 3212.67 330.727   9
   5   4   3 1312.61 249.679   9
   5   4   4 15122.7 419.601   9
   5   5  -6 451.243 213.384   9
   5   5  -5 1880.79 281.968   9
   5   5  -4 168.472 253.723   9
   5   5  -3 654.261 268.713   9
   5   5  -2 1055.15 284.689   9
   5   5  -1 4150.65 343.450   9
   5   5   0 4216.67 324.490   9
   5   5   1 568.459 208.714   9
   5   5   2 1366.18 191.523   9
   0   0   0    0.00    0.00   0

TITL dlcuvamet90 in P-1
REM P-1 (#2 in standard setting)
CELL 1.54184   4.900983   9.803136  15.021714  98.8092  90.5210  95.0371
ZERR    1.00   0.000470   0.001313   0.001523   0.0097   0.0080   0.0093
LATT  1
SFAC C H N O Cu
UNIT 20.00 10.00 2.00 10.00 1.00
TREF
HKLF 4
END
;
_shelx_hkl_checksum              75578
loop_
_space_group_symop_operation_xyz
'x, y, z'
'-x, -y, -z'
loop_
_atom_site_label
_atom_site_type_symbol
_atom_site_fract_x
_atom_site_fract_y
_atom_site_fract_z
_atom_site_U_iso_or_equiv
_atom_site_adp_type
_atom_site_occupancy
_atom_site_site_symmetry_order
_atom_site_calc_flag
_atom_site_refinement_flags_posn
_atom_site_refinement_flags_adp
_atom_site_refinement_flags_occupancy
_atom_site_disorder_assembly
_atom_site_disorder_group
Cu1 Cu 0.1249(2) 0.16447(11) 0.39502(7) 0.0198(3) Uani 1 1 d . . . . .
S1 S 0.1467(4) -0.1825(2) 0.02080(13) 0.0311(5) Uani 1 1 d . . . . .
O4 O 0.4061(10) 0.0426(5) 0.4142(3) 0.0234(12) Uani 1 1 d . . . . .
O10 O -0.1288(10) 0.2914(5) 0.3767(3) 0.0223(12) Uani 1 1 d . . . . .
O2 O -0.4520(11) 0.4904(5) 0.3943(3) 0.0251(12) Uani 1 1 d . . . . .
O8 O 0.7688(10) -0.0497(5) 0.3495(3) 0.0226(12) Uani 1 1 d . . . . .
O2W O -0.0148(12) 0.1603(6) 0.5187(4) 0.0230(13) Uani 1 1 d . . . . .
N5 N 0.2833(12) 0.1624(6) 0.2780(4) 0.0202(14) Uani 1 1 d . . . . .
C13 C -0.2849(15) 0.4835(7) 0.3222(5) 0.0206(16) Uani 1 1 d . . . . .
C6 C 0.0644(14) 0.3580(7) 0.2405(5) 0.0183(15) Uani 1 1 d . . . . .
C4 C 0.3478(15) -0.0695(8) 0.1954(5) 0.0238(17) Uani 1 1 d . . . . .
H2A1 H 0.4644 -0.1448 0.1941 0.029 Uiso 1 1 calc R U . . .
H2A2 H 0.1724 -0.0989 0.2190 0.029 Uiso 1 1 calc R U . . .
C3AA C -0.1121(14) 0.3730(8) 0.3149(5) 0.0207(16) Uani 1 1 d . . . . .
C14 C -0.2727(16) 0.5764(8) 0.2617(5) 0.0237(17) Uani 1 1 d . . . . .
H4AA H -0.3823 0.6499 0.2690 0.028 Uiso 1 1 calc R U . . .
C5 C -0.6080(16) 0.6070(8) 0.4128(5) 0.0271(18) Uani 1 1 d . . . . .
H5A1 H -0.4866 0.6905 0.4227 0.041 Uiso 1 1 calc R U . . .
H5A2 H -0.7136 0.6000 0.4657 0.041 Uiso 1 1 calc R U . . .
H5A3 H -0.7290 0.6091 0.3625 0.041 Uiso 1 1 calc R U . . .
C16 C 0.0693(16) 0.4558(8) 0.1788(5) 0.0234(17) Uani 1 1 d . . . . .
H6AA H 0.1881 0.4471 0.1308 0.028 Uiso 1 1 calc R U . . .
C9 C 0.3894(18) -0.3090(9) 0.0197(6) 0.036(2) Uani 1 1 d . . . . .
H7A1 H 0.5675 -0.2688 0.0067 0.054 Uiso 1 1 calc R U . . .
H7A2 H 0.3356 -0.3870 -0.0257 0.054 Uiso 1 1 calc R U . . .
H7A3 H 0.3954 -0.3389 0.0776 0.054 Uiso 1 1 calc R U . . .
C3 C 0.4796(14) 0.0590(8) 0.2582(5) 0.0199(16) Uani 1 1 d . . . . .
H8AA H 0.6420 0.0987 0.2304 0.024 Uiso 1 1 calc R U . . .
C2 C 0.3058(18) -0.0402(8) 0.1003(5) 0.0294(19) Uani 1 1 d . . . . .
H9A1 H 0.4827 -0.0114 0.0776 0.035 Uiso 1 1 calc R U . . .
H9A2 H 0.1940 0.0371 0.1028 0.035 Uiso 1 1 calc R U . . .
C15 C -0.0939(16) 0.5596(8) 0.1889(5) 0.0248(17) Uani 1 1 d . . . . .
H0BA H -0.0889 0.6210 0.1475 0.030 Uiso 1 1 calc R U . . .
C1BA C 0.5605(14) 0.0128(8) 0.3471(5) 0.0188(16) Uani 1 1 d . . . . .
C21 C 0.2559(14) 0.2548(8) 0.2275(5) 0.0202(16) Uani 1 1 d . . . . .
H0 H 0.3699 0.2549 0.1783 0.024 Uiso 1 1 calc R U . . .
H1W H -0.213(19) 0.114(9) 0.516(5) 0.03(2) Uiso 1 1 d . . . . .
H2W H 0.05(2) 0.125(11) 0.547(7) 0.05(4) Uiso 1 1 d . . . . .
loop_
_atom_site_aniso_label
_atom_site_aniso_U_11
_atom_site_aniso_U_22
_atom_site_aniso_U_33
_atom_site_aniso_U_23
_atom_site_aniso_U_13
_atom_site_aniso_U_12
Cu1 0.0214(6) 0.0250(6) 0.0155(6) 0.0072(4) 0.0000(4) 0.0083(4)
S1 0.0328(11) 0.0374(12) 0.0225(10) 0.0045(9) -0.0096(8) 0.0010(9)
O4 0.027(3) 0.027(3) 0.020(3) 0.009(2) 0.001(2) 0.014(2)
O10 0.019(3) 0.028(3) 0.022(3) 0.008(2) 0.000(2) 0.006(2)
O2 0.031(3) 0.023(3) 0.024(3) 0.007(2) 0.004(2) 0.012(2)
O8 0.019(3) 0.032(3) 0.020(3) 0.008(2) -0.002(2) 0.011(2)
O2W 0.029(3) 0.027(3) 0.017(3) 0.008(2) 0.001(2) 0.015(3)
N5 0.023(3) 0.029(4) 0.011(3) 0.004(3) -0.003(2) 0.008(3)
C13 0.026(4) 0.015(4) 0.021(4) 0.001(3) -0.006(3) 0.007(3)
C6 0.020(4) 0.017(4) 0.019(4) 0.003(3) -0.005(3) 0.004(3)
C4 0.022(4) 0.032(4) 0.019(4) 0.007(3) -0.002(3) 0.005(3)
C3AA 0.018(4) 0.026(4) 0.018(4) 0.006(3) -0.003(3) -0.004(3)
C14 0.028(4) 0.015(4) 0.028(4) 0.004(3) -0.004(3) 0.002(3)
C5 0.024(4) 0.025(4) 0.032(5) 0.003(3) -0.001(3) 0.007(3)
C16 0.029(4) 0.024(4) 0.018(4) 0.007(3) 0.000(3) 0.002(3)
C9 0.033(5) 0.044(5) 0.028(5) -0.003(4) -0.001(4) 0.000(4)
C3 0.016(4) 0.022(4) 0.022(4) 0.008(3) -0.001(3) 0.000(3)
C2 0.040(5) 0.027(4) 0.021(4) 0.005(3) -0.008(3) 0.000(4)
C15 0.033(4) 0.019(4) 0.025(4) 0.010(3) -0.005(3) 0.007(3)
C1BA 0.012(4) 0.026(4) 0.017(4) 0.004(3) -0.003(3) -0.007(3)
C21 0.019(4) 0.025(4) 0.016(4) 0.002(3) -0.004(3) -0.001(3)
loop_
_atom_type_symbol
_atom_type_description
_atom_type_scat_dispersion_real
_atom_type_scat_dispersion_imag
_atom_type_scat_source
C C 0.0181 0.0091 'International Tables Vol C Tables 4.2.6.8 and 6.1.1.4'
H H 0.0000 0.0000 'International Tables Vol C Tables 4.2.6.8 and 6.1.1.4'
N N 0.0311 0.0180 'International Tables Vol C Tables 4.2.6.8 and 6.1.1.4'
O O 0.0492 0.0322 'International Tables Vol C Tables 4.2.6.8 and 6.1.1.4'
Cu Cu -1.9646 0.5888 'International Tables Vol C Tables 4.2.6.8 and 6.1.1.4'
S S 0.3331 0.5567 'International Tables Vol C Tables 4.2.6.8 and 6.1.1.4'
loop_
_citation_id
_citation_doi
_citation_year
1 10.1002/chem.201800404 2018
loop_
_geom_angle_atom_site_label_1
_geom_angle_atom_site_label_2
_geom_angle_atom_site_label_3
_geom_angle
_geom_angle_site_symmetry_1
_geom_angle_site_symmetry_3
_geom_angle_publ_flag
O10 Cu1 N5 94.4(2) . . ?
O10 Cu1 O4 176.3(2) . . ?
N5 Cu1 O4 84.3(2) . . ?
O10 Cu1 O2W 89.6(2) . . ?
N5 Cu1 O2W 175.8(2) . . ?
O4 Cu1 O2W 91.6(2) . . ?
C9 S1 C2 101.9(4) . . ?
C1BA O4 Cu1 115.1(4) . . ?
C3AA O10 Cu1 125.3(5) . . ?
C13 O2 C5 117.9(6) . . ?
C21 N5 C3 121.6(6) . . ?
C21 N5 Cu1 124.4(5) . . ?
C3 N5 Cu1 113.2(4) . . ?
O2 C13 C14 124.2(6) . . ?
O2 C13 C3AA 114.2(6) . . ?
C14 C13 C3AA 121.5(7) . . ?
C3AA C6 C16 119.4(6) . . ?
C3AA C6 C21 122.9(6) . . ?
C16 C6 C21 117.6(7) . . ?
C2 C4 C3 111.8(6) . . ?
O10 C3AA C6 124.5(7) . . ?
O10 C3AA C13 118.1(6) . . ?
C6 C3AA C13 117.4(6) . . ?
C13 C14 C15 119.8(7) . . ?
C15 C16 C6 121.3(7) . . ?
N5 C3 C1BA 108.0(6) . . ?
N5 C3 C4 110.5(6) . . ?
C1BA C3 C4 107.8(6) . . ?
C4 C2 S1 115.9(6) . . ?
C16 C15 C14 120.6(7) . . ?
O8 C1BA O4 124.6(6) . . ?
O8 C1BA C3 118.5(6) . . ?
O4 C1BA C3 116.9(6) . . ?
N5 C21 C6 125.4(7) . . ?
loop_
_geom_bond_atom_site_label_1
_geom_bond_atom_site_label_2
_geom_bond_distance
_geom_bond_site_symmetry_2
_geom_bond_publ_flag
Cu1 O10 1.881(5) . ?
Cu1 N5 1.926(6) . ?
Cu1 O4 1.948(5) . ?
Cu1 O2W 1.991(5) . ?
S1 C9 1.790(9) . ?
S1 C2 1.806(8) . ?
O4 C1BA 1.278(9) . ?
O10 C3AA 1.314(9) . ?
O2 C13 1.361(9) . ?
O2 C5 1.424(9) . ?
O8 C1BA 1.239(9) . ?
N5 C21 1.282(9) . ?
N5 C3 1.458(9) . ?
C13 C14 1.379(10) . ?
C13 C3AA 1.425(10) . ?
C6 C3AA 1.417(10) . ?
C6 C16 1.431(10) . ?
C6 C21 1.432(10) . ?
C4 C2 1.514(10) . ?
C4 C3 1.542(10) . ?
C14 C15 1.406(11) . ?
C16 C15 1.340(11) . ?
C3 C1BA 1.535(10) . ?
