#------------------------------------------------------------------------------
#$Date: 2021-01-07 06:46:42 +0200 (Thu, 07 Jan 2021) $
#$Revision: 260660 $
#$URL: file:///home/coder/svn-repositories/cod/cif/7/12/71/7127149.cif $
#------------------------------------------------------------------------------
#
# This file is available in the Crystallography Open Database (COD),
# http://www.crystallography.net/
#
# All data on this site have been placed in the public domain by the
# contributors.
#
data_7127149
loop_
_publ_author_name
'Wu, Ting'
'Jiang, Shenlong'
'Samanta, Pabitra Narayan'
'Xie, Yangbin'
'Li, Jipeng'
'Wang, Xiaoling'
'Devashis, Majumdar'
'Gu, Xiangwei'
'Wang, Yusong'
'Huang, Wei'
'Zhang, Qun'
'Leszczynski, Jerzy'
'Wu, Dayu'
_publ_section_title
;
 Negative thermal quenching of photoluminescence in a copper-organic
 framework emitter.
;
_journal_issue                   80
_journal_name_full
'Chemical communications (Cambridge, England)'
_journal_page_first              12057
_journal_page_last               12060
_journal_paper_doi               10.1039/d0cc04788k
_journal_volume                  56
_journal_year                    2020
_chemical_formula_sum            'C5 H6 Cu2 I2 N2'
_chemical_formula_weight         475.00
_space_group_crystal_system      monoclinic
_space_group_IT_number           14
_space_group_name_Hall           '-P 2yn'
_space_group_name_H-M_alt        'P 1 21/n 1'
_atom_sites_solution_hydrogens   geom
_audit_creation_method           SHELXL-2014/6
_audit_update_record
;
2020-05-09 deposited with the CCDC.	2020-09-01 downloaded from the CCDC.
;
_cell_angle_alpha                90
_cell_angle_beta                 90.478(5)
_cell_angle_gamma                90
_cell_formula_units_Z            4
_cell_length_a                   11.5380(6)
_cell_length_b                   4.2653(2)
_cell_length_c                   19.7023(13)
_cell_measurement_reflns_used    3105
_cell_measurement_temperature    298(2)
_cell_measurement_theta_max      30.1200
_cell_measurement_theta_min      2.0560
_cell_volume                     969.58(9)
_computing_cell_refinement       'Bruker XSCANS'
_computing_data_collection       'Bruker XSCANS'
_computing_data_reduction        'Bruker SHELXTL'
_computing_molecular_graphics    'Bruker SHELXTL'
_computing_publication_material  'Bruker SHELXTL'
_computing_structure_refinement  'SHELXL-2014/6 (Sheldrick, 2014)'
_computing_structure_solution    'Bruker SHELXTL'
_diffrn_ambient_temperature      298(2)
_diffrn_measured_fraction_theta_full 0.921
_diffrn_measured_fraction_theta_max 0.948
_diffrn_measurement_device_type  HyPix
_diffrn_radiation_type           MoK\a
_diffrn_radiation_wavelength     0.71073
_diffrn_reflns_av_R_equivalents  0.1390
_diffrn_reflns_av_unetI/netI     0.0938
_diffrn_reflns_Laue_measured_fraction_full 0.921
_diffrn_reflns_Laue_measured_fraction_max 0.948
_diffrn_reflns_limit_h_max       13
_diffrn_reflns_limit_h_min       -12
_diffrn_reflns_limit_k_max       4
_diffrn_reflns_limit_k_min       -5
_diffrn_reflns_limit_l_max       22
_diffrn_reflns_limit_l_min       -23
_diffrn_reflns_number            4252
_diffrn_reflns_point_group_measured_fraction_full 0.921
_diffrn_reflns_point_group_measured_fraction_max 0.948
_diffrn_reflns_theta_full        25.242
_diffrn_reflns_theta_max         24.999
_diffrn_reflns_theta_min         2.038
_diffrn_source                   'Rotating-anode X-ray tube'
_exptl_absorpt_coefficient_mu    10.694
_exptl_absorpt_correction_T_max  1.00000
_exptl_absorpt_correction_T_min  0.05500
_exptl_absorpt_correction_type   multi-scan
_exptl_absorpt_process_details
;
CrysAlisPro 1.171.40.14a (Rigaku Oxford Diffraction, 2018)
Empirical absorption correction using spherical harmonics,
 implemented in SCALE3 ABSPACK scaling algorithm.
;
_exptl_crystal_colour            brown
_exptl_crystal_density_diffrn    3.254
_exptl_crystal_description       needle
_exptl_crystal_F_000             856
_exptl_crystal_size_max          0.32
_exptl_crystal_size_mid          0.15
_exptl_crystal_size_min          0.12
_refine_diff_density_max         4.089
_refine_diff_density_min         -10.003
_refine_diff_density_rms         1.070
_refine_ls_extinction_method     none
_refine_ls_goodness_of_fit_ref   1.578
_refine_ls_hydrogen_treatment    constr
_refine_ls_matrix_type           full
_refine_ls_number_parameters     100
_refine_ls_number_reflns         1607
_refine_ls_number_restraints     6
_refine_ls_restrained_S_all      1.577
_refine_ls_R_factor_all          0.1673
_refine_ls_R_factor_gt           0.1505
_refine_ls_shift/su_max          0.000
_refine_ls_shift/su_mean         0.000
_refine_ls_structure_factor_coef Fsqd
_refine_ls_weighting_details
'w=1/[\s^2^(Fo^2^)+(0.2000P)^2^] where P=(Fo^2^+2Fc^2^)/3'
_refine_ls_weighting_scheme      calc
_refine_ls_wR_factor_gt          0.3532
_refine_ls_wR_factor_ref         0.3900
_reflns_Friedel_coverage         0.000
_reflns_number_gt                1233
_reflns_number_total             1607
_reflns_threshold_expression     'I > 2\s(I)'
_cod_data_source_file            d0cc04788k3.cif
_cod_data_source_block           298k
_cod_depositor_comments
'Adding full bibliography for 7127147--7127150.cif.'
_cod_original_sg_symbol_H-M      'P 21/n'
_cod_database_code               7127149
_shelx_space_group_comment
;
The symmetry employed for this shelxl refinement is uniquely defined
by the following loop, which should always be used as a source of
symmetry information in preference to the above space-group names.
They are only intended as comments.
;
_shelxl_version_number           2014/6
_shelx_res_file
;
TITL 2 in P2(1)/n
CELL 0.71073  11.5380   4.2653  19.7023  90.000  90.478  90.000
ZERR   4.00   0.0006   0.0002   0.0013   0.000   0.005   0.000
LATT  1
SYMM 0.5-X, 0.5+Y, 0.5-Z
SFAC C H N CU I
UNIT 20 24 8 8 8

L.S. 44
ACTA
BOND $H
OMIT 0 50
OMIT 2   0   2
OMIT 8   2  13
OMIT 6   0   6
OMIT 7   1   7
OMIT 5   1   6
OMIT 9   2  18
OMIT 8   0  12

FMAP 2
PLAN 20
ISOR 0.01 C3
WGHT    0.200000
FVAR       0.13028
I1    5    0.638302    0.135096    0.079584    11.00000    0.03966    0.03774 =
         0.04714   -0.00317    0.01047   -0.00292
I2    5    0.590170   -0.368613    0.274668    11.00000    0.02909    0.03886 =
         0.04755   -0.00070    0.01068   -0.00091
CU1   4    0.542147   -0.354227    0.137097    11.00000    0.02860    0.06296 =
         0.08088   -0.00555    0.00277   -0.00926
CU2   4    0.676994    0.131457    0.208984    11.00000    0.05908    0.07845 =
         0.06543   -0.00137    0.01429   -0.00294
C1    1    0.319535   -0.582047    0.085649    11.00000    0.03054    0.03557 =
         0.05172   -0.00676    0.01208    0.00587
AFIX  43
H1A   2    0.356784   -0.700482    0.052742    11.00000   -1.20000
AFIX   0
N2    3    0.202786   -0.568441    0.092736    11.00000    0.00847    0.04575 =
         0.04979    0.00255   -0.00533   -0.00658
N1    3    0.372718   -0.410860    0.130067    11.00000    0.02958    0.03899 =
         0.06240    0.00296    0.00765    0.00382
C2    1    0.282788   -0.280281    0.168172    11.00000    0.03339    0.05159 =
         0.05429   -0.00310    0.02697    0.00320
AFIX  43
H2A   2    0.294390   -0.138235    0.203390    11.00000   -1.20000
AFIX   0
C5    1    0.052253   -0.515128   -0.000885    11.00000    0.03608    0.05564 =
         0.04973   -0.01046   -0.00485   -0.02791
AFIX  43
H5A   2    0.094673   -0.408202   -0.033467    11.00000   -1.20000
AFIX   0
C3    1    0.179443   -0.381802    0.148416    11.00000    0.02093    0.04564 =
         0.04699   -0.00127    0.00219    0.00121
AFIX  43
H3A   2    0.107819   -0.337881    0.167521    11.00000   -1.20000
AFIX   0
C4    1    0.115688   -0.731273    0.050904    11.00000    0.01835    0.03135 =
         0.07367    0.00153   -0.01530   -0.00369
AFIX  23
H4A   2    0.058649   -0.825225    0.080533    11.00000   -1.20000
H4B   2    0.153358   -0.899475    0.026363    11.00000   -1.20000

AFIX   0
HKLF 4

REM  2 in P2(1)/n
REM R1 =  0.1505 for    1233 Fo > 4sig(Fo)  and  0.1673 for all    1607 data
REM    100 parameters refined using      6 restraints

END

WGHT      0.2000      0.0000

REM Highest difference peak  4.089,  deepest hole-10.003,  1-sigma level  1.070
Q1    1   0.5944 -0.4370  0.2192  11.00000  0.05    4.09
Q2    1   0.6933  0.1203  0.1422  11.00000  0.05    3.65
Q3    1   0.6249  0.2499  0.0347  11.00000  0.05    3.61
Q4    1   0.6761  0.2291  0.1443  11.00000  0.05    3.58
Q5    1   0.5742 -0.2051  0.1850  11.00000  0.05    3.37
Q6    1   0.6061 -0.2387  0.3225  11.00000  0.05    3.37
Q7    1   0.6018 -0.4997  0.3220  11.00000  0.05    3.30
Q8    1   0.6360  0.0325  0.0301  11.00000  0.05    3.28
Q9    1   0.1417 -0.4215  0.0631  11.00000  0.05    3.01
Q10   1   0.1736 -0.4941  0.0370  11.00000  0.05    2.64
Q11   1   0.6735  0.1272 -0.0028  11.00000  0.05    2.63
Q12   1   0.1213 -0.1457  0.2648  11.00000  0.05    2.51
Q13   1   0.6148  0.1398  0.1932  11.00000  0.05    2.49
Q14   1   0.1522 -0.6329  0.0747  11.00000  0.05    2.45
Q15   1   0.1139 -0.8838 -0.0828  11.00000  0.05    2.44
Q16   1   0.0693 -0.4520  0.1212  11.00000  0.05    2.38
Q17   1   0.1018 -0.6283  0.0995  11.00000  0.05    2.14
Q18   1   0.0277 -0.1495  0.1437  11.00000  0.05    2.13
Q19   1   0.1560 -0.8503  0.0703  11.00000  0.05    2.09
Q20   1   0.0955 -0.3635 -0.0658  11.00000  0.05    2.08
;
_shelx_res_checksum              6153
_shelx_hkl_file
;
   0   0   2  347.80    7.13
   0   0  -2  340.15    7.12
   0   0  -3    0.07    0.05
   0   0   3   -0.09    0.32
   0   0   3    0.09    0.07
   0   0   4    5.73    0.44
   0   0  -4    5.09    0.41
   0   0  -5   -0.02    0.08
   0   0   5   -0.15    0.58
   0   0   5    0.19    0.13
   0   0  -6  675.89   15.94
   0   0   6  749.17   16.09
   0   0  -7   -0.03    0.14
   0   0   7    0.16    0.14
   0   0   7    0.41    0.75
   0   0  -8    5.82    0.64
   0   0   8    7.53    0.70
   0   0   9   -0.26    0.89
   0   0  -9   -0.04    0.22
   0   0   9    0.07    0.16
   0   0  10   22.55    3.85
   0   0  10   45.45    1.99
   0   0 -10    7.30    2.36
   0   0 -10   29.30    1.66
   0   0  11    0.21    0.16
   0   0  11   -0.32    0.63
   0   0  12    0.87    0.34
   0   0  12    1.75    1.37
   0   0 -12    1.20    0.43
   0   0  13    0.40    0.26
   0   0  13   -0.38    1.29
   0   0 -13    0.40    1.10
   0   0 -13    0.06    0.24
   0   0 -14  498.98   16.05
   0   0  14  472.27   23.62
   0   0  15    0.87    1.48
   0   0  15    0.46    0.48
   0   0 -15   -0.46    0.90
   0   0 -15    1.13    0.78
   0   0  16   96.30    9.92
   0   0  16  118.28    4.43
   0   0  17    0.07    0.37
   0   0  17    0.49    1.53
   0   0 -17   -0.37    1.09
   0   0  18    6.10    0.99
   0   0 -18    2.29    1.12
   0   0  19    0.15    0.51
   0   0  20  102.95    4.14
   0   0 -20   17.08    2.82
   0   0 -21    0.18    0.55
   0   0 -26    1.59    2.46
   0  -1   0    0.07    0.22
   0  -1  -1    7.63    0.89
   0  -1   1    8.31    1.21
   0  -1   2  182.31    4.13
   0   1   2  174.22    4.22
   0  -1  -3    9.02    0.53
   0  -1  -3    9.32    1.11
   0   1   3   12.57    0.61
   0   1  -3    8.97    0.49
   0   1  -3    6.71    0.71
   0  -1   3   12.96    0.56
   0  -1   3    3.31    0.89
   0  -1   4   71.62    2.01
   0   1   4   70.24    2.08
   0  -1  -4   61.68    2.05
   0   1  -4   58.96    1.95
   0   1  -4   50.26    2.50
   0  -1   5  131.17    3.34
   0   1  -5  105.14    3.25
   0   1   5  126.42    3.41
   0  -1  -5  113.65    3.38
   0  -1   6 1025.41   21.85
   0   1  -6  892.34   21.82
   0   1   6 1009.88   21.96
   0  -1  -6  866.22   21.89
   0   1   7 1234.26   26.34
   0  -1  -7  971.05   26.05
   0  -1   7 1294.75   26.28
   0   1  -7 1057.40   26.02
   0  -1   8 1160.49   20.21
   0   1   8 1112.85   20.28
   0  -1   9  126.13    3.83
   0   1   9  117.82    3.83
   0   1  10    1.89    0.43
   0  -1 -10    1.75    0.67
   0  -1  10    2.37    0.47
   0  -1  11    2.90    0.52
   0   1  11    3.03    0.56
   0  -1 -11    1.73    0.72
   0  -1  12   69.13    2.89
   0   1  12   68.83    2.92
   0   1  13  140.02    4.85
   0  -1  13  146.46    4.85
   0   1  14  146.21    4.97
   0  -1  14  146.95    4.89
   0  -1 -15    7.92    1.88
   0  -1  15   10.81    1.16
   0   1  15   11.93    1.24
   0  -1 -16    3.51    1.58
   0  -1  16    6.61    0.93
   0   1  16    7.83    1.07
   0  -1  16    2.97    1.95
   0  -1  17    1.86    0.59
   0  -1  17    2.25    1.97
   0   1  17    2.26    0.66
   0  -1 -17    2.69    1.43
   0  -1 -18    0.87    1.27
   0  -1  18    2.78    0.75
   0   1  18    2.60    0.68
   0  -1 -19    1.98    2.24
   0  -1  19    8.05    3.41
   0  -1  19    7.23    1.12
   0   1  19    6.31    1.07
   0  -1 -19    2.47    1.62
   0  -1  20    0.15    0.45
   0  -1  21   17.17    4.84
   0  -1 -21    2.89    2.65
   0  -1  22   28.34    6.02
   0  -1 -23   -0.79    2.17
   0  -2   0   19.88    2.91
   0  -2   1  844.49   27.77
   0  -2  -1  957.18   27.44
   0  -2  -2    7.30    1.73
   0  -2   2    2.19    1.43
   0   2   3    0.54    0.16
   0  -2   3    0.61    0.12
   0  -2  -3    1.26    0.86
   0  -2  -4    0.36    0.56
   0  -2   4    1.09    0.19
   0  -2   5  163.74    4.31
   0   2   5  173.19    4.53
   0   2   6    1.43    0.30
   0  -2   6    1.39    0.27
   0   2   7  137.64    4.14
   0  -2   7  135.79    3.97
   0  -2  -8    2.86    1.60
   0  -2   8    3.98    0.49
   0   2   8    3.77    0.52
   0  -2   9   35.30    1.51
   0   2   9   38.29    1.68
   0  -2 -10    5.93    1.76
   0  -2  10    7.32    0.79
   0   2  10    8.00    0.87
   0  -2 -11    5.62    1.82
   0   2  11    7.18    0.86
   0  -2  11    7.02    0.80
   0  -2 -12    1.54    1.23
   0   2  12    1.34    0.47
   0  -2  12    0.99    0.39
   0  -2  13  121.32    4.17
   0   2  13  123.61    4.33
   0  -2  14    2.72    0.67
   0  -2 -14    2.69    1.70
   0   2  14    1.67    0.55
   0  -2  15  297.31    8.62
   0   2  15  302.38    8.84
   0  -2  16    0.35    0.51
   0  -2 -16    0.35    1.46
   0   2  16    0.51    0.60
   0  -2 -17   -0.41    1.25
   0  -2  17    0.19    0.48
   0   2  17    0.54    0.57
   0  -2  18   -0.07    0.42
   0  -2  18    0.45    1.38
   0   2  18    0.21    0.45
   0  -2 -18    0.89    1.38
   0  -2  19   19.61    1.77
   0   2  19   21.67    1.93
   0  -2  20    1.97    0.66
   0  -2 -20    0.52    1.90
   0  -2  20    2.96    2.26
   0  -2 -21   27.81    5.83
   0  -2  21   24.68    5.40
   0  -2  22   -0.54    1.81
   0  -2 -23   -0.53    2.07
   0  -2 -25    0.53    1.45
   0  -3   0   -0.82    1.60
   0  -3  -2   34.59    5.51
   0  -3  -3    0.39    1.20
   0  -3   3    0.73    1.43
   0  -3  -4    1.85    1.62
   0   3   5   23.01    1.23
   0  -3  -5    7.71    2.68
   0   3   6  107.61    2.88
   0  -3   6  112.47    2.52
   0   3   7  518.44   12.75
   0  -3   7  545.25   12.50
   0  -3   8  526.34    9.90
   0   3   8  236.46    7.74
   0  -3   9   68.68    2.44
   0   3   9   69.24    2.71
   0   3  10    0.55    0.39
   0  -3  10    0.34    0.32
   0  -3 -10    0.57    1.36
   0  -3 -11    0.60    1.17
   0   3  11    1.30    0.46
   0  -3  11    0.87    0.37
   0  -3 -11   -0.43    1.58
   0   3  12   15.74    1.32
   0  -3  12   14.18    1.14
   0  -3  13  135.40    4.39
   0   3  13  138.71    4.71
   0  -3 -14   19.85    5.68
   0  -3  14   63.91    2.64
   0  -3 -14   31.57    6.27
   0  -3  14    6.59    2.60
   0   3  14   69.00    2.96
   0  -3  15    3.82    0.72
   0  -3 -15   -0.71    1.71
   0   3  15    3.94    0.77
   0  -3 -15    3.44    2.63
   0  -3  16    1.51    0.54
   0   3  16    1.25    0.54
   0   3  17    0.20    0.48
   0  -3  17    0.81    0.49
   0  -3 -17   -0.64    2.18
   0   3  18    0.98    0.57
   0  -3  18    0.74    0.52
   0  -3 -18    1.30    2.98
   0  -3  19    6.10    1.07
   0  -3 -21    3.36    2.79
   0  -4   0   95.79   10.81
   0  -4  -1    1.70    2.21
   0  -4  -2   13.93    4.48
   0  -4   4   -0.49    1.35
   0  -4   5    0.47    1.30
   0  -4  -5   -0.62    1.93
   0   4   6  192.77    4.77
   0   4   6  190.91    4.84
   0  -4   7    0.43    1.34
   0   4   8    1.14    0.34
   0  -4  -8    0.63    1.73
   0  -4  -9    0.65    1.28
   0   4   9    2.77    0.51
   0  -4  -9    0.68    2.50
   0  -4   9    4.33    0.53
   0   4  10    2.91    0.60
   0  -4 -10   -0.68    1.62
   0   4  11    1.35    0.55
   0  -4  11    1.15    0.35
   0   4  12    3.58    0.91
   0  -4 -12    1.45    2.83
   0  -4 -13   -0.74    2.70
   0   4  13    0.38    0.50
   0  -4 -13    0.76    1.82
   0   4  14   82.32    3.56
   0  -4 -15   -0.76    2.79
   0  -4 -15    0.81    2.52
   0   4  15    3.67    0.84
   0  -4 -16    0.84    2.35
   0   4  16   21.42    1.72
   0   4  17    0.25    0.58
   0  -5   1    1.34    2.27
   0  -5  -3    0.74    2.27
   0  -5  -7   12.66    4.96
   0  -5   7    0.55    1.71
   0  -5  -8   19.65    5.88
   0  -5  -8   17.03    5.62
   0  -5  -9   -0.75    2.32
   0  -5 -10   -0.78    1.52
   1   0 -24    0.77    2.12
   1   0 -22   -0.21    1.15
   1   0 -21   25.59    3.45
   1   0 -20    0.16    0.69
  -1   0  20    0.54    0.40
  -1   0  20    0.60    1.43
  -1   0  19    3.31    0.78
   1   0 -19    0.61    1.20
   1   0 -19    2.81    1.05
  -1   0  19    0.57    1.57
   1   0 -18    0.09    0.36
  -1   0  18   -0.07    0.40
  -1   0  18   -0.54    1.67
  -1   0  17   65.09    8.63
  -1   0  17   95.98    4.12
   1   0 -16    0.25    0.49
  -1   0  16    0.62    0.53
  -1   0  15  842.10   18.91
   1   0 -15  674.09   18.55
  -1   0  14    0.43    0.38
  -1   0  14   -0.43    1.32
   1   0 -14    0.17    0.33
  -1   0  13  107.88    4.00
   1   0 -13   90.79    3.76
  -1   0  12   -0.37    0.88
  -1   0  12    0.19    0.20
   1   0 -12   -0.05    0.18
  -1   0  11  170.23    5.13
   1   0 -11  155.23    5.04
  -1   0  10   -0.31    0.86
  -1   0  10    0.04    0.25
   1   0 -10    0.04    0.27
  -1   0   9  827.32   19.13
   1   0  -9  755.06   19.03
  -1   0   8   -0.51    0.86
   1   0  -8    0.03    0.15
  -1   0   8   -0.03    0.13
  -1   0   7    0.67    0.21
   1   0  -7    1.16    0.28
  -1   0   6    0.02    0.19
   1   0  -6    0.15    0.13
  -1   0   5   39.82    1.57
   1   0  -5   42.19    1.60
  -1   0   4    0.12    0.10
   1   0  -4   -0.02    0.07
   1   0  -3  401.94    7.29
  -1   0   3  403.87    7.30
   1   0  -2   -0.01    0.05
   1   0  -2   -0.09    0.34
  -1   0   2    0.26    0.41
  -1   0   2    0.03    0.06
  -1   0   1 1729.21   37.37
   1   0  -1 1604.77   37.34
   1   0   2   -0.05    0.21
   1   0   5 1116.46   14.17
  -1   0  -5  221.90   13.42
   1   0   6   -0.03    0.14
  -1   0  -7   95.71    6.75
  -1   0  -7   63.59    4.42
   1   0   8   -0.03    0.13
  -1   0  -8   -0.10    0.43
  -1   0  -9    0.52    0.95
   1   0   9    1.36    0.35
   1   0  10    0.04    0.16
   1   0  11   90.46    3.45
  -1   0 -12   -0.41    0.60
   1   0  12    0.05    0.20
   1   0  13   38.23    2.16
  -1   0 -14   -0.15    0.55
   1   0  14    0.27    0.25
   1   0  15    0.29    0.39
  -1   0 -16    0.16    0.63
   1   0  16    0.49    0.45
   1   0  17  131.66    5.10
  -1   0 -18    0.16    0.67
  -1   0 -18    0.54    1.29
   1   0  18    0.49    0.38
   1   0  19   55.40    3.12
   1   0  20    0.23    0.52
   1  -1 -25   -0.38    1.66
   1  -1 -23   30.10    5.34
   1  -1 -22   35.16    5.22
   1  -1 -21    1.48    2.71
   1  -1 -21   25.08    4.12
   1  -1 -20    1.22    1.17
  -1  -1  20    1.29    0.63
  -1  -1  20    1.11    1.72
  -1   1  19    1.42    0.64
  -1  -1  19    2.23    0.71
   1  -1 -19    0.64    0.89
  -1  -1  18   25.54    2.01
   1  -1 -18   21.68    2.88
  -1   1  18   25.08    2.02
  -1   1  17   75.86    3.46
   1  -1 -17   52.65    3.92
  -1  -1  17   80.40    3.49
  -1  -1  17   32.58    6.01
   1   1 -17   42.60    2.11
  -1  -1  16   57.95    2.89
  -1   1  16   58.19    2.97
   1  -1 -15    0.06    0.29
  -1  -1  15    0.68    0.37
   1   1 -15    0.12    0.33
  -1   1  15    0.47    0.40
  -1   1  14   42.66    2.36
  -1  -1  14   45.18    2.38
   1   1 -14   39.08    2.33
   1  -1 -14   39.50    2.40
   1  -1 -13   12.81    1.25
   1   1 -13   13.18    1.23
  -1  -1  13   15.80    1.31
  -1   1  13   16.15    1.35
   1   1 -12    6.95    0.84
  -1   1  12    8.12    0.93
   1  -1 -12    6.03    0.81
  -1  -1  12    7.99    0.90
  -1   1  11   11.46    1.06
   1  -1 -11    9.78    0.98
   1   1 -11    9.68    0.94
  -1  -1  11   10.69    0.99
   1   1 -10   46.50    2.16
  -1  -1  10   50.58    2.24
  -1   1  10   51.46    2.32
   1  -1 -10   47.92    2.24
   1  -1  -9  594.69   15.19
  -1   1   9  625.97   15.25
   1   1  -9  591.95   15.09
   1  -1  -8 1005.38   24.40
   1   1  -8 1002.53   24.30
  -1  -1   8 1090.14   24.41
  -1   1   8 1048.59   24.46
   1  -1  -7  605.94   15.38
  -1   1   7  650.11   15.43
   1   1  -7  631.16   15.33
  -1  -1   7  665.31   15.37
  -1   1   6   93.17    2.87
   1  -1  -6   88.56    2.85
   1   1  -6   85.53    2.76
  -1  -1   6   86.07    2.76
   1  -1  -5    3.99    0.44
  -1  -1   5    4.07    0.42
  -1   1   5    3.85    0.44
   1   1  -5    4.43    0.44
   1   1  -4    1.92    0.26
  -1   1   4    2.12    0.30
   1  -1  -4    1.95    0.28
  -1  -1   4    1.97    0.27
   1  -1  -3  691.67   16.37
  -1   1   3  674.89   16.36
   1  -1  -2 1467.26   34.24
   1   1  -2 1435.27   34.17
   1   1  -1  727.70   18.27
  -1   1   1  702.10   18.30
   1   1   0   66.24    1.65
   1  -1   0   38.11    1.25
   1   1   1    0.98    0.72
   1  -1   1    2.33    0.26
  -1  -1  -1    0.16    0.62
  -1  -1  -2    2.86    1.21
   1   1   2    9.59    1.47
   1   1   3    1.46    0.62
   1   1   4   13.75    1.45
   1  -1   5   81.02    2.48
   1   1   5   83.08    2.57
   1   1   6  159.79    4.47
   1  -1   6  155.48    4.37
   1  -1   7  205.38    5.49
   1   1   7  198.77    5.54
   1   1   8   38.67    1.83
   1  -1   8   42.72    1.86
   1  -1   9   93.96    3.13
   1   1   9   91.00    3.15
  -1  -1 -10   45.76    4.71
   1  -1  10   71.01    2.73
   1  -1  10   31.62    4.18
   1   1  10   68.51    2.75
   1  -1  11   18.72    1.32
   1   1  11   17.95    1.32
   1   1  12  195.33    5.79
   1  -1  12  100.90    8.64
   1  -1  12  191.07    5.70
  -1  -1 -12  109.85    8.61
   1   1  13  263.95    7.92
   1  -1  13  270.71    7.87
  -1  -1 -14   32.55    4.81
   1   1  14   56.66    2.78
   1  -1  14   31.16    4.87
   1  -1  14   57.02    2.73
   1  -1  15    2.60    0.61
  -1  -1 -15    0.52    1.25
   1   1  15    2.06    0.57
   1   1  16    5.28    0.87
  -1  -1 -16    1.67    2.03
   1  -1  16    3.17    2.13
  -1  -1 -16    2.28    1.50
   1  -1  16    4.28    0.78
   1  -1  17    9.88    1.18
   1  -1  17    7.20    2.82
   1   1  17   10.07    1.23
   1   1  18   27.30    2.07
   1  -1  18   14.39    3.92
  -1  -1 -18    7.83    2.63
   1  -1  18   28.94    2.09
   1   1  19   41.27    2.67
   1  -1  19   36.94    2.51
   1  -1  20   11.40    1.44
  -1  -1 -21   -0.71    2.41
  -1  -1 -23    4.63    3.38
   1  -2 -25    0.54    1.99
   1  -2 -23   -0.55    2.51
   1  -2 -22    5.58    2.81
   1  -2 -21   -0.44    1.51
  -1  -2  21    0.55    1.53
  -1  -2  20    3.19    2.44
  -1  -2  20    9.62    1.28
   1  -2 -20    5.65    2.39
  -1  -2  19    0.70    0.54
   1  -2 -19   -0.34    1.50
  -1   2  19    0.53    0.43
  -1   2  18    1.00    0.54
  -1  -2  18    0.99    0.51
   1  -2 -18    0.93    1.22
   1  -2 -17    1.14    1.57
  -1   2  17    0.68    0.60
  -1  -2  17    0.37    0.52
  -1  -2  16  344.66    9.84
  -1   2  16  351.13   10.05
   1  -2 -15   10.73    2.35
  -1   2  15   14.27    1.43
  -1  -2  15   14.37    1.37
  -1  -2  14  278.46    7.61
  -1   2  14  286.93    7.84
  -1   2  13    0.78    0.39
   1  -2 -13   -0.17    0.52
  -1  -2  13    0.28    0.33
   1  -2 -12    1.05    1.25
  -1   2  12    0.87    0.46
   1  -2 -12    0.94    0.81
   1   2 -12    0.85    0.36
  -1  -2  12    0.65    0.38
  -1   2  11    2.90    0.60
   1  -2 -11    1.65    0.83
   1   2 -11    2.05    0.63
  -1  -2  11    2.66    0.53
   1  -2 -11    1.56    0.48
   1   2 -10  363.88    9.74
   1  -2 -10  336.41    9.80
  -1  -2  10  426.93    9.85
  -1   2  10  423.81   10.02
   1   2 -10  297.48   11.00
   1  -2  -9    0.43    1.20
   1  -2  -9    1.73    0.42
  -1  -2   9    2.55    0.47
   1   2  -9    2.48    0.48
  -1   2   9    2.78    0.52
   1   2  -9    1.78    0.75
   1   2  -8  124.53    3.93
  -1   2   8  147.22    4.24
  -1  -2   8  150.58    4.09
   1  -2  -8  119.69    4.03
  -1  -2   7    0.82    0.24
   1   2  -7    0.72    0.55
  -1   2   7    0.79    0.26
   1  -2  -7    0.70    0.24
   1  -2  -7    0.37    0.73
   1   2  -7    0.91    0.24
   1   2  -6   41.17    1.65
  -1   2   6   47.37    1.87
   1  -2  -6   40.07    1.73
   1  -2  -6   28.67    4.64
   1   2  -6   31.24    2.97
   1   2  -5    0.22    0.12
  -1   2   5    0.13    0.19
  -1  -2   5    0.17    0.15
   1  -2  -5    0.06    0.13
   1   2  -5    0.13    0.47
   1  -2  -5    0.32    0.88
   1  -2  -4   58.88    1.90
   1   2  -4   45.28    3.58
  -1  -2   4   76.35    1.97
   1   2  -4   37.33    1.59
  -1   2   4   92.42    2.43
  -1   2   3    2.33    0.29
   1   2  -3    2.33    0.24
   1  -2  -3    2.14    0.27
   1   2  -3    1.98    0.82
   1   2  -2  445.81   10.64
   1  -2  -2  397.45   10.77
   1   2  -1   14.88    1.75
   1  -2  -1   25.98    0.79
   1  -2   0  680.52   15.37
  -1  -2   0  237.89   15.40
   1   2   1    1.59    0.28
   1  -2   1    0.46    0.57
   1  -2   2   53.06    4.30
   1  -2   2  131.23    3.09
   1   2   3    4.84    0.40
   1  -2   3    5.72    0.35
  -1  -2  -4  155.86   11.75
   1  -2   4  284.54    6.53
   1  -2   4  177.41    9.35
   1   2   4  271.93    6.72
   1  -2   5    5.38    0.46
   1  -2   5    4.38    1.41
   1   2   5    5.27    0.52
  -1  -2  -5    2.67    1.73
   1   2   6  912.08   21.34
   1  -2   6  908.65   21.12
   1   2   7   26.63    1.40
   1  -2   7   26.08    1.29
   1  -2   8    3.36    0.46
   1   2   8    2.54    0.45
   1   2   9    4.90    0.63
  -1  -2  -9    3.48    1.93
   1  -2   9    4.64    0.58
  -1  -2 -10    9.94    3.31
   1   2  10   23.49    1.49
   1  -2  10   23.90    1.42
  -1  -2 -10   13.94    3.41
  -1  -2 -11    1.94    1.61
   1   2  11    2.31    0.51
  -1  -2 -11    0.50    1.39
   1  -2  11    1.69    0.42
  -1  -2 -12   21.49    4.53
  -1  -2 -12   25.41    5.30
   1   2  12   42.22    2.24
   1  -2  12   44.12    2.18
  -1  -2 -13    0.89    1.51
  -1  -2 -13    0.56    1.34
   1  -2  13    1.88    0.50
   1   2  13    1.72    0.50
   1  -2  14   38.88    2.20
   1   2  14   39.51    2.30
   1  -2  15    0.22    0.43
   1  -2  15   -0.34    1.15
   1   2  15    0.36    0.42
   1  -2  16   33.99    2.16
   1   2  16   35.69    2.29
   1   2  17    1.82    0.69
   1  -2  17    1.98    0.69
   1  -2  18    1.63    1.70
  -1  -2 -18    2.47    2.27
   1   2  18    5.55    1.01
   1  -2  18    5.52    0.92
   1   2  19    0.22    0.43
   1  -2  19   -0.07    0.47
   1  -2  20   53.18    3.10
   1  -2  21   -0.48    1.61
  -1  -2 -22    0.52    1.60
   1  -3 -23    6.23    4.28
   1  -3 -21    2.76    2.86
   1  -3 -20   -0.63    2.31
   1  -3 -19   -0.57    2.24
  -1  -3  19    0.45    0.64
  -1   3  18   11.56    1.38
  -1  -3  18   13.23    1.44
  -1  -3  17   19.29    1.69
  -1   3  17   18.03    1.67
  -1   3  16   18.98    1.69
  -1  -3  16   21.67    1.77
  -1   3  15    0.71    0.47
  -1  -3  15    0.35    0.42
   1  -3 -15    0.41    1.12
  -1   3  14   20.52    1.62
   1  -3 -14   16.23    3.68
  -1  -3  13    5.90    1.14
  -1   3  13    4.18    0.73
   1  -3 -13    2.83    1.90
   1  -3 -13    1.94    2.01
   1  -3 -12    1.36    1.41
  -1  -3  12    1.49    0.53
  -1   3  12    0.57    0.35
   1  -3 -12   -0.62    1.71
  -1  -3  11    0.16    0.29
  -1   3  11    0.22    0.29
   1  -3 -11    0.32    1.09
  -1  -3  10    7.17    0.78
  -1   3  10    7.47    0.84
  -1  -3   9  113.44    3.67
  -1   3   9  111.87    3.91
  -1  -3   8  454.24   12.69
  -1   3   8  960.88   16.72
  -1  -3   7  126.08    3.62
   1  -3  -7   84.84    7.30
  -1   3   7  136.61    4.06
   1  -3  -7   72.72    8.81
  -1   3   6   26.05    1.33
   1  -3  -6   20.21    3.34
  -1   3   5    0.50    0.26
   1  -3  -5    0.77    1.13
  -1  -3   5    0.70    0.30
   1  -3  -4   10.49    2.45
   1  -3  -3   93.53    8.20
  -1   3   3  205.99    4.91
   1  -3  -2  256.20   12.84
   1  -3  -1   57.05    5.64
   1  -3   0   17.26    3.14
  -1  -3  -1    0.43    1.69
   1  -3   1    0.28    0.86
   1  -3   2    0.60    1.02
   1   3   3   30.47    1.10
   1  -3   3   11.12    3.12
   1  -3   4   12.45    3.18
   1   3   5    4.74    0.48
   1  -3   5    5.38    0.34
   1  -3   6   27.85    5.21
   1   3   6  141.14    3.82
   1  -3   6  139.53    3.39
  -1  -3  -6   52.19    7.90
   1   3   7   41.86    1.84
   1  -3   7   45.55    1.63
   1  -3   8    0.05    0.30
   1   3   8    0.03    0.48
   1   3   9    8.01    0.85
   1  -3   9    8.54    0.74
   1  -3  10   21.05    1.27
   1   3  10   21.56    1.44
   1  -3  11   -0.20    0.69
  -1  -3 -11   12.22    4.14
   1  -3  11   21.50    1.26
  -1  -3 -11    9.01    3.48
   1   3  11   24.11    1.50
   1   3  12  120.64    4.14
  -1  -3 -12   45.92    8.13
   1  -3  12  116.98    3.85
  -1  -3 -12   36.90    7.16
   1   3  13   48.49    2.52
   1  -3  13   51.82    2.40
   1  -3  14   32.39    1.88
  -1  -3 -14   11.10    4.44
   1   3  14   30.58    1.99
  -1  -3 -14   13.83    4.44
   1  -3  15   -0.10    0.39
   1   3  15    0.18    0.40
  -1  -3 -15    0.72    2.00
  -1  -3 -15   -0.61    1.90
  -1  -3 -16    2.25    2.75
   1   3  16    1.01    0.50
   1  -3  16    1.30    0.51
   1   3  17    3.66    0.79
   1  -3  17    3.41    0.73
  -1  -3 -17   -0.78    1.87
   1  -3  17    0.36    1.11
  -1  -3 -18    9.71    4.51
   1   3  18   35.07    2.37
   1  -3  18   34.09    2.18
  -1  -3 -18    5.15    3.14
   1  -3  19   12.22    1.37
  -1  -3 -20    0.87    2.68
  -1  -3 -21   -0.67    1.59
  -1   4  17   10.89    1.43
   1  -4 -17    7.11    4.09
  -1   4  16    2.00    0.83
   1  -4 -15   19.26    6.58
   1  -4 -15   61.67   10.43
  -1   4  14    4.22    0.93
   1  -4 -14    0.77    2.14
   1  -4 -14    2.11    2.38
   1  -4 -13    2.64    2.58
   1  -4 -13    1.49    2.31
  -1   4  13    4.90    0.86
  -1   4  12   -0.24    0.46
   1  -4 -12    0.72    1.40
  -1   4  11   18.03    1.37
   1  -4 -11    5.51    3.45
  -1   4  10    0.46    0.44
  -1  -4  10    0.23    0.53
   1  -4 -10   -0.66    1.29
   1  -4  -9   51.18    7.87
   1  -4  -9   43.70    7.78
   1  -4  -8    0.53    2.44
  -1   4   8    0.44    0.26
   1  -4  -8    0.61    1.45
   1  -4  -7    1.04    1.61
   1  -4  -7    0.58    1.79
   1  -4  -6    0.53    1.63
  -1   4   6    0.14    0.21
   1  -4  -6    1.11    1.88
   1  -4  -5    1.54    1.88
  -1  -4   4    0.50    1.20
   1  -4  -4    0.52    1.62
   1  -4  -3    2.64    2.19
   1  -4  -2    3.97    2.72
  -1  -4   1   25.05    5.61
   1  -4  -1  105.44   11.26
   1  -4   0    2.19    2.27
  -1  -4  -1    2.29    2.10
   1  -4   1    2.66    2.08
  -1  -4  -2    1.17    1.82
   1  -4   5   26.37    5.21
  -1  -4  -5   57.94    8.87
   1   4   6    5.08    0.44
   1   4   6    7.78    0.62
  -1  -4  -7    4.60    3.15
   1  -4   9    0.17    0.14
   1  -4   9   -0.05    0.28
   1   4   9    0.18    0.28
   1  -4  10    4.34    0.48
   1   4  10    3.60    0.61
   1  -4  11   59.44    2.17
   1   4  11   57.39    2.49
  -1  -4 -12    0.75    2.31
   1   4  12    0.52    0.40
  -1  -4 -12    0.72    2.45
   1   4  13    1.18    0.51
  -1  -4 -13   -0.74    2.70
  -1  -4 -13    0.77    2.39
  -1  -4 -14   -1.50    2.74
   1   4  14    1.79    0.61
  -1  -4 -15   -0.83    2.29
   1   4  15    0.06    0.47
   1   4  16    2.36    0.79
  -1  -4 -16    1.71    2.89
   1   4  17   13.09    1.43
   1  -5 -12   -0.80    2.49
   1  -5 -11   -0.78    2.15
   1  -5 -10    0.75    2.08
   1  -5  -9   13.08    4.72
   1  -5  -8    5.61    3.36
   1  -5  -7   19.58    5.70
   1  -5  -5   -0.63    1.73
   1  -5  -5   -1.53    2.80
  -1  -5   4   -0.63    1.74
   1  -5  -4    1.20    1.66
   1  -5  -3    5.87    4.06
  -1  -5   3   -0.65    1.79
  -1  -5   1    4.76    2.97
   1  -5  -1    6.30    3.75
  -1  -5  -1    0.71    1.39
   1  -5   2   -0.65    2.00
  -1  -5  -3    2.23    2.51
   1  -5   4    0.61    1.68
  -1  -5  -4    0.76    1.81
   1  -5   5    0.59    1.41
   1  -5   6   -0.57    1.36
   1  -5   8   -0.52    1.60
  -1  -5  -9    1.56    2.15
  -1  -5 -10    0.80    1.92
   2   0 -23    0.18    0.83
   2   0 -22    0.30    0.65
   2   0 -21    0.10    0.42
   2   0 -21   -0.70    1.37
  -2   0  20   17.28    4.99
  -2   0  19    0.59    2.31
  -2   0  19   -0.07    0.52
  -2   0  18   -0.56    1.55
  -2   0  18    0.14    0.38
  -2   0  17    0.47    0.36
  -2   0  17    0.53    1.28
   2   0 -16  324.95   10.36
  -2   0  16  408.47   10.82
   2   0 -15    0.24    0.37
  -2   0  15    0.48    1.48
  -2   0  15   -0.18    0.39
  -2   0  14    2.78    0.65
   2   0 -14    1.96    0.56
  -2   0  14    2.69    1.96
   2   0 -13   -0.05    0.28
  -2   0  13    0.05    0.23
  -2   0  13    0.42    1.16
   2   0 -12    1.49    0.44
  -2   0  12    1.40    0.44
   2   0 -11    0.09    0.23
  -2   0  11    0.04    0.26
   2   0 -10 1208.82   28.60
  -2   0  10 1204.45   28.58
   2   0  -9   -0.04    0.19
  -2   0   9    0.07    0.21
   2   0  -8  233.16    6.59
  -2   0   8  238.21    6.58
  -2   0   7    0.06    0.15
   2   0  -7   -0.06    0.16
  -2   0   6    6.03    0.59
   2   0  -6    7.68    0.68
   2   0  -5    0.10    0.11
  -2   0   5    0.20    0.67
  -2   0   5    0.08    0.20
  -2   0   4  739.66   17.23
   2   0  -4  720.70   17.07
  -2   0   3    1.16    0.24
   2   0  -3    0.26    0.15
  -2   0   2  443.30   10.94
   2   0  -2  476.73   10.99
   2   0  -1    0.51    0.20
  -2   0   1    0.24    0.16
  -2   0   0   24.40    1.26
   2   0   0   25.97    1.29
   2   0   5    0.10    0.38
  -2   0  -6   90.36    5.85
  -2   0  -7    0.20    0.54
   2   0   7    0.09    0.38
  -2   0  -8  144.64    8.78
   2   0   8  159.29    5.36
   2   0   9    0.18    0.21
  -2   0  -9    0.25    0.60
  -2   0 -10   74.87    7.15
   2   0  10  146.61    4.54
   2   0  11    0.04    0.17
  -2   0 -11   -0.31    0.96
  -2   0 -12   29.68    4.78
   2   0  12   67.48    2.85
   2   0  13    0.05    0.27
   2   0  14   36.55    2.19
   2   0  15   -0.06    0.38
   2   0  16  278.53    8.62
   2   0  17    0.20    0.36
  -2   0 -17   -0.15    0.62
   2   0  18   30.88    2.22
   2   0  19   -0.07    0.41
  -2   0 -19   -0.14    0.50
   2  -1 -25    0.81    1.77
   2  -1 -24   15.68    3.49
   2  -1 -24    3.40    2.88
   2  -1 -23   27.71    4.15
   2  -1 -22   18.48    3.15
   2   1 -21    0.22    0.33
   2  -1 -21    0.72    0.86
   2   1 -20    0.04    0.19
   2  -1 -20   -0.15    0.51
  -2  -1  20   -0.59    1.62
  -2   1  19   22.10    1.97
  -2  -1  19   22.46    1.93
  -2   1  18  104.51    4.45
  -2  -1  18  105.69    4.41
   2  -1 -18   92.32    4.43
   2   1 -18   88.96    4.31
   2   1 -17  112.83    4.82
   2  -1 -17  108.55    4.80
  -2  -1  17  128.52    4.96
  -2   1  17  131.76    5.04
   2  -1 -16   87.73    3.96
   2   1 -16   84.21    3.84
  -2   1  16   84.51   10.05
  -2   1  16  103.71    4.18
  -2  -1  16   98.42    4.03
  -2  -1  15   11.34    1.20
  -2   1  15    9.88    3.53
   2   1 -15    9.17    1.11
   2  -1 -15    8.93    1.10
  -2   1  15    9.75    1.15
  -2   1  14    2.55    0.64
   2  -1 -14    1.95    0.55
   2   1 -14    2.81    0.64
  -2   1  14    1.47    1.36
  -2  -1  14    2.61    0.61
  -2   1  13   22.63    4.94
   2   1 -13   26.58    1.80
   2  -1 -13   25.05    1.79
  -2   1  13   26.38    1.80
  -2  -1  13   30.77    1.89
   2  -1 -12   91.61    3.74
  -2   1  12   98.37    3.80
   2   1 -12   97.04    3.74
  -2  -1  12  102.44    3.79
  -2  -1  11   19.59    1.38
   2   1 -11   16.70    1.29
   2  -1 -11   16.80    1.32
  -2   1  11   17.76    1.35
  -2  -1  10   57.49    2.49
   2  -1 -10   55.84    2.52
  -2   1  10   56.37    2.51
   2   1 -10   53.37    2.44
   2  -1  -9  230.41    6.71
  -2  -1   9  240.26    6.70
   2   1  -9  229.74    6.64
  -2   1   9  236.49    6.74
   2   1  -8  284.85    7.71
  -2   1   8  289.02    7.79
   2  -1  -8  285.22    7.79
  -2  -1   8  287.52    7.72
   2   1  -7   10.15    0.84
  -2   1   7   11.11    0.91
   2  -1  -7   11.25    0.90
   2  -1  -6  223.07    6.29
   2   1  -6  222.95    6.23
  -2   1   6  227.70    6.31
  -2  -1   5   12.86    0.84
  -2   1   5   17.35    1.08
   2  -1  -5   12.20    0.81
   2   1  -5   18.73    0.95
  -2   1   4   68.33    2.30
  -2  -1   4   69.93    2.27
   2   1  -4   66.43    2.14
   2  -1  -4   64.41    2.17
  -2  -1   3  601.94   14.21
  -2   1   3  568.86   14.26
   2  -1  -3  562.73   14.15
   2   1  -2  885.54   19.55
   2  -1  -2  863.44   19.62
  -2   1   2  838.12   19.56
  -2   1   1  120.08    3.05
   2   1  -1  118.76    3.04
  -2  -1   1  115.55    3.02
  -2   1   0   86.65    2.88
   2  -1   0   96.13    2.96
   2   1   0   87.31    2.93
   2  -1   1    6.67    0.61
   2   1   1    5.79    0.59
   2   1   2   19.55    2.84
   2   1   3  103.30    6.86
   2   1   4   75.60    5.73
   2   1   5    7.67    1.62
   2  -1   5    7.45    0.99
   2   1   6    1.31    0.73
   2  -1   6    1.46    0.59
   2   1   7   33.29    2.48
   2  -1   7   38.70    3.11
   2   1   8  199.79    6.61
   2  -1   8  202.50    8.40
   2   1   9  225.78    6.38
   2  -1   9  209.81    9.95
   2  -1   9  211.23    6.23
   2   1  10   60.17    2.61
   2  -1  10   61.28    2.56
   2  -1  11    7.01    1.94
   2  -1  11    5.77    0.74
   2   1  11    5.45    0.73
   2  -1  12   38.24    4.65
   2   1  12   43.36    2.22
   2  -1  12   41.04    2.12
   2  -1  13    1.30    0.48
   2  -1  13    1.45    1.33
   2   1  13    0.68    0.41
   2   1  14   38.65    2.28
   2  -1  14   39.90    2.27
   2   1  15   63.92    3.11
   2  -1  15   64.22    3.05
   2  -1  16   12.98    1.31
   2   1  16   12.68    1.34
   2   1  17   24.44    1.93
   2  -1  17   22.99    1.84
   2  -1  18   37.78    2.36
   2   1  18   34.86    2.32
   2   1  19   12.32    1.44
   2  -1  19   11.81    1.37
   2  -2 -24    0.47    1.83
   2  -2 -23    2.81    1.92
   2  -2 -22    0.36    1.11
   2  -2 -21    0.33    1.30
   2  -2 -20   -0.57    1.12
  -2  -2  19   26.28    2.03
   2  -2 -19   16.55    3.00
   2  -2 -18   -0.19    0.71
  -2  -2  18    0.27    0.43
  -2   2  18    0.22    0.51
   2   2 -17   47.23    2.20
  -2   2  17   82.94    3.67
  -2  -2  17   79.29    3.46
   2  -2 -17   59.17    4.94
  -2   2  16    3.89    0.89
   2  -2 -16    1.97    0.62
  -2  -2  16    1.98    0.72
  -2  -2  15  108.22    4.13
  -2   2  15  105.49    4.24
  -2   2  14    0.98    0.57
   2  -2 -14    1.15    0.51
   2   2 -14    0.49    0.93
   2   2 -14    0.83    0.51
  -2  -2  14    0.53    0.50
  -2  -2  13   16.71    1.39
   2   2 -13   14.61    1.28
   2  -2 -13   13.67    1.30
  -2   2  13   17.11    1.45
  -2   2  12    3.64    0.71
  -2  -2  12    3.49    0.64
   2   2 -12    2.49    0.58
   2  -2 -12    1.58    1.79
   2  -2 -12    3.01    0.63
   2   2 -11  218.44    6.87
   2  -2 -11  214.83    6.96
   2  -2 -10    2.37    0.55
   2   2 -10    3.00    0.58
   2   2  -9   98.84    9.84
   2  -2  -9  347.73    8.98
   2   2  -9  362.06    8.86
   2  -2  -9  115.91   12.40
  -2   2   9  392.35    9.14
  -2  -2   9  428.59    9.30
   2   2  -8    2.52    0.46
  -2  -2   8    2.99    0.50
   2  -2  -8    2.13    0.44
  -2   2   8    1.83    0.46
  -2  -2   7    2.07    0.40
  -2   2   7    3.46    0.58
   2   2  -7    2.07    0.37
   2   2  -7    0.23    0.86
   2  -2  -7    1.11    1.26
   2  -2  -7    2.42    0.43
   2   2  -6    2.17    1.25
  -2  -2   6    0.49    0.77
  -2   2   6    7.53    0.72
  -2  -2   6    7.35    0.67
   2  -2  -6    6.72    0.64
   2   2  -6    7.32    0.62
   2  -2  -6    1.02    1.06
   2  -2  -5  248.45    6.66
   2   2  -5  261.49    6.55
  -2  -2   5  253.73    6.65
   2  -2  -4    0.28    0.87
   2   2  -4    0.23    0.14
  -2   2   4    0.22    0.17
  -2  -2   4    0.31    0.26
   2   2  -4    0.26    0.94
   2  -2  -4    0.40    0.18
   2   2  -3    2.22    0.28
  -2   2   3    2.22    0.33
   2  -2  -3    2.22    0.30
   2   2  -3    0.80    1.04
   2  -2  -3    2.04    1.22
   2   2  -2   10.63    0.64
   2   2  -2    2.80    1.43
   2  -2  -2    9.51    0.60
   2  -2  -2    5.47    1.69
  -2   2   2   17.82    1.05
  -2  -2   2   16.01    0.95
   2   2  -1   93.62    2.71
   2  -2  -1   90.79    2.66
   2  -2   0    2.91    0.33
   2   2   0    5.36    0.57
   2  -2   1  927.62   16.13
   2   2   1  921.77   16.36
   2   2   2   20.32    1.23
   2  -2   2   21.66    1.15
   2  -2   3    0.49    0.24
   2   2   3    0.16    0.56
   2   2   4   19.92    2.28
  -2  -2  -4    6.15    2.23
   2   2   5  215.78    9.25
   2  -2   5  273.20    8.34
   2   2   6    4.52    0.56
   2  -2   6    5.01    0.56
   2  -2   6    4.17    0.93
   2  -2   7   66.37    2.35
   2   2   7   67.53    2.53
  -2  -2  -8    0.39    0.93
   2  -2   8   -0.14    0.56
   2   2   8    0.75    0.28
   2  -2   8    0.88    0.27
  -2  -2  -9    3.19    2.07
   2  -2   9   11.76    0.93
   2   2   9   11.34    0.97
   2  -2   9    1.18    0.71
  -2  -2 -10   -0.82    1.61
   2  -2  10    0.59    0.29
   2   2  10    0.38    0.30
   2  -2  11  170.78    5.08
   2   2  11  167.86    5.20
  -2  -2 -12   -0.43    1.70
   2  -2  12   -0.04    0.27
   2  -2  12    0.90    0.99
   2   2  12   -0.05    0.31
   2  -2  13    0.25    0.84
   2   2  13    0.05    0.29
   2  -2  13    0.10    0.30
   2  -2  14    3.41    0.68
   2   2  14    2.62    0.67
   2  -2  14    1.09    1.13
   2  -2  15  126.28    4.61
   2   2  15  123.93    4.74
   2  -2  16    6.32    0.99
   2  -2  16    3.53    1.83
   2   2  16    5.41    0.94
  -2  -2 -16    1.43    1.48
   2  -2  17   97.22    8.62
  -2  -2 -17   19.87    5.13
  -2  -2 -17   43.58    8.25
   2   2  17  125.84    4.68
   2  -2  17  128.13    4.53
   2   2  18    2.01    0.67
  -2  -2 -18    0.71    1.39
   2  -2  18    1.47    1.44
   2  -2  18    1.99    0.64
   2  -2  19    4.34    0.93
  -2  -2 -21    3.05    2.33
  -2  -2 -23    1.02    1.86
  -2  -2 -24   -0.51    1.40
   2  -3 -23   14.51    5.09
   2  -3 -22    1.16    2.27
   2  -3 -21   -0.51    1.87
   2  -3 -20   -0.47    1.58
   2  -3 -19    3.46    2.39
  -2  -3  19    5.40    1.11
  -2   3  18   38.59    2.73
  -2  -3  18   38.47    2.57
  -2  -3  17   82.61    3.87
  -2   3  17   89.36    4.24
  -2  -3  16   19.00    1.67
  -2   3  16   19.10    1.87
   2  -3 -15    1.47    1.35
   2  -3 -15    0.71    1.38
  -2   3  15    1.68    0.65
  -2  -3  15    2.00    0.62
  -2  -3  14    0.05    0.37
   2  -3 -14   -0.24    0.73
  -2   3  14    0.65    0.58
   2  -3 -13   15.74    2.79
  -2  -3  13   24.16    1.66
  -2   3  12   46.33    2.62
  -2  -3  12   37.48    2.08
   2   3 -11   15.66    1.93
  -2   3  11   24.65    1.70
   2  -3 -11   16.99    2.81
  -2  -3  11   23.51    1.52
   2  -3 -10    1.10    2.02
   2   3 -10    1.99    0.82
  -2   3  10    1.83    0.55
  -2  -3  10    2.73    0.55
   2   3  -9   62.38    4.37
  -2  -3   9  110.94    3.48
   2  -3  -9   39.67    7.03
  -2   3   9  111.97    3.78
   2   3  -8   13.92    1.93
  -2   3   8   26.68    1.56
   2  -3  -8   18.56    1.31
  -2  -3   8   23.66    1.30
   2  -3  -8   17.90    2.72
   2  -3  -7    1.46    1.07
  -2   3   7    1.18    0.48
   2   3  -7    0.60    0.33
  -2  -3   7    1.73    0.66
  -2  -3   7   -0.35    0.69
   2  -3  -7    0.63    0.35
   2   3  -7    0.96    0.66
   2  -3  -7    1.39    1.69
   2  -3  -6   18.24    1.11
   2   3  -6   13.91    2.02
   2   3  -6   19.25    1.00
   2  -3  -6   17.89    2.62
   2  -3  -5   19.56    4.37
   2   3  -5   39.63    1.49
   2  -3  -5   37.97    3.79
   2   3  -5   26.25    2.84
   2  -3  -5   39.02    1.67
  -2   3   5   91.74    2.96
  -2  -3   5   88.28    2.52
   2   3  -4   11.78    1.90
   2  -3  -4   12.68    2.15
   2   3  -4   15.10    0.68
   2  -3  -4   15.38    0.84
   2  -3  -4    9.13    2.86
   2  -3  -3  177.14   12.10
   2  -3  -3  184.25    8.86
   2  -3  -3  201.55    4.91
   2   3  -2   87.84    5.52
   2  -3  -2  106.64    6.27
   2   3  -1   21.04    2.55
   2  -3  -1   23.97    2.84
   2  -3   0    1.31    0.76
   2  -3   1   -0.15    0.47
  -2  -3  -1   -0.45    0.87
   2   3   1    0.85    0.13
   2   3   1    0.13    0.08
   2  -3   2   13.06    2.43
   2   3   2   38.18    1.44
   2  -3   3   85.75    7.35
   2   3   3  222.62    5.47
   2  -3   4   40.10    4.58
   2  -3   4   66.10    1.99
   2   3   4   65.47    2.30
   2   3   4  105.75    3.23
   2  -3   4  117.20    2.69
   2  -3   5    2.17    1.34
   2  -3   5    4.37    0.37
  -2  -3  -5    1.48    1.81
   2   3   5    3.86    0.45
   2  -3   6    0.87    1.27
   2   3   6    1.08    0.33
   2  -3   6    1.15    0.26
   2   3   7   14.80    1.04
   2  -3   7   15.09    0.88
   2   3   8   29.65    1.60
   2  -3   8   28.80    1.40
   2   3   9  179.49    5.40
   2  -3   9  173.22    5.06
   2  -3  10   48.19    1.94
   2   3  10   49.05    2.20
   2   3  11   12.35    1.11
   2  -3  11   11.68    0.97
   2  -3  12    9.16    0.93
   2   3  12    9.48    1.04
   2   3  13    2.84    0.68
   2  -3  13    1.16    1.02
   2  -3  13    2.64    0.58
   2   3  14    2.53    0.70
   2  -3  14    1.91    0.57
   2  -3  15   15.29    3.07
   2  -3  15   31.34    1.93
  -2  -3 -15    8.00    3.56
   2   3  15   34.28    2.18
   2   3  16    0.38    0.49
   2  -3  16    0.44    0.40
  -2  -3 -16   -0.76    1.49
   2  -3  17    9.84    1.19
   2   3  17   11.39    1.35
   2   3  18   14.49    1.57
   2  -3  18   12.99    1.42
   2  -3  19    9.32    1.24
  -2  -3 -20    0.66    1.82
  -2  -3 -23    1.99    2.25
  -2   4  17    0.79    0.70
   2  -4 -16   36.26    6.93
  -2   4  16   47.70    2.73
   2  -4 -15    2.74    2.63
  -2   4  15    3.72    0.91
  -2   4  14    0.24    0.58
   2  -4 -14    0.53    2.19
   2  -4 -14    0.76    1.49
  -2   4  13    2.39    0.69
  -2  -4  13    0.49    1.36
   2  -4 -13    2.45    2.24
  -2   4  12    1.30    0.56
   2  -4 -12    0.70    1.69
  -2  -4  11    0.64    0.63
  -2   4  11    0.72    0.50
   2  -4 -11    0.68    1.62
   2  -4 -10  100.36   10.19
  -2   4  10  148.72    5.09
  -2  -4   9   10.74    0.96
  -2   4   9    9.13    0.90
   2  -4  -9    1.23    1.92
   2  -4  -9    4.27    2.30
  -2  -4   8   12.94    0.81
   2  -4  -8    5.71    2.53
   2  -4  -8    2.35    2.17
  -2   4   8   13.37    1.25
   2  -4  -7    0.56    1.10
   2  -4  -7   -0.40    1.23
   2  -4  -6    9.17    3.16
  -2   4   6   24.76    1.23
   2  -4  -5    0.78    1.20
   2  -4  -5    0.51    1.40
   2  -4  -4   43.71    6.84
   2  -4  -4   59.46    7.08
   2  -4  -3   -0.45    1.26
   2  -4  -3   -0.39    1.21
  -2  -4   2    0.55    1.51
   2  -4  -2    5.49    2.60
  -2  -4   1   -0.56    1.09
   2  -4  -1    0.39    1.21
   2  -4   0    5.22    2.48
   2  -4   1    2.63    2.01
   2  -4   2   52.69    7.23
   2  -4   3    1.50    1.83
  -2  -4  -4    5.64    3.00
   2   4   5   16.98    0.80
   2   4   5   20.11    1.07
   2   4   6   28.82    1.48
   2   4   7    0.82    0.49
   2   4   7    0.59    0.26
   2  -4   8    9.96    0.66
   2   4   8    7.01    0.70
   2   4   9    1.12    0.38
   2  -4   9    1.52    0.29
   2  -4   9    1.70    0.47
   2  -4  10   83.75    2.73
   2   4  10   62.01    2.69
   2   4  11    2.67    0.58
   2  -4  11    1.99    0.42
  -2  -4 -12   10.74    4.64
   2   4  12   14.51    1.23
  -2  -4 -13   -0.79    1.90
   2   4  13    0.24    0.41
   2   4  14    0.63    0.47
  -2  -4 -14   -0.82    1.60
   2   4  15    2.30    0.69
  -2  -4 -16   11.28    5.06
   2   4  16   60.13    2.98
   2   4  17    0.44    0.54
  -2  -4 -17   -0.78    2.16
   2  -5 -12    4.71    3.07
   2  -5 -11    0.76    2.09
   2  -5 -10    0.73    2.26
   2  -5  -9    0.70    1.94
  -2  -5   9    1.09    2.00
   2  -5  -8    4.05    2.95
  -2  -5   7   -0.59    2.00
   2  -5  -6    9.47    4.76
   2  -5  -6    4.35    2.98
   2  -5  -4    4.51    3.89
   2  -5  -3    4.41    3.21
   2  -5  -3    7.05    3.18
   2  -5  -2   16.54    4.42
   2  -5  -2   10.05    4.77
   2  -5  -1   -0.49    1.52
   2  -5   0   -0.47    1.71
  -2  -5   0   -0.71    2.19
  -2  -5  -2    1.48    2.04
  -2  -5  -3    0.75    2.08
   2  -5   6   -0.56    1.55
   2  -5   7    0.54    1.48
  -2  -5  -7   -0.81    1.94
   3   0 -24    0.15    0.76
   3   0 -23    0.44    0.50
  -3   0  20    1.28    2.34
  -3   0  19   38.02    7.47
  -3   0  19   80.04    3.89
  -3   0  18    0.29    0.43
  -3   0  18   -0.59    1.40
  -3   0  17   14.66    1.50
  -3   0  17    6.70    3.20
  -3   0  16   -0.53    1.47
   3   0 -16   -0.07    0.51
  -3   0  16   -0.13    0.52
   3   0 -16   -0.57    1.36
  -3   0  15   65.92    3.19
   3   0 -15   63.85    3.18
  -3   0  14   -0.47    1.14
  -3   0  14    0.06    0.37
   3   0 -14   -0.06    0.40
  -3   0  13  121.51    4.55
   3   0 -13  121.20    4.57
   3   0 -12    0.16    0.24
  -3   0  12    0.20    0.25
  -3   0  11  405.79   10.95
   3   0 -11  403.49   10.92
  -3   0  10   -0.05    0.29
   3   0 -10    0.13    0.28
   3   0 -10    0.38    1.05
  -3   0   9    5.25    0.90
   3   0  -9    5.11    0.70
   3   0  -8    0.15    0.20
  -3   0   8    0.31    0.29
  -3   0   7  206.90    5.91
   3   0  -7  189.71    5.68
   3   0  -6    0.13    0.15
  -3   0   6    0.03    0.13
   3   0  -5  199.67    5.83
  -3   0   5  226.30    6.02
   3   0  -4    0.12    0.14
  -3   0   4    2.77    0.41
   3   0  -3   22.56    1.19
  -3   0   3   20.56    1.14
   3   0  -2   -0.02    0.10
  -3   0   2   -0.04    0.20
  -3   0   1  739.75   17.59
   3   0  -1  693.23   17.51
   3   0   0    0.23    0.25
  -3   0   0    0.12    0.23
   3   0   1 3003.32   68.48
   3   0   7   96.62    5.79
  -3   0  -8    0.23    0.63
  -3   0  -9    1.01    1.11
   3   0  10    0.09    0.30
  -3   0 -10    0.28    0.67
   3   0  11   41.54    2.30
  -3   0 -11   29.87    4.47
   3   0  12    0.05    0.18
   3   0  13    3.56    0.67
   3   0  14   -0.17    0.42
   3   0  15  254.17    7.96
   3   0  16    0.26    0.41
   3   0  17   62.59    3.25
   3   0  18   -0.07    0.38
   3   0  19    4.22    0.88
  -3   0 -22    1.25    1.73
   3  -1 -25    0.81    1.12
   3  -1 -24    1.87    1.29
   3   1 -23    1.45    0.66
   3  -1 -23    2.74    1.11
   3  -1 -22    1.76    0.96
   3  -1 -21   10.83    1.58
   3   1 -21   13.69    1.75
   3  -1 -20   -0.26    0.58
   3   1 -20   -0.16    0.63
  -3  -1  20    0.62    1.48
  -3   1  19   38.08    2.61
   3   1 -19   31.25    2.40
  -3   1  19   31.90    6.84
  -3  -1  19   36.01    2.53
   3  -1 -19   31.24    2.42
  -3  -1  18   76.27    3.71
  -3   1  18   57.91    9.00
   3   1 -18   63.30    3.47
   3  -1 -18   69.98    3.68
  -3   1  18   80.31    3.84
  -3   1  17   56.99    3.12
   3   1 -17   51.11    2.96
  -3  -1  17   58.02    3.09
   3  -1 -17   48.43    2.94
  -3   1  16   -0.57    1.56
  -3  -1  16    0.38    0.51
   3   1 -16    0.07    0.41
   3  -1 -16    0.21    0.46
  -3   1  15    5.90    2.88
  -3   1  15    9.05    1.15
  -3  -1  15   10.60    1.20
   3   1 -15   10.03    1.20
   3  -1 -15    9.06    1.16
  -3   1  14    0.41    0.35
  -3   1  14    0.51    1.21
  -3  -1  14    0.63    0.42
   3  -1 -14    0.24    0.33
   3   1 -14    0.41    0.34
  -3   1  13   60.15    2.81
  -3  -1  13   63.62    2.92
   3  -1 -13   55.94    2.77
   3   1 -13   57.98    2.77
  -3   1  12  110.90    4.20
   3  -1 -12  107.37    4.19
   3   1 -12  110.56    4.17
  -3   1  11   28.01    1.80
   3   1 -11   29.73    1.82
   3  -1 -11   27.71    1.81
  -3   1  10    0.16    0.28
   3  -1 -10    0.14    0.17
  -3  -1  10    0.33    0.32
  -3  -1   9    0.71    0.36
   3   1  -9    1.16    0.39
   3  -1  -9    1.18    0.36
  -3  -1   8   66.47    2.75
  -3   1   8   63.57    2.75
   3  -1  -8   60.47    2.59
   3   1  -8   63.13    2.59
  -3  -1   7  641.75   15.65
   3  -1  -7  605.65   15.48
   3   1  -7  621.46   15.45
  -3  -1   6  471.08   11.79
   3  -1  -6  461.89   11.69
   3   1  -6  443.91   11.59
   3  -1  -5   32.25    1.40
   3   1  -5   32.30    1.37
  -3   1   5   35.26    1.54
  -3  -1   5   33.91    1.47
   3  -1  -4    7.27    2.08
   3   1  -4   59.83    2.10
  -3   1   4   57.09    2.08
  -3  -1   4   46.99    1.91
   3  -1  -4   70.92    2.53
  -3   1   4   22.33    3.28
   3  -1  -3  149.85    4.80
   3   1  -3  155.17    4.78
  -3   1   3  146.96    4.76
  -3   1   3  272.64    6.27
  -3  -1   3  280.74    6.26
  -3   1   2   25.57    1.50
   3  -1  -2   15.14    0.92
   3   1  -2   13.29    0.86
  -3   1   2    5.30    1.41
   3  -1  -2    2.22    1.02
  -3  -1   2   25.21    1.49
  -3  -1   1  653.72   14.02
   3   1  -1  674.91   14.10
   3  -1  -1  656.21   14.10
  -3   1   1  678.64   14.09
  -3   1   0  713.81    7.86
   3   1   0  729.75    8.01
   3  -1   0  743.73    7.98
   3  -1   1  253.74    5.76
   3   1   1  239.76    5.74
   3  -1   2   14.93    1.17
   3   1   3   14.49    2.66
   3   1   4    9.29    2.16
   3   1   7  121.03    7.75
   3   1   8  202.88    9.47
   3   1   9  216.96    8.00
  -3  -1  -9   18.58    3.42
   3   1  10   31.90    2.66
   3  -1  11    0.31    0.24
   3   1  11    0.19    0.23
  -3  -1 -11   -0.41    1.14
  -3  -1 -12   15.35    3.81
   3   1  12   19.94    1.54
   3  -1  12   18.94    1.46
   3  -1  13  164.00    4.41
   3   1  13  161.92    4.49
   3   1  14  166.44    5.68
   3  -1  14  165.66    5.64
   3   1  15  155.28    5.53
   3  -1  15  153.95    5.43
  -3  -1 -16   -0.33    0.80
   3   1  16   16.97    1.55
   3  -1  16   18.01    1.54
  -3  -1 -16    6.61    3.14
  -3   1 -16    1.10    1.52
   3   1  17   11.03    1.32
   3  -1  17   12.55    1.35
  -3  -1 -18    3.05    2.53
   3  -1  18    1.68    0.62
   3   1  18    2.40    0.72
  -3  -1 -19    1.28    2.16
   3  -1  19    0.66    0.54
   3   1  19    0.38    0.46
  -3  -1 -23   -0.32    0.89
   3  -2 -25    0.41    1.70
   3  -2 -24   11.81    3.37
   3  -2 -23   -0.32    1.24
   3  -2 -22   -0.25    0.86
   3  -2 -21   -0.42    0.72
   3   2 -20   32.06    1.81
   3  -2 -20   32.30    3.84
   3  -2 -19    1.35    0.59
   3   2 -19    0.96    0.57
  -3  -2  19    1.60    0.78
  -3   2  18    7.34    1.26
  -3  -2  18    8.17    1.35
   3  -2 -18    5.16    0.97
   3   2 -18    4.95    0.91
  -3  -2  17    0.68    0.61
   3   2 -17    0.48    0.43
   3  -2 -17    0.29    0.39
  -3   2  17    0.41    0.51
  -3   2  16    3.00    0.90
   3   2 -16    0.61    0.79
   3  -2 -16    1.60    0.62
   3   2 -16    2.67    0.74
  -3  -2  16    3.20    0.89
  -3   2  15    1.45    0.83
  -3  -2  15    2.30    0.73
   3  -2 -15    2.09    0.70
   3   2 -15    2.59    0.67
  -3   2  14  201.40    6.63
  -3  -2  14  188.88    6.17
   3  -2 -14  158.64    5.82
   3   2 -14  146.00    5.56
  -3   2  13    2.43    1.07
  -3  -2  13    2.08    0.64
   3   2 -13   -0.24    0.65
   3  -2 -13    1.83    0.56
   3   2 -13    1.42    0.52
  -3   2  12    8.72    1.33
   3  -2 -12    5.65    0.84
   3   2 -12    6.00    0.83
  -3  -2  12    6.02    0.90
  -3   2  11    7.32    1.05
  -3  -2  11    6.58    0.92
   3  -2 -11    6.44    0.88
   3   2 -11    6.23    0.83
  -3  -2  10  166.16    5.33
  -3   2  10  171.06    5.52
   3  -2 -10  152.16    5.18
   3   2 -10  154.87    5.08
   3  -2  -9    3.50    0.64
  -3   2   9    4.45    0.76
  -3  -2   9    4.09    0.68
   3   2  -9    3.55    0.61
  -3  -2   8  136.92    3.89
   3  -2  -8  128.62    3.83
   3   2  -8  134.25    3.73
  -3   2   8  136.25    4.04
   3  -2  -7    4.44    0.60
   3   2  -7    0.82    1.00
  -3   2   7    5.73    0.72
  -3  -2   7    5.33    0.66
   3   2  -7    5.82    0.63
   3  -2  -7    0.75    1.04
  -3   2   6    6.63    0.73
   3  -2  -6    7.59    0.73
   3   2  -6    7.22    0.68
  -3  -2   6    6.93    0.70
  -3  -2   5    3.57    0.66
   3   2  -5   -0.28    0.68
   3  -2  -5    1.91    0.36
   3   2  -5    2.00    0.35
   3  -2  -5    0.31    0.75
  -3   2   5    2.16    0.41
  -3  -2   4  398.12    6.21
   3   2  -4  211.85    3.62
   3   2  -4   28.72    4.50
   3  -2  -4  211.36    3.77
  -3   2   4  420.74    6.61
   3  -2  -3   -0.25    0.69
   3   2  -3    0.47    0.19
  -3   2   3    0.65    0.35
  -3  -2   3    0.45    0.34
   3  -2  -3    0.35    0.20
  -3  -2   3   -0.31    0.73
  -3   2   2    5.85    0.73
  -3  -2   2    5.29    0.68
   3   2  -2    4.60    0.49
   3  -2  -1   11.44    0.79
   3   2  -1   11.52    0.77
   3  -2   0  766.11   18.43
   3  -2   0  298.55   20.06
   3  -2   1   10.32    0.94
   3   2   1   11.28    1.00
   3  -2   2  671.78   14.58
   3   2   2  641.15   14.73
   3  -2   3    1.55    0.45
   3  -2   3    0.37    0.37
   3   2   3    0.56    1.10
   3   2   4    7.24    2.01
   3   2   5    1.99    1.26
   3   2   6  258.95   11.69
   3   2   7    7.59    1.59
   3  -2   8  180.62    6.52
   3  -2   8  194.34    6.22
   3  -2   9    0.12    0.23
   3  -2   9    0.10    0.35
   3   2   9    1.03    0.36
   3  -2   9    0.48    0.40
   3   2  10   49.19    2.32
   3  -2  10   47.62    2.19
   3  -2  10   45.70    3.52
   3  -2  11    0.90    0.62
   3  -2  11    0.16    0.18
   3   2  11    2.01    0.47
   3  -2  11    1.27    0.37
   3   2  12   -0.05    0.33
   3  -2  12    0.05    0.26
   3  -2  13    0.20    0.29
   3   2  13    0.06    0.33
   3   2  14   36.60    2.27
   3  -2  14   34.51    2.15
  -3  -2 -15    0.47    1.13
   3  -2  15    0.40    0.42
   3   2  15    0.06    0.43
  -3  -2 -15   -0.63    1.23
   3   2  16  127.26    4.92
   3  -2  16  121.09    4.69
   3   2  17   -0.07    0.43
  -3  -2 -17   -0.49    1.17
   3  -2  17    0.13    0.43
   3   2  18    2.78    0.75
   3  -2  18    2.57    0.70
  -3  -2 -18    0.71    2.21
   3  -2  19    0.93    0.56
  -3  -2 -19   -0.74    2.05
  -3  -2 -20    1.01    1.56
  -3  -2 -22   13.21    5.24
   3  -3 -22   -0.46    2.00
   3  -3 -21    2.97    1.95
   3  -3 -20    2.28    1.89
  -3  -3  19    6.74    1.21
   3  -3 -19    6.46    2.28
  -3  -3  18   42.47    2.70
   3  -3 -18   21.31    3.65
  -3   3  17    8.44    1.33
  -3  -3  17    6.33    1.15
   3  -3 -17    6.91    2.14
   3  -3 -16    0.97    1.17
   3   3 -16    0.50    0.52
  -3   3  16    0.37    0.56
  -3  -3  16    0.91    0.63
   3   3 -15    0.60    0.53
  -3   3  15    0.70    0.57
   3  -3 -15    0.46    0.90
  -3  -3  15    0.79    0.54
  -3  -3  14   -0.06    0.35
   3  -3 -14    0.19    0.45
  -3   3  14    0.20    0.44
   3   3 -14    0.28    0.44
   3   3 -14    0.14    0.60
   3   3 -13   16.17    2.60
   3   3 -13   19.85    1.52
  -3   3  13   29.77    2.03
  -3  -3  13   28.46    1.86
   3  -3 -13   20.94    1.65
   3  -3 -12   55.85    2.80
  -3   3  12   75.73    3.30
   3   3 -12   39.42    4.25
  -3  -3  12   73.95    3.04
   3   3 -12   55.83    2.62
   3   3 -11   20.25    1.38
   3  -3 -11   19.69    1.46
  -3   3  11   26.08    1.79
  -3  -3  11   24.46    1.60
  -3   3  10    0.25    0.34
   3   3 -10   -0.22    0.92
   3  -3 -10    0.55    1.31
   3  -3 -10    0.04    0.24
   3   3 -10   -0.04    0.27
  -3  -3  10    0.33    0.30
  -3   3   9    1.00    0.41
   3   3  -9    0.47    0.98
   3  -3  -9    0.77    0.36
   3   3  -9    0.27    0.33
   3  -3  -8   54.22    2.44
   3   3  -8   58.00    2.33
   3  -3  -7   87.49    3.31
   3   3  -7   94.80    3.20
   3  -3  -6   79.99    9.99
  -3  -3   6  417.74    8.22
   3   3  -6  218.44    6.23
   3  -3  -6  207.91    6.38
  -3   3   6  434.70    8.80
   3   3  -6  124.35    9.65
  -3  -3   5   27.47    1.58
   3   3  -5   10.14    2.58
   3  -3  -5   14.67    0.98
   3   3  -5   15.20    0.91
   3  -3  -5    9.50    3.02
  -3   3   5   32.24    1.87
   3   3  -4   23.70    3.66
  -3   3   4   65.07    2.54
  -3  -3   4   54.77    2.20
   3  -3  -4   32.93    1.52
   3   3  -4   33.83    1.42
   3   3  -3    7.78    0.57
   3  -3  -3    7.87    0.62
   3   3  -2    1.21    0.27
   3  -3  -2    1.55    0.31
   3  -3  -2    1.86    1.42
   3   3  -2    1.23    1.18
   3   3  -1   54.63    5.59
   3  -3  -1   46.52    5.56
   3  -3   0   98.15    8.29
   3   3   0  102.75    7.96
   3   3   0  196.29    4.79
   3  -3   0  186.39    4.60
   3   3   1    1.32    0.29
   3  -3   1    1.06    0.24
   3   3   1    0.61    0.80
   3  -3   1    0.46    0.84
  -3  -3  -1    0.47    1.45
   3  -3   2   28.13    3.62
   3  -3   2   41.15    1.51
   3  -3   3   53.68    1.63
   3  -3   3   42.05    3.50
   3  -3   4   29.07    1.49
   3   3   4   27.32    1.68
   3  -3   4   12.31    1.89
   3   3   4    8.39    1.86
   3   3   5    0.54    0.26
   3  -3   5    1.42    0.40
   3  -3   5    0.51    0.21
   3  -3   5    0.65    0.65
   3   3   6   12.02    0.93
   3  -3   6   13.96    0.86
   3   3   7   65.54    2.55
   3  -3   7   66.18    2.35
   3  -3   8  172.56    4.92
   3   3   8  181.83    5.26
   3   3   9   70.50    2.91
   3  -3   9   72.11    2.69
   3  -3  10    1.58    1.22
   3  -3  10   11.30    0.95
   3  -3  10    3.32    1.01
   3   3  10   10.48    1.03
   3  -3  11    0.12    0.40
   3   3  11   -0.09    0.37
   3  -3  11   -0.04    0.30
   3  -3  12    7.91    0.90
   3   3  12    7.16    0.97
   3  -3  12    5.56    1.40
   3   3  13   31.00    1.90
   3  -3  13   28.16    1.64
   3   3  14  153.32    5.25
   3  -3  14  144.09    4.88
   3   3  15   44.17    2.54
   3  -3  15   40.42    2.29
   3   3  16    1.96    0.69
  -3  -3 -16    0.63    1.75
   3  -3  16    1.87    0.63
   3  -3  17    0.78    0.48
   3   3  17    0.41    0.50
   3  -3  18    2.60    0.71
   3  -3  19    0.40    0.53
  -3  -3 -23   -0.66    2.05
   3  -4 -16   -0.48    1.49
  -3   4  16   -0.07    0.59
  -3   4  15   10.63    1.37
   3  -4 -15    7.37    2.99
  -3   4  14    2.24    0.82
   3  -4 -14    2.18    1.81
   3  -4 -13   22.04    4.59
  -3   4  13   29.78    1.97
  -3   4  12    0.10    0.44
  -3   4  11   29.46    1.84
  -3  -4  10   10.65    1.23
  -3   4  10   10.54    1.45
  -3   4   9    1.00    0.64
  -3  -4   9    0.78    0.51
   3  -4  -9    0.90    1.25
   3  -4  -9    0.60    1.86
  -3  -4   8    1.97    0.53
  -3   4   8    2.11    0.75
   3  -4  -8    2.06    1.41
   3  -4  -7    8.06    2.38
   3  -4  -7    2.17    2.15
  -3  -4   6   -0.52    1.42
   3  -4  -6    0.56    0.87
   3  -4  -6   -0.51    1.42
   3  -4  -5   65.80    6.23
   3  -4  -5   32.02    5.83
   3  -4  -4    0.58    0.97
   3  -4  -4    0.46    1.09
   3  -4  -3    2.80    1.55
   3  -4  -3    0.86    1.68
   3  -4  -2    0.29    0.90
   3  -4  -1   11.20    3.24
   3  -4  -1   18.14    3.54
   3  -4   0    8.67    2.76
   3  -4   0   10.35    2.81
   3  -4   1  148.94   10.48
   3  -4   1  134.39    9.88
   3  -4   2    1.18    1.35
   3  -4   2   -0.33    1.29
   3  -4   3   -0.35    0.96
   3  -4   3   -0.27    0.75
   3  -4   4    1.48    1.63
   3   4   4    5.51    0.41
  -3  -4  -5    0.65    1.82
   3  -4   5    4.13    2.50
   3  -4   6    5.77    2.77
   3   4   6   14.81    0.93
   3  -4   7  109.44    3.00
   3  -4   7  124.32    3.01
   3  -4   8    0.75    0.24
   3   4   8    0.68    0.36
   3  -4   8    1.64    0.49
   3   4   8    0.71    0.69
   3  -4   9    2.17    0.36
   3   4   9    2.31    0.50
   3   4  10    2.88    0.57
   3  -4  10    2.71    0.46
  -3  -4 -11    0.73    2.01
   3   4  11    7.10    0.86
   3   4  12    0.42    0.42
  -3  -4 -12    0.74    1.77
   3   4  13    0.55    0.41
   3   4  14   -0.22    0.54
  -3  -4 -14   -0.84    2.00
  -3  -4 -15   15.46    5.76
   3   4  15   42.69    2.44
   3   4  16    1.22    0.63
   3  -5 -12    2.30    2.60
   3  -5  -8    0.65    1.80
  -3  -5   7    0.61    1.70
   3  -5  -7    9.94    3.94
   3  -5  -6    6.28    3.58
   3  -5  -6    3.55    2.59
   3  -5  -5    1.85    2.25
  -3  -5   5   -0.65    2.00
   3  -5  -5    2.25    2.06
   3  -5  -4   -0.62    2.11
   3  -5  -4   -0.54    1.81
   3  -5  -3    5.57    2.89
   3  -5  -3    4.44    3.17
   3  -5  -2   -0.64    2.35
   3  -5  -1   13.82    4.79
   3  -5  -1   14.84    3.84
   3  -5   0    2.95    2.10
   3  -5   1   -0.67    2.44
   3  -5   1   -0.39    1.09
   3  -5   2    1.30    2.00
   3  -5   4   -0.61    2.22
  -3  -5  -5   -0.79    1.90
   3  -5   5    0.58    2.14
   3  -5   8    2.03    1.86
  -4   0  19   -0.14    0.78
  -4   0  19   -0.64    1.77
  -4   0  18    5.22    1.36
  -4   0  18    0.61    1.69
  -4   0  17    0.32    0.83
  -4   0  17   -0.58    1.40
  -4   0  16   95.50    5.57
   4   0 -16   39.93    2.65
  -4   0  15    0.21    0.73
   4   0 -15    0.33    0.44
  -4   0  14  577.22   14.38
   4   0 -14  427.02   13.01
   4   0 -13   -0.06    0.36
  -4   0  13   -0.06    0.45
  -4   0  12    0.06    0.42
   4   0 -12    0.44    0.33
   4   0 -11   -0.36    0.42
  -4   0  11   -0.11    0.44
  -4   0  10  184.40    5.97
   4   0 -10  173.63    5.71
  -4   0   9    0.05    0.31
   4   0  -9    7.65    0.86
  -4   0   8 1445.48   24.43
   4   0  -8 1398.58   24.05
   4   0  -7   -0.04    0.20
  -4   0   7    0.26    0.24
  -4   0   6    0.52    0.26
   4   0  -6    0.31    0.30
   4   0  -5   -0.04    0.18
  -4   0   5    0.19    0.18
  -4   0   4    0.71    0.36
   4   0  -4    1.29    0.34
  -4   0   3    0.06    0.25
   4   0  -3    0.03    0.15
   4   0  -2   13.92    1.01
  -4   0   2   23.95    1.67
   4   0  -1   -0.05    0.33
  -4   0   1    0.31    0.24
   4   0   0 1763.87   41.84
  -4   0   0 1799.96   41.82
   4   0   1    0.05    0.27
   4   0   2   94.18    3.83
   4   0   5   -0.19    0.58
   4   0   8    7.44    1.79
   4   0  10    0.37    0.68
  -4   0 -10    2.57    1.37
  -4   0 -11   -0.19    0.46
   4   0  11   -0.17    0.65
   4   0  12   68.94    4.19
  -4   0 -12   65.39    6.87
   4   0  13   -0.06    0.25
  -4   0 -13   -0.36    1.33
  -4   0 -14   -0.19    0.58
   4   0  14    3.60    0.75
  -4   0 -14    3.91    2.02
   4   0  15   -0.06    0.40
  -4   0 -16    4.02    2.15
   4   0  16   14.54    1.43
   4   0  17    0.07    0.31
   4   0  18    0.22    0.37
  -4   0 -20   12.27    4.02
  -4   0 -23    1.27    1.76
   4  -1 -25    0.34    0.75
   4   1 -23    7.09    1.46
   4  -1 -23    4.93    1.23
   4   1 -22   37.55    2.85
   4  -1 -22   31.75    2.66
   4  -1 -21   26.40    2.34
   4   1 -21   23.00    2.17
   4  -1 -20    3.42    0.91
   4   1 -20    3.81    0.92
  -4  -1  19    2.41    0.88
   4  -1 -19    1.08    0.70
   4   1 -19    1.69    0.71
  -4  -1  19    2.50    2.28
  -4   1  18    4.44    1.60
  -4  -1  18    1.68    0.86
  -4   1  18    1.92    2.66
   4  -1 -18    1.03    0.71
   4   1 -18    1.84    0.71
   4   1 -17   13.26    1.52
  -4   1  17   27.21    2.69
   4  -1 -17   -0.66    1.32
  -4  -1  17   18.13    1.79
   4  -1 -17   14.67    1.61
  -4   1  17    5.51    2.94
  -4  -1  16   92.73    4.28
   4  -1 -16   83.36    4.03
   4   1 -16   80.55    3.94
   4  -1 -15   47.87    2.83
   4   1 -15   47.77    2.77
  -4   1  14    1.78    0.66
  -4  -1  14    1.47    0.61
   4  -1 -14    1.91    0.54
   4   1 -14    2.34    0.60
  -4   1  13   24.54    1.90
  -4  -1  13   23.86    1.84
   4  -1 -13   22.14    1.73
   4   1 -13   19.91    1.63
  -4   1  12   26.29    1.91
  -4  -1  12   27.40    1.91
   4   1 -12   24.39    1.74
   4  -1 -12   22.70    1.72
   4  -1 -11    3.38    0.67
  -4   1  11    4.04    0.73
  -4  -1  11    3.28    0.68
   4   1 -11    3.91    0.68
   4  -1 -10   10.70    1.09
  -4   1  10   12.65    1.23
  -4  -1  10   13.51    1.24
   4   1 -10   12.77    1.15
  -4   1   9   19.67    1.48
  -4  -1   9   17.35    1.38
   4  -1  -9   14.99    1.24
   4   1  -9   16.95    1.30
  -4   1   8  260.32    7.23
  -4  -1   8  267.02    7.21
   4  -1  -8  240.67    6.96
   4   1  -8  236.77    6.86
   4   1  -7  430.66   11.37
  -4   1   7  458.08   11.71
  -4  -1   7  456.80   11.63
   4  -1  -7  427.67   11.43
   4   1  -6  261.87    7.43
  -4   1   6  273.98    7.68
   4  -1  -6  268.64    7.49
  -4  -1   6  280.84    7.64
   4  -1  -5   47.37    2.86
   4   1  -5   27.54    1.61
  -4   1   5   26.78    1.61
  -4  -1   5   47.55    2.57
  -4   1   4    2.43    0.64
  -4  -1   4    1.92    0.60
   4   1  -4    0.25    0.70
   4  -1  -4    1.34    0.37
   4   1  -4    1.44    0.37
  -4  -1   3  252.62    6.53
   4  -1  -3  144.42    4.93
   4   1  -3  140.87    4.88
  -4   1   3  263.40    6.67
  -4   1   2 2279.94   35.44
  -4  -1   2 2236.81   35.35
   4   1  -2 1132.23   32.93
   4  -1  -2 1217.55   33.02
  -4   1   1 2062.41   48.01
  -4  -1   1 1993.19   47.95
   4  -1  -1 2123.97   48.08
   4   1  -1 2061.84   48.03
   4  -1   0 1396.52   33.97
  -4   1   0 1491.19   34.04
   4   1   0 1405.17   34.02
   4  -1   1  114.89    4.24
   4   1   1  107.20    4.19
   4  -1   2   17.88    1.43
   4   1   2   13.65    1.31
   4   1   3    0.53    0.89
   4  -1   3    3.87    0.72
   4   1   5    4.62    1.77
   4   1   6    0.83    1.01
  -4  -1  -7    0.29    0.90
   4   1   8   35.73    4.70
   4   1   9   16.72    3.11
   4   1  10    0.40    0.62
   4   1  11    2.62    1.04
   4  -1  11    0.26    0.39
   4  -1  12   79.15    2.99
   4   1  12   80.67    4.66
   4  -1  13  165.98    5.18
   4   1  13  187.15    5.47
  -4  -1 -13  191.15   13.99
   4  -1  14  150.68    5.47
   4   1  14  160.13    5.63
   4  -1  15   39.04    2.35
   4   1  15   41.44    2.48
   4   1  16    0.40    0.35
   4  -1  16    0.32    0.33
  -4  -1 -17   -0.58    1.61
   4   1  17    0.78    0.47
   4  -1  17    0.68    0.37
   4   1  18    8.27    1.20
   4  -1  18    9.14    1.24
   4  -1  19   26.28    2.13
   4  -2 -25    0.66    1.52
   4  -2 -24    0.71    1.23
   4  -2 -23    6.36    1.92
   4   2 -21   10.93    1.57
   4  -2 -21   13.27    1.74
   4   2 -20   -0.08    0.57
   4  -2 -20   -0.09    0.69
   4   2 -19   12.02    1.44
   4  -2 -19    9.31    1.34
  -4   2  18    0.09    0.46
  -4  -2  18    0.08    0.51
   4  -2 -18    0.16    0.47
   4   2 -18   -0.07    0.36
  -4   2  17    0.65    0.57
  -4  -2  17    0.99    0.54
   4  -2 -17    0.60    0.52
   4   2 -17    1.61    0.59
   4  -2 -17    0.71    1.40
  -4  -2  16    0.22    0.51
  -4   2  16   -0.08    0.47
   4  -2 -16    0.21    0.44
   4   2 -16   -0.07    0.42
  -4   2  15  227.87    7.41
  -4  -2  15  221.36    7.20
   4  -2 -15  188.43    6.82
   4   2 -15  187.61    6.69
   4   2 -14    1.48    0.59
  -4  -2  14    2.91    0.77
  -4   2  14    3.91    0.89
   4  -2 -14    2.36    0.68
  -4   2  13  109.62    4.01
  -4  -2  13  115.42    3.97
   4  -2 -13   97.71    3.64
   4   2 -13   99.08    3.55
   4   2 -12    0.52    0.44
  -4  -2  12    0.06    0.49
  -4   2  12    0.06    0.52
   4  -2 -12    0.17    0.38
   4  -2 -11    0.16    0.39
   4   2 -11    1.42    0.49
  -4  -2  11   -0.05    0.44
  -4   2  11    0.29    0.42
   4  -2 -10    0.99    0.50
   4   2 -10    0.64    0.44
  -4  -2  10    0.95    0.50
   4   2 -10   -0.31    0.94
  -4   2  10    0.82    0.56
  -4   2   9  570.97    9.71
   4   2  -9  527.66    9.02
   4  -2  -9  528.43    9.22
  -4  -2   9  556.97    9.39
  -4   2   8   21.77    1.55
  -4  -2   8   21.27    1.46
   4   2  -8   19.47    1.38
   4  -2  -8   21.31    1.46
  -4   2   7  203.62    6.34
   4   2  -7  200.44    6.07
   4  -2  -7  184.38    6.10
  -4  -2   6    0.90    0.49
  -4   2   6    0.89    0.36
   4  -2  -6    0.63    0.31
   4   2  -6    0.72    0.31
   4   2  -5   20.32    1.29
   4  -2  -5   21.78    1.36
  -4   2   5   39.77    2.34
  -4  -2   5   38.17    2.25
  -4  -2   4    7.87    0.99
   4  -2  -4    5.75    0.64
   4   2  -4    5.03    0.61
  -4   2   4    9.08    1.09
  -4   2   3   84.09    3.29
  -4  -2   3   79.17    3.18
   4  -2  -3   48.36    2.24
   4   2  -3   45.21    2.12
   4  -2  -2    0.06    0.19
  -4   2   2    0.26    0.36
  -4  -2   2    0.21    0.32
   4   2  -2    0.19    0.16
  -4  -2   2   -0.35    0.69
   4  -2  -1  165.40    5.02
   4   2  -1  151.01    4.94
   4  -2   0    5.81    0.62
   4   2   0    5.22    0.84
   4   2   1  765.63   18.73
   4  -2   1  714.61   18.52
   4  -2   2   22.49    1.60
   4   2   2   21.26    1.65
   4  -2   3    0.90    0.47
   4   2   3    1.51    0.52
   4   2   3    0.37    1.14
   4  -2   4    9.48    1.11
   4   2   4    1.50    1.65
   4   2   5  300.97   16.14
   4   2   6   11.36    2.87
   4   2   7  351.07   15.65
  -4  -2  -8   -0.43    0.83
   4   2   8   -0.24    0.88
   4   2   9    0.96    0.88
   4   2  10   -0.15    0.56
   4  -2  11   30.85    2.04
   4  -2  12    2.08    0.54
   4   2  12    1.95    0.53
   4  -2  13   34.07    2.09
   4   2  13   39.67    2.32
   4   2  14    0.06    0.41
   4  -2  14    0.05    0.41
  -4  -2 -14    0.62    1.71
   4   2  15   37.27    2.30
   4  -2  15   34.07    2.12
  -4  -2 -16    0.67    1.31
   4   2  16    0.88    0.51
   4  -2  16    0.31    0.37
   4  -2  17    0.13    0.39
   4   2  17    0.36    0.47
  -4  -2 -18   -0.72    1.73
   4  -2  18    0.07    0.47
  -4  -2 -19    2.99    2.53
  -4  -2 -20    0.77    2.14
  -4  -2 -21   16.81    5.76
  -4  -2 -24   -0.50    1.38
   4  -3 -21   15.19    3.18
   4  -3 -20    1.06    1.42
   4  -3 -19    2.37    1.55
  -4  -3  18   -0.15    0.73
   4  -3 -18   -0.23    0.57
   4   3 -18    0.12    0.65
   4  -3 -17    5.29    1.07
  -4  -3  17    9.13    1.29
   4   3 -17    5.77    1.60
  -4   3  17    9.07    1.38
   4   3 -17    7.09    1.07
  -4   3  16   30.16    2.29
  -4  -3  16   27.45    2.12
   4   3 -16   20.83    1.77
   4  -3 -16   23.50    1.97
  -4  -3  15    0.57    1.43
  -4   3  15   33.03    2.35
   4  -3 -15   25.65    1.88
  -4  -3  15   32.26    2.14
   4   3 -15   13.28    2.90
   4   3 -15   26.18    1.81
   4  -3 -15    6.41    3.44
   4   3 -14   -0.28    1.11
   4  -3 -14    0.12    0.43
   4   3 -14   -0.11    0.45
  -4   3  14    0.34    0.48
  -4  -3  14    0.72    0.53
   4  -3 -13   13.81    1.37
  -4   3  13   21.18    1.76
   4   3 -13   15.22    1.34
  -4  -3  13   20.26    1.60
  -4   3  12    3.28    0.75
   4   3 -12    2.58    0.60
  -4  -3  12    2.69    0.64
   4   3 -12    2.45    1.88
   4  -3 -12    3.07    0.64
  -4   3  11    0.40    0.38
  -4  -3  11    0.25    0.33
   4  -3 -11    0.15    0.27
   4   3 -11    0.40    0.29
  -4  -3  10    4.42    1.01
   4   3 -10    2.29    1.75
   4  -3 -10    1.76    0.49
   4   3 -10    2.76    0.55
  -4   3  10    2.97    0.66
  -4   3   9    9.94    1.07
   4  -3  -9    9.82    0.99
   4   3  -9    9.95    0.93
   4   3  -8   75.91    2.93
   4  -3  -8   70.11    3.01
   4   3  -8   22.75    5.01
  -4   3   8   74.56    3.19
  -4   3   8  143.16    5.05
  -4  -3   8  139.38    4.73
   4  -3  -7  212.22    6.80
   4   3  -7  223.13    6.70
   4   3  -7   83.50   10.09
  -4  -3   7  402.27    8.99
  -4   3   7  426.85    9.52
   4  -3  -6   95.77    3.49
  -4  -3   6  177.01    5.13
   4   3  -6   98.08    3.39
   4  -3  -6   22.25    5.07
  -4   3   6  183.88    5.43
  -4   3   5    6.30    1.04
   4  -3  -5    2.33    1.61
  -4  -3   5    5.81    0.90
  -4  -3   5    0.44    1.06
   4   3  -5    0.82    1.40
   4  -3  -5    3.19    0.56
   4   3  -5    3.19    0.49
  -4  -3   4    3.19    0.74
   4  -3  -4    1.96    0.44
  -4   3   4    4.70    0.91
   4   3  -4    2.51    0.45
   4   3  -4    2.00    1.75
   4   3  -3   57.57    2.10
   4   3  -3   28.05    4.90
   4  -3  -3   18.54    3.78
   4  -3  -3   54.64    2.13
   4   3  -2  131.42    3.56
   4   3  -2   64.01    7.41
   4  -3  -2   29.98    4.95
   4  -3  -2  113.56    3.36
   4  -3  -1  485.57   11.95
   4   3  -1  541.19   12.20
   4  -3   0  115.74    3.36
   4   3   0  104.81    3.34
   4  -3   1   14.02    0.90
   4   3   2    0.35    0.44
   4  -3   2    0.25    0.18
   4  -3   2    0.17    0.56
   4   3   3    3.20    0.69
   4  -3   3    3.89    0.67
   4  -3   4   25.55    1.65
   4   3   4   26.03    1.83
   4  -3   5   61.11    2.78
   4   3   5   65.72    3.13
   4   3   6    0.18    0.56
   4  -3   6    1.30    0.51
   4   3   7   18.85    2.88
   4  -3   7   25.94    2.62
   4  -3   8   37.50    1.82
   4   3   8   39.00    2.02
   4   3   9    8.24    0.91
   4  -3   9    7.24    0.77
   4  -3   9    7.47    1.71
   4  -3  10   -0.21    0.90
   4   3  10    0.18    0.33
   4  -3  10    0.15    0.28
   4   3  11    2.55    0.63
   4  -3  11    3.25    0.61
   4   3  12   21.49    1.65
   4  -3  12   21.99    1.54
   4  -3  13  113.96    4.28
   4   3  13  122.47    4.61
   4   3  14   55.46    2.94
   4  -3  14   58.71    2.80
   4  -3  15   12.89    1.31
   4   3  15   14.66    1.48
   4   3  16    0.40    0.46
   4  -3  16    0.12    0.44
   4  -3  17   -0.12    0.50
   4   3  17    0.14    0.52
   4  -3  18    1.76    0.65
  -4  -3 -19   12.05    5.05
  -4   4  16    9.74    1.36
  -4   4  15    4.36    0.98
   4  -4 -15    0.35    1.17
  -4   4  14   80.79    3.62
   4  -4 -14   48.16    5.52
  -4   4  13    0.06    0.60
  -4   4  12   -0.09    0.88
  -4   4  11    0.17    0.98
   4   4 -11    1.28    0.96
   4  -4 -10   16.62    3.16
   4   4 -10   12.75    2.32
  -4   4   9   12.77    1.52
  -4  -4   9   13.03    1.36
   4   4  -9    4.04    1.51
   4  -4  -9    6.89    2.13
  -4   4   8  198.22    5.46
  -4  -4   8  161.13    4.54
   4  -4  -8   82.76    3.33
   4   4  -8   63.89    5.42
   4  -4  -8   77.76    6.71
   4  -4  -8   19.60    5.43
   4   4  -7    2.81    0.40
   4  -4  -7    2.55    0.48
   4   4  -7    2.02    1.16
   4  -4  -7    3.63    1.53
  -4   4   6    2.80    0.69
   4   4  -6    0.93    0.24
   4  -4  -6    1.02    0.33
   4   4  -6    0.37    0.90
   4  -4  -6    1.89    1.13
   4  -4  -6    0.50    1.19
   4   4  -5    2.99    0.31
   4  -4  -5    2.27    0.39
   4   4  -5    2.49    1.21
   4  -4  -5    4.15    1.69
   4  -4  -5    1.40    1.82
   4  -4  -4    0.24    0.19
   4   4  -4    0.28    0.12
   4   4  -4    0.20    0.76
   4  -4  -4    0.22    0.69
  -4  -4   3   -0.58    1.39
   4  -4  -3    0.03    0.14
   4   4  -3    0.20    0.83
   4  -4  -3   -0.22    0.75
   4  -4  -2    1.10    0.92
   4  -4  -2    1.12    1.46
   4   4  -2    1.02    0.74
   4  -4  -1    1.29    1.03
   4   4  -1    0.80    0.96
   4  -4  -1    0.34    1.16
   4  -4   0   77.33    6.26
   4   4   0   79.66    6.32
   4   4   0  101.77    2.61
   4   4   0  112.89    2.65
   4  -4   1    0.56    0.86
   4   4   1    0.03    0.16
   4   4   1    0.32    0.19
   4  -4   1   -0.28    0.94
   4   4   2   23.51    0.97
   4   4   2   20.09    0.86
   4  -4   3    0.27    0.97
   4   4   3    0.06    0.23
   4  -4   3   -0.21    0.66
   4  -4   4    8.38    2.54
   4   4   4   12.18    0.77
   4  -4   5    8.59    0.47
  -4  -4  -5   -0.67    1.62
   4   4   5    8.27    0.71
   4  -4   5    6.45    2.26
   4  -4   5    8.69    0.43
   4  -4   5    1.50    0.96
   4   4   5   15.57    1.35
   4  -4   6  213.91    5.46
   4   4   6  209.74    5.93
   4  -4   6  208.93    5.37
   4   4   7    9.67    1.29
   4  -4   7    3.54    2.14
   4   4   7    6.18    0.74
   4  -4   7    6.21    0.55
   4  -4   7   12.64    1.06
   4  -4   8   33.34    1.82
   4   4   8   37.21    2.37
   4  -4   8    8.57    3.08
   4   4   8   20.06    1.32
   4  -4   8   19.06    1.05
   4  -4   9    1.22    0.36
   4  -4   9    2.86    0.72
   4   4   9    2.72    0.91
   4   4   9    1.54    0.49
   4   4  10   -0.04    0.37
   4  -4  10   -0.06    0.59
   4  -4  10   -0.35    1.52
   4   4  11    2.29    0.63
   4  -4  11    2.81    0.83
   4  -4  12   73.85    3.41
   4   4  12   42.70    2.17
  -4  -4 -13   -0.76    2.10
   4   4  13    0.16    0.47
   4   4  14    0.23    0.50
   4   4  15    0.06    0.42
   4   4  16    2.21    0.68
   4  -5  -7    4.76    2.85
   4  -5  -6   10.64    3.78
   4  -5  -5    2.48    2.06
   4  -5  -4    0.50    1.55
   4  -5  -3    3.03    2.32
   4  -5  -3    0.47    1.59
   4  -5  -2   27.83    5.63
   4  -5  -1    6.55    3.04
   4  -5   0   17.54    4.78
   4  -5   1   -0.56    2.30
   4  -5   2    0.58    1.97
   4  -5   4    4.89    3.17
   4  -5   7   -0.54    2.10
  -5   0  18    1.05    0.62
  -5   0  18   -0.64    1.97
  -5   0  17    0.92    0.60
  -5   0  17    1.84    2.07
   5   0 -16    0.15    0.38
  -5   0  16    0.08    0.45
  -5   0  15  166.90    6.12
   5   0 -15  145.34    5.74
   5   0 -14   -0.13    0.50
  -5   0  14    0.07    0.41
   5   0 -13   -0.06    0.47
  -5   0  13    0.55    0.41
   5   0 -12   -0.06    0.38
  -5   0  12   -0.26    0.46
  -5   0  11  158.44    5.62
   5   0 -11  149.64    5.36
  -5   0  10    0.63    0.47
  -5   0  10    0.43    1.18
   5   0 -10    0.05    0.33
  -5   0   9 1777.25   40.87
   5   0  -9 1688.05   40.53
   5   0  -8    0.05    0.28
  -5   0   8    0.77    0.41
   5   0  -7  247.01    7.34
  -5   0   7  233.69    7.17
   5   0  -6    0.24    0.29
  -5   0   6   -0.23    0.29
   5   0  -5   87.03    3.61
  -5   0   5  153.95    5.36
  -5   0   4    0.70    0.48
   5   0  -4   -0.09    0.25
  -5   0   3 1041.05   18.36
   5   0  -3  510.02   15.52
   5   0  -2    0.61    0.38
  -5   0   2    0.72    0.35
  -5   0   1   11.62    1.26
   5   0  -1   10.39    1.22
   5   0   0    0.13    0.30
  -5   0   0    0.06    0.25
   5   0   1    0.13    0.30
   5   0   2   -0.25    0.77
   5   0   2   -0.07    0.30
   5   0   3   30.35    2.17
   5   0   5    4.05    1.51
   5   0  10    0.23    0.63
  -5   0 -11  284.86   15.16
  -5   0 -12    0.34    0.95
   5   0  13   41.43    3.79
  -5   0 -13   60.22    6.83
   5   0  14   -0.20    0.31
  -5   0 -14    0.78    1.21
   5   0  16    0.28    0.34
   5   0  17   34.35    2.38
   5   0  18   -0.37    0.43
  -5   0 -24    0.64    1.54
   5   1 -23   15.46    1.88
   5  -1 -22   24.87    2.26
   5   1 -22   24.15    2.22
   5  -1 -21    7.78    1.32
   5   1 -21   10.16    1.53
   5  -1 -20    0.27    0.55
   5   1 -20   -0.78    0.64
   5  -1 -19    0.09    0.52
   5   1 -19    0.42    0.49
  -5   1  18   32.32    2.57
  -5  -1  18   31.71    2.53
   5   1 -18   29.08    2.34
   5  -1 -18   28.80    2.33
  -5   1  17  187.76    6.86
  -5  -1  17  184.02    6.78
   5  -1 -17  156.53    6.34
   5   1 -17  166.69    6.38
  -5   1  16  219.56    7.57
  -5  -1  16  222.55    7.56
   5  -1 -16  195.34    7.12
   5   1 -16  192.86    7.04
  -5   1  15  132.51    5.33
  -5  -1  15  127.33    5.18
   5  -1 -15  115.32    4.92
   5   1 -15  118.20    4.91
  -5   1  14    9.70    1.31
  -5  -1  14   10.45    1.29
   5  -1 -14    9.41    1.22
   5   1 -14   10.31    1.22
   5  -1 -13    2.29    0.65
   5   1 -13    2.66    0.68
  -5   1  13    2.63    0.71
  -5  -1  13    2.81    0.73
  -5   1  12   25.49    1.94
  -5  -1  12   23.33    1.82
   5   1 -12   22.78    1.75
   5  -1 -12   22.19    1.75
  -5   1  11   90.80    3.94
  -5  -1  11  103.09    4.05
   5  -1 -11   88.79    3.77
   5   1 -11   96.85    3.86
  -5   1  10   61.86    3.02
  -5  -1  10   64.19    3.02
   5  -1 -10   52.87    2.74
   5   1 -10   56.56    2.79
  -5   1   9    3.37    0.66
   5  -1  -9    2.28    0.55
  -5  -1   9    2.78    0.61
   5   1  -9    2.95    0.58
   5   1  -8   61.07    2.81
  -5   1   8   70.38    3.10
  -5  -1   8   69.53    3.05
   5  -1  -8   64.53    2.91
   5  -1  -7   33.34    1.91
   5   1  -7   35.00    1.99
  -5   1   7   34.52    2.02
  -5  -1   7   33.93    2.00
   5  -1  -6    0.07    0.42
  -5   1   6    0.08    0.47
  -5  -1   6    0.15    0.45
   5   1  -6    0.19    0.27
  -5   1   6   -0.09    0.31
  -5   1   5    4.52    0.88
  -5  -1   5    5.18    0.95
   5  -1  -5    2.09    0.49
   5   1  -5    1.82    0.49
  -5  -1   4   40.25    2.52
   5  -1  -4   21.50    1.51
   5   1  -4   24.84    1.58
  -5   1   4   42.99    2.58
  -5   1   3 1181.84   20.64
  -5  -1   3 1130.91   20.50
   5  -1  -3  630.11   17.80
   5   1  -3  573.76   17.68
  -5   1   2 2123.77   38.04
  -5  -1   2 1998.92   37.86
   5   1  -2 2008.49   37.93
  -5  -1   1 1357.15   20.90
   5  -1  -1 1329.04   20.89
   5   1  -1 1363.09   21.02
   5   1   0  254.78    5.85
  -5   1   0  265.36    5.88
   5  -1   0  263.32    5.91
   5  -1   1    9.16    1.16
   5   1   1   10.22    1.22
   5  -1   2    0.20    0.36
   5   1   2   -0.07    0.42
   5  -1   3  174.67    6.28
   5   1   3  176.67    6.32
   5  -1   4  419.00   12.12
   5   1   5   13.66    3.02
  -5  -1  -7   -0.33    0.91
  -5   1  -8    0.24    0.40
   5   1  10    5.28    2.19
  -5  -1 -10   -0.34    0.95
   5   1  11    3.72    1.56
   5   1  12   37.20    4.20
   5  -1  13   27.80    2.57
   5   1  13   53.37    4.31
   5   1  14    4.78    1.26
  -5  -1 -14    7.15    3.00
  -5   1 -14    2.72    1.51
  -5  -1 -15   12.85    4.06
   5  -1  15   10.64    1.29
   5   1  15   12.56    1.40
   5   1  16    7.67    1.15
   5  -1  16    7.47    1.09
   5  -1  17    0.28    0.33
   5   1  17    0.57    0.41
   5  -1  18   16.71    1.62
  -5  -1 -18    9.79    3.88
  -5   1 -23    0.50    1.54
   5  -2 -25    0.47    0.98
   5  -2 -22    5.76    1.28
   5   2 -22    5.62    1.21
   5  -2 -21    0.09    0.53
   5   2 -21    0.08    0.65
   5  -2 -20   -0.18    0.65
   5   2 -20    0.25    0.48
   5  -2 -19   -0.09    0.53
   5   2 -19    0.16    0.56
  -5  -2  18   31.12    2.40
   5  -2 -18   23.72    2.15
   5   2 -18   26.31    2.14
  -5  -2  17   -0.24    0.51
  -5   2  17   -0.17    0.55
   5  -2 -17   -0.23    0.46
   5   2 -17    0.07    0.38
  -5   2  16   45.88    3.00
  -5  -2  16   45.63    2.87
   5  -2 -16   43.80    2.79
   5   2 -16   43.87    2.71
  -5  -2  15    3.96    0.90
  -5   2  15    2.39    0.74
   5  -2 -15    1.28    0.60
   5   2 -15    2.66    0.72
   5  -2 -14   54.94    2.81
  -5   2  14   57.64    3.01
  -5  -2  14   55.53    2.86
   5   2 -14   52.15    2.68
   5  -2 -13    1.40    0.59
   5   2 -13    0.24    0.40
  -5   2  13    0.56    0.56
  -5  -2  13    0.58    0.50
   5  -2 -12    1.75    0.59
   5   2 -12    1.52    0.58
  -5   2  12    2.63    0.68
  -5  -2  12    1.90    0.64
  -5   2  12    2.63    1.92
  -5  -2  12    0.53    1.26
   5  -2 -11    0.34    0.44
   5   2 -11    0.53    0.49
  -5  -2  11    1.22    0.58
  -5   2  11    0.62    0.58
  -5   2  11    1.49    2.06
  -5  -2  10  570.21   14.77
  -5   2  10  587.97   15.01
   5  -2 -10  539.87   14.65
   5   2 -10  568.45   14.59
  -5   2   9   13.40    1.31
  -5  -2   9   10.60    1.14
   5   2  -9   -0.36    0.99
  -5   2   9    8.75    3.14
   5  -2  -9    8.55    1.01
   5   2  -9   10.76    1.10
   5  -2  -9    0.92    1.43
  -5   2   8  658.66   14.88
   5  -2  -8  649.29   14.62
   5   2  -8  630.27   14.45
  -5   2   7    0.41    0.67
  -5  -2   7   -0.08    0.65
   5  -2  -7    0.22    0.36
   5   2  -7    0.17    0.37
  -5   2   7   -0.38    1.17
   5  -2  -7    0.40    0.95
  -5   2   6   -0.16    0.50
  -5  -2   6    0.60    0.60
   5  -2  -6    0.13    0.28
  -5   2   6    0.35    0.96
   5   2  -6   -0.04    0.30
  -5  -2   5    0.38    0.91
  -5   2   5    0.32    0.98
   5   2  -5   -0.04    0.29
  -5   2   5   -0.07    0.54
  -5  -2   5    0.78    0.59
   5  -2  -5    0.12    0.30
  -5   2   4  424.81   10.16
  -5  -2   4  430.20   10.07
   5  -2  -4  263.20    8.21
   5   2  -4  234.07    7.92
  -5   2   3   19.20    1.66
  -5  -2   3   19.07    1.65
   5  -2  -3   10.07    0.95
   5   2  -3   10.37    0.96
  -5   2   2  200.64    5.89
  -5  -2   2  189.38    5.80
   5  -2  -2  112.66    4.22
   5   2  -2  113.24    4.21
  -5   2   1    3.74    0.75
   5   2  -1    4.63    0.82
   5  -2  -1    1.98    0.43
   5  -2   0   42.68    2.36
   5   2   0   40.31    2.33
   5   2   1    4.77    0.87
   5  -2   1    5.37    0.89
   5  -2   2   51.71    2.85
   5   2   2   52.37    2.93
   5  -2   3    4.09    0.88
   5   2   3    4.60    0.90
   5  -2   4  336.25   10.07
   5   2   4  332.04   10.26
   5  -2   5    5.20    0.97
   5   2   6  164.75   12.40
   5   2   7    0.40    1.10
   5   2   8    9.62    2.86
   5   2   9    2.07    1.36
   5   2  10   16.12    3.05
   5   2  11    2.50    1.35
   5   2  12  102.12    6.32
   5   2  13    0.53    0.34
   5   2  14    0.51    0.40
   5  -2  14    0.47    0.42
   5   2  15    0.07    0.56
   5  -2  15    0.06    0.46
  -5  -2 -15    0.66    1.57
   5   2  16    9.36    1.28
   5  -2  16   10.93    1.25
  -5  -2 -16    7.48    3.53
   5   2  17    0.59    0.51
   5  -2  17    0.27    0.43
  -5  -2 -17    0.71    2.18
   5  -2  18   10.66    1.33
  -5  -2 -19    0.75    2.33
  -5  -2 -20    0.52    1.25
  -5  -2 -20    4.68    3.41
  -5  -2 -21   -0.80    2.72
  -5  -2 -22    3.31    3.03
   5   3 -20    0.34    0.70
   5  -3 -20   -0.19    0.67
   5  -3 -19    0.92    0.77
   5   3 -19    0.90    0.62
   5  -3 -18   12.01    1.53
   5   3 -18   11.80    1.44
   5   3 -18    7.51    2.39
  -5  -3  17   33.19    2.43
   5  -3 -17   27.13    2.15
   5   3 -17   28.30    2.09
  -5   3  16  117.38    4.93
  -5  -3  16  111.31    4.58
   5  -3 -16   89.45    4.20
   5   3 -16   95.25    4.16
  -5   3  15   25.65    2.13
  -5  -3  15   25.07    2.01
   5  -3 -15   22.82    1.92
   5   3 -15   23.94    1.86
  -5  -3  14    3.58    0.81
  -5   3  14    3.23    0.88
   5  -3 -14    2.88    0.75
   5   3 -14    3.10    0.73
   5  -3 -13    0.68    0.48
   5   3 -13    0.11    0.51
  -5   3  13    0.41    0.47
   5   3 -13   -0.39    1.63
  -5   3  12    7.66    1.09
   5  -3 -12    6.90    0.97
   5   3 -12    5.89    0.88
   5  -3 -11   17.65    1.49
  -5   3  11   20.59    1.69
   5   3 -11   20.40    1.51
  -5   3  10   26.03    1.86
   5   3 -10    5.04    2.40
   5  -3 -10   25.57    1.75
   5   3 -10   26.41    1.70
  -5   3  10   49.17    3.18
  -5  -3  10   50.98    3.09
   5  -3  -9    0.68    0.35
   5   3  -9    0.65    0.33
  -5   3   9    1.70    0.74
  -5  -3   9    2.30    0.80
   5   3  -9   -0.86    1.67
   5  -3  -9    0.52    1.01
  -5  -3   8   70.82    3.39
  -5  -3   8   -0.46    1.11
   5   3  -8   10.45    3.30
  -5   3   8   65.37    3.37
   5  -3  -8   34.06    1.80
   5   3  -8   38.22    1.80
  -5   3   7   26.24    2.16
  -5  -3   7   25.41    2.01
   5  -3  -7   12.29    1.13
   5   3  -7   14.67    1.15
  -5   3   6    0.15    0.55
   5  -3  -6   -0.04    0.29
  -5  -3   6    0.07    0.55
   5   3  -6    0.14    0.30
  -5   3   5    7.93    1.15
  -5  -3   5    7.27    1.10
   5  -3  -5    3.37    0.60
   5   3  -5    3.47    0.58
   5   3  -4   12.72    0.99
   5  -3  -4   10.83    0.95
   5   3  -3  106.45    3.60
   5  -3  -3   91.91    3.38
   5  -3  -2  414.43   10.82
   5   3  -2  443.67   11.05
   5  -3  -1  205.47    5.65
   5   3  -1  192.92    5.61
   5  -3   0   25.35    1.42
   5   3   0   21.28    1.40
   5   3   1    0.37    0.48
   5  -3   1    0.03    0.32
  -5  -3  -1    0.53    1.26
   5   3   2    0.06    0.58
   5  -3   2    0.03    0.27
   5   3   3   64.10    3.31
   5  -3   3   64.89    3.15
   5  -3   4  321.84    8.70
   5   3   4  330.07    9.07
   5  -3   5   57.21    2.92
   5   3   5   59.55    3.17
   5  -3   6   19.29    1.72
   5   3   6   23.32    2.02
   5  -3   7    0.07    0.48
   5   3   7    0.27    0.74
   5  -3   8    1.25    0.58
   5   3   8    0.19    0.63
   5  -3   9    7.50    1.35
   5   3   9    4.30    1.50
   5   3  10   12.30    1.26
   5  -3  10   10.19    1.00
   5  -3  10   13.12    1.89
   5  -3  11    0.30    0.62
   5   3  11    0.16    0.40
   5  -3  11    0.05    0.38
   5   3  12   23.95    1.75
   5  -3  12   22.69    1.59
   5   3  13   18.01    1.55
   5  -3  13   18.03    1.47
   5   3  14    2.84    0.78
   5  -3  14    2.37    0.64
   5   3  15    0.27    0.49
   5  -3  15    0.47    0.43
   5   3  16    8.01    1.16
   5  -3  16    6.56    1.02
  -5  -3 -16    4.01    3.14
  -5  -3 -17    0.83    2.28
   5  -3  17    0.06    0.51
  -5  -3 -18    3.39    3.10
   5  -4 -16    0.81    2.74
  -5   4  15   29.13    2.27
  -5   4  15   58.21    3.94
  -5   4  14    1.97    1.10
   5   4 -14    0.30    0.68
   5  -4 -14    0.35    0.45
   5  -4 -14    1.71    1.53
   5   4 -13    0.78    0.90
  -5   4  13    0.83    0.96
   5   4 -13    0.51    0.40
   5  -4 -13    0.46    0.44
  -5   4  12   -0.10    0.91
   5  -4 -12    0.05    0.45
   5   4 -12    0.26    0.36
   5   4 -12   -0.23    0.79
   5  -4 -11   10.08    1.09
   5   4 -11   10.12    0.98
   5   4 -10    2.95    1.53
   5  -4 -10    4.35    0.78
   5   4 -10    4.29    0.67
   5  -4  -9  166.09    5.53
   5   4  -9  171.21    5.32
  -5   4   8    3.71    1.09
   5  -4  -8    2.09    0.55
   5   4  -8    0.59    1.42
   5   4  -8    2.17    0.49
   5  -4  -7   14.44    1.11
   5   4  -7   13.67    0.97
   5   4  -7   11.46    2.85
  -5   4   6    0.47    0.67
   5   4  -6    0.61    1.04
   5  -4  -6    0.48    0.38
   5   4  -6    0.40    0.31
   5  -4  -5    4.12    0.58
   5   4  -5    3.13    1.68
   5   4  -5    4.24    0.50
  -5  -4   4    0.60    1.67
   5   4  -4    2.12    1.51
   5   4  -4    2.97    0.44
   5  -4  -4    2.70    0.46
   5  -4  -3   71.03    1.91
   5   4  -3   78.31    1.87
   5  -4  -2    1.39    0.31
   5   4  -2    2.01    0.34
   5   4  -2    0.86    0.88
   5  -4  -1    2.06    0.34
  -5  -4   1   -0.63    1.52
   5   4  -1    0.27    0.93
   5   4  -1    2.33    0.35
   5   4   0    0.98    0.36
   5  -4   0    0.53    0.23
  -5  -4   0   -0.64    1.26
   5   4   0    0.69    0.84
   5  -4   1    0.83    0.24
   5   4   1    1.33    0.33
   5   4   1    0.62    0.76
   5   4   2    0.85    0.32
   5  -4   2    1.04    0.26
   5  -4   2    0.77    0.89
   5  -4   2   -0.19    0.70
   5  -4   3    4.74    0.50
   5   4   3    4.98    0.61
   5  -4   3    1.16    0.93
   5  -4   3    0.56    0.64
   5  -4   4    4.54    0.50
   5  -4   4    3.18    0.43
   5   4   4    3.51    0.54
   5  -4   4    2.79    1.24
   5   4   5   95.51    3.34
   5  -4   5   79.53    6.33
   5  -4   5   84.76    2.91
   5  -4   6    0.84    0.35
   5  -4   6   -0.24    0.94
   5   4   6    0.46    0.40
   5  -4   6    0.47    0.29
   5   4   7   31.96    2.27
   5   4   7   14.72    1.14
   5  -4   7   14.08    0.95
   5  -4   7    9.90    2.59
   5  -4   7   28.54    1.81
   5  -4   8    4.81    0.91
   5   4   8    3.68    1.05
   5  -4   8    2.89    1.75
   5   4   8    2.10    0.57
   5  -4   8    2.63    0.48
   5  -4   9    1.84    0.71
   5   4   9    0.76    0.82
   5  -4   9    0.33    1.22
   5   4   9    0.38    0.39
   5  -4  10    2.23    0.82
   5   4  10    1.65    0.99
   5  -4  10    0.36    1.49
   5   4  10    1.98    0.59
   5  -4  11   93.77    4.11
   5   4  11   53.19    2.72
   5   4  12    3.99    0.80
   5   4  13   11.99    1.31
   5   4  14   -0.18    0.48
   5   4  15    0.19    0.52
   5  -5 -12    0.73    1.75
  -5  -5   5    0.70    1.37
   5  -5  -4    0.44    1.61
  -5  -5   4   -0.72    1.71
  -5  -5   3    0.73    2.02
   5  -5  -3   17.60    4.20
   5  -5  -2   14.32    3.90
   5  -5  -1   24.88    4.97
   5  -5   0    3.05    2.17
  -5  -5  -1   -0.78    2.42
   5  -5   1    0.89    1.75
   5  -5   2   -0.46    1.91
   5  -5   3    6.11    2.91
   5  -5   4    5.62    3.00
   5  -5   5    6.11    3.26
   5  -5   6    0.57    2.09
  -6   0  17    0.09    0.51
   6   0 -16    0.08    0.37
  -6   0  16   -0.08    0.53
  -6   0  15   -0.16    0.53
   6   0 -15    0.07    0.32
  -6   0  14   21.39    1.89
   6   0 -14   17.40    1.67
   6   0 -13   -0.40    0.41
  -6   0  13    0.07    0.39
   6   0 -12    0.06    0.32
  -6   0  12    0.07    0.44
   6   0 -11   -0.24    0.38
  -6   0  11   -0.07    0.44
  -6   0  10  717.58   17.57
   6   0 -10  620.89   17.07
   6   0  -9    0.06    0.32
  -6   0   9    0.06    0.33
   6   0  -8   28.25    1.95
  -6   0   8   33.51    2.11
  -6   0   7    0.09    0.54
   6   0  -7    0.28    0.32
   6   0  -6   23.13    1.71
  -6   0   6   45.15    2.94
  -6   0   5    0.08    0.52
   6   0  -5   -0.05    0.29
  -6   0   4 2117.85   35.69
   6   0  -4 1127.07   32.11
  -6   0   3    0.16    0.41
   6   0  -3   -0.05    0.24
  -6   0   2  446.25   12.33
   6   0  -2  375.09   11.95
   6   0  -1    0.16    0.40
  -6   0   1    0.31    0.35
   6   0   0    0.08    0.29
  -6   0   0    0.31    0.38
   6   0   1    0.08    0.25
   6   0   1    0.92    1.12
   6   0   2  161.34    6.23
   6   0   3   -0.08    0.30
   6   0   4   34.16    2.53
  -6   0 -12   40.66    5.54
   6   0  13   -0.26    1.02
  -6   0 -13   -0.38    1.16
   6   0  14    7.57    1.98
  -6   0 -14   19.08    4.12
   6   0  15    0.15    0.60
  -6   0 -15   -0.42    1.42
   6   0  16   12.94    1.58
  -6   0 -16    8.89    3.08
   6   0  17   -0.16    0.44
  -6   0 -25    0.65    1.79
   6  -1 -22    1.30    0.77
   6   1 -22    0.97    0.77
   6  -1 -21    1.93    0.87
   6   1 -21    0.94    0.65
   6  -1 -20    2.60    0.89
   6   1 -20    3.61    0.94
   6  -1 -19    6.59    1.21
   6   1 -19    4.77    1.09
   6  -1 -18   65.64    3.74
   6   1 -18   70.73    3.81
  -6   1  17  109.02    4.96
  -6  -1  17  103.16    4.77
   6  -1 -17   86.32    4.41
   6   1 -17   93.57    4.49
  -6   1  16   98.19    4.60
  -6  -1  16   97.85    4.58
   6  -1 -16   85.21    4.25
   6   1 -16   87.36    4.25
  -6   1  15    9.50    1.37
  -6  -1  15    8.23    1.27
   6  -1 -15    7.71    1.19
   6   1 -15    7.86    1.18
   6  -1 -14    1.43    0.60
  -6   1  14    2.39    0.71
   6   1 -14    1.32    0.64
  -6  -1  14    1.72    0.70
  -6   1  14    1.71    2.09
  -6  -1  14    1.72    2.24
  -6   1  13   18.96    1.77
  -6  -1  13   19.85    1.76
   6  -1 -13   16.75    1.62
   6   1 -13   15.51    1.54
  -6   1  12  128.37    5.15
  -6  -1  12  135.82    5.18
   6  -1 -12  124.67    4.94
   6   1 -12  124.68    4.92
  -6   1  11  209.07    6.96
  -6  -1  11  203.59    6.85
   6  -1 -11  199.27    6.72
   6   1 -11  195.29    6.63
  -6  -1  10  206.70    6.65
  -6   1  10  199.67    6.67
   6  -1 -10  190.86    6.44
   6   1 -10  183.63    6.32
   6   1  -9   20.02    1.56
  -6  -1   9   17.57    1.51
  -6   1   9   16.88    1.52
   6  -1  -9   15.43    1.39
  -6   1   8    0.58    0.38
  -6  -1   8    0.57    0.56
   6  -1  -8    0.05    0.27
   6   1  -8    0.26    0.28
   6  -1  -7   33.51    2.40
   6   1  -7   30.48    2.17
  -6   1   7   47.91    3.13
  -6  -1   7   47.25    3.13
   6  -1  -6   74.17    3.49
   6   1  -6   70.35    3.39
  -6   1   6  139.87    5.40
  -6  -1   6  133.83    5.29
  -6  -1   5    8.59    1.28
   6  -1  -5    4.67    0.74
   6   1  -5    4.29    0.70
  -6   1   5   10.22    1.43
  -6   1   4   71.12    3.60
  -6  -1   4   71.52    3.57
   6  -1  -4   35.86    2.16
   6   1  -4   35.54    2.15
  -6   1   3  327.81    8.64
  -6  -1   3  324.67    8.55
   6  -1  -3  174.03    6.16
   6   1  -3  161.32    6.06
  -6   1   2  296.99    8.45
  -6  -1   2  298.75    8.41
   6   1  -2  289.79    8.42
  -6   1   1    5.81    1.07
  -6  -1   1    6.69    1.14
   6  -1  -1    4.83    0.98
   6   1  -1    7.98    1.21
   6   1   0  216.75    7.74
  -6   1   0  227.90    7.77
   6  -1   0  225.55    7.79
   6  -1   1   99.15    4.54
   6   1   1   95.34    4.51
   6  -1   2   74.36    3.51
   6   1   2   70.11    3.41
   6  -1   3  515.34   14.86
   6   1   3  536.20   15.04
   6  -1   4  568.40   16.11
   6   1   4  583.05   16.27
   6  -1   5   88.64    3.97
   6   1   5    1.41    1.48
  -6   1  -8    2.66    0.98
  -6   1  -9   25.07    2.85
   6  -1  10    0.22    0.80
  -6   1 -10   19.55    2.64
  -6   1 -11    1.52    0.98
   6   1  11    2.20    1.52
   6   1  12    0.69    1.17
   6   1  13    1.54    1.18
   6  -1  14   13.66    2.20
   6   1  14   24.97    3.42
   6  -1  15   32.72    2.27
   6   1  15   26.51    2.77
  -6  -1 -16   15.39    4.54
   6  -1  17    0.97    0.50
  -6   1 -17    0.33    0.92
  -6  -1 -19    1.28    1.98
  -6  -1 -20   -0.66    1.84
   6   2 -22   -0.28    0.61
   6  -2 -21    1.31    0.77
   6   2 -21    2.53    0.87
   6  -2 -20    0.09    0.60
   6   2 -20    0.44    0.61
   6  -2 -19   63.36    3.69
   6   2 -19   59.96    3.53
   6   2 -18   -0.37    1.14
   6  -2 -18    0.17    0.56
   6   2 -18    1.37    0.67
  -6  -2  17   17.99    1.84
   6  -2 -17   17.22    1.81
   6   2 -17   17.65    1.75
  -6   2  16    0.25    0.48
  -6  -2  16    1.03    0.61
   6  -2 -16    0.39    0.43
   6   2 -16    0.37    0.43
   6  -2 -15    0.30    0.36
   6   2 -15    0.42    0.44
  -6  -2  15    0.23    0.51
  -6   2  15    0.32    0.47
  -6   2  15    0.63    2.13
   6  -2 -14    0.07    0.50
   6   2 -14    0.07    0.39
  -6  -2  14   -0.15    0.52
  -6   2  14    0.08    0.46
  -6   2  14    0.60    1.66
   6  -2 -14   -0.65    1.55
  -6  -2  14   -0.60    1.87
  -6   2  13   32.38    2.35
  -6  -2  13   33.54    2.31
   6  -2 -13   28.60    2.13
  -6   2  13   27.40    6.05
   6   2 -13   30.26    2.16
  -6  -2  12   -0.20    0.50
   6  -2 -12   -0.19    0.48
  -6   2  12   -0.14    0.54
   6   2 -12   -0.06    0.41
  -6   2  12    0.54    1.30
   6  -2 -11  125.73    5.03
   6   2 -11  127.64    4.97
  -6   2  10    8.15    1.13
   6  -2 -10    7.38    1.01
   6   2 -10    7.71    1.04
  -6   2   9  134.07   12.21
   6  -2  -9  185.88    6.70
  -6   2   9  375.23   10.07
   6   2  -9  182.16    6.60
  -6  -2   9  372.28    9.89
  -6   2   8    1.16    0.92
  -6  -2   8    1.59    0.97
   6  -2  -8    0.69    0.48
   6   2  -8    0.56    0.44
  -6   2   8   -0.42    1.31
   6  -2  -8   -0.45    1.07
  -6  -2   7   54.75    3.27
   6  -2  -7   28.39    1.88
   6   2  -7   28.08    1.86
  -6   2   7   14.16    3.60
  -6   2   7   56.19    3.39
   6   2  -6   -0.06    0.60
  -6   2   6    0.18    0.74
  -6  -2   6    0.51    0.65
  -6   2   6   -0.36    1.23
   6  -2  -6    0.15    0.37
  -6   2   5  333.55    9.18
  -6  -2   5  315.98    8.95
   6  -2  -5  268.74    8.22
   6   2  -5  178.69    6.70
  -6   2   5  117.16   10.37
  -6   2   4   11.11    1.52
  -6  -2   4    9.90    1.42
   6  -2  -4   11.05    1.11
   6   2  -4    6.29    0.87
  -6   2   3  866.92   16.71
  -6  -2   3  795.85   16.37
   6  -2  -3  461.58   13.66
   6   2  -3  461.06   13.64
  -6   2   3  325.85   17.94
   6  -2  -2    0.52    0.41
  -6   2   2    0.76    0.65
  -6  -2   2    0.61    0.55
  -6   2   2    0.48    0.81
   6   2  -2    0.80    0.34
   6   2  -1    2.36    0.73
   6  -2  -1    1.06    0.42
  -6   2   1    0.37    0.70
   6  -2   0    0.69    0.42
   6   2   0    0.24    0.36
   6   2   1  138.57    4.87
   6  -2   1  136.99    4.81
   6  -2   2    8.69    1.23
   6   2   2    8.45    1.24
   6  -2   3   20.43    1.85
   6   2   3   23.06    2.02
   6  -2   4    4.81    0.98
   6   2   4    3.20    0.87
   6  -2   5   25.17    2.19
   6   2   5   30.42    2.45
  -6  -2  -6   -0.48    1.32
   6   2   6    2.71    2.16
   6  -2   7  287.86    8.08
   6   2   7   43.42    7.32
   6   2   8   -0.46    1.43
   6   2   9    0.42    1.29
   6   2  10    0.35    0.96
   6   2  11   62.14    6.44
   6   2  12   -0.26    0.62
   6  -2  13    0.13    0.56
   6   2  13    0.93    0.82
   6  -2  14    0.47    0.23
   6   2  14    1.05    0.84
   6  -2  15   -0.14    0.46
   6   2  15   -0.15    0.54
   6   2  16    0.08    0.43
   6  -2  16    0.07    0.44
  -6  -2 -16    0.70    2.15
   6  -2  17   34.35    2.37
  -6  -2 -17   28.73    6.85
  -6  -2 -18   -0.74    1.77
  -6  -2 -19    0.76    2.11
  -6  -2 -21    8.09    4.04
   6   3 -21    0.17    0.58
   6  -3 -20    2.04    0.79
   6   3 -20    1.37    0.71
   6  -3 -19    0.75    0.69
   6   3 -19    0.31    0.66
   6  -3 -18   13.78    1.67
   6   3 -18   17.70    1.75
   6  -3 -17   55.42    3.23
   6   3 -17   64.14    3.31
   6  -3 -16   17.92    1.80
   6   3 -16   20.16    1.80
  -6  -3  15    4.17    1.38
   6   3 -15   -0.42    1.74
  -6   3  15    2.05    0.85
   6  -3 -15    4.79    0.98
   6   3 -15    0.92    0.61
  -6   3  14    0.15    0.57
  -6  -3  14   -0.12    0.94
   6  -3 -14    0.07    0.57
   6   3 -14   -0.19    0.55
   6   3 -13    3.46    0.78
  -6   3  13    4.39    0.95
   6  -3 -13    3.23    0.80
   6  -3 -12   37.46    2.46
   6   3 -12   38.99    2.38
  -6   3  12   77.71    4.44
  -6  -3  12   77.99    4.29
   6  -3 -11  103.78    4.53
   6   3 -11  107.70    4.45
  -6   3  11  210.51    7.45
  -6  -3  11  200.80    7.07
  -6  -3  10   70.08    3.85
   6  -3 -10   33.95    2.22
   6   3 -10   36.01    2.17
  -6   3  10   74.21    4.11
   6  -3  -9    6.97    0.94
   6   3  -9    6.17    0.86
  -6   3   8    0.47    0.64
   6  -3  -8    0.20    0.36
  -6  -3   8    0.09    0.54
   6   3  -8    0.33    0.30
  -6   3   7   14.15    1.71
  -6  -3   7   11.60    1.49
   6  -3  -7    7.72    0.91
   6   3  -7    6.82    0.85
  -6   3   6   30.34    2.37
  -6  -3   6   29.19    2.26
   6  -3  -6   14.39    1.25
   6   3  -6   14.71    1.21
   6   3  -5   22.18    1.51
  -6   3   5   40.40    2.68
  -6  -3   5   38.16    2.54
   6  -3  -5   22.66    1.55
   6   3  -4    1.30    0.52
  -6   3   4    1.15    0.66
   6   3  -4   -0.50    1.83
   6  -3  -4    0.50    0.33
   6  -3  -3   69.69    3.03
   6   3  -3   70.50    3.05
   6  -3  -2   24.64    1.59
   6   3  -2   24.81    1.61
   6  -3  -1    1.36    0.51
   6   3  -1    0.52    1.75
   6   3  -1    2.12    0.55
   6  -3  -1   -0.24    0.66
   6  -3   0   11.90    1.11
   6   3   0   13.10    1.15
   6  -3   1   28.52    1.78
   6   3   1   55.40    3.04
   6   3   2    0.46    0.73
   6  -3   2    0.63    0.42
   6   3   3  230.59    7.40
   6  -3   3  228.23    7.14
   6   3   4  174.78    6.19
   6  -3   4  169.98    5.87
   6  -3   5   55.64    3.13
   6   3   5   60.08    3.43
   6  -3   6    1.37    0.69
   6   3   6    1.63    0.83
   6   3   6    0.38    1.17
   6  -3   7    3.72    0.96
   6   3   7    3.82    0.99
   6   3   7    1.41    1.38
   6  -3   8    6.77    1.24
   6   3   8    8.14    1.42
   6  -3   9   86.48    4.26
   6   3   9   26.87    4.24
   6  -3  10   35.58    2.72
   6   3  10    5.01    1.59
   6  -3  11    2.50    0.78
   6   3  11    2.83    1.31
   6  -3  12   -0.40    0.60
   6  -3  12    0.24    0.57
   6  -3  13    4.17    1.32
   6   3  13    6.15    1.03
   6  -3  13    4.56    0.86
   6   3  14    8.60    1.15
   6  -3  14    7.36    1.02
   6   3  15   31.87    2.26
   6  -3  15   30.66    2.12
   6  -3  16    5.34    0.97
  -6  -3 -17    0.84    2.33
  -6  -3 -18   -0.68    1.63
  -6  -3 -18    0.86    2.07
  -6  -3 -20   -0.68    2.32
   6   4 -16    0.89    0.48
   6   4 -15    0.17    0.41
   6   4 -14    1.14    1.31
   6  -4 -14    1.53    0.64
   6   4 -14    1.24    0.52
   6  -4 -14    0.74    2.05
  -6   4  13    1.32    0.94
   6   4 -13    0.31    1.13
   6  -4 -13    0.77    0.52
   6   4 -13    0.88    0.47
   6  -4 -13   -0.71    2.19
  -6   4  12    2.08    1.07
   6   4 -12    1.30    1.74
   6  -4 -12    1.13    0.57
   6   4 -12    1.13    0.46
  -6   4  11    1.86    0.99
   6   4 -11    1.03    1.50
   6  -4 -11    0.16    0.42
   6   4 -11    0.49    0.39
   6  -4 -10   54.12    2.72
   6   4 -10   57.00    2.58
   6   4  -9    2.22    1.92
   6  -4  -9    3.91    0.75
   6   4  -9    4.17    0.71
   6   4  -8    0.30    0.41
  -6   4   8    0.57    0.95
   6   4  -8    0.39    1.31
   6  -4  -8    0.54    1.06
   6  -4  -8    0.49    0.44
   6   4  -7    1.85    0.53
  -6   4   7    3.41    1.07
   6   4  -7    1.18    1.63
   6  -4  -7    1.01    1.56
   6  -4  -7    1.52    0.54
   6  -4  -6   -0.08    0.41
   6   4  -6   -0.13    0.44
  -6   4   6   -0.50    0.91
   6   4  -6    0.39    1.32
   6  -4  -6   -0.47    1.13
   6  -4  -5    0.68    0.36
   6   4  -5    0.57    0.37
   6   4  -5    0.79    1.23
   6  -4  -4  112.92    3.78
   6   4  -4  124.09    3.75
   6  -4  -3    5.01    0.64
   6   4  -3    5.12    0.62
   6   4  -2   21.66    1.21
   6  -4  -2   21.43    1.21
   6   4  -1    0.13    0.66
   6  -4  -1   -0.14    0.28
   6   4   0    2.14    0.47
   6  -4   0    1.71    0.39
   6  -4   1    0.91    0.29
   6  -4   1    0.55    0.72
   6   4   1    0.63    0.35
   6  -4   2  103.26    3.81
   6   4   2   50.50    2.40
   6  -4   3    1.23    0.38
  -6  -4  -3    0.70    1.69
   6   4   3    1.32    0.45
   6   4   4    0.76    0.63
  -6  -4  -4    0.71    1.40
   6  -4   4    0.41    0.29
   6   4   5   -0.07    0.63
   6  -4   5    0.20    0.28
   6  -4   6    2.09    0.51
   6   4   6    3.29    0.98
   6  -4   6    2.67    1.15
   6   4   7    5.85    1.20
   6   4   7    2.57    0.63
   6  -4   7    1.89    1.11
   6  -4   7    7.36    1.16
   6   4   8   35.91    2.10
   6   4   8   75.77    3.89
   6  -4   8   28.15    3.85
   6  -4   8   70.39    3.33
   6  -4   9   -0.52    0.62
   6   4   9    0.09    0.71
   6  -4   9   -0.25    1.02
   6   4   9   -0.14    0.40
   6  -4  10   32.64    2.43
   6   4  10   34.97    2.78
   6   4  10   14.94    1.38
   6  -4  10   11.26    2.97
   6   4  11    3.42    1.18
   6   4  11    1.43    0.57
   6   4  12   19.68    2.28
   6   4  12   11.55    1.29
   6   4  13    0.35    0.46
   6   4  14    2.67    0.72
  -6  -5   9   -0.67    1.60
   6  -5  -3    2.07    1.48
   6  -5  -2    5.20    2.25
   6  -5  -1   -0.34    1.33
   6  -5   0    8.92    3.09
   6  -5   1   -0.37    1.37
   6  -5   2    2.77    2.05
   6  -5   3    4.86    2.31
   6  -5   4   15.67    4.09
   6  -5   5    0.43    1.68
   6  -5   6   -0.48    1.75
   7   0 -16   -0.16    0.56
  -7   0  16   -0.18    0.57
  -7   0  15   26.58    2.26
   7   0 -15   26.67    2.18
   7   0 -14   -0.08    0.39
  -7   0  14   -0.16    0.45
  -7   0  13  104.78    4.58
   7   0 -13   86.90    4.18
   7   0 -12    0.07    0.35
  -7   0  12   -0.15    0.52
  -7   0  11   32.66    2.29
   7   0 -11   30.31    2.15
  -7   0  10    0.07    0.45
   7   0 -10    0.06    0.33
   7   0  -9  110.51    4.81
  -7   0   9  237.29    7.91
   7   0  -8   -0.10    0.58
  -7   0   8   -0.43    0.74
   7   0  -7  186.71    7.13
  -7   0   7  382.30   10.28
  -7   0   6    0.10    0.67
  -7   0   5  597.74   13.60
   7   0  -5  304.88   10.29
  -7   0   4    0.47    0.52
   7   0  -4    0.06    0.24
  -7   0   3   32.72    2.53
   7   0  -3   16.34    1.46
   7   0  -2    0.09    0.37
  -7   0   2    0.36    0.43
  -7   0   1  275.84    9.28
   7   0  -1  269.54    9.30
   7   0   0    8.67    1.30
   7   0   1  316.13   10.45
   7   0   2    0.09    0.26
   7   0   3   68.97    3.96
   7   0   4    0.39    0.45
   7   0   5  115.92    5.53
   7   0  10    0.32    0.62
   7   0  12    0.31    0.85
  -7   0 -13  222.35   14.04
   7   0  14    0.30    1.01
  -7   0 -14    0.81    1.49
   7   0  15    2.73    1.49
  -7   0 -15    2.13    1.67
   7   0  16    0.17    0.57
  -7   0 -16    0.45    1.07
   7   0  17    8.26    1.39
  -7   0 -19    0.51    1.58
   7  -1 -21   19.42    2.11
   7   1 -21   17.30    1.99
   7  -1 -20   10.77    1.55
   7   1 -20    9.39    1.47
   7  -1 -19    0.56    0.62
   7   1 -19    0.63    0.60
   7  -1 -18   16.07    1.81
   7   1 -18   15.08    1.76
   7  -1 -17    6.45    1.14
   7   1 -17    7.21    1.21
   7  -1 -16    1.98    0.74
   7   1 -16    2.18    0.78
  -7   1  16    1.94    0.84
  -7  -1  16    1.38    0.76
  -7   1  15   35.64    2.65
  -7  -1  15   32.29    2.51
   7  -1 -15   32.65    2.46
   7   1 -15   30.56    2.38
  -7   1  14    8.64    1.38
  -7  -1  14    8.43    1.30
   7  -1 -14    7.30    1.17
   7   1 -14    7.43    1.19
  -7   1  14    5.97    3.09
  -7   1  13   39.12    2.66
  -7  -1  13   36.86    2.56
   7  -1 -13   36.94    2.50
   7   1 -13   33.26    2.37
  -7   1  12  100.42    4.44
  -7  -1  12  103.98    4.46
   7  -1 -12   93.36    4.19
   7   1 -12   95.97    4.22
  -7   1  11  109.41    4.62
  -7  -1  11  109.79    4.56
   7  -1 -11   99.87    4.38
   7   1 -11  101.39    4.32
   7   1 -10   21.12    1.78
  -7   1  10   25.48    2.00
  -7   1  10   46.13    3.41
  -7  -1  10   50.01    3.51
   7  -1 -10   21.38    1.79
  -7   1   9    5.37    1.28
  -7  -1   9    5.18    1.25
   7  -1  -9    2.77    0.66
   7   1  -9    2.61    0.66
   7   1  -8    6.09    1.20
  -7   1   8    4.73    1.16
  -7  -1   8    6.26    1.27
   7  -1  -8    3.02    0.74
   7  -1  -7   35.85    2.44
   7   1  -7   33.96    2.31
  -7   1   7   65.69    3.89
  -7  -1   7   64.92    3.84
  -7   1   6  182.32    6.62
  -7  -1   6  185.46    6.66
   7  -1  -6   91.87    4.26
   7   1  -6   94.78    4.27
  -7   1   5   67.25    3.76
  -7  -1   5   65.45    3.75
   7  -1  -5   33.29    2.22
   7   1  -5   34.04    2.23
  -7   1   4   11.37    1.57
  -7  -1   4   13.19    1.66
   7  -1  -4    5.87    0.87
   7   1  -4    6.40    0.91
   7  -1  -3    1.53    0.48
  -7   1   3    3.03    0.89
   7   1  -3    2.20    0.57
  -7   1   2   98.62    4.52
  -7  -1   2   99.83    4.60
   7   1  -2   87.16    4.40
  -7  -1   1  576.61   16.26
   7  -1  -1  544.23   16.20
   7   1  -1  548.49   16.23
   7   1   0  317.96   10.46
   7  -1   0  315.28   10.41
   7  -1   1   81.72    4.37
   7   1   1   89.12    4.55
   7  -1   2    4.30    0.93
   7   1   2    3.43    0.94
   7  -1   3   98.05    4.89
   7   1   3  100.03    4.97
   7  -1   4    0.58    0.54
   7   1   4    0.60    0.55
   7  -1   5  179.70    7.35
   7   1   5  193.89    7.58
   7  -1   6  172.71    7.18
   7   1   6  177.45    7.32
   7   1   9    4.01    2.10
  -7   1  -9   71.13    4.88
   7   1  10    2.01    1.58
  -7   1 -10   13.13    2.27
   7  -1  11    0.77    0.94
  -7   1 -11    0.19    0.60
  -7   1 -12    2.12    1.17
   7  -1  13    1.35    0.98
   7   1  13   13.50    3.60
   7   1  14   15.37    3.26
   7   1  15   26.31    3.74
   7  -1  15    9.87    2.08
   7  -1  16    6.69    1.29
   7   1  16    6.43    1.49
  -7  -1 -17   -0.42    0.82
  -7  -1 -17   -0.60    2.04
  -7  -1 -18    2.50    2.73
  -7   1 -18   -0.34    1.04
  -7  -1 -20   12.01    4.62
  -7  -1 -21    7.57    3.69
  -7  -1 -23    0.73    2.01
   7   2 -21   -0.09    0.71
   7  -2 -20   30.72    2.62
   7   2 -20   31.70    2.63
   7  -2 -19    2.03    0.82
   7   2 -19    1.92    0.82
   7  -2 -18   45.72    3.12
   7   2 -18   51.50    3.21
   7   2 -17    0.16    0.50
   7  -2 -17    0.34    0.57
   7  -2 -16   -0.16    0.51
   7   2 -16   -0.16    0.53
  -7  -2  16   -0.08    0.61
   7  -2 -16    0.73    1.43
   7  -2 -15   -0.08    0.48
   7   2 -15   -0.07    0.47
  -7  -2  15   -0.08    0.47
  -7   2  15    0.17    0.52
  -7   2  14   67.36    3.67
   7  -2 -14   59.51    3.37
   7   2 -14   60.60    3.31
  -7  -2  13   -0.25    0.93
   7  -2 -13    0.22    0.45
   7   2 -13    0.14    0.43
  -7   2  13    0.94    0.55
  -7   2  13    0.59    1.63
  -7   2  12   14.03    1.56
  -7   2  12   12.31    4.03
   7  -2 -12   11.48    1.35
   7   2 -12   11.00    1.31
  -7   2  11    0.36    0.90
  -7  -2  11    0.35    1.06
   7  -2 -11    0.33    0.34
   7   2 -11   -0.19    0.55
  -7   2  11    1.59    1.94
   7  -2 -10    7.85    1.07
   7  -2 -10   -0.53    1.05
   7   2 -10    6.54    0.98
  -7   2  10   13.22    1.98
  -7  -2  10   16.94    2.06
  -7   2   9    2.56    1.18
  -7  -2   9    1.29    0.98
   7  -2  -9    1.41    0.63
   7   2  -9    0.94    0.47
  -7   2   9    0.94    1.84
   7  -2  -8  191.53    6.98
  -7  -2   8  372.70   10.27
   7   2  -8  186.15    6.89
  -7   2   8  376.90   10.40
   7   2  -7    5.73    1.23
  -7   2   7    6.99    1.45
  -7  -2   7    7.42    1.46
  -7   2   7    4.12    2.13
   7  -2  -7    3.73    0.79
   7  -2  -6    2.28    0.90
  -7   2   6    3.17    1.04
  -7  -2   6    2.04    0.94
   7   2  -6    1.61    0.55
  -7   2   6    1.15    1.40
   7  -2  -5    2.97    0.69
  -7   2   5    3.83    1.05
  -7  -2   5    4.24    1.11
   7   2  -5    3.13    0.70
  -7   2   5    1.41    1.46
  -7   2   4  319.14    8.86
  -7  -2   4  305.23    8.64
   7  -2  -4  166.44    6.14
   7   2  -4  167.14    6.14
  -7   2   4   98.25    9.10
   7  -2  -3    2.69    0.67
  -7   2   3    4.44    1.15
  -7  -2   3    4.78    1.15
   7   2  -3    3.55    0.72
  -7   2   3    2.32    1.45
   7  -2  -2   38.74    2.29
   7   2  -2   37.88    2.28
   7   2  -1    1.30    0.74
  -7  -2   1    0.49    1.17
   7  -2  -1    0.59    0.37
  -7   2   1    0.67    0.76
   7  -2   0    1.90    0.66
   7   2   0    1.30    0.75
   7  -2   1    3.07    0.84
   7   2   1    2.61    0.87
  -7   2  -1    1.22    0.84
   7  -2   2  250.31    8.80
   7   2   2  254.78    9.00
   7  -2   3    3.98    0.97
   7   2   3    4.54    1.05
   7  -2   4   28.65    2.45
   7   2   4   24.93    2.36
   7  -2   5   -0.10    0.62
   7   2   5    0.10    0.60
   7   2   5   -0.48    1.16
   7  -2   6  329.37   11.03
   7   2   6  335.82   11.27
   7  -2   7    8.00    1.44
   7   2   7    9.04    1.58
   7  -2   8  225.35    7.36
   7   2   8   20.84    5.26
  -7  -2 -10    1.07    1.66
   7   2  10   -0.49    1.93
  -7  -2 -11   -0.54    1.49
   7   2  11    1.21    1.58
   7   2  12   30.77    4.76
  -7  -2 -12    0.55    1.31
  -7  -2 -13    0.55    1.70
   7   2  13    1.81    1.32
   7   2  14   14.84    2.83
  -7  -2 -14   -0.55    1.53
   7  -2  15    0.16    0.39
   7   2  15   -0.19    0.65
  -7  -2 -17   -0.73    2.03
  -7  -2 -18   -0.75    2.08
  -7  -2 -19   -0.77    1.85
  -7  -2 -20    1.59    2.46
   7   3 -20    4.31    1.00
   7  -3 -19    0.27    0.64
   7   3 -19    0.24    0.64
   7  -3 -18    7.39    1.31
   7   3 -18    7.01    1.23
   7  -3 -17    1.90    0.88
   7   3 -17    1.29    0.72
   7  -3 -16    2.47    0.81
   7   3 -16    2.41    0.87
   7  -3 -15    6.96    1.17
   7   3 -15    8.49    1.23
   7   3 -14    6.06    1.04
  -7   3  14   13.99    2.22
  -7  -3  14   12.74    2.07
   7  -3 -14    0.70    1.69
   7  -3 -14    7.05    1.15
   7  -3 -13    5.49    1.02
   7   3 -13    5.36    0.95
  -7   3  13   10.99    2.00
  -7  -3  13    9.84    1.89
  -7  -3  12  109.62    5.37
   7  -3 -12   55.11    3.17
   7   3 -12   63.40    3.26
  -7   3  12  116.76    5.64
  -7  -3  11   28.94    2.74
   7  -3 -11   15.92    1.56
   7   3 -11   15.35    1.49
  -7   3  11   33.67    2.99
   7  -3 -10    3.33    0.79
  -7   3  10    6.63    1.54
  -7  -3  10    6.15    1.36
   7   3 -10    3.20    0.76
  -7   3   9    0.54    0.80
   7  -3  -9    0.77    0.47
  -7  -3   9    0.51    0.73
   7   3  -9    0.88    0.47
  -7   3   8    1.13    0.77
  -7  -3   8    0.20    0.68
   7  -3  -8    0.28    0.42
   7   3  -8    0.42    0.38
   7  -3  -8   -0.50    1.37
  -7   3   7   55.01    3.44
  -7  -3   7   55.94    3.41
   7  -3  -7   28.27    1.94
   7   3  -7   30.17    1.95
   7   3  -6   59.84    2.91
  -7   3   6  117.94    5.04
  -7  -3   6  108.64    4.74
   7  -3  -6   58.16    2.95
   7   3  -5   50.04    3.43
  -7   3   5   47.35    3.09
  -7  -3   5   40.22    2.82
   7   3  -4    0.59    0.43
  -7   3   4    1.24    0.68
   7  -3  -4    1.97    0.54
   7  -3  -3   -0.06    0.40
   7   3  -3    0.21    0.36
   7  -3  -2   37.08    2.16
   7   3  -2   36.98    2.15
   7  -3  -1   76.04    3.14
   7   3  -1   75.73    3.16
   7  -3   0  151.10    5.21
   7   3   0  155.97    5.28
   7  -3   1    8.94    1.06
   7   3   1   23.96    2.16
   7  -3   2   11.19    1.17
   7   3   2   23.56    2.19
   7   3   3   11.51    1.62
   7  -3   3   16.92    1.80
   7  -3   4   -0.09    0.64
   7   3   4    0.48    0.72
   7   3   4   -0.58    1.97
   7  -3   5   38.66    2.79
   7   3   5   39.75    2.95
   7  -3   6   84.30    4.22
   7   3   6   88.87    4.53
   7  -3   7    0.87    0.74
   7   3   7    1.60    0.88
   7   3   7    0.87    1.60
   7  -3   8   36.89    2.81
   7   3   8   33.91    2.87
   7  -3   9   43.74    3.16
   7   3   9   45.54    3.40
   7  -3  10   35.27    2.94
   7  -3  11    1.15    0.79
   7  -3  12    1.92    1.05
   7  -3  14   29.80    2.13
   7  -3  15   15.88    1.58
  -7  -3 -19    0.70    2.37
   7   4 -15    5.41    0.90
   7   4 -14    1.32    0.55
  -7   4  13   49.64    3.65
   7   4 -13   26.90    1.90
  -7   4  12   -0.34    0.98
   7  -4 -12    0.06    0.45
   7   4 -12    0.21    0.43
  -7   4  11    2.34    1.05
   7  -4 -11    1.16    0.57
   7   4 -11    1.50    0.56
   7   4 -10    0.24    0.41
  -7   4  10    0.61    0.88
   7  -4 -10   -0.06    0.45
   7  -4  -9    7.29    1.01
   7   4  -9    6.86    0.92
  -7   4   8   10.31    1.67
   7  -4  -8    7.37    1.00
   7   4  -8    7.58    0.93
   7  -4  -7   43.04    2.32
   7   4  -7   44.97    2.26
   7  -4  -6    0.18    0.44
   7   4  -6    0.24    0.42
   7  -4  -5   25.44    1.62
   7   4  -5   27.56    1.62
   7  -4  -4    3.13    0.63
   7   4  -4    3.31    0.61
   7  -4  -3    1.05    0.43
   7   4  -3    0.61    0.40
   7   4  -2    4.01    0.80
   7  -4  -2    3.93    0.64
   7   4  -1    5.01    0.76
   7  -4  -1    4.47    0.65
   7   4   0    0.65    0.45
   7  -4   0    1.18    0.41
   7  -4   1  111.60    4.54
   7   4   1   56.00    2.71
   7   4   2    0.41    0.37
   7  -4   2    0.80    0.42
  -7  -4  -2    0.73    1.74
   7  -4   3   10.61    0.98
   7   4   3   11.28    1.10
   7   4   4   -0.08    0.73
   7  -4   4    0.04    0.37
  -7  -4  -4   -0.74    1.78
   7  -4   5   11.84    1.10
   7   4   5   20.45    2.02
   7   4   6   11.62    1.65
   7  -4   6    6.05    0.86
   7   4   7  149.13    6.40
   7  -4   7  151.19    5.95
   7  -4   8    1.40    0.90
   7   4   8    1.10    0.85
   7  -4   8    0.33    0.69
   7   4   9    2.32    1.08
   7   4   9    0.28    0.46
   7  -4   9    0.98    0.91
   7   4  10    2.21    1.12
   7   4  10    1.28    0.55
   7   4  11    2.09    1.09
   7   4  11    1.00    0.50
   7   4  12    5.00    1.40
   7   4  12    2.05    0.65
   7   4  13   44.85    3.59
   7   4  13   19.53    1.76
   7   4  14    0.27    1.20
   7  -5   0    5.22    1.95
   7  -5   1    3.00    1.46
   7  -5   2    0.89    1.23
   7  -5   3    3.29    2.04
   7  -5   4    0.36    1.33
   7  -5   5    6.00    2.70
   8   0 -16   11.00    1.49
   8   0 -15    0.25    0.45
  -8   0  14   60.39    3.50
   8   0 -14   55.05    3.31
  -8   0  13    0.33    0.51
   8   0 -13    0.08    0.42
  -8   0  12   37.98    3.35
   8   0 -12   16.70    1.69
  -8   0  11   -0.13    0.86
   8   0 -11   -0.07    0.44
   8   0 -10   51.33    3.05
  -8   0  10  107.97    5.46
   8   0  -9    0.33    0.50
  -8   0   9    0.12    0.81
   8   0  -8  386.73   12.98
  -8   0   8  743.40   16.94
  -8   0   7   -0.23    1.04
   8   0  -7    0.07    0.43
  -8   0   6    0.11    0.69
   8   0  -6    0.07    0.41
   8   0  -5   -0.07    0.37
  -8   0   5    0.11    0.72
  -8   0   4  211.43    7.30
   8   0  -4  100.74    4.60
   8   0  -3    0.06    0.27
  -8   0   3    0.63    0.74
  -8   0   2 1358.51   33.03
   8   0  -2 1207.50   32.73
   8   0  -1    0.97    0.61
  -8   0   1    0.41    0.69
   8   0   0   10.39    1.56
   8   0   1    0.43    0.49
   8   0   2   45.55    3.37
   8   0   3   -0.11    0.53
   8   0   4    4.82    1.13
   8   0   5    0.69    0.59
   8   0   6  339.37    9.00
   8   0   6    1.15    1.42
   8   0   7   -0.12    0.71
   8   0   8   -0.37    0.73
  -8   0 -14   35.88    5.74
  -8   0 -15   -0.43    1.20
   8   0  16   -0.26    0.89
  -8   0 -16    0.45    1.40
   8   0  17    0.18    0.61
  -8   0 -17   -0.47    1.30
  -8   0 -18    7.83    3.18
   8  -1 -20    5.60    1.25
   8   1 -20    7.92    1.41
   8  -1 -19   -0.10    0.63
   8   1 -19   -0.09    0.60
   8  -1 -18    0.19    0.52
   8   1 -18    0.09    0.59
   8  -1 -17   19.60    2.02
   8   1 -17   16.88    1.88
   8  -1 -16   63.79    3.67
   8   1 -16   60.41    3.57
   8  -1 -15   50.03    3.18
   8   1 -15   54.55    3.29
  -8   1  14   13.49    1.65
   8  -1 -14   10.69    1.41
   8   1 -14   10.79    1.43
  -8   1  13   12.08    1.56
  -8   1  13    6.57    3.32
   8  -1 -13   11.56    1.47
   8   1 -13   12.10    1.45
  -8   1  13   22.23    2.64
  -8  -1  13   24.25    2.77
  -8   1  12    4.56    2.74
   8  -1 -12    9.49    1.28
  -8   1  12   21.72    2.58
   8   1 -12    8.42    1.22
  -8  -1  12   17.92    2.40
  -8   1  11   40.97    3.41
  -8  -1  11   36.28    3.23
   8  -1 -11   19.09    1.82
   8   1 -11   18.53    1.76
   8  -1 -10   98.90    4.57
   8   1 -10   91.66    4.43
  -8   1  10  202.16    7.68
  -8  -1  10  192.79    7.52
   8  -1  -9   60.34    3.54
   8   1  -9   84.14    4.15
  -8   1   9  156.44    6.56
  -8  -1   9  159.81    6.57
  -8  -1   8   33.57    2.95
   8  -1  -8   36.03    3.45
  -8   1   8   35.56    3.03
  -8   1   7   44.08    3.30
  -8  -1   7   40.64    3.15
   8  -1  -7   21.60    1.88
   8   1  -7   20.83    1.85
  -8   1   6  108.83    5.17
  -8  -1   6  105.38    5.09
   8  -1  -6   51.85    3.07
   8   1  -6   48.17    2.95
  -8   1   5   14.53    1.87
  -8  -1   5   16.83    2.01
   8  -1  -5    7.83    1.08
   8   1  -5    7.43    1.06
  -8   1   4    5.83    1.28
  -8  -1   4    5.39    1.19
   8  -1  -4    2.77    0.68
   8   1  -4    3.34    0.75
  -8   1   3   16.14    1.92
  -8  -1   3   18.32    2.05
   8  -1  -3    7.76    1.08
   8   1  -3    7.75    1.07
  -8   1   2  264.76    7.48
  -8  -1   2  265.35    7.49
  -8   1   1  479.13   14.16
   8  -1  -1  441.99   14.04
   8   1  -1  440.02   14.06
   8  -1   0  143.23    5.58
   8   1   0  142.58    5.64
   8  -1   1   10.33    1.62
   8   1   1   10.68    1.64
   8  -1   2    0.97    0.70
   8   1   2    0.65    0.60
   8  -1   3   48.49    3.51
   8   1   3   52.02    3.67
   8  -1   4  451.18   14.28
   8   1   4  454.65   14.35
   8  -1   5  529.84   16.20
   8   1   5  533.30   16.28
   8  -1   6  304.42   11.00
   8   1   6  324.37   11.27
   8  -1   7   32.88    2.96
   8   1   7   33.09    3.04
   8  -1   8    3.33    1.17
   8   1   8    0.44    1.06
   8   1   9    0.44    1.50
  -8   1 -10    1.15    0.92
  -8   1 -11    9.09    2.08
  -8   1 -12    0.21    0.66
  -8   1 -13    7.36    2.02
   8  -1  14    0.52    0.71
   8   1  14    8.61    2.98
   8   1  15    4.47    1.98
   8  -1  16   -0.21    0.86
   8   1  16    1.03    1.18
  -8  -1 -16    1.19    1.65
   8   1  17    0.33    0.55
  -8  -1 -17    0.61    2.08
  -8  -1 -19   14.34    4.86
  -8  -1 -20    8.71    3.94
  -8  -1 -21    2.76    2.69
   8   2 -20   -0.09    0.74
   8  -2 -19    6.14    1.26
   8   2 -19    5.94    1.28
   8   2 -18    0.18    0.60
   8  -2 -18    0.09    0.61
   8  -2 -17   19.99    2.04
   8   2 -17   17.97    1.91
   8  -2 -16   -0.35    0.61
   8   2 -16    0.08    0.55
   8  -2 -15   10.52    1.43
   8   2 -15   10.45    1.44
  -8  -2  14    2.52    1.24
   8  -2 -14    1.77    0.72
   8   2 -14    2.00    0.70
   8  -2 -13   28.71    2.33
   8   2 -13   30.40    2.33
  -8   2  13   56.82    4.15
  -8  -2  13   59.75    4.26
  -8   2  12    1.89    1.04
  -8  -2  12    1.44    1.02
   8  -2 -12    0.22    0.43
   8   2 -12    0.57    0.50
  -8   2  11    1.69    1.03
  -8  -2  11    2.02    1.08
   8  -2 -11    1.80    0.65
   8   2 -11    1.11    0.58
  -8   2  11    0.55    1.70
  -8   2  10    1.88    1.17
  -8  -2  10    1.22    1.07
   8  -2 -10    0.70    0.54
   8   2 -10    0.94    0.54
  -8   2  10    1.56    2.50
  -8   2   9  469.61   12.34
  -8  -2   9  453.61   12.07
   8   2  -9  226.10    8.08
  -8   2   9  147.49   13.77
   8  -2  -9  223.79    8.10
   8   2  -8    3.42    0.85
  -8   2   8    5.74    1.54
  -8  -2   8    5.16    1.47
   8  -2  -8    3.24    0.81
  -8   2   7  168.46    6.72
  -8  -2   7  159.30    6.52
   8  -2  -7   91.82    4.39
   8   2  -7   84.72    4.21
   8  -2  -6    3.09    0.78
  -8   2   6    4.08    1.27
  -8  -2   6    5.54    1.36
   8   2  -6    3.09    0.79
   8  -2  -5    6.95    1.05
  -8   2   5    8.26    1.55
  -8  -2   5    7.96    1.51
   8   2  -5    4.99    0.93
   8   2  -4    1.55    0.64
  -8   2   4    2.10    1.12
  -8  -2   4    2.40    1.01
   8  -2  -4    0.72    0.64
  -8   2   4    0.34    1.42
  -8   2   3  651.50   14.25
  -8  -2   3  625.40   14.06
   8  -2  -3  328.87   10.51
   8   2  -3  322.37   10.45
  -8   2   3  165.46   13.16
   8  -2  -2   22.16    1.83
   8   2  -2   21.98    1.81
   8  -2  -1  138.82    5.66
   8   2  -1  268.10    8.48
   8  -2   0    2.53    0.67
  -8   2   0    2.77    1.29
   8  -2   0    7.81    1.38
   8   2   0    7.67    1.36
   8  -2   1   91.08    4.65
   8   2   1   97.99    4.84
   8  -2   2    0.84    0.62
   8   2   2    0.11    0.64
  -8  -2  -2    0.55    1.31
   8   2   2   -0.51    1.42
  -8   2  -2    0.14    0.56
   8  -2   3    2.86    0.95
   8   2   3    2.75    0.98
   8  -2   4    0.43    0.65
   8   2   4    1.12    0.79
   8  -2   5   65.21    3.92
   8   2   5   72.61    4.18
   8  -2   6    0.68    0.77
   8   2   6    0.83    0.77
   8   2   6    0.53    1.26
   8  -2   7  265.03    9.81
   8   2   7  257.72    9.88
   8  -2   8    0.12    0.83
   8   2   8    0.13    0.82
   8   2   8   -1.06    1.47
   8  -2   9    0.87    0.73
   8   2   9    0.54    1.28
   8  -2  10    0.26    0.78
   8   2  11   39.27    6.82
   8   2  12    0.43    1.46
   8   2  13   47.86    6.39
   8   2  14    1.30    1.55
   8   2  15   -0.51    0.93
   8   2  16   -0.20    0.68
  -8  -2 -18    0.77    1.84
  -8  -2 -19    2.35    3.07
  -8  -2 -20    0.80    1.92
   8   3 -19   -0.09    0.51
   8  -3 -18    0.99    0.72
   8   3 -18    0.33    0.62
   8  -3 -17   10.66    1.53
   8   3 -17   10.73    1.48
   8  -3 -16   16.17    1.80
   8   3 -16   16.26    1.72
   8   3 -15    3.11    2.19
   8  -3 -15   33.78    2.45
   8   3 -15   34.96    2.43
   8  -3 -15    2.24    2.76
   8  -3 -14    2.73    0.88
   8   3 -14    2.82    0.86
   8  -3 -13    1.58    0.74
   8   3 -13    1.88    0.71
  -8   3  13    3.53    1.44
  -8  -3  13    3.86    1.38
   8  -3 -12    0.22    0.62
   8   3 -12    0.27    0.60
  -8   3  12    0.79    1.01
  -8  -3  12    0.75    1.09
   8  -3 -11    4.32    0.95
  -8   3  11    6.31    1.59
  -8  -3  11    6.00    1.52
   8   3 -11    5.54    0.98
  -8   3  10   23.72    2.60
  -8  -3  10   25.08    2.60
   8  -3 -10   13.69    1.46
   8   3 -10   10.84    1.29
   8  -3 -10    1.15    1.80
  -8   3   9   92.19    4.87
  -8  -3   9   83.97    4.63
   8  -3  -9   46.31    2.79
   8   3  -9   47.85    2.76
  -8   3   8    6.11    1.44
  -8  -3   8    5.67    1.41
   8  -3  -8    1.93    0.66
   8   3  -8    1.60    0.58
   8   3  -7   13.49    1.32
  -8   3   7   25.17    2.47
  -8  -3   7   26.06    2.48
   8   3  -7    0.57    1.78
   8  -3  -7   12.00    1.30
   8  -3  -6    7.41    1.02
   8   3  -6    8.94    1.20
  -8   3   6   18.02    2.10
  -8  -3   6   14.15    1.90
   8   3  -6    0.57    1.38
   8   3  -5    4.86    0.89
   8  -3  -5    4.61    0.80
   8  -3  -4    3.66    1.04
  -8   3   4    3.21    1.00
   8   3  -4    1.84    0.62
   8  -3  -3   16.07    1.49
   8   3  -3   15.47    1.44
   8  -3  -2   26.07    1.90
   8   3  -2   26.93    1.93
   8  -3  -1  102.68    4.20
   8   3  -1  102.92    4.21
   8  -3   0   48.85    2.65
   8   3   0   49.35    2.68
   8  -3   1    3.43    0.72
   8   3   1    9.15    1.56
   8   3   2    7.40    1.42
   8  -3   2    3.97    0.79
   8  -3   3   23.28    2.26
   8   3   3   23.15    2.34
   8   3   4   51.92    3.64
   8  -3   4   54.77    3.56
   8   3   5  310.27    9.78
   8  -3   5  297.57    9.33
   8  -3   6   59.77    3.84
   8   3   6   59.10    3.97
   8  -3   7    5.01    1.21
   8   3   7    3.21    1.22
   8  -3   8    0.67    0.84
   8   3   8    0.61    0.83
   8  -3   9    1.74    0.97
   8   3   9    3.83    1.27
   8  -3  10    1.81    1.00
   8   3  10    1.99    1.08
  -8  -3 -10   -0.70    2.35
   8  -3  11    9.63    1.74
   8   3  11   10.58    1.92
   8  -3  12    0.13    0.90
  -8  -3 -12    0.71    1.38
   8  -3  13   13.62    2.13
  -8  -3 -13    0.71    1.70
   8  -3  14   16.10    2.38
  -8  -3 -14   -0.71    1.71
   8   4 -14   14.86    1.49
   8   4 -13    0.48    0.53
   8   4 -12    0.99    0.51
   8   4 -11    0.06    0.44
  -8   4  11   -0.35    1.15
   8  -4 -10   15.66    1.51
   8   4 -10   16.18    1.44
   8  -4  -9    2.61    0.73
   8   4  -9    1.82    0.63
  -8   4   9    3.60    1.22
   8  -4  -8   68.37    3.31
   8   4  -8   74.53    3.27
   8  -4  -7    0.69    0.55
   8   4  -7    0.39    0.50
  -8   4   7    0.97    1.03
   8  -4  -6    1.18    0.54
   8   4  -6    1.96    0.57
   8  -4  -6    0.90    1.52
   8  -4  -5    0.15    0.41
   8   4  -5    0.05    0.45
   8   4  -4    6.55    0.90
   8  -4  -4    5.85    0.87
   8  -4  -3    2.31    0.63
   8   4  -3    3.27    0.78
   8   4  -2   81.10    3.34
   8  -4  -2   68.82    3.00
   8   4  -1    2.73    0.62
   8  -4  -1    1.85    0.59
   8  -4   0    0.15    0.81
   8   4   0    0.68    0.49
   8  -4   1    0.15    0.36
   8   4   1    0.37    0.43
   8   4   2    3.30    0.75
   8  -4   2    2.19    0.59
   8  -4   3    0.05    0.37
   8   4   3   -0.06    0.40
   8   4   4    0.10    0.65
   8  -4   4   -0.05    0.38
   8  -4   5    0.51    0.43
   8   4   5    0.90    0.81
   8   4   6   78.99    4.45
   8   4   7   -0.11    0.85
   8   4   8   22.43    2.43
   8   4   9   -0.12    0.89
  -8  -4  -9    0.81    1.95
   8   4  10    2.66    1.17
   8   4  11    5.55    1.49
   8   4  11    2.57    0.73
   8   4  12  109.06    5.98
   8   4  13    0.55    1.10
   8   4  14    7.38    1.80
   8   4  15    0.15    1.08
   8   4  16   -0.31    1.01
   8  -5   3    0.73    1.35
   8  -5   4   10.89    2.63
   9   0 -15    4.08    0.99
   9   0 -14   -0.60    0.63
   9   0 -13    7.83    1.25
  -9   0  13   18.38    2.51
  -9   0  12   -0.14    0.83
   9   0 -12   -0.40    0.47
   9   0 -11    4.30    0.93
  -9   0  11   -0.59    1.16
  -9   0  10    0.68    0.86
   9   0 -10    0.08    0.40
  -9   0   9  290.21   11.04
   9   0  -9  299.64   12.07
  -9   0   8   -0.13    0.91
   9   0  -8    0.16    0.46
  -9   0   7   40.76    3.34
   9   0  -7   18.77    1.83
  -9   0   6   -0.12    0.82
   9   0  -6   -0.15    0.46
  -9   0   5  138.80    6.18
   9   0  -5   69.78    3.78
  -9   0   4    1.18    1.02
   9   0  -4    0.22    0.40
  -9   0   3 1685.08   29.25
   9   0  -3  758.72   23.82
  -9   0   2    1.04    0.96
   9   0  -2    0.07    0.33
   9   0  -1  107.75    5.71
   9   0   0    0.24    0.47
   9   0   1    0.24    0.71
   9   0   2    0.61    0.61
   9   0   3  372.58   12.81
   9   0   4    0.25    0.63
   9   0   5    8.33    1.59
   9   0   6   -0.13    0.75
   9   0   7   35.58    3.29
   9   0   8   -0.14    0.76
   9   0   8    0.42    1.17
   9   0   9    1.70    0.98
   9   0  11    3.25    1.86
   9   0  12   -0.40    1.10
   9   0  14   -0.38    1.30
  -9   0 -14    0.86    1.19
   9   0  16   -0.36    1.41
  -9   0 -16   -0.46    1.55
  -9   0 -17   15.64    4.21
  -9   0 -18    0.49    1.51
   9   1 -19    1.88    0.84
   9  -1 -18    0.98    0.65
   9   1 -18    1.06    0.73
   9  -1 -17   29.56    2.55
   9   1 -17   32.33    2.67
   9  -1 -16   34.35    2.70
   9   1 -16   33.59    2.66
   9  -1 -15   22.47    2.14
   9   1 -15   24.24    2.20
   9   1 -14    6.28    1.19
   9  -1 -14    7.43    1.26
  -9  -1  13    0.15    1.21
   9  -1 -13   -0.08    0.61
   9   1 -13    0.33    0.53
  -9   1  13    0.63    1.73
   9  -1 -12   23.65    2.17
  -9   1  12   51.57    4.06
   9   1 -12   23.12    2.11
  -9  -1  12   54.38    4.13
   9  -1 -11  150.25    6.49
   9   1 -11  158.47    6.55
  -9   1  11  322.29   10.56
  -9  -1  11  320.15   10.46
  -9  -1  10  306.51   10.01
   9  -1 -10  140.39    6.11
   9   1 -10  143.80    6.13
  -9   1  10  311.51   10.14
  -9   1   9  199.52    8.07
  -9  -1   9  193.47    7.95
  -9   1   8   15.37    2.16
  -9  -1   8   16.78    2.25
   9  -1  -8    9.84    1.48
   9   1  -8    7.22    1.16
  -9   1   7    1.64    0.90
  -9  -1   7    1.50    0.85
   9  -1  -7    0.79    0.50
   9   1  -7    1.17    0.60
  -9   1   7    0.47    1.30
  -9   1   6   17.58    2.22
  -9  -1   6   15.77    2.07
   9  -1  -6    6.24    1.06
   9   1  -6    8.94    1.26
  -9   1   5   80.44    4.51
  -9  -1   5   86.24    4.66
   9  -1  -5   40.01    2.60
   9   1  -5   41.43    2.62
  -9   1   5    3.78    2.14
  -9   1   4   40.92    3.22
  -9  -1   4   37.90    3.10
   9  -1  -4   20.11    1.85
   9   1  -4   17.25    1.71
   9  -1  -3    4.88    0.91
  -9   1   3   12.58    1.83
  -9  -1   3   12.82    1.79
   9   1  -3    4.15    0.83
  -9   1   2   24.33    2.49
  -9  -1   2   23.70    2.42
   9  -1  -2   11.88    1.37
   9   1  -2   10.17    1.29
   9  -1  -1   72.20    4.55
   9   1  -1   71.23    4.54
   9  -1   0   11.07    1.72
   9   1   0   14.46    1.96
   9  -1   1    2.17    0.96
   9   1   1    1.34    0.83
   9  -1   2   31.65    2.93
   9   1   2   29.39    2.90
   9  -1   3  216.78    8.89
   9   1   3  224.59    9.01
   9  -1   4  361.90   12.53
   9   1   4  363.92   12.61
   9  -1   5  333.23   11.97
   9   1   5  342.30   12.12
   9  -1   6   31.03    3.04
   9   1   6   32.83    3.13
   9  -1   7    6.89    1.51
   9   1   7    7.03    1.50
   9  -1   8    4.49    1.32
   9   1   8    4.87    1.38
   9  -1   9   36.94    3.40
   9   1   9   37.22    3.45
   9  -1  10   83.35    4.98
   9  -1  10   -0.37    0.89
  -9   1 -11   57.96    5.26
  -9   1 -12    1.33    1.10
   9   1  13    0.48    1.48
  -9   1 -13   -0.23    0.71
   9   1  15    0.42    1.53
   9   1  16    0.65    1.09
   9   1  17    0.27    0.98
  -9  -1 -17    1.25    2.29
  -9  -1 -18    5.78    3.44
  -9  -1 -19    7.89    3.64
  -9  -1 -21    0.69    2.33
  -9  -1 -22    0.70    1.95
   9  -2 -18   57.67    3.69
   9   2 -18   52.21    3.45
   9  -2 -17    0.66    0.64
   9   2 -17    0.63    0.77
   9  -2 -16   14.40    1.79
   9   2 -16   15.40    1.79
   9  -2 -15    0.18    0.53
   9   2 -15   -0.08    0.53
   9  -2 -14    1.37    0.66
   9   2 -14    1.81    0.76
   9  -2 -13    0.33    0.50
   9   2 -13   -0.08    0.47
  -9  -2  12   22.89    2.74
  -9   2  12    6.00    3.12
   9  -2 -12   14.13    1.61
   9   2 -12   11.17    1.44
  -9   2  12   22.78    2.73
  -9   2  11    0.42    0.80
  -9  -2  11    0.41    0.92
   9  -2 -11    0.39    0.49
   9   2 -11    0.30    0.44
  -9   2  11   -0.57    1.77
   9   2 -10   22.78    1.95
  -9   2  10   39.87    3.48
  -9  -2  10   41.49    3.54
   9  -2 -10   18.64    1.83
  -9   2   9    0.26    0.93
  -9  -2   9    0.26    0.91
   9  -2  -9    0.22    0.45
   9   2  -9    0.44    0.53
  -9   2   8  138.51    6.39
   9  -2  -8   61.82    3.54
  -9  -2   8  128.65    6.09
   9   2  -8  109.16    5.54
  -9   2   8   30.99    6.04
   9  -2  -7    0.61    0.85
   9   2  -7    0.31    0.49
  -9   2   7    1.12    0.98
  -9  -2   7    0.49    0.87
  -9   2   7   -0.45    1.26
   9  -2  -6    3.81    0.90
  -9   2   6    8.03    1.63
  -9  -2   6    7.58    1.61
   9   2  -6    3.90    0.90
  -9   2   6    0.43    1.18
  -9   2   5    7.26    1.66
  -9  -2   5    6.38    1.48
   9  -2  -5    3.13    0.85
  -9   2   5    1.58    1.82
   9   2  -5    3.53    0.89
  -9   2   4  539.09   13.23
  -9  -2   4  513.48   12.93
   9  -2  -4  280.00    9.34
   9   2  -4  267.78    9.25
  -9   2   4  119.89   11.62
   9  -2  -3    1.44    0.68
  -9   2   3    2.99    1.22
   9   2  -3    1.29    0.60
  -9   2   3    0.33    1.13
   9  -2  -2  222.22    7.23
   9   2  -2  222.80    7.28
   9   2  -1    0.21    0.46
   9  -2  -1   -0.07    0.55
  -9   2   1   -0.27    0.92
   9   2   0    0.24    0.83
   9  -2   0   -0.07    0.63
   9   2   0   -0.56    1.33
  -9   2   0   -0.24    0.81
   9  -2   1    2.36    0.91
   9   2   1    2.66    0.99
  -9   2  -1   -0.20    0.69
   9   2   2  112.37    5.51
   9  -2   2  100.27    5.20
   9   2   3    6.44    1.42
  -9   2  -3    3.41    1.03
   9  -2   3    8.74    1.57
   9  -2   4   62.98    4.25
   9   2   4   70.84    4.55
   9  -2   5    0.12    0.74
   9   2   5    0.26    0.83
   9  -2   6   13.98    2.02
   9   2   6   12.88    2.05
   9  -2   7    1.16    0.84
   9   2   7    0.81    0.85
   9   2   7   -0.57    1.36
   9  -2   8    3.97    1.27
   9   2   8    4.30    1.32
   9  -2   9    1.50    0.92
   9   2   9    2.14    1.06
   9  -2  10   52.56    4.02
   9   2  10   59.53    4.37
   9  -2  11    4.77    1.46
   9  -2  12  143.97    6.79
   9   2  12   18.11    5.08
   9  -2  13   -0.29    1.14
   9   2  13    0.46    1.56
  -9  -2 -18   -0.61    1.89
  -9  -2 -18   17.94    6.00
  -9  -2 -19   -0.80    1.91
   9   3 -18    0.35    0.58
   9   3 -17    7.09    1.25
   9  -3 -16   28.50    2.46
   9   3 -16   30.95    2.46
   9  -3 -15   12.89   13.44
   9   3 -15   12.28    1.56
   9  -3 -14    0.08    0.64
   9   3 -14    0.08    0.60
   9  -3 -13    0.48    0.63
   9   3 -13    0.23    0.59
   9  -3 -12   17.13    1.78
   9   3 -12   15.63    1.67
  -9   3  11   86.54    5.11
  -9  -3  11   74.43    4.74
   9  -3 -11   38.64    2.72
   9   3 -11   41.52    2.72
  -9   3  10  192.43    7.65
  -9  -3  10  189.94    7.52
   9  -3 -10   95.64    4.58
   9   3 -10   95.68    4.50
  -9   3   9   43.43    3.54
  -9  -3   9   43.18    3.46
   9  -3  -9   21.16    1.89
   9   3  -9   21.74    1.88
  -9   3   8    2.23    1.15
  -9  -3   8    3.00    1.22
   9  -3  -8    1.23    0.60
   9   3  -8    0.72    0.59
  -9   3   7    1.32    1.01
  -9  -3   7    1.64    1.15
   9  -3  -7    0.80    0.53
   9   3  -7    0.66    0.56
   9   3  -6    1.28    1.20
  -9   3   6    0.35    0.93
   9  -3  -6    0.19    0.46
   9  -3  -5   16.96    1.67
   9   3  -5   14.58    1.54
   9  -3  -4   27.54    2.23
   9   3  -4   23.65    1.94
   9  -3  -3   -0.48    0.50
   9   3  -3    0.14    0.34
   9  -3  -2   15.61    1.58
   9   3  -2   17.71    1.63
   9  -3  -1   21.72    1.82
   9   3  -1   24.49    1.93
   9   3   0    1.09    0.56
   9  -3   0    1.33    0.57
   9  -3   1    1.39    0.57
   9  -3   2    5.37    0.94
   9   3   2   10.95    1.82
   9  -3   3   27.80    2.68
   9   3   3   29.30    2.87
   9   3   4  203.35    8.26
   9  -3   4  181.55    7.77
   9   3   5   98.54    5.48
   9  -3   5   96.04    5.29
   9  -3   6   18.38    2.22
   9   3   6   16.96    2.28
   9  -3   7    2.18    0.97
   9   3   7    4.06    1.36
   9  -3   8    1.12    0.93
   9   3   8    0.67    0.85
   9  -3   9    3.45    1.25
   9   3   9    6.94    1.68
   9  -3  10   83.42    5.15
   9   3  10   82.81    5.31
   9  -3  11   24.05    2.76
   9   3  11   28.56    3.07
   9  -3  12    7.29    1.73
   9   3  12    7.18    1.81
   9  -3  13    0.14    0.96
   9   3  13   -0.47    1.33
   9  -3  14   -0.15    1.03
   9   3  14    0.16    1.03
   9  -3  15    0.62    1.09
   9  -3  16    4.46    1.67
   9  -3  17    2.46    1.49
   9   4 -12    0.06    0.44
   9   4 -11    1.05    0.49
   9   4 -10    0.72    0.47
   9   4  -9   37.91    2.33
   9   4  -8    0.06    0.47
  -9   4   8    0.56    1.05
   9   4  -7    2.12    0.67
   9   4  -6    0.88    0.58
   9   4  -5    6.48    0.99
   9  -4  -5    6.65    1.02
   9   4  -4    6.31    0.96
   9  -4  -4    4.79    0.92
   9   4  -3  233.51    7.98
   9  -4  -3  100.71    4.31
   9   4  -2    4.01    0.86
   9  -4  -2    4.17    0.80
   9  -4  -1    8.83    1.16
   9   4  -1    7.61    1.11
   9   4   0    3.56    0.81
   9  -4   0    3.13    0.81
   9  -4   1    0.46    0.45
   9   4   1    0.37    0.48
   9   4   2    0.81    0.56
   9   4   3   31.89    2.17
   9   4   5    0.45    0.91
   9   4   6    0.12    0.85
   9   4   7    0.60    0.87
   9   4   8   -0.37    1.09
   9   4   9    0.13    1.13
   9   4  10    0.13    1.18
   9   4  11   28.70    3.12
   9   4  12    0.56    1.03
   9   4  13   10.92    2.12
   9   4  14    0.60    1.06
   9   4  15    0.47    1.20
  10   0 -15   -0.09    0.62
  10   0 -14   12.19    1.64
  10   0 -13   -0.09    0.51
  10   0 -12   87.35    4.43
  10   0 -11    0.25    0.48
 -10   0  11    1.88    2.60
  10   0 -10   -0.10    0.51
 -10   0  10    1.91    1.04
  10   0  -9   -0.42    0.63
 -10   0   9   -0.14    0.84
 -10   0   8   34.40    3.24
  10   0  -8   14.80    1.71
 -10   0   7   -0.27    0.91
  10   0  -7    0.09    0.40
 -10   0   6   -0.67    1.07
  10   0  -6    0.08    0.41
  10   0  -5    0.50    0.43
 -10   0   5   -0.13    0.94
 -10   0   4  532.74   13.68
  10   0  -4  235.96    9.18
 -10   0   3    0.78    0.74
  10   0  -3    0.24    0.32
 -10   0   2   42.23    3.40
  10   0  -2   17.26    1.80
  10   0  -1   -0.14    0.77
  10   0   0    1.76    0.96
  10   0   1    0.54    0.73
  10   0   2  413.17   14.09
  10   0   3    3.04    1.05
  10   0   4   58.52    4.31
  10   0   5    0.14    0.73
  10   0   5   -0.49    1.17
  10   0   6   13.86    2.11
  10   0   6   -0.48    0.95
  10   0   7   -0.15    0.73
  10   0   8   64.29    4.52
  10   0   8   -0.47    1.60
  10   0   9    0.15    0.91
  10   0  10    5.56    1.60
  10   0  11   -0.49    0.84
 -10   0 -15   -0.45    1.40
 -10   0 -17   -0.48    1.61
 -10   0 -18    2.93    2.14
 -10   0 -19    0.50    1.38
 -10   0 -20    0.51    1.58
  10  -1 -17    6.59    1.31
  10   1 -17    3.34    0.98
  10  -1 -16    1.75    0.78
  10   1 -16    1.81    0.80
  10  -1 -15    0.57    0.63
  10   1 -15    0.28    0.57
  10  -1 -14    1.84    0.79
  10   1 -14    1.27    0.75
  10  -1 -13    0.98    0.63
  10   1 -13    2.03    0.81
  10  -1 -12   57.23    3.45
  10   1 -12   54.44    3.37
  10  -1 -11   94.90    4.58
  10   1 -11   94.19    4.56
 -10   1  10  177.72    7.76
 -10  -1  10  182.75    7.83
  10  -1 -10   86.76    4.54
  10   1 -10   89.14    4.71
 -10   1   9   44.99    3.80
 -10  -1   9   42.63    3.71
  10  -1  -9   28.31    2.78
  10   1  -9   31.99    3.14
  10  -1  -8    0.18    0.49
 -10   1   8    0.56    0.91
 -10  -1   8    0.14    1.02
  10   1  -8    0.26    0.45
 -10   1   7    2.20    1.16
 -10  -1   7    1.23    1.09
  10  -1  -7    0.43    0.54
  10   1  -7    0.77    0.58
 -10   1   6  116.70    5.91
 -10  -1   6  116.18    5.91
  10  -1  -6   53.90    3.43
  10   1  -6   56.55    3.49
 -10   1   5  204.59    7.97
 -10  -1   5  195.34    7.80
  10  -1  -5  103.26    5.01
  10   1  -5   95.78    4.87
 -10   1   4  132.05    6.08
 -10  -1   4  127.26    5.97
  10  -1  -4   62.53    3.45
  10   1  -4   60.09    3.39
 -10   1   4    6.46    2.97
 -10   1   3   21.41    2.47
 -10  -1   3   20.91    2.42
  10  -1  -3    8.02    1.22
  10   1  -3   10.13    1.34
  10   1  -2    1.21    0.58
  10  -1  -2    0.64    0.47
  10  -1  -1    1.20    0.58
  10  -1  -1    4.31    1.16
  10   1  -1    3.94    1.16
  10   1  -1    2.20    2.01
  10  -1   0   43.99    3.52
  10   1   0   41.39    3.46
  10  -1   1   21.68    2.54
  10   1   1   23.14    2.66
  10   1   2    8.77    1.70
  10  -1   2    9.61    1.70
  10  -1   3   39.71    3.49
  10   1   3   41.52    3.55
  10  -1   4   46.68    3.83
  10   1   4   49.64    3.96
  10  -1   5   15.56    2.26
  10   1   5   17.53    2.36
  10  -1   6   26.95    2.95
  10   1   6   26.72    2.96
  10  -1   7   25.62    2.90
  10   1   7   26.25    2.98
  10  -1   8   12.80    2.10
  10   1   8   13.05    2.15
  10  -1   9   56.56    4.26
  10   1   9   55.10    4.24
  10  -1  10  100.59    5.74
  10   1  10  114.60    6.19
  10  -1  11   36.64    3.62
  10   1  11   45.00    4.00
  10   1  11    1.05    1.47
 -10   1 -11   16.54    2.97
  10  -1  12    0.17    1.02
 -10   1 -12    0.46    0.84
  10   1  13   -0.52    1.75
 -10   1 -13    0.47    0.79
  10   1  14    0.51    1.59
 -10   1 -14   -0.24    0.93
  10   1  15    1.52    2.53
  10   1  16    4.95    2.62
 -10  -1 -17    4.46    3.18
 -10   1 -17    0.52    1.03
 -10  -1 -19    0.66    2.25
 -10  -1 -20    2.70    2.47
 -10  -1 -21    6.19    3.56
  10   2 -17   39.61    3.00
  10  -2 -16    0.19    0.69
  10   2 -16    0.74    0.75
  10  -2 -15    0.65    0.71
  10   2 -15    1.17    0.73
  10  -2 -14    0.73    0.64
  10   2 -14   -0.18    0.61
  10  -2 -13   50.11    3.27
  10   2 -13   54.54    3.35
  10  -2 -12    2.49    0.84
  10   2 -12    1.92    0.75
  10  -2 -11   19.17    1.91
  10   2 -11   17.59    1.79
 -10  -2  10    0.29    0.91
  10  -2 -10    0.24    0.49
 -10   2  10    1.13    2.06
  10   2 -10    0.40    0.45
 -10   2   9    5.55    1.54
 -10  -2   9    3.22    1.27
 -10   2   9    1.61    1.96
  10  -2  -9    2.15    0.76
  10   2  -9    1.94    0.74
  10   2  -8    0.13    0.69
 -10   2   8    0.14    0.77
 -10  -2   8   -0.14    0.95
 -10   2   8   -0.51    1.85
 -10   2   7   36.69    3.30
 -10  -2   7   37.22    3.36
  10  -2  -7   29.54    2.86
  10  -2  -6    0.50    0.56
 -10   2   6    0.93    0.97
 -10  -2   6    0.53    0.89
  10   2  -6    0.66    0.56
 -10   2   6   -0.45    1.24
 -10   2   5   65.94    4.30
 -10  -2   5   66.23    4.35
  10  -2  -5   33.26    2.52
  10   2  -5   31.58    2.46
 -10   2   5   12.98    3.61
  10   2  -4    6.04    1.06
  10  -2  -4    3.97    0.93
  10  -2  -3  141.01    5.73
  10   2  -3  140.81    5.74
  10   2  -2    1.67    0.70
  10  -2  -2    1.34    0.68
  10  -2  -1    3.21    0.86
  10   2  -1    4.28    0.95
  10   2   0    0.13    0.70
  10  -2   0   -0.08    0.58
 -10   2   0    0.26    1.03
  10  -2   1   43.56    3.49
  10   2   1   45.62    3.66
  10  -2   2    7.15    1.53
  10   2   2    6.80    1.59
  10   2   2   -0.60    1.18
 -10   2  -2    2.28    1.12
  10   2   3  257.82    9.13
  10  -2   3  228.87    8.53
  10  -2   4    3.24    1.15
  10   2   4    1.53    1.09
  10   2   4   -0.60    1.18
 -10   2  -4    0.55    0.59
  10  -2   5    3.69    1.25
  10   2   5    2.55    1.11
  10   2   5    0.61    1.68
  10  -2   6    2.50    1.15
  10   2   6    2.02    0.96
  10  -2   7   28.21    2.99
  10   2   7   24.94    2.86
  10  -2   8   -0.72    1.00
  10   2   8    0.15    0.98
  10  -2   9   25.22    2.90
  10   2   9   28.51    3.19
  10  -2  10    1.67    1.09
  10   2  10    1.11    1.14
  10  -2  11    6.24    1.68
  10   2  11    9.15    1.95
  10  -2  12    1.28    1.09
  10   2  12    3.36    1.51
  10  -2  13   26.37    3.17
  10   2  13   27.32    3.28
  10  -2  14    0.34    1.12
  10  -2  15    4.88    1.71
  10   3 -16    0.52    0.60
  10  -3 -15   -0.09    0.66
  10   3 -15    0.08    0.60
  10  -3 -14    0.52    0.66
  10   3 -14    0.50    0.54
  10  -3 -13    0.85    0.68
  10   3 -13    0.73    0.61
  10  -3 -12   10.52    1.49
  10   3 -12    7.95    1.31
  10  -3 -11   61.08    3.51
  10   3 -11   62.33    3.44
  10  -3 -10   17.50    1.84
  10   3 -10   18.12    1.80
  10  -3  -9    2.14    0.83
  10   3  -9    3.68    0.90
 -10   3   8    3.22    1.39
 -10  -3   8    4.85    1.60
  10  -3  -8    1.87    0.76
  10   3  -8    1.73    0.72
 -10   3   7    1.44    1.12
 -10  -3   7    0.26    1.26
  10  -3  -7    0.95    0.60
  10   3  -7    1.39    0.76
  10  -3  -6   11.76    1.46
  10   3  -6   17.96    1.97
  10  -3  -5   67.30    3.98
  10   3  -5   56.17    3.28
  10  -3  -4   10.17    1.37
  10   3  -4   10.33    1.37
  10  -3  -3    6.72    1.14
  10   3  -3    4.97    0.99
  10   3  -2    0.99    0.55
  10  -3  -2    1.36    0.62
  10  -3  -1    1.42    0.58
  10   3  -1    1.75    0.67
  10  -3   0   10.26    1.30
  10   3   0    9.01    1.29
  10  -3   1   11.06    1.35
  10   3   1   12.21    1.46
  10   3   2    0.39    0.87
  10  -3   2    0.45    0.48
  10  -3   3   14.95    1.61
  10   3   3   30.96    3.05
  10  -3   4   29.99    2.97
  10   3   4   30.76    3.11
  10  -3   5    0.26    0.88
  10   3   5   -0.27    0.87
  10  -3   6    5.38    1.46
  10   3   6    6.30    1.63
  10  -3   7    8.29    1.74
  10   3   7    9.88    1.95
  10  -3   8   -0.14    0.94
  10   3   8    0.15    1.13
  10  -3   9   49.05    4.00
  10   3   9   48.15    4.11
  10  -3  10   24.61    2.88
  10   3  10   24.73    3.06
  10  -3  11   16.74    2.48
  10   3  11   17.94    2.66
  10  -3  12    0.60    0.86
  10   3  12    1.80    1.22
  10  -3  13    0.46    1.07
  10   3  13    1.18    1.33
  10  -3  14    8.91    1.93
  10   3  14    6.73    1.90
  10  -3  15   17.16    2.76
  10   4 -10    0.07    0.43
  10   4  -9    0.13    0.48
  10   4  -8    0.70    0.52
  10   4  -7    0.12    0.47
  10   4  -6    1.29    0.59
  10   4  -5    1.77    0.64
  10   4  -4   38.86    2.55
  10   4  -3    0.15    0.61
  10   4  -2    3.32    0.90
  10   4  -1    1.56    0.67
  10   4   0    0.27    0.53
  10   4   1    1.31    0.67
  10   4   2   32.71    2.32
  10   4   3    1.49    0.72
  10   4   4   10.72    1.38
  10   4   5    1.50    1.04
  10   4   6    2.17    1.10
  10   4   7    2.35    1.12
  10   4   8   38.67    3.49
  10   4   9    0.55    1.06
  10   4  10    1.13    1.14
  10   4  11    0.15    1.23
  10   4  12   -0.30    1.04
  10   4  13    4.17    1.67
  11   0 -15   -0.10    0.63
  11   0 -14   -0.19    0.65
  11   0 -13   95.87    4.84
  11   0 -12    0.93    0.72
  11   0 -11   28.45    2.41
  11   0 -10    0.11    0.65
  11   0  -9    4.62    1.16
  11   0  -8   -0.10    0.60
 -11   0   7   83.52    5.21
  11   0  -7   37.53    2.88
 -11   0   6   -0.29    0.86
  11   0  -6   -0.56    0.53
  11   0  -5    1.56    0.72
 -11   0   5    3.04    1.27
 -11   0   4    0.14    0.79
  11   0  -4    0.45    0.52
 -11   0   3   51.08    3.92
  11   0  -3   23.84    2.21
  11   0  -2    0.53    0.41
  11   0  -1  151.97    7.57
  11   0   0    2.10    1.00
  11   0   1   81.24    5.34
  11   0   2    0.45    0.59
  11   0   3   72.10    4.99
  11   0   4    0.61    0.80
  11   0   5   35.95    3.56
  11   0   6   -0.32    0.90
  11   0   6   -0.53    1.80
  11   0   7   41.33    3.86
  11   0   8   -0.33    0.96
  11   0   8   -0.52    1.44
  11   0   9   38.67    3.83
  11   0  10   -0.17    0.98
  11   0  11   45.92    4.29
  11   0  12    0.18    1.14
  11   0  12    0.49    1.79
  11   0  13  118.94    7.31
  11   0  14    1.13    1.33
  11   0  14    0.94    1.45
 -11   0 -15    0.46    1.11
 -11   0 -16   -0.47    1.59
 -11   0 -17   -0.48    1.15
 -11   0 -18   -0.49    1.78
  11  -1 -15   12.79    1.72
  11   1 -15   11.33    1.64
  11  -1 -14    7.03    1.31
  11   1 -14    5.48    1.19
  11  -1 -13    0.10    0.54
  11   1 -13    0.38    0.57
  11   1 -12   10.29    1.52
  11  -1 -12   10.88    1.57
  11  -1 -11    3.82    1.01
  11   1 -11    3.51    0.96
  11   1 -10    1.73    0.88
  11  -1 -10    1.54    0.75
  11  -1  -9   36.65    3.53
  11   1  -9   26.33    2.63
  11  -1  -8    5.01    1.10
  11   1  -8    4.87    1.10
  11   1  -7    8.54    1.35
 -11   1   7   10.73    2.14
  11  -1  -7    5.95    1.18
 -11   1   6  107.40    5.89
 -11  -1   6  107.99    5.91
  11  -1  -6   50.50    3.39
  11   1  -6   47.67    3.31
 -11   1   5  178.84    7.70
 -11  -1   5  167.72    7.49
  11  -1  -5   91.24    4.81
  11   1  -5   83.87    4.64
 -11   1   4   31.13    3.12
 -11  -1   4   38.67    3.45
  11  -1  -4   15.52    1.79
  11   1  -4   16.40    1.83
  11   1  -3    0.18    0.46
 -11   1   3    0.57    0.94
  11  -1  -3    0.09    0.46
  11   1  -2    0.09    0.51
  11  -1  -2   -0.44    0.55
  11  -1  -1    3.79    0.95
  11   1  -1    3.01    0.86
  11  -1   0   40.91    3.69
  11   1   0   38.40    3.59
  11  -1   1   34.99    3.42
  11   1   1   37.75    3.53
  11  -1   2    0.60    0.83
  11   1   2    0.91    0.93
  11   1   2   -0.59    1.63
  11  -1   3    3.61    1.21
  11   1   3    3.51    1.32
 -11   1  -3   -0.32    1.09
  11  -1   4   34.37    3.40
  11   1   4   34.38    3.44
  11  -1   5   88.49    5.73
  11   1   5   97.96    6.00
  11  -1   6   95.88    5.99
  11   1   6  103.49    6.27
  11  -1   7   27.79    3.15
  11   1   7   23.59    2.99
  11  -1   8    4.21    1.47
  11   1   8    6.26    1.68
  11  -1   9   28.07    3.20
  11   1   9   28.44    3.24
  11  -1  10    6.58    1.81
  11   1  10    6.02    1.68
  11  -1  11   18.48    2.71
  11   1  11   19.73    2.78
  11  -1  11   -0.45    1.09
 -11   1 -11    5.96    1.98
  11  -1  12   33.07    3.65
  11   1  12   29.07    3.53
  11  -1  13    3.63    1.63
  11   1  13    2.96    1.51
 -11   1 -13    0.70    0.97
  11  -1  14    4.65    1.71
  11   1  14    4.56    1.80
  11  -1  15   22.11    3.11
 -11  -1 -17    1.94    2.37
 -11  -1 -18   -0.66    1.57
 -11  -1 -19    4.67    3.20
 -11  -1 -20    4.06    2.96
  11   2 -15   -0.10    0.67
  11  -2 -14   21.93    2.19
  11   2 -14   24.47    2.31
  11  -2 -13    1.31    0.71
  11   2 -13    1.19    0.66
  11  -2 -12   53.22    3.38
  11   2 -12   50.80    3.31
  11  -2 -11    0.09    0.54
  11   2 -11    0.35    0.57
  11  -2 -10    0.53    0.53
 -11   2  10    0.59    1.81
  11   2 -10    0.77    0.65
  11   2  -9   -0.20    0.69
 -11   2   9    0.56    1.89
  11  -2  -9   -0.17    0.54
  11  -2  -8   31.41    2.68
  11   2  -8   34.67    2.77
  11  -2  -7    0.11    0.65
  11   2  -7   -0.18    0.55
 -11   2   7    0.50    1.55
  11  -2  -6    2.84    0.91
  11   2  -6    3.08    0.87
 -11   2   6    0.47    1.46
 -11   2   5   -0.14    0.79
  11  -2  -5   -0.09    0.48
 -11   2   5    0.44    1.50
  11   2  -5    0.09    0.55
  11   2  -4    0.62    0.51
  11  -2  -4    0.44    0.52
 -11   2   4    0.41    0.99
  11  -2  -3    1.32    0.69
  11   2  -3    1.06    0.57
 -11   2   3   -0.38    1.29
  11  -2  -2   75.76    3.98
  11   2  -2   77.54    4.03
  11  -2  -1    0.95    0.60
  11   2  -1    1.57    0.69
 -11   2   1   -0.32    0.99
  11  -2   0    0.78    0.62
  11   2   0    2.37    1.18
 -11   2   0   -0.29    0.89
  11  -2   1    1.98    0.74
 -11   2  -1    1.26    1.26
  11  -2   2  118.43    6.18
  11   2   2  121.98    6.32
  11  -2   3    0.59    0.91
  11   2   3    0.91    0.96
 -11   2  -3    0.17    0.58
  11  -2   4    4.75    1.45
  11   2   4    6.12    1.57
 -11   2  -4    2.42    0.92
  11  -2   5    1.50    1.08
  11   2   5    0.31    0.91
  11  -2   6    1.83    1.15
  11   2   6    1.89    1.15
  11  -2   7    3.71    1.34
  11   2   7    2.89    1.30
  11  -2   8   63.29    4.79
  11   2   8   64.48    4.94
  11  -2   9    0.16    0.94
  11   2   9    1.00    1.08
  11  -2  10    8.04    1.91
  11   2  10    9.40    2.10
  11  -2  11   -0.17    1.04
  11   2  11    0.17    1.11
  11  -2  12   79.27    5.69
  11   2  12   80.86    5.79
  11  -2  13    4.57    1.77
  11   2  13    3.12    1.65
  11  -2  14   49.13    4.57
  11   2  14   44.80    4.50
  11   3 -14    5.27    1.17
  11  -3 -13    0.63    0.67
  11   3 -13   -0.17    0.71
  11  -3 -12    4.67    1.17
  11   3 -12    4.13    1.02
  11  -3 -11    2.93    0.97
  11   3 -11    2.98    0.91
  11  -3 -10    1.85    0.85
  11   3 -10    1.87    0.78
  11  -3  -9    3.38    0.91
  11   3  -9    3.04    0.87
  11  -3  -8    6.22    1.18
  11   3  -8    7.00    1.22
  11   3  -7   -0.45    1.01
  11  -3  -7    0.47    0.64
  11  -3  -6   35.89    2.60
  11   3  -6   40.59    2.83
  11  -3  -5   36.28    3.81
  11   3  -5   20.46    1.98
  11  -3  -4    6.65    1.18
  11   3  -4    7.38    1.24
  11  -3  -3    0.17    0.48
  11   3  -3   -0.08    0.58
  11   3  -2   -0.25    0.62
  11  -3  -2   -0.08    0.53
  11  -3  -1    5.21    1.05
  11   3  -1    3.70    0.98
  11  -3   0   17.92    1.83
  11   3   0   16.02    1.80
  11  -3   1    6.90    1.21
  11   3   1    6.69    1.24
  11   3   2    5.06    1.56
  11  -3   2    3.95    0.94
  11   3   3    3.36    1.36
  11  -3   3    1.07    0.67
  11  -3   4   17.16    2.43
  11   3   4   22.03    2.82
  11  -3   5   23.16    2.81
  11   3   5   19.66    2.71
  11   3   6   61.49    4.68
  11  -3   6   59.17    4.46
  11  -3   7   10.37    2.05
  11   3   7    9.48    2.05
  11  -3   8    4.01    1.43
  11   3   8    2.22    1.28
  11  -3   9    4.24    1.50
  11   3   9    5.35    1.71
  11  -3  10    0.62    1.11
  11   3  10    0.33    1.15
  11  -3  11   -0.32    1.11
  11   3  11   -0.17    1.15
  11  -3  12   10.32    2.16
  11   3  12    7.98    2.06
  11  -3  13    0.49    1.25
  11   4  -7   16.27    1.65
  11   4  -6    0.48    0.55
  11   4  -5    0.07    0.46
  11   4  -4    0.10    0.64
  11   4  -3    3.55    0.97
  11   4  -2    2.11    0.82
  11   4  -1   19.36    1.89
  11   4   0    0.08    0.67
  11   4   1    9.42    1.36
  11   4   2    0.23    0.60
  11   4   3    2.98    0.89
  11   4   4   -0.16    0.53
  11   4   6   -0.14    0.98
  11   4   7   12.37    2.17
  11   4   8    2.47    1.32
  11   4   9   10.54    2.08
  11   4  10    0.15    1.17
  12   0 -13   -0.10    0.58
  12   0 -12    0.10    0.57
  12   0 -11   -0.20    0.65
  12   0 -10    9.88    1.86
  12   0  -9   -0.11    0.59
  12   0  -8   38.75    3.02
  12   0  -7    0.10    0.58
  12   0  -6   14.14    1.77
  12   0  -5   -0.10    0.60
  12   0  -4   30.44    2.61
  12   0  -3    0.20    0.41
  12   0  -2   95.55    4.89
  12   0  -1    0.19    0.52
  12   0   0    0.49    0.79
  12   0   1   -0.16    0.88
  12   0   2   25.27    3.11
  12   0   3    0.33    0.73
  12   0   4  240.22   10.55
  12   0   5    0.68    0.88
  12   0   5   -0.59    1.41
  12   0   6    1.37    1.21
  12   0   7    0.17    0.99
  12   0   7    0.57    1.37
  12   0   8   30.29    3.46
  12   0   9   -0.72    1.09
  12   0  10    0.18    1.11
  12   0  11   -0.19    1.19
  12   0  12   41.72    4.19
  12   0  12    0.53    1.28
  12   0  13    0.20    1.11
  12   0  13   -0.52    1.44
 -12   0 -15   -0.47    1.59
 -12   0 -16    0.95    1.96
  12  -1 -13    0.71    0.67
  12   1 -13    0.50    0.66
  12  -1 -12    0.20    0.60
  12   1 -12    0.59    0.62
  12  -1 -11    8.65    1.44
  12   1 -11    9.15    1.47
  12  -1 -10   37.12    2.90
  12   1 -10   42.17    3.31
  12  -1  -9   65.99    5.51
  12   1  -9   36.34    3.08
  12  -1  -8    5.20    1.21
  12   1  -8    3.61    1.03
  12  -1  -7    1.23    0.79
  12   1  -7    1.12    0.66
 -12   1   7   -0.57    1.56
  12  -1  -6    7.46    1.37
  12   1  -6    5.93    1.21
  12   1  -5    1.69    0.75
 -12   1   5    0.52    1.24
  12  -1  -5    1.19    0.70
  12  -1  -4   36.12    2.84
  12   1  -4   35.41    2.80
  12  -1  -3   24.10    2.28
  12   1  -3   22.75    2.19
  12  -1  -2    4.65    1.09
  12   1  -2    5.15    1.11
  12  -1  -1    2.41    0.87
  12   1  -1    2.13    0.88
  12  -1   0   17.54    1.98
  12   1   0   44.00    3.96
  12  -1   1   20.72    2.78
  12   1   1   25.67    3.07
  12  -1   2    5.73    1.61
  12   1   2    7.77    1.82
  12  -1   3    8.23    1.81
  12   1   3    8.49    1.91
  12  -1   4   43.62    4.09
  12   1   4   47.72    4.24
  12  -1   5   58.18    4.70
  12   1   5   54.90    4.62
  12  -1   6   30.21    3.42
  12   1   6   35.49    3.75
  12  -1   7    5.85    1.69
  12   1   7    6.99    1.85
  12  -1   8    1.22    1.26
  12   1   8    0.53    1.01
  12  -1   9   12.27    2.36
  12   1   9   13.57    2.48
  12  -1  10   56.16    4.86
  12   1  10   57.75    4.89
  12  -1  11   67.62    5.18
  12   1  11   62.72    5.02
  12  -1  12   54.11    4.78
  12   1  12   48.43    4.61
  12  -1  13    4.62    1.73
 -12  -1 -18   -0.66    1.59
 -12  -1 -19    2.67    2.61
  12  -2 -12   -0.19    0.63
  12   2 -12    0.10    0.60
  12  -2 -11    4.21    1.05
  12   2 -11    3.84    1.06
  12  -2 -10    0.28    0.61
  12   2 -10    0.46    0.63
  12   2  -9    2.09    0.90
  12  -2  -9    0.65    0.65
  12  -2  -8    1.32    0.82
  12   2  -8    1.19    0.79
 -12   2   8    1.65    1.70
  12  -2  -7   30.45    2.71
  12   2  -7   27.02    2.46
  12  -2  -6    0.10    0.63
  12   2  -6   -0.30    0.65
  12  -2  -5    4.80    1.12
  12   2  -5    5.95    1.23
 -12   2   5    2.78    2.13
  12   2  -4    0.29    0.68
  12  -2  -4   -0.19    0.63
 -12   2   4    0.43    1.34
  12  -2  -3   68.84    3.88
  12   2  -3   62.40    3.74
  12   2  -2    0.86    0.62
  12  -2  -2    0.57    0.62
 -12   2   2    0.37    0.89
  12  -2  -1   26.61    2.38
  12   2  -1   29.37    2.51
  12  -2   0    0.57    0.58
  12   2   0    0.10    0.61
 -12   2   0    0.31    1.13
  12   2   1   -0.16    1.05
  12  -2   1    0.09    0.57
 -12   2  -1   -0.27    0.84
  12  -2   2    1.60    1.04
  12   2   2    1.31    1.13
  12  -2   3   85.99    5.47
  12   2   3   94.10    5.80
  12  -2   4    3.72    1.40
  12   2   4    2.33    1.30
  12   2   5   52.37    4.48
  12  -2   5   49.35    4.26
  12  -2   6    0.99    1.10
  12   2   6   -0.17    1.08
  12  -2   7   22.45    3.02
  12   2   7   27.02    3.30
  12  -2   8   -0.34    1.31
  12   2   8   -0.18    1.12
  12  -2   9    0.69    1.20
  12   2   9    3.23    1.53
  12  -2  10    0.88    1.19
  12   2  10    0.55    1.16
  12  -2  11    9.68    2.25
  12   2  11   10.25    2.32
  12  -2  12    0.37    1.13
  12   3 -11    6.81    1.27
  12  -3 -10    9.97    1.55
  12   3 -10   13.26    1.69
  12   3  -9   20.55    2.05
  12  -3  -9   18.00    1.98
  12  -3  -8    4.42    1.06
  12   3  -8    2.85    1.00
  12   3  -7    0.60    0.87
  12  -3  -7    1.20    0.69
  12   3  -6    0.94    0.69
  12  -3  -6    1.01    0.77
  12  -3  -5    0.94    1.51
  12   3  -5    1.02    0.75
  12  -3  -4    2.04    0.79
  12   3  -4    2.59    0.94
  12  -3  -3   17.41    1.95
  12   3  -3   18.69    2.04
  12   3  -2    0.92    0.75
  12  -3  -2    0.45    0.62
  12   3  -1    4.96    1.15
  12  -3  -1    7.85    1.33
  12   3   0    4.33    1.06
  12  -3   0    5.49    1.20
  12  -3   1    4.58    1.12
  12   3   1    3.05    0.93
  12  -3   2   -0.27    0.81
  12   3   2    0.28    0.58
  12   3   3    4.77    1.70
  12  -3   3    1.89    0.80
  12   3   4   12.05    2.27
  12  -3   4    6.07    1.23
  12  -3   5   42.99    3.97
  12   3   5   42.09    4.01
  12  -3   6   20.78    2.77
  12   3   6   26.71    3.27
  12  -3   7    4.27    1.59
  12   3   7    1.17    1.13
  12  -3   8   -0.16    1.17
  12   3   8   -0.17    1.05
  12  -3   9    2.77    1.50
  12   3   9    4.33    1.61
  12  -3  10    8.61    2.06
  12  -3  11   45.30    4.20
  12   4  -2   26.39    2.28
  12   4  -1   -0.08    0.72
  12   4   0    1.17    0.75
  12   4   1    0.42    0.65
  12   4   2    0.59    0.65
  12   4   3    3.08    0.97
  12   4   4   17.92    1.94
  12   4   5    0.97    0.70
  13   0 -10   -0.59    1.07
  13   0  -9   -0.36    0.71
  13   0  -8    0.11    0.51
  13   0  -7    0.44    0.57
  13   0  -6    0.11    0.50
  13   0  -5    0.11    0.56
  13   0  -4    0.21    0.47
  13   0  -3   27.00    2.56
  13   0  -2    0.11    0.55
  13   0  -1    9.60    1.52
  13   0   0   -0.11    0.60
  13   0   1   32.87    3.64
  13   0   2    0.36    0.86
  13   0   3  261.85   11.44
  13   0   4    1.45    1.07
  13   0   5   24.37    3.25
  13   0   6   -1.11    1.31
  13   0   8    0.19    1.18
  13   0   9   51.18    4.75
  13   0  10   -0.20    1.18
  13  -1 -10   19.24    2.23
  13   1 -10   20.32    2.43
  13  -1  -9   29.42    3.87
  13   1  -9   15.45    2.20
  13  -1  -8    1.00    0.77
  13   1  -8    1.55    0.84
  13  -1  -7    0.44    0.66
  13   1  -7    0.11    0.64
  13  -1  -6    9.23    1.57
  13   1  -6   10.40    1.66
  13  -1  -5   45.14    3.35
  13   1  -5   45.10    3.35
  13  -1  -4   54.00    3.66
  13   1  -4   53.25    3.63
  13  -1  -3   32.35    2.80
  13   1  -3   32.30    2.79
  13   1  -2    3.69    1.03
  13  -1  -2    1.47    0.80
  13   1  -1    0.95    0.68
  13  -1  -1    0.63    0.68
  13  -1   0    0.10    0.65
  13  -1   1    4.96    1.65
  13   1   1    6.61    1.82
  13  -1   2    6.39    1.82
  13   1   2    5.74    1.74
  13  -1   3    3.03    1.46
  13   1   3    3.43    1.50
  13  -1   4    3.23    1.63
  13   1   4    4.36    1.57
  13  -1   5   14.13    2.55
  13   1   5    9.73    2.26
  13  -1   6    4.39    1.62
  13   1   6    4.64    1.71
  13  -1   7    0.19    1.38
  13   1   7    0.19    1.13
  13  -1   8    1.13    1.22
  13   1   8    3.24    1.49
  13  -1   9   32.38    3.83
  13   1   9   37.55    4.08
  13  -1  10   48.35    4.66
  13   2  -9   -0.47    0.85
  13  -2  -8    1.41    0.81
  13   2  -8    2.78    1.00
  13  -2  -7   -0.35    0.64
  13   2  -7   -0.21    0.57
 -13   2   7   -0.54    1.50
  13  -2  -6    0.21    0.57
  13   2  -6   -0.11    0.67
  13  -2  -5    0.11    0.58
  13   2  -5   -0.42    0.76
  13   2  -4    7.01    1.39
  13  -2  -4    7.94    1.44
  13  -2  -3    0.31    0.66
  13   2  -3   -0.31    0.72
 -13   2   3   -0.42    1.01
  13  -2  -2   22.36    2.26
  13   2  -2   22.41    2.31
  13   2  -1   -0.10    0.72
  13  -2  -1   -0.41    0.69
 -13   2   1    0.36    1.22
  13  -2   0    0.92    0.69
  13   2   0    0.93    0.72
 -13   2   0    0.33    1.01
  13  -2   1    0.20    0.55
  13   2   1    0.10    0.56
  13  -2   2   49.73    3.55
  13   2   2  108.85    6.44
  13  -2   3    2.09    1.34
  13   2   3    3.56    1.52
  13  -2   4   92.10    6.22
  13   2   4  102.56    6.57
  13  -2   5    0.88    1.09
  13   2   5    0.18    1.37
  13  -2   6   -0.18    1.26
  13   2   6    0.37    1.22
  13  -2   7    0.54    1.29
  13   2   7    0.74    1.21
  13  -2   8    9.84    2.33
  13   2   8    6.79    1.98
  13  -2   9    0.55    1.28
  13   3  -6    5.05    1.22
  13  -3  -5   27.00    3.69
  13   3  -5   13.65    1.85
  13  -3  -4   37.31    2.99
  13   3  -4   37.65    3.03
  13  -3  -3    9.49    1.57
  13   3  -3   12.93    1.76
  13   3  -2    1.19    0.88
  13  -3  -2    0.79    0.79
  13   3  -1   -0.40    0.80
  13  -3  -1   -0.20    0.68
  13  -3   0    0.29    0.66
  13   3   0   -0.10    0.74
  13  -3   1   -0.10    0.64
  13   3   1    0.30    0.72
  13   3   2    2.41    0.92
  13  -3   2    2.63    0.90
  13   3   3   -0.10    0.75
  13  -3   3   -0.20    0.75
  13  -3   4    1.17    0.72
  13   3   4    2.94    1.43
  13   3   5    4.19    1.64
  13  -3   5    1.28    0.81
  13  -3   6    0.84    1.16
  14   0  -5    0.12    0.55
  14   0  -4    0.58    0.57
  14   0  -3   -0.23    0.59
  14   0  -2    0.46    0.55
  14   0  -1   -0.57    0.61
  14   0   0   -0.11    0.57
  14   0   1    1.93    1.25
  14   0   1    0.11    0.52
  14   0   2   70.30    5.56
  14   0   3   -0.39    1.14
  14   0   4    5.66    1.69
  14   0   5   -0.20    1.05
  14   1  -5   29.26    2.82
  14  -1  -4   20.48    2.33
  14   1  -4   21.06    2.33
  14  -1  -3    3.64    1.14
  14   1  -3    2.73    0.96
  14  -1  -2    0.23    0.75
  14   1  -2   -0.23    0.85
  14  -1  -1   -0.11    0.73
  14   1  -1    0.23    0.78
 -14   1   1    0.49    1.51
  14  -1   0   14.54    1.98
  14   1   0   10.20    1.66
  14  -1   1   14.21    1.97
  14   1   1   14.20    1.97
  14  -1   2   31.54    3.76
  14   1   2   29.71    3.66
  14  -1   3    9.21    2.18
  14   1   3    4.85    1.76
  14  -1   4    0.39    1.36
  14   1   4   -0.39    1.29
   0   0   0    0.00    0.00
;
_shelx_hkl_checksum              83197
loop_
_space_group_symop_operation_xyz
'x, y, z'
'-x+1/2, y+1/2, -z+1/2'
'-x, -y, -z'
'x-1/2, -y-1/2, z-1/2'
loop_
_atom_site_label
_atom_site_type_symbol
_atom_site_fract_x
_atom_site_fract_y
_atom_site_fract_z
_atom_site_U_iso_or_equiv
_atom_site_adp_type
_atom_site_occupancy
_atom_site_site_symmetry_order
_atom_site_calc_flag
_atom_site_refinement_flags_posn
_atom_site_refinement_flags_adp
_atom_site_refinement_flags_occupancy
_atom_site_disorder_assembly
_atom_site_disorder_group
I1 I 0.63830(13) 0.1351(2) 0.07958(7) 0.0415(8) Uani 1 1 d . . . . .
I2 I 0.59017(12) -0.3686(2) 0.27467(7) 0.0384(8) Uani 1 1 d . . . . .
Cu1 Cu 0.5421(3) -0.3542(6) 0.13710(17) 0.0575(11) Uani 1 1 d . . . . .
Cu2 Cu 0.6770(4) 0.1315(6) 0.20898(18) 0.0676(12) Uani 1 1 d . . . . .
C1 C 0.3195(17) -0.582(4) 0.0856(10) 0.039(5) Uani 1 1 d . . . . .
H1A H 0.3568 -0.7005 0.0527 0.047 Uiso 1 1 calc R U . . .
N2 N 0.2028(12) -0.568(3) 0.0927(8) 0.035(3) Uani 1 1 d . . . . .
N1 N 0.3727(16) -0.411(3) 0.1301(10) 0.044(4) Uani 1 1 d . . . . .
C2 C 0.2828(16) -0.280(5) 0.1682(10) 0.046(5) Uani 1 1 d . . . . .
H2A H 0.2944 -0.1382 0.2034 0.056 Uiso 1 1 calc R U . . .
C5 C 0.0523(17) -0.515(5) -0.0009(10) 0.047(5) Uani 1 1 d . . . . .
H5A H 0.0947 -0.4082 -0.0335 0.057 Uiso 1 1 calc R U . . .
C3 C 0.1794(18) -0.382(4) 0.1484(10) 0.038(5) Uani 1 1 d . U . . .
H3A H 0.1078 -0.3379 0.1675 0.045 Uiso 1 1 calc R U . . .
C4 C 0.1157(14) -0.731(4) 0.0509(10) 0.041(4) Uani 1 1 d . . . . .
H4A H 0.0586 -0.8252 0.0805 0.049 Uiso 1 1 calc R U . . .
H4B H 0.1534 -0.8995 0.0264 0.049 Uiso 1 1 calc R U . . .
loop_
_atom_site_aniso_label
_atom_site_aniso_U_11
_atom_site_aniso_U_22
_atom_site_aniso_U_33
_atom_site_aniso_U_23
_atom_site_aniso_U_13
_atom_site_aniso_U_12
I1 0.0397(11) 0.0377(12) 0.0471(12) -0.0032(4) 0.0105(8) -0.0029(4)
I2 0.0291(10) 0.0389(11) 0.0476(12) -0.0007(4) 0.0107(7) -0.0009(4)
Cu1 0.0286(17) 0.063(2) 0.081(2) -0.0055(12) 0.0028(15) -0.0093(10)
Cu2 0.059(2) 0.078(2) 0.065(2) -0.0014(12) 0.0143(18) -0.0029(13)
C1 0.031(10) 0.036(9) 0.052(12) -0.007(7) 0.012(9) 0.006(7)
N2 0.008(6) 0.046(8) 0.050(9) 0.003(6) -0.005(6) -0.007(5)
N1 0.030(9) 0.039(8) 0.062(11) 0.003(7) 0.008(8) 0.004(6)
C2 0.033(11) 0.052(10) 0.054(11) -0.003(10) 0.027(9) 0.003(8)
C5 0.036(10) 0.056(12) 0.050(11) -0.010(10) -0.005(10) -0.028(10)
C3 0.021(7) 0.046(8) 0.047(8) -0.001(6) 0.002(7) 0.001(5)
C4 0.018(8) 0.031(9) 0.074(12) 0.002(8) -0.015(8) -0.004(7)
loop_
_atom_type_symbol
_atom_type_description
_atom_type_scat_dispersion_real
_atom_type_scat_dispersion_imag
_atom_type_scat_source
C C 0.0033 0.0016 'International Tables Vol C Tables 4.2.6.8 and 6.1.1.4'
H H 0.0000 0.0000 'International Tables Vol C Tables 4.2.6.8 and 6.1.1.4'
N N 0.0061 0.0033 'International Tables Vol C Tables 4.2.6.8 and 6.1.1.4'
Cu Cu 0.3201 1.2651 'International Tables Vol C Tables 4.2.6.8 and 6.1.1.4'
I I -0.4742 1.8119 'International Tables Vol C Tables 4.2.6.8 and 6.1.1.4'
loop_
_geom_angle_atom_site_label_1
_geom_angle_atom_site_label_2
_geom_angle_atom_site_label_3
_geom_angle
_geom_angle_site_symmetry_1
_geom_angle_site_symmetry_3
_geom_angle_publ_flag
Cu2 I1 Cu1 68.88(10) . . ?
Cu2 I1 Cu1 70.05(10) . 1_565 ?
Cu1 I1 Cu1 106.49(11) . 1_565 ?
Cu2 I2 Cu2 104.77(11) . 1_545 ?
Cu2 I2 Cu2 71.57(11) . 2_645 ?
Cu2 I2 Cu2 71.57(11) 1_545 2_645 ?
Cu2 I2 Cu1 65.37(10) . . ?
Cu2 I2 Cu1 67.56(10) 1_545 . ?
Cu2 I2 Cu1 107.93(11) 2_645 . ?
N1 Cu1 I1 119.3(5) . . ?
N1 Cu1 I1 106.4(5) . 1_545 ?
I1 Cu1 I1 106.49(11) . 1_545 ?
N1 Cu1 I2 104.9(6) . . ?
I1 Cu1 I2 111.05(10) . . ?
I1 Cu1 I2 108.32(11) 1_545 . ?
N1 Cu1 Cu2 129.7(5) . . ?
I1 Cu1 Cu2 54.91(8) . . ?
I1 Cu1 Cu2 123.51(15) 1_545 . ?
I2 Cu1 Cu2 56.17(10) . . ?
N1 Cu1 Cu2 116.6(5) . 1_545 ?
I1 Cu1 Cu2 124.02(15) . 1_545 ?
I1 Cu1 Cu2 53.22(8) 1_545 1_545 ?
I2 Cu1 Cu2 55.11(9) . 1_545 ?
Cu2 Cu1 Cu2 90.99(16) . 1_545 ?
I1 Cu2 I2 114.64(12) . . ?
I1 Cu2 I2 114.05(13) . 1_565 ?
I2 Cu2 I2 104.77(11) . 1_565 ?
I1 Cu2 I2 106.31(12) . 2_655 ?
I2 Cu2 I2 108.42(13) . 2_655 ?
I2 Cu2 I2 108.44(12) 1_565 2_655 ?
I1 Cu2 Cu1 56.21(10) . . ?
I2 Cu2 Cu1 58.46(9) . . ?
I2 Cu2 Cu1 126.22(17) 1_565 . ?
I2 Cu2 Cu1 125.28(13) 2_655 . ?
I1 Cu2 Cu1 56.73(10) . 1_565 ?
I2 Cu2 Cu1 127.29(17) . 1_565 ?
I2 Cu2 Cu1 57.33(9) 1_565 1_565 ?
I2 Cu2 Cu1 124.13(13) 2_655 1_565 ?
Cu1 Cu2 Cu1 90.99(16) . 1_565 ?
N1 C1 N2 111.9(15) . . ?
N1 C1 H1A 124.1 . . ?
N2 C1 H1A 124.1 . . ?
C1 N2 C3 107.8(15) . . ?
C1 N2 C4 126.7(14) . . ?
C3 N2 C4 125.5(15) . . ?
C1 N1 C2 103.8(18) . . ?
C1 N1 Cu1 125.6(13) . . ?
C2 N1 Cu1 130.6(15) . . ?
C3 C2 N1 112(2) . . ?
C3 C2 H2A 123.8 . . ?
N1 C2 H2A 123.8 . . ?
C5 C5 C4 120(2) 3_545 . ?
C5 C5 H5A 119.8 3_545 . ?
C4 C5 H5A 119.8 . . ?
C2 C3 N2 103.9(16) . . ?
C2 C3 H3A 128.0 . . ?
N2 C3 H3A 128.0 . . ?
N2 C4 C5 113.8(14) . . ?
N2 C4 H4A 108.8 . . ?
C5 C4 H4A 108.8 . . ?
N2 C4 H4B 108.8 . . ?
C5 C4 H4B 108.8 . . ?
H4A C4 H4B 107.7 . . ?
loop_
_geom_bond_atom_site_label_1
_geom_bond_atom_site_label_2
_geom_bond_distance
_geom_bond_site_symmetry_2
_geom_bond_publ_flag
I1 Cu2 2.585(4) . ?
I1 Cu1 2.625(3) . ?
I1 Cu1 2.698(3) 1_565 ?
I2 Cu2 2.692(3) . ?
I2 Cu2 2.692(3) 1_545 ?
I2 Cu2 2.703(5) 2_645 ?
I2 Cu1 2.763(4) . ?
Cu1 N1 1.973(19) . ?
Cu1 I1 2.698(3) 1_545 ?
Cu1 Cu2 2.946(5) . ?
Cu1 Cu2 3.034(5) 1_545 ?
Cu2 I2 2.692(3) 1_565 ?
Cu2 I2 2.703(5) 2_655 ?
Cu2 Cu1 3.034(5) 1_565 ?
C1 N1 1.29(3) . ?
C1 N2 1.36(2) . ?
C1 H1A 0.9300 . ?
N2 C3 1.38(2) . ?
N2 C4 1.47(2) . ?
N1 C2 1.40(2) . ?
C2 C3 1.32(3) . ?
C2 H2A 0.9300 . ?
C5 C5 1.21(4) 3_545 ?
C5 C4 1.55(3) . ?
C5 H5A 0.9300 . ?
C3 H3A 0.9300 . ?
C4 H4A 0.9700 . ?
C4 H4B 0.9700 . ?
