#------------------------------------------------------------------------------
#$Date: 2020-10-06 09:04:00 +0300 (Tue, 06 Oct 2020) $
#$Revision: 257226 $
#$URL: file:///home/coder/svn-repositories/cod/cif/7/12/71/7127120.cif $
#------------------------------------------------------------------------------
#
# This file is available in the Crystallography Open Database (COD),
# http://www.crystallography.net/
#
# All data on this site have been placed in the public domain by the
# contributors.
#
data_7127120
loop_
_publ_author_name
'Li, Yan'
'Cheng, Xiu-Fen'
'Fei, Fan'
'Wu, Tian-Rui'
'Bian, Kang-Jie'
'Zhou, Xin'
'Wang, Xi-Sheng'
_publ_section_title
;
 Palladium(II)-catalyzed asymmetric C-H carbonylation to diverse
 isoquinoline derivatives bearing all-carbon quaternary stereocenters.
;
_journal_issue                   78
_journal_name_full
'Chemical communications (Cambridge, England)'
_journal_page_first              11605
_journal_page_last               11608
_journal_paper_doi               10.1039/d0cc05219a
_journal_volume                  56
_journal_year                    2020
_chemical_absolute_configuration ad
_chemical_formula_moiety         'C17 H17 N O3'
_chemical_formula_sum            'C17 H17 N O3'
_chemical_formula_weight         283.32
_space_group_crystal_system      monoclinic
_space_group_IT_number           4
_space_group_name_Hall           'P 2yb'
_space_group_name_H-M_alt        'P 1 21 1'
_atom_sites_solution_hydrogens   geom
_atom_sites_solution_primary     dual
_audit_creation_date             2019-03-27
_audit_creation_method
;
Olex2 1.2
(compiled 2018.05.29 svn.r3508 for OlexSys, GUI svn.r5506)
;
_audit_update_record
;
2020-06-01 deposited with the CCDC.	2020-08-25 downloaded from the CCDC.
;
_cell_angle_alpha                90
_cell_angle_beta                 101.0020(10)
_cell_angle_gamma                90
_cell_formula_units_Z            2
_cell_length_a                   7.37420(10)
_cell_length_b                   8.59040(10)
_cell_length_c                   12.08780(10)
_cell_measurement_reflns_used    8189
_cell_measurement_temperature    293(2)
_cell_measurement_theta_max      73.8710
_cell_measurement_theta_min      5.1160
_cell_volume                     751.656(15)
_computing_molecular_graphics    'Olex2 (Dolomanov et al., 2009)'
_computing_publication_material  'Olex2 (Dolomanov et al., 2009)'
_computing_structure_refinement  'ShelXL (Sheldrick, 2015)'
_computing_structure_solution    'ShelXT (Sheldrick, 2015)'
_diffrn_ambient_temperature      293(2)
_diffrn_measured_fraction_theta_full 0.999
_diffrn_measured_fraction_theta_max 0.992
_diffrn_measurement_device_type  'SuperNova, Dual, Cu at zero, AtlasS2'
_diffrn_radiation_type           CuK\a
_diffrn_radiation_wavelength     1.54184
_diffrn_reflns_av_R_equivalents  0.0284
_diffrn_reflns_av_unetI/netI     0.0193
_diffrn_reflns_Laue_measured_fraction_full 0.999
_diffrn_reflns_Laue_measured_fraction_max 0.992
_diffrn_reflns_limit_h_max       7
_diffrn_reflns_limit_h_min       -9
_diffrn_reflns_limit_k_max       10
_diffrn_reflns_limit_k_min       -9
_diffrn_reflns_limit_l_max       14
_diffrn_reflns_limit_l_min       -14
_diffrn_reflns_number            9272
_diffrn_reflns_point_group_measured_fraction_full 0.944
_diffrn_reflns_point_group_measured_fraction_max 0.925
_diffrn_reflns_theta_full        67.684
_diffrn_reflns_theta_max         73.836
_diffrn_reflns_theta_min         3.725
_exptl_absorpt_coefficient_mu    0.698
_exptl_crystal_density_diffrn    1.252
_exptl_crystal_description       block
_exptl_crystal_F_000             300
_exptl_crystal_size_max          0.4
_exptl_crystal_size_mid          0.2
_exptl_crystal_size_min          0.1
_refine_diff_density_max         0.420
_refine_diff_density_min         -0.660
_refine_diff_density_rms         0.193
_refine_ls_abs_structure_details
;
 Flack x determined using 1164 quotients [(I+)-(I-)]/[(I+)+(I-)]
 (Parsons, Flack and Wagner, Acta Cryst. B69 (2013) 249-259).
;
_refine_ls_abs_structure_Flack   0.13(8)
_refine_ls_extinction_method     none
_refine_ls_goodness_of_fit_ref   1.248
_refine_ls_hydrogen_treatment    constr
_refine_ls_matrix_type           full
_refine_ls_number_parameters     193
_refine_ls_number_reflns         2808
_refine_ls_number_restraints     1
_refine_ls_restrained_S_all      1.247
_refine_ls_R_factor_all          0.0608
_refine_ls_R_factor_gt           0.0606
_refine_ls_shift/su_max          0.000
_refine_ls_shift/su_mean         0.000
_refine_ls_structure_factor_coef Fsqd
_refine_ls_weighting_details
'w=1/[\s^2^(Fo^2^)+(0.1000P)^2^] where P=(Fo^2^+2Fc^2^)/3'
_refine_ls_weighting_scheme      calc
_refine_ls_wR_factor_gt          0.1325
_refine_ls_wR_factor_ref         0.1331
_reflns_Friedel_coverage         0.742
_reflns_Friedel_fraction_full    0.881
_reflns_Friedel_fraction_max     0.848
_reflns_number_gt                2783
_reflns_number_total             2808
_reflns_threshold_expression     'I > 2\s(I)'
_cod_data_source_file            d0cc05219a2.cif
_cod_data_source_block           exp_47
_cod_depositor_comments
'Adding full bibliography for 7127117--7127120.cif.'
_cod_database_code               7127120
_shelx_shelxl_version_number     2018/3
_shelx_space_group_comment
;
The symmetry employed for this shelxl refinement is uniquely defined
by the following loop, which should always be used as a source of
symmetry information in preference to the above space-group names.
They are only intended as comments.
;
_shelx_estimated_absorpt_t_max   0.933
_shelx_estimated_absorpt_t_min   0.768
_olex2_refinement_description
;
1. Fixed Uiso
 At 1.2 times of:
  All C(H) groups
 At 1.5 times of:
  All C(H,H,H) groups, All O(H) groups
2.a Ternary CH refined with riding coordinates:
 C8(H006)
2.b Aromatic/amide H refined with riding coordinates:
 C16(H007), C12(H00D), C14(H00E), C13(H00F), C15(H00G), C2(H00H), C5(H00I),
 C3(H00J), C4(H00K)
2.c Idealised Me refined as rotating group:
 C17(H00A,H00B,H00C), C20(H00L,H00M,H00N)
2.d Idealised tetrahedral OH refined as rotating group:
 O18(H001)
;
_shelx_res_file
;
TITL exp_47_a.res in P2(1)
    exp_47.res
    created by SHELXL-2018/3 at 22:12:01 on 27-Mar-2019
REM Old TITL exp_47_a.res in P2(1)
REM SHELXT solution in P2(1): R1 0.138, Rweak 0.047, Alpha 0.004
REM <I/s> 2.103 for 5 systematic absences, Orientation as input
REM Flack x = 0.268 ( 0.077 ) from 1174 Parsons' quotients
REM Formula found by SHELXT: C17 N O3
CELL 1.54184 7.3742 8.5904 12.0878 90 101.002 90
ZERR 2 0.0001 0.0001 0.0001 0 0.001 0
LATT -1
SYMM -X,0.5+Y,-Z
SFAC C H N O
UNIT 34.000002 34.000002 1.999998 6

L.S. 10
PLAN  20
SIZE 0.4 0.2 0.1
BOND
LIST 6
fmap 2
ACTA
REM <olex2.extras>
REM <HklSrc "%.\\exp_47.hkl">
REM </olex2.extras>

WGHT    0.100000
FVAR       2.19821
O18   4    0.730670    0.490226    0.528105    11.00000    0.05485    0.05956 =
         0.04087   -0.00621    0.01474   -0.01870
AFIX 147
H001  2    0.698793    0.440296    0.469819    11.00000   -1.50000
AFIX   0
O19   4    0.342422    0.603424    0.525810    11.00000    0.03844    0.07250 =
         0.04887    0.02138   -0.00325   -0.00537
O21   4    0.464167    0.841797    0.660214    11.00000    0.08418    0.04822 =
         0.05946    0.00927    0.00666    0.02275
N9    3    0.493038    0.587267    0.615024    11.00000    0.03988    0.04475 =
         0.04097    0.00912   -0.00105    0.00070
C11   1    0.584206    0.350286    0.790852    11.00000    0.03793    0.02742 =
         0.03926    0.00493    0.00427    0.00158
C8    1    0.612884    0.455901    0.602892    11.00000    0.04028    0.03721 =
         0.03628   -0.00050    0.00556   -0.00793
AFIX  13
H006  2    0.535537    0.366834    0.573367    11.00000   -1.20000
AFIX   0
C16   1    0.554632    0.420954    0.888729    11.00000    0.05077    0.04452 =
         0.04104   -0.00198    0.00840   -0.00365
AFIX  43
H007  2    0.620249    0.510547    0.914294    11.00000   -1.20000
AFIX   0
C7    1    0.722435    0.413731    0.721552    11.00000    0.03717    0.02977 =
         0.03755   -0.00133    0.00421   -0.00243
C17   1    0.861623    0.284438    0.709949    11.00000    0.04472    0.03719 =
         0.06158   -0.00628    0.01050    0.00246
AFIX 137
H00A  2    0.918291    0.247725    0.783442    11.00000   -1.50000
H00B  2    0.954934    0.324901    0.672253    11.00000   -1.50000
H00C  2    0.798591    0.199921    0.666904    11.00000   -1.50000
AFIX   0
C1    1    0.818572    0.560872    0.773970    11.00000    0.03943    0.03417 =
         0.03930   -0.00167    0.00606   -0.00496
C12   1    0.484699    0.215404    0.754830    11.00000    0.05466    0.03158 =
         0.05374   -0.00085    0.01214   -0.00625
AFIX  43
H00D  2    0.503626    0.164742    0.689991    11.00000   -1.20000
AFIX   0
C14   1    0.328132    0.228677    0.911758    11.00000    0.04947    0.05211 =
         0.06170    0.02236    0.01601    0.00371
AFIX  43
H00E  2    0.241557    0.189361    0.951184    11.00000   -1.20000
AFIX   0
C13   1    0.356968    0.156082    0.815506    11.00000    0.05580    0.03958 =
         0.07293    0.00927    0.01527   -0.01119
AFIX  43
H00F  2    0.290819    0.066541    0.790459    11.00000   -1.20000
AFIX   0
C10   1    0.552434    0.720101    0.670907    11.00000    0.05467    0.03707 =
         0.04157    0.00976    0.01260    0.00733
C6    1    0.733386    0.704844    0.749635    11.00000    0.05292    0.03360 =
         0.03781    0.00287    0.00981   -0.00379
C15   1    0.428217    0.360380    0.949844    11.00000    0.05883    0.06093 =
         0.04543    0.00542    0.01545    0.00230
AFIX  43
H00G  2    0.411438    0.408592    1.016041    11.00000   -1.20000
AFIX   0
C2    1    0.988344    0.557244    0.847546    11.00000    0.04477    0.04823 =
         0.05686   -0.00647   -0.00366   -0.00505
AFIX  43
H00H  2    1.047891    0.462373    0.864582    11.00000   -1.20000
AFIX   0
C5    1    0.816139    0.840671    0.798610    11.00000    0.07798    0.03369 =
         0.05688   -0.00072    0.01653   -0.00977
AFIX  43
H00I  2    0.757851    0.936192    0.782192    11.00000   -1.20000
AFIX   0
C3    1    1.070610    0.692610    0.896049    11.00000    0.05191    0.06628 =
         0.06669   -0.01196   -0.00268   -0.01983
AFIX  43
H00J  2    1.184056    0.687671    0.945196    11.00000   -1.20000
AFIX   0
C4    1    0.985251    0.833126    0.871735    11.00000    0.07768    0.05049 =
         0.06620   -0.01357    0.01290   -0.03032
AFIX  43
H00K  2    1.040681    0.923635    0.904270    11.00000   -1.20000
AFIX   0
C20   1    0.178651    0.551866    0.560763    11.00000    0.04493    0.16289 =
         0.11250    0.06264    0.00607   -0.01909
AFIX 137
H00L  2    0.078025    0.551730    0.497315    11.00000   -1.50000
H00M  2    0.150430    0.620707    0.617712    11.00000   -1.50000
H00N  2    0.197094    0.448404    0.590824    11.00000   -1.50000
AFIX   0
HKLF 4




REM  exp_47_a.res in P2(1)
REM wR2 = 0.1331, GooF = S = 1.248, Restrained GooF = 1.247 for all data
REM R1 = 0.0606 for 2783 Fo > 4sig(Fo) and 0.0608 for all 2808 data
REM 193 parameters refined using 1 restraints

END

WGHT      0.0929      0.0231

REM Highest difference peak  0.420,  deepest hole -0.660,  1-sigma level  0.193
Q1    1  -0.0254  0.7512  0.5736  11.00000  0.05    0.42
Q2    1   0.1192  0.2643  0.4526  11.00000  0.05    0.42
Q3    1   0.0577  0.6234  0.7029  11.00000  0.05    0.38
Q4    1   0.0561  0.8769  0.6745  11.00000  0.05    0.35
Q5    1   0.0060  0.5077  0.3202  11.00000  0.05    0.33
Q6    1   0.0893  0.5122  0.7016  11.00000  0.05    0.32
Q7    1   0.0617  0.0751  0.6957  11.00000  0.05    0.32
Q8    1   0.0195  0.2171  0.9530  11.00000  0.05    0.31
Q9    1   1.0245  1.1091  0.9571  11.00000  0.05    0.29
Q10   1   0.9858  0.1800  0.8746  11.00000  0.05    0.29
Q11   1   1.0312  0.8514  1.0305  11.00000  0.05    0.29
Q12   1   0.9133  0.1586  0.8964  11.00000  0.05    0.27
Q13   1   1.0179  1.0113  0.9797  11.00000  0.05    0.25
Q14   1   1.3472  0.6388  0.8377  11.00000  0.05    0.25
Q15   1   1.1058  0.2120  0.6895  11.00000  0.05    0.25
Q16   1   0.5611  0.2930  1.1534  11.00000  0.05    0.23
Q17   1   1.3653  0.7807  0.8740  11.00000  0.05    0.23
Q18   1   0.5390  0.2421  1.0986  11.00000  0.05    0.22
Q19   1   0.4204 -0.1008  0.8142  11.00000  0.05    0.20
Q20   1   0.2405 -0.0399  0.8736  11.00000  0.05    0.19
;
_shelx_res_checksum              8520
_shelx_hkl_file
;
   0   0  -1  691.48    5.61
   0   0  -1  703.94    5.88
   0   0  -2 2397.61   17.79
   0   0  -2 2524.27   18.42
   0   0  -3 2501.56   20.08
   0   0  -3 2603.43   21.06
   0   0  -4   11.42    1.14
   0   0   4    9.46    1.19
   0   0   5  679.37   12.02
   0   0  -5  703.77   11.37
   0   0  -6  220.24    6.41
   0   0   6  176.10    6.63
   0   0   7  831.69   15.07
   0   0   7  847.06   16.49
   0   0   8  156.26    7.51
   0   0   8  149.46    6.81
   0   0  -9  124.35    6.37
   0   0   9  119.13    4.57
   0   0  -9  112.34    4.48
   0   0  -9  122.62    5.03
   0   0   9  127.02    5.07
   0   0   9  121.46    5.02
   0   0   9  114.08    6.98
   0   0   9  114.02    6.40
   0   0  10   20.55    3.20
   0   0 -10   17.30    2.48
   0   0 -10   19.26    1.88
   0   0  10   27.93    2.31
   0   0  10   18.54    2.08
   0   0 -10   19.75    2.12
   0   0  11   10.72    1.50
   0   0 -11    9.59    1.31
   0   0  11    9.23    1.51
   0   0  12   55.85    3.16
   0   0 -12   56.74    2.84
   0   0  12   57.58    3.45
   0   0  13    3.96    0.84
   0   0  13    3.06    0.83
   0   0  14   80.49    2.78
   0   0  14   81.51    2.89
   0   1   0    0.90    0.21
   0  -1   0    1.45    0.18
   0  -1   1 4662.03   25.41
   0   1   1 4719.07   25.56
   0   1  -1 4515.58   26.70
   0   1   1 4488.31   26.64
   0  -1  -1 4309.96   25.64
   0  -1   2 2366.94   18.20
   0   1   2 2281.73   16.53
   0  -1  -2 2359.24   17.11
   0   1   2 2322.39   18.00
   0   1  -2 2394.73   16.86
   0  -1  -2 2279.06   16.49
   0   1   3 4322.93   27.00
   0   1  -3 4289.62   31.52
   0  -1   3 4381.16   31.98
   0   1   3 4310.60   31.67
   0  -1  -3 4234.45   30.06
   0   1  -3 4306.96   27.12
   0   1  -4 1560.45   10.62
   0  -1   4 1444.38   16.91
   0  -1  -4 1491.05   14.49
   0  -1  -4 1559.93   15.67
   0   1   4 1441.23   16.68
   0  -1   5 3640.70   33.52
   0  -1  -5 3695.72   30.01
   0   1   5 3684.89   33.55
   0  -1  -5 3635.22   31.10
   0   1   6  614.41   12.73
   0  -1   6  654.22   13.09
   0  -1  -6  709.49   12.43
   0  -1  -6  747.23   11.73
   0   1  -6  744.99   13.00
   0   1   6  607.45   10.72
   0  -1  -7  110.78    4.83
   0   1   7   96.19    5.29
   0   1  -7  113.32    5.30
   0   1   7  105.19    4.79
   0  -1  -7  120.82    5.39
   0  -1   7   95.93    5.43
   0  -1   7   93.72    5.17
   0  -1  -8  468.76   11.27
   0  -1   8  459.65   12.30
   0  -1   8  454.46   13.13
   0   1   8  409.33   12.25
   0  -1   8  403.61   12.06
   0   1  -8  456.08   11.73
   0  -1   9  680.65   12.23
   0  -1   9  673.05   11.33
   0  -1   9  706.25   12.32
   0   1   9  593.56   16.16
   0  -1  -9  689.56   12.90
   0   1   9  673.53   11.62
   0  -1   9  595.68   15.93
   0   1   9  684.44   12.59
   0   1  -9  704.66   12.34
   0  -1  -9  735.49   16.15
   0  -1   9  656.81   17.27
   0  -1 -10  274.32    6.84
   0  -1 -10  283.10    7.81
   0  -1  10  306.13   12.45
   0   1  10  288.57    8.30
   0  -1  10  267.76   10.96
   0  -1 -10  293.85   10.23
   0  -1 -10  301.10    8.43
   0  -1  10  297.97    8.19
   0   1  10  300.81    7.77
   0  -1  10  303.25    8.20
   0  -1  10  300.57    7.55
   0   1  10  264.03   11.17
   0   1  11  330.43    8.20
   0  -1 -11  353.60    9.18
   0   1 -11  342.47    8.14
   0  -1 -11  317.25    8.07
   0  -1  11  336.12    8.07
   0   1  11  322.45    8.83
   0  -1  11  343.15    8.65
   0   1  12  209.59    6.18
   0   1  12  206.64    6.64
   0  -1  12  210.74    6.15
   0  -1 -12  204.53    5.87
   0  -1  12  207.11    6.29
   0   1 -12  211.38    5.98
   0   1  13   67.82    3.12
   0   1  13   68.62    3.37
   0  -1  13   69.89    3.08
   0  -1  13   64.78    3.04
   0   1  14    5.39    0.83
   0  -1  14    3.97    0.69
   0   1  14    3.77    0.69
   0  -2   0  453.44    6.21
   0  -2   0  472.51    5.29
   0  -2  -1 4840.73   30.43
   0  -2   1 5182.02   33.27
   0  -2  -1 4964.27   33.01
   0   2  -1 4878.49   35.10
   0  -2  -1 4884.21   31.82
   0   2   1 4826.79   34.91
   0   2  -1 4620.95   32.51
   0  -2  -1 4969.75   28.22
   0   2  -1 4818.36   30.06
   0   2   1 5081.25   30.28
   0   2   2 5586.00   35.63
   0   2  -2 5631.14   37.92
   0  -2   2 5572.91   35.18
   0  -2  -2 5419.87   34.88
   0  -2  -2 5261.59   35.26
   0   2   2 5194.49   37.25
   0  -2  -2 5286.83   30.98
   0  -2  -3 3755.54   26.81
   0  -2   3 3760.50   28.61
   0  -2  -3 3834.99   27.48
   0   2  -3 3871.08   28.41
   0   2   3 3742.27   28.04
   0   2  -4  153.87    3.78
   0  -2  -4  152.97    4.28
   0   2   4  148.63    4.78
   0   2   4  151.90    3.72
   0  -2   4  143.90    4.67
   0  -2  -4  153.58    4.00
   0  -2  -5  555.24    9.65
   0   2   5  545.63    7.89
   0  -2   5  533.08   10.60
   0  -2  -5  555.77    8.93
   0  -2   6   52.17    3.81
   0  -2  -6   64.62    3.28
   0  -2   6   59.76    3.87
   0  -2  -6   65.49    3.53
   0   2   6   53.59    3.64
   0  -2   7  145.42    6.80
   0  -2  -7  155.02    5.71
   0  -2   7  133.95    6.74
   0  -2  -7  152.24    6.17
   0   2   8  276.66   10.05
   0   2   8  341.17    8.44
   0  -2   8  292.23   10.93
   0  -2   8  361.05    8.19
   0   2   8  352.20    7.94
   0  -2  -8  315.24    8.56
   0  -2   8  314.45   11.13
   0  -2   8  323.74   11.13
   0  -2  -8  315.67    9.04
   0  -2   8  339.02    7.42
   0  -2  -8  312.20    9.65
   0  -2   9  243.35   10.24
   0  -2   9  228.35   10.30
   0   2   9  262.78    7.20
   0   2  -9  250.28    7.05
   0   2   9  258.76    7.72
   0   2   9  254.01    7.72
   0  -2   9  260.00    7.34
   0  -2  -9  251.01    8.81
   0  -2   9  256.33    6.83
   0  -2   9  253.18    6.40
   0  -2  -9  260.06    8.12
   0  -2   9  260.18   10.95
   0  -2  10   63.92    3.75
   0   2  10   68.90    4.01
   0   2 -10   64.82    3.64
   0   2  10   63.36    3.94
   0  -2 -10   71.42    4.25
   0  -2 -10   67.34    3.87
   0   2  10   62.33    3.57
   0  -2  10   61.61    3.41
   0  -2 -11   19.14    2.21
   0  -2  11   17.56    2.02
   0  -2  11   16.69    1.80
   0   2 -11   15.68    1.77
   0  -2 -11   15.80    1.86
   0   2  11   16.71    1.87
   0  -2 -11   15.80    1.68
   0   2  11   15.71    1.98
   0  -2  12  227.58    6.26
   0   2  12  214.82    6.78
   0   2  12  235.83    6.56
   0  -2 -12  250.89    7.19
   0  -2 -12  242.26    5.58
   0  -2 -12  230.46    6.42
   0   2 -12  209.89    5.98
   0   2  13  219.32    6.00
   0   2  13  228.33    5.66
   0  -2 -13  208.63    5.08
   0  -2  13  219.89    5.46
   0   2 -13  214.19    5.03
   0  -2 -13  221.37    5.30
   0   2  14   40.21    1.90
   0  -2  14   38.48    1.87
   0  -3   0   -0.01    0.16
   0   3   0    0.15    0.27
   0  -3  -1 1693.85   14.00
   0  -3  -1 1630.07   10.84
   0   3  -1 1648.88   11.10
   0   3   1 1654.50   17.68
   0  -3   1 1641.44   15.74
   0   3  -1 1781.22   16.68
   0   3  -1 1729.69   18.87
   0  -3  -1 1680.18   15.21
   0   3   1 1620.66   18.34
   0   3  -2   87.59    3.74
   0   3   2   99.56    3.98
   0  -3  -2  102.14    3.02
   0   3  -2   95.69    2.50
   0  -3  -2   93.13    1.70
   0   3   2   87.16    2.49
   0  -3   2   78.08    3.32
   0  -3  -2  104.30    3.33
   0   3   2   83.30    3.61
   0  -3   3  307.55    5.66
   0   3  -3  331.49    7.39
   0   3   3  357.24    8.24
   0   3   3  315.08    7.10
   0   3   3  303.98    6.03
   0  -3  -3  342.62    6.27
   0  -3  -3  335.70    6.16
   0  -3   3  293.41    7.44
   0  -3   4 2142.84   21.24
   0   3   4 2176.08   24.66
   0   3   4 2129.70   21.42
   0   3  -4 2131.83   21.23
   0   3   4 2053.48   20.85
   0  -3   4 2128.50   24.64
   0  -3  -4 2097.23   19.67
   0  -3  -4 2179.61   20.53
   0   3  -5  871.38   11.77
   0  -3   5  750.55   14.91
   0   3   5  856.69   11.67
   0   3   5  862.64   15.95
   0   3   5  747.57   12.99
   0  -3  -5  824.88   11.72
   0  -3  -5  851.55   12.67
   0  -3   5  811.91   13.31
   0  -3  -6   86.11    3.92
   0  -3  -6   86.09    4.24
   0   3   6   71.59    4.21
   0   3   6   91.24    5.42
   0  -3   6   82.18    5.21
   0  -3   6   86.80    4.73
   0  -3  -7  102.03    5.08
   0  -3   7  100.38    6.44
   0  -3  -7  101.07    4.71
   0  -3   7   99.44    6.29
   0  -3   7  106.41    5.85
   0   3   7   86.33    5.14
   0   3   7  104.29    6.40
   0  -3   8  153.62    4.66
   0   3   8  151.18    5.93
   0   3   8  150.08    5.65
   0   3  -8  150.19    5.55
   0  -3   8  144.23    8.16
   0  -3   8  139.07    8.00
   0  -3  -8  145.95    6.69
   0  -3   8  158.22    7.86
   0   3   8  124.49    6.77
   0  -3   8  153.41    5.41
   0  -3  -8  145.36    6.25
   0   3   8  144.75    5.73
   0   3   8  147.49    5.28
   0   3   8  168.46    9.07
   0   3   9   86.70    6.03
   0  -3  -9   99.05    5.50
   0  -3   9  102.83    4.62
   0  -3   9   99.59    7.13
   0  -3   9  103.27    4.02
   0  -3   9  104.85    7.19
   0   3   9   94.61    4.81
   0  -3  -9   98.47    5.04
   0  -3   9  100.92    4.33
   0   3  -9  103.42    4.69
   0   3   9  102.46    5.03
   0   3   9  102.80    4.78
   0   3   9  106.83    4.66
   0   3   9  111.75    7.92
   0  -3   9  104.88    6.75
   0   3  10   60.79    3.58
   0  -3 -10   57.97    3.83
   0   3 -10   57.59    3.52
   0   3  10   63.61    3.68
   0   3  10   61.81    3.93
   0  -3  10   58.67    3.36
   0  -3  10   65.26    3.75
   0  -3  10   61.62    3.18
   0  -3  11   13.59    1.74
   0   3  11   10.51    1.66
   0  -3 -11   13.29    1.82
   0   3 -11    9.91    1.48
   0   3  11    9.62    1.47
   0  -3 -11    8.45    1.23
   0  -3 -11    9.15    1.47
   0  -3  11   11.20    1.49
   0   3  12  135.30    5.22
   0  -3 -12  133.79    4.22
   0  -3 -12  130.02    4.70
   0   3 -12  127.86    4.48
   0   3  12  139.81    4.85
   0  -3  12  130.32    4.50
   0  -3 -12  143.81    5.19
   0   3 -13   21.19    1.47
   0   3  13   25.75    2.01
   0  -3  13   24.95    1.74
   0  -3 -13   22.93    1.67
   0  -3 -13   25.85    1.43
   0   3  13   24.01    1.73
   0  -3 -13   22.96    1.68
   0  -3  14   79.09    2.39
   0  -4   0  567.28    9.38
   0   4   0  556.67   11.49
   0   4   0  575.63   10.24
   0  -4   0  560.67    7.01
   0  -4   0  542.14    8.75
   0   4   1  584.38   10.92
   0   4  -1  610.98   10.34
   0  -4  -1  573.65    9.76
   0  -4  -1  593.70    8.92
   0  -4   1  571.23   10.59
   0  -4  -1  600.37    8.04
   0  -4   1  533.97    8.35
   0   4  -1  539.89   11.34
   0   4   1  558.35   11.51
   0  -4  -2   54.78    2.55
   0  -4   2   56.47    3.08
   0  -4   2   52.81    3.43
   0   4   2   56.36    3.53
   0  -4  -2   56.50    2.95
   0   4  -2   50.08    3.36
   0   4   2   56.60    3.43
   0   4   3  178.37    6.27
   0  -4  -3  183.92    5.01
   0   4  -3  173.18    6.21
   0  -4   3  183.66    7.07
   0   4   3  187.73    6.82
   0  -4  -3  191.86    5.24
   0  -4   3  182.49    6.32
   0   4   4  163.56    6.85
   0  -4   4  161.37    6.61
   0   4   4  146.42    5.60
   0  -4  -4  163.89    5.12
   0  -4   4  162.59    7.20
   0  -4  -4  154.74    4.89
   0   4  -4  148.46    5.71
   0   4   5 1101.46   20.13
   0  -4   5 1170.44   21.71
   0  -4  -5 1085.36   14.96
   0   4  -5 1093.11   16.20
   0  -4   5 1114.72   19.99
   0  -4  -5 1175.03   16.02
   0   4   5 1177.06   16.43
   0  -4   6  805.24   18.31
   0  -4  -6  808.96   13.50
   0  -4   6  815.93   19.23
   0   4   6  830.11   18.60
   0  -4  -7  184.65    6.65
   0  -4   7  205.26    6.08
   0   4   7  178.51    5.63
   0   4   7  196.77    9.65
   0   4  -7  200.93    6.53
   0   4   7  201.55    6.75
   0  -4   7  188.50    9.60
   0  -4   7  182.39    9.14
   0   4   7  194.61    6.49
   0   4   7  206.02    7.08
   0   4   8  124.46    5.49
   0   4   8  124.67    5.45
   0   4   8  137.64    8.64
   0  -4   8  123.45    7.92
   0  -4   8  133.35    4.41
   0  -4   8  129.72    5.06
   0   4  -8  122.55    5.21
   0   4   8  122.04    4.88
   0  -4  -8  122.91    5.90
   0  -4   8  126.92    8.14
   0  -4   9    3.05    0.87
   0   4  -9    5.92    1.16
   0   4   9    4.35    1.15
   0  -4   9    2.95    0.87
   0   4   9    3.83    1.00
   0  -4  -9    2.79    1.00
   0  -4   9    3.53    0.82
   0   4   9    4.28    1.09
   0  -4  10   18.36    1.94
   0   4  10   16.37    2.05
   0   4  10   17.27    1.89
   0  -4  10   20.37    1.96
   0  -4  10   17.54    1.67
   0   4 -10   15.53    1.82
   0  -4 -10   16.32    2.04
   0   4  10   16.04    1.94
   0  -4  11  100.30    4.06
   0  -4 -11  101.78    4.50
   0   4  11  109.97    4.49
   0  -4 -11   84.98    3.84
   0  -4  11  102.44    4.27
   0   4  11  111.22    4.98
   0   4 -11   93.70    4.10
   0  -4 -11   96.08    4.37
   0  -4  12  209.76    5.35
   0  -4 -12  218.81    5.81
   0   4  12  220.08    5.63
   0   4 -12  193.60    5.14
   0  -4 -12  206.76    5.60
   0  -4 -12  199.11    5.01
   0  -4 -13   73.37    2.66
   0   4  13   77.93    2.64
   0  -4  13   75.22    2.62
   0  -4 -13   78.67    2.75
   0  -4 -13   75.63    2.27
   0   5   0   -0.31    0.56
   0  -5   0   -0.23    0.36
   0  -5   0   -0.15    0.36
   0   5   0   -0.32    0.67
   0   5  -1  345.88    8.79
   0  -5  -1  346.94    7.44
   0  -5   1  358.16    9.00
   0   5   1  323.48    9.05
   0   5  -1  305.14    9.64
   0   5   1  321.77    9.92
   0  -5  -1  307.52    7.84
   0  -5   2  238.10    6.54
   0   5   2  238.17    7.98
   0  -5  -2  236.05    6.72
   0  -5   2  240.49    8.08
   0   5  -2  216.69    8.04
   0   5   2  228.09    8.27
   0  -5  -2  243.29    6.15
   0  -5  -3  396.35    8.30
   0  -5   3  391.25   11.28
   0   5   3  346.98   10.17
   0  -5  -3  350.74    8.15
   0  -5   3  373.81    9.47
   0   5   3  368.27   10.63
   0   5  -3  338.96   10.04
   0   5   4  422.58   12.31
   0   5   4  405.59   10.87
   0  -5   4  398.56   10.87
   0  -5  -4  394.04    8.77
   0   5  -4  379.99   10.63
   0  -5   4  442.13   13.12
   0   5   5   44.99    4.30
   0  -5   5   50.86    4.73
   0   5  -5   49.57    3.20
   0   5   5   51.17    3.36
   0   5  -5   43.55    3.41
   0  -5   5   45.37    4.09
   0  -5  -5   53.23    3.32
   0   5  -5   48.62    2.71
   0   5   6  349.90    7.83
   0  -5   6  387.71   12.76
   0  -5  -6  376.12    9.56
   0   5   6  434.34    9.72
   0   5   6  384.49    9.18
   0  -5   6  418.87   14.41
   0   5  -6  412.18    9.76
   0   5   6  402.56   13.87
   0   5  -6  431.04    8.36
   0   5   6  430.18   10.34
   0  -5   7  300.01   11.92
   0  -5   7  337.36   13.58
   0   5   7  281.42    7.30
   0   5   7  306.03    8.56
   0   5   7  323.18    9.22
   0   5   7  315.06   13.19
   0   5  -7  315.52    8.63
   0  -5  -7  279.42    8.63
   0   5   8   22.50    2.44
   0   5   8   19.82    1.99
   0  -5   8   22.00    1.82
   0  -5   8   21.83    2.03
   0   5   8   22.71    2.47
   0   5  -8   19.99    2.17
   0   5   9    5.34    1.07
   0  -5   9    6.46    1.03
   0   5  -9    5.03    1.13
   0  -5   9    5.39    1.01
   0  -5   9    6.58    1.15
   0  -5  -9    4.59    1.10
   0   5   9    6.43    1.45
   0  -5 -10   37.94    2.80
   0   5 -10   38.32    2.73
   0  -5  10   40.98    2.62
   0   5  10   42.56    2.80
   0  -5 -10   32.96    2.58
   0  -5  10   39.54    2.52
   0   5  11   46.41    2.62
   0  -5 -11   40.35    2.58
   0   5 -11   39.31    2.44
   0  -5 -11   40.45    2.56
   0  -5 -11   33.78    2.28
   0  -5  11   40.05    2.33
   0  -5 -12   38.66    2.07
   0   5  12   44.31    2.09
   0   5 -12   38.21    1.96
   0  -5  12   42.31    2.05
   0  -5 -12   38.84    1.96
   0  -5 -13   21.29    1.16
   0  -5 -13   22.21    1.19
   0  -6   0  781.07   13.04
   0  -6   0  753.35   14.27
   0  -6   1  534.65   11.04
   0   6   1  619.91   13.91
   0  -6  -1  574.46   12.08
   0   6   1  601.27   15.43
   0   6  -1  622.49   10.37
   0   6  -1  566.55   14.91
   0   6  -2  558.62    9.70
   0   6  -2  596.91   10.83
   0   6   2  574.23   14.00
   0  -6  -2  516.61   11.08
   0   6   2  533.65   14.48
   0   6   2  594.86   10.85
   0   6  -2  534.83   14.39
   0  -6   2  608.69   13.73
   0   6  -2  586.68   10.46
   0   6   3  126.61    4.81
   0   6   3  148.58    5.46
   0  -6  -3  122.36    5.19
   0   6  -3  128.18    6.92
   0   6  -3  144.13    5.37
   0   6  -3  145.20    5.06
   0   6   3  132.54    7.05
   0   6   3  136.80    7.06
   0  -6   3  149.31    7.49
   0   6  -3  138.07    4.59
   0   6   4   47.97    3.01
   0  -6   4   52.86    4.79
   0   6  -4   46.34    4.14
   0   6  -4   55.04    3.13
   0   6   4   51.68    3.32
   0  -6  -4   45.80    3.19
   0   6   4   48.45    4.20
   0   6  -4   50.72    3.29
   0   6   4   53.58    4.69
   0   6  -4   49.17    2.73
   0   6   5   64.86    3.16
   0   6   5   74.25    4.01
   0   6   5   76.42    5.97
   0   6  -5   73.97    4.08
   0  -6   5   72.78    5.99
   0  -6  -5   65.75    3.96
   0   6  -5   77.97    3.74
   0   6  -6  350.86    9.22
   0   6  -6  364.00    8.17
   0   6  -7  241.38    7.57
   0   6   7  224.30    6.41
   0   6   8  127.45    4.77
   0   6  -8  128.36    5.32
   0  -6  -8  116.73    4.97
   0   6  -9  225.20    6.64
   0  -6   9  215.98    5.79
   0  -6  -9  210.59    6.27
   0   6 -10  105.88    4.06
   0  -6  10  108.01    3.71
   0  -6 -10  107.18    3.93
   0  -6 -10   95.24    3.83
   0   6 -11   36.50    2.00
   0  -6  11   37.23    1.84
   0  -6 -11   35.52    2.02
   0  -6 -11   35.52    1.98
   0  -6 -11   39.51    1.95
   0  -6 -12   54.73    1.84
   0  -6 -12   54.75    1.92
   0  -6 -12   61.56    1.97
   0  -6 -12   56.64    1.91
   0   7   0   -0.22    0.60
   0   7   0   -0.23    0.76
   0   7   0   -0.27    0.88
   0  -7   0    2.16    0.90
   0   7  -1 1093.60   23.09
   0   7  -1 1110.40   15.22
   0   7  -1 1144.24   15.41
   0   7   1 1183.14   21.35
   0   7   1 1064.65   15.62
   0   7   1 1196.95   24.25
   0   7   1 1144.21   16.08
   0  -7  -1  892.05   16.49
   0   7  -1 1128.23   16.13
   0   7  -2  422.15    9.31
   0   7  -2  406.70    9.21
   0   7  -2  388.46   13.26
   0   7   2  419.19   12.73
   0   7   2  389.55    9.03
   0   7  -2  381.64    8.33
   0   7   2  414.05    9.44
   0   7   2  404.91   13.78
   0  -7  -3   79.31    4.37
   0   7  -3  100.06    4.45
   0   7   3   87.53    4.21
   0   7  -3   88.77    3.88
   0   7  -3   97.99    4.56
   0   7   3   98.14    4.61
   0   7   4  142.03    5.64
   0   7  -4  143.17    4.90
   0   7  -4  147.29    5.38
   0   7  -4  138.44    5.52
   0   7   4  130.55    5.18
   0   7   5  331.63    8.63
   0   7  -5  318.60    8.63
   0   7   5  312.89    7.97
   0   7  -5  338.84    8.10
   0   7   6   60.40    3.52
   0   7  -6   52.32    3.42
   0   7  -6   59.79    3.27
   0   7  -7   61.71    3.58
   0   7  -8   50.60    3.01
   0  -7  -8   43.81    2.53
   0  -7   8   46.11    2.38
   0  -7  -9    4.28    0.75
   0  -7   9    3.24    0.62
   0   7  -9    3.21    0.73
   0  -7 -10   22.79    1.41
   0  -7 -10   22.95    1.41
   0   7 -10   24.92    1.62
   0  -7 -10   23.03    1.56
   0  -7 -11   25.71    1.27
   0   7 -11   24.70    1.19
   0   8   0 1055.67   15.23
   0   8   0 1019.16   15.40
   0   8  -1  103.85    4.48
   0   8   1   93.59    4.32
   0   8  -1   92.76    4.35
   0   8   1   91.36    4.35
   0   8  -1   97.98    4.29
   0   8  -2  219.70    6.61
   0   8   2  203.06    6.46
   0   8  -2  197.25    5.92
   0   8   2  210.14    6.62
   0   8  -2  211.74    6.53
   0   8  -3    2.89    0.98
   0   8   3    2.71    0.79
   0   8   3    2.11    0.80
   0   8  -3    2.93    0.92
   0   8  -3    1.76    0.74
   0   8  -4   73.54    3.84
   0   8   4   73.93    3.86
   0   8  -4   71.30    3.60
   0   8   4   69.06    3.55
   0   8  -5   81.43    3.98
   0   8   5   82.92    3.96
   0   8  -5   89.29    3.88
   0   8   6   65.19    3.22
   0   8  -6   61.78    3.35
   0   8  -7  278.63    6.59
   0   8  -8  120.03    3.83
   0   8  -9   49.52    2.08
   0  -8  -9   41.34    1.82
   0   9   0    0.65    0.69
   0   9   0    0.21    0.56
   0   9  -1   47.41    2.79
   0   9   1   49.05    2.91
   0   9   1   47.51    2.87
   0   9  -1   47.84    2.85
   0   9  -2   60.42    3.13
   0   9   2   62.66    3.24
   0   9   2   61.45    3.14
   0   9  -3   44.90    2.61
   0   9   3   43.07    2.54
   0   9   3   40.31    2.59
   0   9  -3   48.78    2.82
   0   9  -4   80.98    3.53
   0   9  -4   85.55    3.44
   0   9   4   78.74    3.40
   0   9   4   76.84    3.12
   0   9   5   53.39    2.58
   0   9  -5   49.72    2.60
   0   9  -6  204.54    4.89
   0   9  -7  156.81    3.82
   0   9  -8    7.52    0.70
   0  10   0   55.95    2.43
   0  10   1   60.17    2.48
   0  10  -1   56.98    2.45
   0  10   2   43.51    1.99
   0  10  -2   44.55    2.13
   0  10   3   55.06    2.28
   0  10  -3   48.61    2.15
   1   0 -14   51.95    2.23
  -1   0  14   56.21    2.73
  -1   0  14   55.17    2.47
   1   0 -13    3.10    0.80
  -1   0  13    0.81    0.56
  -1   0  12   66.82    3.94
  -1   0  12   65.87    3.49
   1   0 -11  159.60    6.00
  -1   0  11  156.92    6.19
  -1   0  11  153.97    6.24
  -1   0  11  149.36    5.44
  -1   0  10    4.13    0.94
  -1   0  10    4.46    1.11
   1   0 -10    3.82    1.02
   1   0 -10    4.70    0.98
  -1   0  10    3.02    1.39
  -1   0  10    5.20    1.19
  -1   0   9   28.50    2.62
  -1   0   9   34.51    2.69
  -1   0   9   35.27    3.26
  -1   0   9   27.39    2.22
   1   0  -9   31.51    2.65
  -1   0   9   28.55    2.49
   1   0  -9   24.43    2.64
  -1   0   9   25.24    3.19
  -1   0   8   10.02    1.83
   1   0  -8   14.68    1.88
  -1   0   8   10.86    1.71
  -1   0   7  672.85   13.99
   1   0  -7  859.53   13.80
  -1   0   7  907.83   13.57
  -1   0   7  697.31   13.25
  -1   0   6    0.74    0.45
  -1   0   6    0.53    0.49
  -1   0   5    0.21    0.37
   1   0  -5    0.25    0.32
  -1   0   5    0.96    0.42
  -1   0   4  164.26    4.51
  -1   0   4  161.11    4.67
  -1   0   3 9965.90   61.39
  -1   0   3 9804.19   59.48
  -1   0   3 9802.60   60.21
  -1   0   2  916.99    9.37
   1   0  -2  920.07    7.69
  -1   0   1 5214.46   31.70
   1   0  -1 5153.44   32.47
  -1   0   0 4647.84   28.58
  -1   0   0 4551.85   28.99
  -1   0  -1  458.89    5.44
  -1   0  -1  435.99    5.65
   1   0   1  429.95    6.21
  -1   0  -1  474.12    5.04
  -1   0  -2  501.98    6.29
  -1   0  -2  490.60    6.86
  -1   0  -3  993.87   11.75
  -1   0  -3 1014.37   11.12
  -1   0  -4   46.18    2.63
  -1   0  -4   44.98    2.42
   1   0   5 1201.72   17.71
  -1   0  -5 1219.39   15.68
   1   0   6    2.88    1.04
  -1   0  -6    3.06    0.99
  -1   0  -7 2743.22   30.51
   1   0   7 2771.71   34.93
   1   0   8   10.98    2.20
  -1   0  -8   12.84    1.61
   1   0   8   11.63    1.36
  -1   0  -8   14.10    2.23
  -1   0  -9   11.49    1.31
   1   0   9    9.80    2.29
  -1   0  -9   11.08    1.43
   1   0   9   11.32    1.55
  -1   0  -9   11.68    2.09
   1   0   9    9.83    2.06
   1   0  10   32.01    2.43
  -1   0 -10   34.44    2.16
   1   0  10   33.60    2.65
  -1   0 -10   32.22    2.40
   1   0  11   39.38    2.67
   1   0  11   41.51    2.88
  -1   0 -11   40.63    2.60
   1   0  12    3.95    0.87
   1   0  12    5.89    1.06
   1   0  13   11.89    1.26
   1   0  14  128.97    3.32
  -1   1  14   53.03    2.34
   1   1 -14   51.33    2.25
  -1  -1  14   55.66    2.48
  -1   1  14   54.84    2.72
  -1  -1  14   53.59    2.49
   1  -1 -13   32.51    1.98
  -1  -1  13   30.70    2.18
   1  -1 -13   29.30    2.02
  -1   1  13   29.19    2.38
   1   1 -13   28.45    2.13
  -1   1  13   30.23    2.14
  -1  -1  13   29.10    2.28
   1  -1 -12   79.82    4.15
   1  -1 -12   75.15    3.59
  -1  -1  12   78.60    4.17
  -1  -1  12   73.55    3.68
   1   1 -12   78.65    3.92
  -1   1  12   76.65    4.28
  -1   1  12   73.22    3.69
   1  -1 -11  410.29   10.13
  -1  -1  11  397.83    9.02
  -1  -1  11  412.81   10.16
  -1   1  11  423.15   10.04
  -1  -1  11  398.31    9.93
  -1   1  11  412.25   10.39
  -1   1  11  415.87    9.29
  -1  -1  10   98.33    6.17
  -1  -1  10  114.77    5.23
  -1   1  10  119.10    5.03
  -1   1  10  116.30    5.40
  -1  -1  10  117.19    7.32
  -1   1  10  116.06    7.02
  -1   1  10  122.84    4.94
   1  -1 -10  113.50    5.94
  -1   1  10  105.73    6.88
   1   1 -10  128.37    5.10
  -1  -1  10  114.94    5.13
  -1  -1  10  111.61    4.66
   1  -1 -10  112.79    5.35
  -1   1  10  124.70    5.36
  -1   1   9   70.06    3.98
  -1   1   9   72.82    3.81
  -1   1   9   57.39    4.76
  -1   1   9   69.50    3.86
  -1  -1   9   69.88    3.47
  -1  -1   9   58.99    4.51
   1  -1  -9   67.97    4.34
  -1   1   9   74.29    3.98
  -1   1   9   69.09    3.56
  -1  -1   9   66.20    5.23
  -1  -1   9   67.23    3.47
  -1  -1   9   72.65    4.09
  -1  -1   9   73.38    3.94
  -1  -1   9   67.24    3.72
   1   1  -9   70.99    3.68
  -1   1   9   69.98    4.16
   1  -1  -9   65.07    3.94
  -1  -1   8  111.58    5.97
  -1   1   8  112.86    6.03
  -1  -1   8  128.15    5.98
  -1  -1   8  126.90    6.67
  -1   1   7  421.47   10.81
  -1  -1   7  427.48   10.86
  -1   1   7  464.30    9.51
  -1  -1   7  463.30   11.62
  -1  -1   7  453.31   10.64
  -1   1   6  220.36    6.95
  -1  -1   6  237.70    7.33
  -1  -1   6  262.51    7.34
  -1  -1   6  244.68    7.46
  -1   1   6  259.74    6.32
   1  -1  -6  273.03    6.49
  -1  -1   5  104.42    4.35
   1  -1  -5  109.75    3.54
   1   1  -5  104.97    2.55
  -1  -1   5  114.61    4.45
  -1   1   5  100.19    4.16
  -1  -1   5   98.26    4.16
  -1   1   5  115.97    2.86
  -1   1   5  104.30    3.50
  -1  -1   4 1772.34   18.79
   1  -1  -4 1901.24   16.25
  -1   1   4 1728.95   18.17
  -1  -1   4 2000.13   19.68
  -1  -1   4 1886.65   19.43
  -1   1   4 1896.03   16.38
  -1   1   4 1994.68   14.24
   1  -1  -4 1933.84   16.97
  -1   1   3 2613.94   17.42
  -1  -1   3 2892.97   23.30
   1  -1  -3 2747.74   19.24
  -1  -1   3 2605.10   22.17
  -1  -1   3 2706.38   22.98
  -1   1   3 2920.82   19.72
   1  -1  -3 2726.93   19.83
  -1   1   3 2635.08   21.63
  -1   1   2 9999.00   53.77
   1  -1  -2 9394.62   50.38
  -1  -1   2 9987.07   55.52
   1  -1  -2 9151.82   50.35
  -1  -1   2 9304.44   55.80
  -1   1   1  400.42    4.38
   1  -1  -1  411.46    4.81
   1   1  -1  416.58    5.42
  -1   1   1  436.61    4.80
   1  -1  -1  414.20    3.35
  -1  -1   1  391.05    5.47
  -1   1   1  385.44    5.34
  -1  -1   1  387.01    5.37
  -1  -1   0 2678.45   18.06
  -1  -1   0 2723.88   18.78
  -1  -1  -1 5467.97   33.80
   1   1   1 5684.75   35.90
  -1  -1  -1 4976.77   32.27
  -1  -1  -1 5954.54   33.84
  -1  -1  -1 5428.36   33.32
   1  -1   1 5363.18   34.58
  -1  -1  -2 5734.83   37.48
  -1  -1  -2 5873.85   37.54
  -1   1  -2 5518.45   39.64
   1  -1   2 6107.73   40.36
  -1   1  -2 5383.83   39.18
  -1  -1  -2 5692.26   38.52
  -1  -1  -3 1852.52   17.73
  -1   1  -3 2077.04   19.08
  -1   1  -3 2021.36   19.59
   1   1   3 1882.97   19.63
   1  -1   3 1830.03   19.13
  -1  -1  -3 1991.17   16.97
   1   1   4  921.87   14.00
  -1  -1  -4  993.06   12.01
   1   1   4  989.34    9.97
  -1  -1  -4  954.40   12.83
  -1   1  -4 1022.47   14.22
   1  -1   4  917.34   14.00
   1  -1   5 2672.34   28.97
  -1  -1  -5 2724.61   25.22
  -1  -1  -5 2691.80   26.52
  -1  -1  -6  397.24    9.61
  -1   1  -6  467.12   11.19
   1  -1   6  423.22   11.46
  -1  -1  -6  436.98    9.50
   1   1   6  366.33   10.48
  -1  -1  -7 1742.00   22.52
  -1  -1  -7 1762.61   24.39
   1  -1   7 1790.35   27.23
  -1   1  -7 1765.20   24.45
   1  -1   8   57.25    4.99
  -1  -1  -8   73.57    3.82
  -1  -1  -8   67.48    4.45
   1   1   8   57.60    4.97
  -1   1  -8   62.90    4.49
   1   1   8   68.39    3.62
  -1  -1  -8   54.65    2.95
  -1  -1  -8   65.63    3.47
   1   1   8   69.35    3.32
  -1  -1  -8   63.40    4.60
   1  -1   8   68.48    3.22
   1  -1   8   70.81    3.54
  -1  -1  -9    3.28    0.91
   1  -1   9    2.11    0.71
  -1  -1  -9    4.99    1.48
   1   1   9    3.27    0.88
   1   1   9    3.28    0.84
   1   1   9    3.47    1.34
   1  -1   9    1.97    1.13
  -1  -1  -9    3.15    0.85
  -1   1  -9    4.18    0.90
  -1   1  -9    3.83    1.26
  -1  -1  -9    2.43    0.85
   1  -1   9    3.48    1.55
   1   1  10   83.03    3.99
  -1  -1 -10   79.83    3.57
  -1  -1 -10   84.34    4.10
  -1  -1 -10   92.62    4.60
   1  -1  10   78.29    3.76
   1   1  10   77.99    4.13
   1   1  11  281.18    7.73
   1   1  11  285.04    7.32
  -1  -1 -11  282.26    6.36
  -1  -1 -11  275.39    7.16
   1  -1  11  276.00    7.04
   1  -1  12  101.87    3.98
   1   1  12  101.34    4.21
   1   1  12  104.53    4.15
  -1  -1 -12  105.92    3.81
   1  -1  13   12.85    1.27
   1   1  13   12.92    1.32
   1  -1  14   23.81    1.37
   1   1  14   23.82    1.40
   1  -2 -14   48.95    1.85
  -1  -2  14   54.85    2.36
  -1   2  14   54.50    2.64
  -1   2  14   48.13    2.06
   1   2 -14   44.71    2.02
  -1   2  13   40.32    2.76
  -1  -2  13   40.15    2.45
  -1   2  13   42.10    2.41
   1  -2 -13   40.62    2.32
  -1  -2  13   41.37    2.49
   1   2 -13   40.29    2.48
  -1   2  12   63.72    3.70
   1  -2 -12   59.23    3.31
  -1   2  12   60.13    3.27
   1  -2 -12   66.68    3.81
  -1  -2  12   60.95    3.48
  -1  -2  12   68.78    3.88
  -1   2  12   63.21    3.87
   1   2 -12   61.90    3.49
  -1  -2  12   63.61    3.40
  -1  -2  11  500.29   10.88
  -1   2  11  521.41   10.93
  -1  -2  11  475.35    9.96
  -1   2  11  491.14   11.18
  -1   2  11  487.77   10.06
  -1  -2  11  520.94   11.25
  -1   2  11  491.94   11.53
   1  -2 -11  474.80   11.18
   1   2 -11  472.61   10.41
  -1  -2  10  824.75   14.36
  -1  -2  10  799.58   12.82
  -1  -2  10  765.97   12.93
   1   2 -10  812.43   13.86
  -1  -2  10  800.35   14.11
  -1   2  10  796.26   13.24
  -1   2  10  782.43   14.90
  -1   2  10  706.92   17.77
   1  -2 -10  740.94   14.54
  -1   2  10  804.69   14.73
  -1   2  10  806.29   14.19
  -1   2   9  553.01   11.87
  -1   2   9  575.95   15.80
  -1   2   9  552.77   10.53
   1  -2  -9  627.88   13.95
  -1  -2   9  565.17   10.87
  -1  -2   9  569.82   10.13
  -1   2   9  482.46   13.97
  -1   2   9  546.48   11.67
  -1  -2   9  521.37   10.11
  -1  -2   9  566.98   15.62
  -1  -2   9  520.02   13.82
  -1   2   9  558.86   11.51
  -1  -2   9  481.91   13.98
  -1  -2   9  557.15   11.26
  -1  -2   9  571.73   11.36
  -1   2   8  513.67   13.23
  -1   2   8  577.91   14.58
  -1  -2   8  495.50   13.36
   1  -2  -8  597.03   12.10
  -1  -2   8  553.21   13.99
  -1  -2   8  564.65   14.31
  -1  -2   7  539.68   12.66
  -1  -2   7  496.31   12.56
  -1   2   7  541.76   12.78
  -1  -2   7  507.91   12.47
   1  -2  -7  552.64   10.27
  -1   2   7  476.09   11.51
   1  -2  -6  261.80    6.25
  -1   2   6  254.70    7.82
   1  -2  -6  261.81    6.70
  -1  -2   6  231.86    7.74
  -1  -2   6  232.67    7.82
  -1  -2   6  256.32    7.92
  -1   2   6  211.81    6.86
  -1   2   5  358.10    8.51
   1  -2  -5  367.12    7.09
  -1  -2   5  309.67    8.29
  -1   2   5  315.12    7.56
  -1  -2   5  342.45    8.79
  -1  -2   5  314.07    7.71
   1  -2  -5  338.04    6.31
   1   2  -5  348.07    6.70
   1  -2  -4  964.81   10.56
  -1  -2   4  889.86   12.24
  -1  -2   4  937.70   14.05
   1   2  -4  943.83   12.23
  -1   2   4  985.91    8.26
   1  -2  -4  921.80    9.99
  -1   2   4  832.82   11.59
  -1  -2   4  872.30   13.35
  -1   2   4  950.94   13.49
   1  -2  -3 1996.21   15.28
  -1   2   3 1928.27   17.07
  -1  -2   3 1971.33   20.19
  -1   2   3 1916.21   19.32
  -1  -2   3 1853.81   19.25
   1  -2  -3 1926.06   15.07
   1   2  -3 1986.98   19.31
  -1   2   3 2014.51   17.75
  -1   2   3 1972.59   12.70
  -1  -2   2  126.33    4.03
   1  -2  -2  128.37    2.19
   1  -2  -2  129.93    2.55
  -1   2   2  127.23    3.91
   1   2  -2  133.30    3.41
  -1   2   2  121.22    3.46
   1  -2  -1  514.81    4.65
   1   2  -1  499.77    5.67
   1   2  -1  515.66    6.57
  -1  -2   1  480.16    6.85
   1  -2  -1  503.89    4.84
  -1  -2   1  487.64    7.39
   1  -2   0  710.59    6.22
  -1  -2   0  688.68    7.57
  -1  -2   0  699.27    8.14
  -1  -2   0  691.77    8.70
  -1  -2  -1 5360.92   33.14
  -1  -2  -1 4796.96   32.86
  -1  -2  -1 5395.04   36.04
   1  -2   1 5079.80   33.11
  -1   2  -1 5244.90   36.24
   1   2   1 5038.33   35.44
  -1  -2  -1 5137.85   35.40
   1   2   1 5389.04   36.06
   1   2   2 3192.12   26.83
  -1  -2  -2 3092.13   23.95
   1  -2   2 3135.35   24.28
   1   2   2 2980.30   25.46
  -1  -2  -2 3040.34   24.20
  -1  -2  -2 3149.85   21.90
  -1   2  -2 3224.13   24.60
  -1  -2  -3 1677.83   17.08
  -1  -2  -3 1671.64   16.16
   1   2   3 1659.81   18.46
   1  -2   3 1627.07   17.80
  -1  -2  -4 1627.90   17.98
  -1  -2  -4 1687.77   17.08
   1   2   4 1678.46   16.86
   1  -2   4 1614.59   19.57
   1   2   4 1579.17   19.49
  -1  -2  -5   77.13    3.82
   1   2   5   57.85    3.71
  -1   2  -5   59.92    3.68
   1  -2   5   72.06    4.22
  -1  -2  -5   67.36    3.26
   1  -2   6  567.38   13.37
  -1  -2  -6  561.33   10.85
  -1  -2  -6  578.15   11.96
  -1  -2  -7   57.59    3.81
   1   2   7   48.31    4.21
  -1  -2  -8  129.16    5.06
   1  -2   8  131.04    7.56
   1   2   8  141.06    4.95
  -1  -2  -8  136.79    6.33
   1   2   8  119.45    7.15
   1  -2   8  142.76    4.72
   1  -2   8  145.25    5.11
  -1  -2  -8  128.24    6.66
   1   2   8  136.65    5.28
   1  -2   8  116.69    7.19
  -1  -2  -8  142.69    5.52
   1   2   9   73.08    4.00
   1  -2   9   74.64    3.56
   1  -2   9   66.45    5.80
  -1  -2  -9   60.52    3.38
  -1   2  -9   72.36    3.61
   1  -2   9   75.69    3.89
  -1  -2  -9   75.56    4.09
   1  -2   9   75.86    6.16
   1   2   9   69.29    3.68
   1  -2   9   68.88    6.01
  -1  -2  -9   74.81    5.11
  -1  -2  -9   67.30    3.77
   1   2   9   57.87    5.26
   1   2  10  329.78    8.21
  -1  -2 -10  308.43    7.62
   1  -2  10  326.37    7.71
  -1  -2 -10  314.76    8.30
   1   2  10  327.28    8.68
  -1  -2 -11  214.81    5.82
  -1  -2 -11  204.86    6.34
   1   2  11  220.81    6.88
   1  -2  11  212.89    6.02
   1   2  11  214.72    6.42
  -1  -2 -12  212.42    5.75
  -1  -2 -12  212.49    5.04
  -1  -2 -12  203.66    5.56
   1  -2  12  198.22    5.42
   1   2  12  215.57    5.96
   1   2  12  204.77    6.05
  -1  -2 -13   34.44    1.81
   1  -2  13   32.63    1.88
   1   2  13   36.34    2.11
   1   2  14    7.55    0.76
  -1  -3  14   47.82    2.05
   1  -3 -14   44.18    1.74
   1  -3 -14   44.80    1.75
   1  -3 -13  203.65    5.54
  -1  -3  13  184.65    4.99
   1  -3 -13  177.48    4.84
   1   3 -13  167.13    4.82
  -1   3  13  195.50    5.74
  -1   3  13  184.32    4.64
  -1   3  12   33.78    2.49
  -1   3  12   30.35    2.61
  -1  -3  12   30.46    2.53
   1  -3 -12   26.34    2.23
  -1  -3  12   29.38    2.26
  -1   3  12   31.04    2.24
   1   3 -12   29.01    2.33
   1  -3 -12   27.37    2.40
   1  -3 -12   27.21    1.96
  -1  -3  11   68.27    3.96
   1   3 -11   59.05    3.61
  -1   3  11   63.14    3.79
  -1  -3  11   63.11    3.53
  -1  -3  11   65.88    3.60
   1  -3 -11   64.33    4.08
  -1  -3  11   63.45    3.39
  -1   3  11   62.07    3.43
  -1   3  11   61.57    4.00
  -1   3  11   62.47    4.00
  -1   3  10  136.01    5.83
  -1   3  10  137.71    6.09
   1  -3 -10  119.60    5.79
  -1  -3  10  139.15    5.01
  -1  -3  10  135.42    5.23
   1   3 -10  126.84    5.43
  -1  -3  10  136.16    5.66
  -1   3  10  129.68    5.95
  -1  -3  10  141.58    5.53
  -1   3  10  134.34    5.14
   1   3  -9  198.60    8.94
  -1   3   9  217.71    6.49
  -1  -3   9  208.38    9.41
  -1   3   9  221.48    7.71
   1   3  -9  225.15    7.17
  -1  -3   9  211.40    9.64
  -1   3   9  239.85   10.81
  -1  -3   9  224.10    6.25
  -1  -3   9  228.72    7.04
  -1   3   9  223.95    7.57
  -1   3   9  215.92    7.50
  -1   3   9  199.48    8.67
  -1  -3   9  225.80    6.72
  -1  -3   9  220.83    7.04
  -1  -3   8  184.65    5.72
  -1   3   8  158.40    7.27
   1   3  -8  184.28    6.29
  -1   3   8  175.12    6.57
  -1   3   8  184.44    6.57
  -1  -3   8  187.89    5.33
  -1  -3   8  169.70    8.29
  -1   3   8  183.75    8.86
   1  -3  -8  189.26    6.65
  -1   3   8  171.87    5.47
  -1  -3   8  176.83    5.98
  -1  -3   8  160.93    8.04
  -1   3   8  178.09    6.48
  -1   3   7  590.99   13.08
  -1  -3   7  612.45   15.19
  -1  -3   7  576.01   14.33
  -1   3   6  304.91    8.33
   1  -3  -6  331.12    7.20
  -1  -3   6  307.95    9.75
  -1  -3   6  315.31    9.99
  -1   3   6  331.88   10.06
  -1  -3   5 1338.83   19.64
   1  -3  -5 1314.60   14.52
  -1   3   5 1297.31   16.45
   1   3  -5 1307.86   16.94
  -1   3   5 1326.43   19.59
  -1  -3   5 1305.74   19.95
  -1  -3   4  835.73   14.48
   1  -3  -4  908.55   10.53
   1   3  -4  873.08   12.41
  -1   3   4  851.53   14.19
  -1  -3   4  771.33   13.10
   1   3  -4  797.46   13.02
  -1   3   4  848.71   11.84
  -1   3   4  810.99   11.08
   1  -3  -4  799.47    9.88
   1  -3  -3  704.47    7.99
  -1   3   3  710.96    8.45
  -1  -3   3  683.86   12.07
   1  -3  -3  652.55    8.16
   1   3  -3  720.39   10.00
  -1   3   3  645.46   10.35
  -1   3   3  740.42   12.32
   1   3  -3  695.73   12.10
  -1  -3   3  617.03   10.56
   1  -3  -2 2073.89   14.48
   1  -3  -2 2090.70   15.60
   1   3  -2 2104.12   23.13
   1   3  -2 2181.07   18.20
   1  -3  -2 2161.23   17.48
   1  -3  -2 2019.80   14.59
  -1   3   2 2088.50   21.62
  -1  -3   2 2128.51   21.93
  -1   3   2 1988.32   20.54
  -1  -3   2 2010.82   19.63
  -1  -3   1   90.41    3.04
  -1   3   1   84.60    3.59
   1  -3  -1   87.04    2.27
   1   3  -1   93.01    2.91
  -1   3   1   89.61    3.65
   1   3  -1   89.36    4.27
  -1  -3   0 2094.41   18.84
  -1  -3   0 2137.24   20.00
   1   3   0 2131.09   23.74
  -1  -3   0 2226.78   17.74
  -1   3   0 2249.86   21.05
   1   3   0 2226.97   19.47
  -1   3   0 2142.78   21.54
   1   3   0 2317.33   18.61
  -1   3  -1 3460.50   27.25
   1   3   1 3623.62   24.75
  -1  -3  -1 3533.23   25.71
  -1   3  -1 3618.61   26.56
  -1  -3  -1 3619.98   26.32
  -1  -3  -1 3420.36   22.52
   1   3   1 3603.91   26.61
  -1  -3  -1 3639.90   21.50
   1   3   1 3443.55   30.30
  -1   3  -2 4685.01   36.24
   1   3   2 4653.18   37.19
   1   3   2 4647.39   39.50
   1   3   2 4682.22   35.29
  -1  -3  -2 4639.39   34.73
   1  -3   2 4535.48   31.20
  -1  -3  -2 4734.90   35.22
  -1  -3  -2 4500.71   30.51
  -1   3  -3  510.44    8.93
   1   3   3  451.72    8.87
   1  -3   3  469.80    7.98
  -1  -3  -3  526.86    8.62
   1   3   3  490.80   10.03
   1   3   3  552.32   10.88
  -1  -3  -3  511.78    8.94
  -1  -3  -4  348.14    7.36
  -1  -3  -4  345.17    7.82
  -1   3  -4  358.41    7.24
   1   3   4  356.38    9.34
   1  -3   4  317.81    7.59
   1   3   4  331.91    7.99
   1   3   4  301.02    7.91
   1   3   5  166.56    6.50
   1  -3   5  186.90    6.65
  -1  -3  -5  185.76    5.81
  -1  -3  -5  186.94    6.32
   1   3   5  193.77    7.52
   1   3   6   60.12    4.64
  -1  -3  -6   60.64    3.60
   1  -3   6   61.34    4.20
  -1  -3  -6   59.76    3.87
   1   3   6   53.61    4.12
   1   3   7   30.35    3.39
  -1  -3  -7   39.33    3.20
   1  -3   7   30.65    3.31
   1  -3   7   30.85    3.65
   1   3   7   33.40    3.87
   1   3   7   44.59    2.76
   1   3   7   35.29    2.61
  -1  -3  -7   31.40    2.58
  -1  -3  -7   29.96    3.00
   1   3   8   23.20    3.51
   1   3   8   25.24    2.19
   1   3   8   16.54    1.92
  -1   3  -8   21.92    2.06
  -1  -3  -8   20.57    2.50
   1  -3   8   19.51    3.26
  -1  -3  -8   17.40    2.45
  -1  -3  -8   18.22    2.09
   1  -3   8   21.24    3.02
   1   3   8   18.47    2.82
   1  -3   8   21.41    1.99
   1  -3   8   21.27    1.88
  -1   3  -9   21.25    2.03
  -1  -3  -9   20.12    2.23
   1   3   9   21.49    2.16
  -1  -3  -9   17.23    1.93
   1  -3   9   21.72    2.12
   1   3   9   21.09    2.23
   1   3  10  161.40    5.76
   1   3  10  156.86    6.01
  -1   3 -10  157.10    5.32
  -1  -3 -10  165.52    6.02
   1  -3  10  155.98    5.18
  -1  -3 -10  148.85    5.65
   1   3  11   85.87    4.23
   1   3  11   83.57    3.95
   1  -3  11   83.74    3.63
  -1  -3 -11   80.99    3.62
  -1  -3 -11   80.61    3.87
  -1  -3 -12  103.08    3.45
  -1  -3 -12  105.86    3.89
  -1  -3 -12  109.53    3.35
   1  -3  12  107.52    3.70
  -1  -3 -12  107.22    3.94
   1   3  12  115.39    4.18
  -1  -3 -13   25.71    1.54
   1   3  13   25.17    1.64
   1  -3  13   25.58    1.51
   1  -4 -13   38.80    2.18
  -1  -4  13   37.19    2.02
   1  -4 -13   34.00    1.56
   1  -4 -13   35.51    1.98
   1   4 -13   32.18    1.88
   1   4 -12  258.61    6.59
  -1  -4  12  278.43    7.02
  -1  -4  12  282.13    6.67
  -1   4  12  296.39    6.21
   1  -4 -12  245.58    5.87
   1  -4 -12  287.62    7.28
   1  -4 -12  264.23    6.76
  -1   4  12  313.75    7.90
  -1   4  12  289.49    7.14
  -1  -4  11   26.31    2.08
  -1  -4  11   27.37    2.43
  -1   4  11   25.04    2.50
  -1  -4  11   26.47    2.26
  -1   4  11   27.82    2.52
  -1   4  11   27.87    2.15
   1  -4 -11   23.28    2.42
   1   4 -11   23.64    2.26
   1   4 -10   49.88    3.44
  -1  -4  10   52.90    3.47
  -1   4  10   52.70    3.10
  -1  -4  10   57.72    3.38
   1  -4 -10   50.92    3.73
  -1   4  10   55.17    3.95
  -1   4  10   51.03    3.67
  -1   4  10   58.10    3.89
  -1  -4  10   55.75    3.15
  -1   4   9  174.93    6.85
   1   4  -9  184.71    6.73
  -1  -4   9  183.39    5.65
  -1  -4   9  183.11    6.48
  -1  -4   9  193.78    6.17
  -1   4   9  180.76    7.09
  -1   4   9  173.13    7.09
  -1   4   9  177.13    5.75
  -1   4   8  115.88    5.56
  -1   4   8  139.56    5.97
  -1   4   8  126.21    5.91
  -1  -4   8  115.06    4.94
  -1  -4   8  112.00    7.02
  -1  -4   8  135.00    7.78
  -1   4   8  115.85    5.40
  -1   4   8  127.89    7.94
  -1  -4   8  118.31    4.67
   1   4  -8  117.14    5.27
  -1   4   7  673.87   13.41
  -1  -4   7  625.33   15.97
   1   4  -7  707.54   10.07
  -1   4   7  688.59   13.47
  -1  -4   7  646.99   17.06
  -1   4   7  747.46   13.69
  -1   4   7  636.00   12.38
  -1   4   7  670.16   17.30
  -1  -4   7  684.83   11.21
   1   4  -7  666.88   12.71
  -1  -4   6  169.57    8.08
  -1   4   6  169.87    7.97
   1  -4  -6  188.93    5.76
  -1  -4   6  162.32    7.38
   1   4  -5  442.18   10.77
  -1   4   5  535.74   10.47
   1   4  -5  505.24   10.43
  -1   4   5  483.74   12.67
  -1  -4   5  489.99   12.97
  -1  -4   5  458.25   11.62
   1  -4  -5  485.54    8.70
   1   4  -4  134.90    5.91
  -1  -4   4  140.73    5.80
  -1  -4   4  158.66    6.78
  -1   4   4  160.17    6.67
  -1   4   4  157.52    5.62
   1  -4  -4  149.45    4.37
   1   4  -3 1003.60   16.98
  -1  -4   3 1094.67   15.45
  -1   4   3 1046.72   15.56
  -1  -4   3 1160.10   17.77
  -1   4   3 1112.26   17.29
   1  -4  -3 1029.66   12.33
   1   4  -2  477.92   11.42
  -1   4   2  503.80   10.48
   1  -4  -2  555.16    7.27
  -1   4   2  515.01   10.87
   1  -4  -2  568.41    8.90
  -1  -4   2  536.23   10.70
  -1  -4   2  504.87    9.20
  -1  -4   1  377.67    6.91
  -1  -4   1  365.20    7.89
  -1   4   1  385.85    8.86
   1   4  -1  359.41    9.82
   1  -4  -1  366.42    6.86
   1   4  -1  417.03    7.68
   1  -4  -1  399.22    6.23
  -1   4   1  371.05    8.94
   1   4   0 2033.76   20.33
  -1  -4   0 1942.30   20.46
   1  -4   0 1868.74   17.08
  -1   4   0 1871.67   22.28
  -1  -4   0 2015.63   17.08
   1   4   0 2012.23   25.13
  -1   4   0 2016.90   22.02
  -1  -4   0 1988.19   19.09
  -1  -4  -1  287.57    6.76
   1   4   1  285.32    7.21
   1   4   1  277.70    8.66
  -1   4  -1  300.37    7.51
  -1  -4  -1  296.97    7.17
  -1  -4  -1  291.15    5.56
   1   4   2 4212.20   38.31
  -1  -4  -2 4444.89   35.49
  -1  -4  -2 4547.03   36.39
  -1   4  -2 4230.44   38.20
   1   4   2 4377.56   41.49
  -1  -4  -3  192.77    5.84
   1   4   3  185.22    7.02
   1   4   3  199.26    7.19
  -1   4  -3  173.74    5.92
  -1  -4  -3  191.85    5.76
   1   4   3  191.16    5.75
   1   4   4  124.07    5.16
  -1   4  -4  130.77    5.10
   1   4   4  138.89    6.51
   1   4   4  130.75    5.78
  -1  -4  -4  135.54    5.26
  -1  -4  -5   51.87    3.51
   1   4   5   49.12    3.61
   1  -4   5   56.27    4.49
  -1  -4  -5   60.65    3.57
   1   4   6  533.19    9.80
   1  -4   6  523.15   15.38
  -1   4  -6  562.74   10.47
  -1  -4  -6  547.87   11.81
  -1  -4  -6  509.34   12.29
   1   4   6  596.05   11.31
   1   4   6  581.04   16.28
   1   4   6  560.32   10.73
   1   4   7  705.35   12.80
  -1  -4  -7  661.99   13.99
   1   4   7  720.98   19.67
   1   4   7  667.82   12.48
  -1  -4  -7  638.79   14.60
  -1   4  -7  662.61   11.81
   1  -4   7  686.90   10.83
   1  -4   7  680.13   18.96
   1   4   7  661.97   11.71
  -1  -4  -7  643.10   12.25
   1   4   8  111.26    4.83
  -1  -4  -8   99.55    4.74
  -1  -4  -8  105.27    5.81
   1   4   8  100.68    4.85
   1  -4   8  110.74    8.02
  -1   4  -8  106.03    4.60
   1  -4   8  112.00    8.24
   1  -4   8  101.25    4.11
  -1  -4  -9  364.59    9.14
  -1  -4  -9  381.44    9.29
   1   4   9  412.43    9.57
   1  -4   9  404.20    8.46
   1   4   9  395.31    9.85
  -1   4  -9  378.37    8.72
   1  -4  10  107.45    4.13
  -1  -4 -10  103.65    4.59
  -1  -4 -10  111.91    4.71
  -1   4 -10  100.43    4.14
   1   4  10  119.70    5.21
  -1  -4 -10   93.60    4.26
   1   4  10  114.67    4.85
  -1  -4 -11   50.61    2.77
   1   4  11   62.50    3.32
  -1  -4 -11   55.69    3.04
   1  -4  11   53.24    2.68
  -1   4 -11   52.81    2.65
   1  -4  12    6.19    0.85
   1   4  12    7.69    1.05
  -1  -4 -12    5.91    0.95
  -1  -4 -12    7.12    0.93
  -1  -4 -12    6.00    0.80
  -1  -4 -12    8.25    1.06
   1   4  13   87.25    2.63
  -1  -4 -13   84.04    2.48
   1  -5 -13   10.28    0.92
   1   5 -13    9.04    0.83
  -1  -5  13    8.62    0.81
   1  -5 -12   19.76    1.62
   1   5 -12   21.85    1.68
   1  -5 -12   19.47    1.49
   1  -5 -12   23.66    1.80
  -1  -5  12   23.31    1.69
   1  -5 -11   57.67    3.28
  -1  -5  11   66.49    2.99
  -1  -5  11   62.98    3.18
  -1   5  11   70.97    3.84
  -1  -5  11   64.01    3.24
   1   5 -11   58.74    3.25
  -1   5  10   33.16    2.93
   1  -5 -10   24.23    2.42
  -1  -5  10   31.69    2.49
  -1  -5  10   29.21    2.35
   1   5 -10   25.96    2.40
  -1  -5  10   30.00    2.18
  -1   5  10   29.24    2.72
  -1  -5   9   39.70    2.61
  -1   5   9   40.87    3.44
   1   5  -9   35.14    2.95
  -1   5   9   35.68    3.01
  -1   5   9   44.68    3.29
  -1  -5   9   39.84    2.91
  -1  -5   8   57.96    3.50
  -1   5   8   59.13    4.16
  -1   5   8   60.37    3.86
   1   5  -8   57.12    3.80
  -1   5   8   68.74    4.28
  -1   5   7   65.71    3.87
  -1   5   7   64.51    4.33
  -1   5   7   66.76    4.36
  -1  -5   7   70.48    5.71
  -1   5   7   76.77    4.49
   1   5  -7   68.80    3.20
  -1  -5   7   71.68    5.57
  -1  -5   7   68.65    3.47
   1   5  -7   68.12    4.10
  -1   5   7   68.89    5.78
   1   5  -6   62.26    3.09
  -1  -5   6   57.35    4.66
  -1   5   6   66.43    4.17
  -1  -5   6   68.24    5.41
  -1   5   6   64.39    4.08
  -1   5   6   58.12    3.42
  -1   5   6   64.98    5.35
   1   5  -6   59.66    3.78
  -1   5   6   68.18    4.15
  -1   5   5  317.34    8.70
   1   5  -5  332.22    8.65
  -1   5   5  361.14    9.17
  -1  -5   5  315.94   10.18
  -1   5   5  348.34    9.50
  -1  -5   5  325.51   11.18
  -1   5   5  319.92   11.13
  -1   5   5  336.61    8.96
   1   5  -5  289.26    9.76
  -1   5   4   76.80    4.45
  -1   5   4   73.81    4.99
   1   5  -4   69.11    4.76
   1  -5  -4   83.64    3.62
  -1  -5   4   83.81    4.70
  -1  -5   4   79.16    5.13
  -1  -5   3  356.81   10.15
  -1   5   3  333.43    9.66
  -1  -5   3  360.87    9.07
  -1   5   3  324.48   10.01
   1  -5  -3  349.58    7.45
  -1   5   2  306.31    9.38
   1  -5  -2  330.36    7.48
  -1   5   2  326.21    9.51
   1   5  -2  314.19   10.34
  -1  -5   2  337.50    7.73
  -1  -5   2  335.02    9.08
  -1  -5   1 1882.80   21.30
  -1  -5   1 1770.44   21.43
  -1   5   1 1791.57   24.29
   1   5  -1 1684.18   25.76
   1  -5  -1 1826.60   20.29
  -1   5   1 1835.88   23.70
   1   5  -1 1914.49   21.17
  -1  -5   0  935.91   14.51
   1  -5   0  907.83   14.25
  -1   5   0  904.43   16.49
  -1  -5   0 1021.94   13.55
   1   5   0  922.78   18.46
  -1   5   0 1005.89   16.54
   1   5   0  958.44   14.69
  -1  -5   0  942.88   15.25
  -1   5  -1   74.87    4.58
  -1  -5  -1   85.86    4.35
   1  -5   1   86.99    4.68
  -1  -5  -1   85.94    4.04
   1   5   1   80.71    5.29
   1   5   1   85.86    4.40
   1  -5   2  624.57   12.00
  -1  -5  -2  619.08   11.33
  -1  -5  -2  632.65   11.90
  -1   5  -2  584.20   12.96
   1   5   2  621.05   13.19
   1   5   2  605.98   14.83
  -1  -5  -3  155.21    5.73
   1  -5   3  157.45    6.65
   1   5   3  146.40    7.10
  -1  -5  -3  160.80    5.83
   1   5   3  161.95    7.08
  -1   5  -3  148.44    6.33
   1  -5   4  328.91   10.80
  -1  -5  -4  334.54    9.08
  -1   5  -4  333.40    9.51
   1   5   4  354.35   11.54
   1   5   4  330.97   10.56
  -1  -5  -5   92.24    4.77
  -1  -5  -5   92.70    5.00
   1   5   5  100.40    6.66
  -1   5  -5  114.73    4.23
   1   5   5   92.35    3.95
   1  -5   5   91.41    6.17
  -1   5  -5  107.83    4.53
   1   5   6  148.29    5.33
  -1   5  -6  157.04    5.68
   1  -5   6  156.78    8.72
   1  -5   6  174.03    9.93
  -1  -5  -6  148.54    6.77
  -1  -5  -6  150.72    6.41
   1   5   6  158.13    9.01
   1  -5   7  581.50   17.94
   1  -5   7  606.65   10.14
  -1   5  -7  581.17   11.33
   1   5   7  569.72   11.23
   1   5   8    5.27    1.25
  -1   5  -8    4.59    1.12
  -1  -5  -8    4.18    1.05
  -1  -5  -8    2.85    0.81
   1  -5   8    3.38    0.77
   1  -5   9  352.12    7.51
  -1  -5  -9  318.20    8.08
  -1   5  -9  328.47    7.89
   1   5   9  353.19    8.70
  -1  -5  -9  349.83    8.07
   1  -5  10  126.93    4.08
  -1  -5 -10  117.68    4.52
  -1   5 -10  118.23    4.21
  -1  -5 -10  119.75    4.51
  -1  -5 -11  127.24    4.08
   1  -5  11  129.40    3.57
  -1   5 -11  126.64    3.68
  -1  -5 -11  136.71    4.13
  -1  -5 -11  127.32    4.15
   1   5  12   36.83    1.87
  -1  -5 -12   34.76    1.66
  -1  -5 -12   34.21    1.77
  -1  -5 -12   35.67    1.63
  -1  -5 -12   36.09    1.78
  -1  -6  12   46.23    1.86
   1  -6 -12   45.86    1.84
   1   6 -12   45.63    1.95
   1  -6 -12   44.19    1.81
   1  -6 -12   42.70    1.87
   1  -6 -11   17.12    1.52
  -1  -6  11   20.72    1.58
   1  -6 -11   15.28    1.43
   1   6 -11   17.11    1.52
  -1  -6  11   17.88    1.34
  -1  -6  10   60.61    2.76
  -1  -6  10   58.44    2.84
   1  -6 -10   52.87    3.11
  -1  -6  10   61.50    3.04
   1   6 -10   57.41    3.21
   1   6  -9    4.77    1.10
  -1  -6   9    4.58    0.88
  -1   6   9    3.78    0.87
  -1  -6   9    5.30    0.98
   1  -6  -9    2.60    0.83
   1   6  -8    1.91    0.85
  -1   6   8    2.25    0.90
  -1   6   8    3.77    1.29
  -1  -6   8    2.95    0.85
  -1   6   7  219.02    7.67
  -1   6   7  213.33    8.02
   1   6  -7  218.40    5.99
   1   6  -7  209.42    7.32
  -1  -6   6  152.91    7.72
   1   6  -6  144.45    6.10
  -1   6   6  157.39    6.53
  -1   6   6  149.58    6.58
   1   6  -6  153.53    5.19
   1   6  -5  128.43    7.00
  -1   6   5  148.93    5.91
  -1   6   5  149.78    6.31
   1   6  -5  145.69    5.17
   1   6  -5  150.11    6.03
  -1  -6   5  148.77    7.12
  -1   6   5  154.95    6.29
  -1   6   5  145.98    8.04
  -1  -6   5  149.69    7.98
  -1   6   4 1129.96   17.61
  -1   6   4 1222.72   18.10
   1   6  -4 1190.75   14.73
  -1   6   4 1101.84   19.99
  -1  -6   4 1162.52   21.82
  -1   6   4 1158.94   17.71
   1   6  -4 1106.30   16.82
  -1   6   4 1094.63   21.77
   1   6  -4 1169.53   15.88
   1   6  -3 1477.38   16.45
  -1  -6   3 1372.30   21.99
   1   6  -3 1339.13   18.07
  -1   6   3 1396.30   19.75
  -1   6   3 1290.59   22.27
   1   6  -3 1369.99   17.49
  -1   6   3 1391.83   18.90
   1   6  -3 1202.82   23.52
  -1   6   3 1299.42   22.96
   1   6  -2  323.01   11.78
  -1   6   2  348.60   11.00
   1   6  -2  364.25    8.42
  -1   6   2  370.76    8.83
  -1   6   2  327.47   10.66
   1  -6  -2  334.12    8.28
  -1   6   2  373.37    9.54
  -1  -6   2  326.90    9.44
  -1  -6   2  365.15    9.82
   1   6  -2  345.75    8.03
   1   6  -2  372.36    7.64
  -1   6   1   68.18    3.60
   1   6  -1   76.25    3.43
  -1  -6   1   65.01    4.02
  -1   6   1   75.84    4.96
  -1   6   1   78.25    4.31
   1   6  -1   68.22    5.44
   1  -6  -1   66.65    3.79
   1   6  -1   72.27    3.67
  -1   6   1   76.98    3.38
  -1  -6   1   63.42    4.26
  -1   6   1   68.12    4.92
   1   6   0  113.72    4.65
  -1   6   0  112.91    5.09
  -1   6   0  104.77    4.29
  -1   6   0  137.75    6.55
  -1   6   0  106.81    6.14
   1   6   0  113.54    7.02
   1   6   0  120.20    5.56
  -1   6   0  122.08    4.30
   1  -6   0   97.49    4.75
  -1  -6   0  111.97    5.10
  -1  -6   0  125.97    5.80
  -1   6  -1  182.06    8.06
  -1  -6  -1  199.74    7.48
   1   6   1  194.76    6.19
  -1   6  -1  194.27    6.65
   1   6   1  205.35    7.61
  -1  -6  -1  190.53    6.60
   1   6   1  188.34    9.11
  -1   6  -1  202.53    5.77
  -1   6  -1  182.88    5.58
  -1   6  -1  209.57    5.87
  -1   6  -2  205.34    8.46
  -1   6  -2  238.19    6.45
   1   6   2  237.09    6.37
   1   6   2  224.60    8.44
  -1   6  -2  203.70    5.83
   1   6   2  210.10    9.62
  -1  -6  -2  213.88    7.38
  -1   6  -2  205.43    6.73
  -1   6  -2  230.30    6.24
   1   6   2  215.37    6.63
  -1  -6  -2  210.34    7.02
   1  -6   2  224.09    8.78
  -1  -6  -3  153.68    6.21
   1   6   3  151.43    5.67
   1   6   3  148.08    7.95
  -1   6  -3  144.93    4.73
   1   6   3  166.08    5.42
   1  -6   3  164.85    8.28
   1   6   3  162.07    7.69
   1   6   3  139.38    4.67
  -1   6  -3  151.43    7.18
  -1   6  -3  167.19    5.36
  -1  -6  -3  153.37    6.14
  -1   6  -3  173.73    5.75
  -1   6  -4   15.15    2.30
   1   6   4   16.11    2.65
  -1   6  -4   13.84    1.51
   1  -6   4   15.53    2.82
   1   6   4   15.33    2.49
   1   6   4   18.26    1.75
  -1   6  -4   13.69    1.57
   1   6   4   13.30    1.73
  -1  -6  -4   15.12    1.99
  -1   6  -4   17.60    1.90
  -1   6  -5  322.71    7.63
   1   6   5  321.78   12.43
   1   6   5  279.11    7.26
  -1   6  -5  300.18    7.93
   1  -6   5  308.02   12.95
   1   6   5  277.93    8.07
  -1  -6  -5  283.73    8.88
   1   6   6  130.91    5.09
   1   6   6  131.72    5.58
  -1   6  -6  137.81    5.39
   1   6   7   18.10    2.03
  -1   6  -7   19.69    2.07
  -1  -6  -7   18.62    1.85
   1   6   7   20.77    2.10
  -1   6  -8  584.06   10.72
  -1  -6  -8  581.42   10.55
  -1   6  -9   99.76    3.94
  -1  -6  -9   95.40    3.86
  -1  -6 -10   75.74    3.12
  -1   6 -10   78.09    2.95
  -1  -6 -10   80.00    3.11
  -1  -6 -10   78.34    3.17
  -1  -6 -11   29.13    1.61
  -1  -6 -11   26.82    1.55
   1   6  11   29.83    1.69
  -1   6 -11   25.13    1.29
  -1  -6 -11   28.75    1.58
  -1  -6 -11   28.68    1.54
  -1  -6 -11   30.02    1.43
   1  -7 -11   11.82    0.89
   1  -7 -11   11.02    0.81
   1   7 -11   12.53    0.98
   1  -7 -11   12.02    0.96
   1  -7 -10    1.29    0.46
   1   7 -10    2.28    0.53
  -1  -7  10    2.45    0.55
   1  -7 -10    2.74    0.57
  -1  -7   9    7.32    0.94
  -1   7   9    6.77    1.01
   1   7  -9    7.04    1.16
  -1  -7   9    5.57    0.90
   1  -7  -9    5.14    0.89
  -1  -7   8    2.56    0.68
  -1   7   8    2.75    0.85
   1   7  -8    2.48    0.97
  -1   7   7   52.70    3.58
   1   7  -7   51.21    2.84
   1   7  -7   47.83    3.32
  -1   7   6  221.10    7.57
   1   7  -6  203.31    6.93
   1   7  -6  225.76    6.37
  -1   7   5  461.39   11.16
   1   7  -5  442.79   10.53
   1   7  -5  444.91    9.46
  -1   7   4  701.90   13.88
   1   7  -4  682.43   12.17
   1   7  -4  670.01   12.85
   1   7  -3  573.41   10.13
  -1   7   3  545.74   11.82
   1   7  -3  540.62   11.01
   1   7  -3  536.19   10.79
  -1  -7   2 1364.75   21.45
  -1   7   2 1529.47   18.39
  -1   7   2 1559.01   20.69
   1   7  -2 1667.71   18.74
  -1   7   2 1719.23   23.46
  -1   7   2 1696.14   27.69
  -1  -7   2 1454.70   23.62
  -1   7   2 1706.23   27.55
   1   7  -2 1545.82   19.06
   1   7  -2 1479.35   27.97
   1   7  -2 1554.08   19.94
  -1  -7   1   91.19    4.98
   1   7  -1  100.06    4.64
   1   7  -1  102.96    4.25
  -1  -7   1   89.90    5.36
  -1   7   1  103.15    4.68
  -1   7   1  111.96    5.65
  -1   7   1  116.56    6.70
   1   7  -1  106.00    7.36
  -1   7   1  102.30    4.28
  -1   7   1  107.95    6.67
   1   7   0  330.53   13.17
  -1   7   0  318.28   11.55
  -1   7   0  313.68    8.15
  -1   7   0  326.18    7.85
   1   7   0  307.55    8.37
  -1   7   0  334.33    9.64
  -1  -7   0  316.91   10.15
   1   7   0  351.85    8.12
  -1   7   0  369.38    8.21
   1   7   0  358.40    7.73
  -1   7  -1  362.49    8.24
  -1   7  -1  336.88   11.83
  -1   7  -1  343.70    8.05
  -1  -7  -1  315.57    9.59
   1   7   1  320.35    8.61
   1   7   1  362.63    8.29
   1   7   1  341.55   13.30
  -1   7  -1  320.25    7.96
  -1   7  -2   57.23    3.33
  -1   7  -2   56.76    3.18
  -1  -7  -2   56.37    3.95
   1   7   2   65.49    3.49
   1   7   2   55.65    3.56
  -1   7  -2   63.02    3.42
  -1   7  -3    5.77    1.09
  -1   7  -3    5.88    1.07
  -1   7  -3    8.59    1.32
   1   7   3    6.06    1.12
   1   7   3    6.33    1.31
  -1   7  -4   24.61    2.14
   1   7   4   25.05    2.14
  -1   7  -4   22.96    1.99
   1   7   4   24.33    2.41
  -1   7  -4   22.44    2.16
   1   7   5  105.29    4.94
  -1   7  -5  110.44    4.68
  -1   7  -5  116.34    4.58
  -1   7  -6  138.60    5.19
   1   7   6  132.87    4.93
   1   7   6  140.90    5.57
  -1   7  -7   12.39    1.49
   1   7   7   10.68    1.41
  -1  -7  -7   10.73    1.25
   1   7   7   10.74    1.45
   1   7   8   33.33    2.26
  -1  -7  -8   32.07    2.01
  -1   7  -8   29.71    2.06
  -1  -7  -9    4.75    0.70
  -1  -7  -9    4.01    0.76
  -1  -7  -9    4.76    0.73
  -1   7  -9    4.47    0.77
  -1  -7 -10    1.22    0.37
  -1  -7 -10    0.97    0.37
  -1  -7 -10    0.68    0.34
  -1   7 -10    0.94    0.36
   1   8 -10   25.38    1.22
  -1  -8   9    4.26    0.54
   1   8  -9    4.10    0.67
   1   8  -8   31.17    2.05
  -1  -8   8   30.93    1.57
  -1  -8   8   26.30    1.55
   1   8  -7  167.98    5.25
  -1   8   7  174.86    5.53
  -1   8   6  233.71    7.07
   1   8  -6  220.56    5.80
   1   8  -6  217.60    6.41
   1   8  -5   33.14    2.59
  -1   8   5   33.25    2.79
   1   8  -5   33.95    2.41
   1   8  -4  334.53    8.05
  -1   8   4  351.11    9.14
   1   8  -4  325.73    8.12
   1   8  -3  449.53    9.66
   1   8  -3  442.06    9.43
  -1   8   3  460.12   10.60
  -1   8   2   88.70    3.86
   1   8  -2   91.06    3.98
  -1   8   2   86.37    4.46
   1   8  -2   81.70    4.18
   1   8  -2   83.99    3.93
   1   8  -1  580.03   10.36
  -1   8   1  508.93   10.82
   1   8  -1  491.01   10.56
   1   8  -1  558.16   10.09
  -1   8   1  518.36    9.90
   1   8   0  445.21   10.20
  -1   8   0  432.30    9.54
  -1   8   0  475.67    9.52
   1   8   0  492.49    9.47
   1   8   1   71.79    4.02
  -1   8  -1   81.28    3.94
  -1   8  -1   77.61    3.73
  -1   8  -1   91.91    4.20
   1   8   1   84.73    3.86
  -1   8  -2   14.37    1.65
   1   8   2   20.23    1.94
  -1   8  -2   14.81    1.67
  -1   8  -2   17.54    1.88
   1   8   2   16.54    1.96
  -1   8  -3  124.74    4.72
   1   8   3  104.03    4.80
   1   8   3  120.35    4.46
  -1   8  -3  113.64    4.63
  -1   8  -3  110.28    4.26
  -1   8  -4  155.33    5.16
  -1   8  -4  156.13    5.32
   1   8   4  159.17    4.88
   1   8   5   71.09    3.74
  -1   8  -5   68.91    3.42
   1   8   6   99.30    4.05
  -1   8  -6   98.40    3.86
  -1  -8  -7   33.72    1.89
  -1   8  -7   36.34    2.12
  -1  -8  -8   38.54    1.80
  -1   8  -8   41.73    1.98
  -1  -8  -9    3.66    0.50
  -1   8  -9    4.99    0.57
   1   9  -8   52.95    1.85
  -1   9   7  139.56    3.49
   1   9  -7  134.79    3.56
   1   9  -6   67.88    2.81
  -1   9   6   68.08    2.96
  -1   9   5  276.89    6.78
   1   9  -5  266.50    5.83
   1   9  -5  269.30    6.07
   1   9  -4   34.21    2.23
   1   9  -4   40.69    2.43
  -1   9   4   39.54    2.68
  -1   9   3   21.32    2.03
   1   9  -3   17.41    1.71
  -1   9   2   68.69    2.96
   1   9  -2   65.43    3.33
  -1   9   2   63.98    3.49
  -1   9   1    2.84    0.91
  -1   9   1    2.25    0.63
   1   9  -1    1.13    0.64
  -1   9   0   24.82    1.90
  -1   9   0   21.89    2.01
   1   9   0   21.25    2.01
   1   9   0   24.49    2.00
  -1   9  -1   53.91    2.80
   1   9   1   53.69    2.80
  -1   9  -1   52.36    2.87
   1   9   1   50.54    3.09
  -1   9  -2   40.22    2.40
   1   9   2   40.09    2.36
   1   9   2   38.23    2.64
  -1   9  -2   42.92    2.51
   1   9   3   11.51    1.24
   1   9   3   10.26    1.38
  -1   9  -3    9.61    1.21
   1   9   4   54.61    2.88
  -1   9  -5   24.93    1.75
   1   9   5   21.93    1.65
  -1  10   4   45.84    2.06
   1  10  -4   44.45    1.93
   1  10  -3   26.73    1.61
  -1  10   3   27.06    1.74
   1  10  -2   56.73    2.48
  -1  10   2   58.67    2.60
   1  10  -1    2.08    0.59
  -1  10   1    3.43    0.76
   1  10   0   36.33    2.06
  -1  10   0   39.25    1.81
   1  10   1    2.10    0.56
   1  10   2   24.81    1.62
   1  10   3   32.35    1.69
  -2   0  14    2.06    0.58
  -2   0  14    2.68    0.58
   2   0 -14    2.65    0.64
  -2   0  13   61.13    3.58
  -2   0  13   64.56    3.04
  -2   0  12    0.56    0.64
  -2   0  12    0.17    0.71
  -2   0  12    1.46    0.67
   2   0 -12    1.22    0.64
  -2   0  11  336.10    9.93
  -2   0  11  343.03    8.90
  -2   0  11  334.95    9.55
  -2   0  11  322.25    8.01
   2   0 -11  321.23    8.38
  -2   0  11  314.72    8.90
  -2   0  11  336.45    9.04
  -2   0  10  176.50    6.31
  -2   0  10  168.71    6.35
   2   0 -10  167.10    6.24
  -2   0  10  172.45    6.92
  -2   0  10  170.79    6.71
  -2   0  10  168.78    5.72
  -2   0  10  175.39    6.48
  -2   0   9  178.79    6.76
  -2   0   9  183.15    6.24
   2   0  -9  155.27    5.89
  -2   0   9  169.41    6.18
  -2   0   9  169.91    7.03
  -2   0   9  170.17    6.09
  -2   0   9  174.09    5.81
  -2   0   9  167.56    5.53
  -2   0   9  180.09    6.58
  -2   0   8   12.47    1.85
  -2   0   7 1170.62   14.78
  -2   0   7 1010.77   15.93
  -2   0   6  750.30   12.49
  -2   0   6  834.02   11.50
  -2   0   5  298.57    6.93
  -2   0   5  318.45    6.30
  -2   0   4 7820.43   50.94
   2   0  -4 8014.05   54.19
  -2   0   3   81.27    2.63
   2   0  -3   74.33    3.08
  -2   0   3   72.41    2.11
  -2   0   3   76.39    2.82
  -2   0   2   80.68    2.48
   2   0  -2   76.61    2.85
  -2   0   2   68.55    1.56
  -2   0   2   72.99    2.56
  -2   0   1 4441.01   28.69
  -2   0   1 4443.85   30.26
  -2   0   1 4479.25   26.57
   2   0  -1 4476.82   32.15
  -2   0   0 1282.82   13.30
  -2   0   0 1291.20   11.43
  -2   0   0 1321.38   10.25
  -2   0   0 1353.02   13.01
   2   0   0 1336.43   14.14
  -2   0  -1  598.42    8.83
  -2   0  -1  611.77    7.95
  -2   0  -1  628.15    7.08
   2   0   1  618.29    9.97
  -2   0  -2 1387.10   14.59
  -2   0  -2 1378.13   13.30
   2   0   3 3833.35   35.60
  -2   0  -3 3859.20   30.39
  -2   0  -4 6238.99   49.55
  -2   0  -4 6456.97   47.86
  -2   0  -5   27.48    2.33
   2   0   5   22.08    2.69
  -2   0  -5   26.37    2.47
  -2   0  -6   64.79    4.33
  -2   0  -6   66.34    3.98
   2   0   6   66.23    4.95
   2   0   7  594.25   16.40
  -2   0  -7  596.04   13.65
  -2   0  -7  571.57   14.25
   2   0   8  260.33   11.69
  -2   0  -8  269.57   10.21
  -2   0  -8  250.98    6.44
   2   0   8  262.52    6.43
  -2   0  -8  262.09    6.19
  -2   0  -8  263.48    6.74
  -2   0  -9    1.86    0.73
   2   0   9    2.43    0.71
  -2   0  -9    1.26    0.58
  -2   0  -9    1.59    0.60
   2   0  10   62.75    3.26
  -2   0 -10   67.12    3.23
   2   0  11   85.22    3.65
   2   0  12   24.21    1.78
   2   0  13    1.85    0.50
   2   1 -14    8.16    1.03
  -2  -1  14    8.74    0.98
  -2   1  14    7.24    1.08
  -2   1  14    7.60    0.82
  -2  -1  14    9.27    1.18
   2  -1 -14    8.73    1.01
  -2   1  13   49.79    2.59
  -2  -1  13   46.27    3.06
  -2   1  13   51.74    3.02
   2   1 -13   47.63    2.87
  -2   1  13   51.30    3.31
  -2  -1  13   51.28    2.74
   2  -1 -13   56.71    3.02
   2  -1 -12  103.55    4.62
  -2  -1  12   98.64    4.78
  -2   1  12  103.56    4.88
  -2   1  12  101.89    4.14
  -2  -1  12   98.19    4.20
  -2   1  12  109.92    5.24
  -2  -1  12  101.05    4.95
  -2   1  12  107.08    4.73
   2  -1 -12   95.20    4.01
  -2  -1  11   74.14    4.46
  -2  -1  11   73.44    4.42
  -2   1  11   66.35    4.13
  -2   1  11   73.87    4.21
  -2  -1  11   72.40    4.21
  -2   1  11   69.37    3.60
  -2  -1  11   69.17    3.67
   2  -1 -11   63.69    3.93
  -2   1  11   69.83    4.37
  -2   1  10  319.59    9.65
  -2   1  10  303.89    9.12
  -2   1  10  324.88    9.00
  -2   1  10  307.87    8.69
  -2  -1  10  327.81    8.27
  -2   1  10  311.14    7.79
   2  -1 -10  285.94    8.68
  -2  -1  10  328.15    9.40
   2   1 -10  319.59   12.08
  -2  -1  10  305.18    7.81
  -2  -1  10  318.82    9.15
  -2  -1  10  296.69   10.45
  -2  -1  10  336.26    8.61
   2   1 -10  319.16    7.92
  -2  -1  10  301.13    8.62
  -2   1  10  309.18    8.98
  -2  -1  10  331.57    8.75
  -2  -1   9  318.11    8.30
  -2  -1   9  332.19    8.51
  -2  -1   9  327.74    8.13
  -2  -1   9  314.15    8.35
  -2  -1   9  296.03   10.02
  -2   1   9  324.69    8.81
  -2   1   9  301.67    7.38
  -2   1   9  335.37   10.75
  -2  -1   9  322.71    9.08
  -2  -1   9  297.57    7.51
  -2   1   9  312.10    8.86
  -2   1   9  308.89    8.31
  -2  -1   9  331.70    8.92
  -2   1   9  309.57    8.72
  -2   1   9  314.15    9.16
  -2  -1   9  333.18    7.88
  -2  -1   8  276.90    9.03
  -2   1   8  302.53    9.25
  -2  -1   8  298.24    8.45
  -2  -1   7  494.70   10.53
  -2   1   7  452.52   11.25
   2  -1  -7  522.95    9.54
  -2  -1   7  447.02   10.74
  -2   1   7  502.94   11.01
  -2   1   7  518.55    9.90
  -2  -1   6 1603.65   19.38
  -2   1   6 1703.78   18.12
  -2   1   6 1651.79   19.53
   2  -1  -6 1745.67   17.38
  -2  -1   5 7041.15   50.29
  -2   1   5 6832.41   44.20
   2  -1  -5 6771.15   45.45
  -2   1   5 7143.82   47.49
   2   1  -5 6936.96   53.40
  -2  -1   5 6899.92   51.22
   2  -1  -4 2261.57   22.58
  -2   1   4 2078.14   19.77
  -2   1   4 2179.93   17.08
  -2  -1   4 2137.30   21.50
   2   1  -4 2198.15   22.22
  -2   1   4 2207.70   18.84
  -2  -1   4 2160.64   20.73
   2  -1  -4 2169.33   16.63
  -2  -1   3 5785.07   40.17
  -2  -1   3 5418.96   39.05
   2  -1  -3 5565.02   39.74
   2   1  -3 5721.24   40.83
  -2   1   3 5441.90   38.09
  -2   1   3 5760.45   37.25
  -2  -1   2 1263.02   12.99
  -2  -1   2 1226.26   13.17
   2   1  -2 1270.42   13.69
  -2   1   2 1169.88   11.55
   2  -1  -2 1217.14   12.75
  -2   1   2 1194.91   11.77
  -2   1   2 1252.88   11.83
  -2  -1   1 2015.81   17.11
  -2   1   1 2090.68   17.78
  -2   1   1 1948.72   13.03
  -2  -1   1 2072.25   17.28
  -2   1   1 1855.43   15.56
  -2   1   1 1982.96   17.21
   2   1  -1 2139.94   18.74
   2  -1  -1 2020.82   17.42
  -2  -1   1 2038.89   17.60
  -2  -1   0 3389.81   23.86
   2   1   0 3382.52   26.28
  -2   1   0 3043.19   21.35
   2  -1   0 3021.62   24.48
  -2  -1   0 3111.76   23.86
  -2  -1   0 3396.91   22.65
  -2  -1   0 3194.04   23.39
  -2  -1  -1  806.79    8.71
  -2  -1  -1  753.99    9.56
   2  -1   1  772.99   11.09
   2   1   1  842.38   12.13
  -2  -1  -1  715.65    9.88
  -2   1  -1  808.37    8.98
  -2  -1  -1  784.96    9.65
  -2   1  -1  820.32    9.66
  -2   1  -2 2258.72   20.55
  -2  -1  -2 2512.12   20.02
  -2  -1  -2 2329.70   21.38
   2  -1   2 2363.06   23.92
  -2  -1  -2 2448.21   21.54
  -2   1  -2 2414.18   21.72
   2   1   2 2488.47   25.01
  -2  -1  -3 1379.58   16.14
  -2   1  -3 1378.57   16.77
  -2  -1  -3 1392.13   14.79
   2   1   3 1336.40   18.40
  -2   1  -3 1426.20   16.16
  -2  -1  -4 2442.84   25.27
  -2   1  -4 2541.84   25.30
  -2   1  -4 2452.36   26.41
  -2  -1  -4 2448.80   23.29
   2  -1   4 2445.06   27.95
   2   1   5 2520.87   31.15
  -2  -1  -5 2532.63   27.93
  -2  -1  -5 2626.79   26.39
  -2   1  -5 2544.39   29.08
  -2   1  -5 2765.26   29.21
   2  -1   5 2807.29   32.34
   2  -1   6 1296.29   22.93
  -2  -1  -6 1267.50   18.55
  -2   1  -6 1359.45   21.06
  -2  -1  -6 1236.66   19.66
   2   1   6 1161.38   21.81
   2  -1   7  359.40   12.79
  -2   1  -7  360.80   10.97
  -2  -1  -7  335.88    9.86
  -2  -1  -7  371.00    7.98
  -2  -1  -7  352.23   11.06
  -2  -1  -8  364.92    7.92
   2   1   8  345.61   13.51
  -2  -1  -8  360.60   11.13
   2   1   8  381.13    8.02
   2  -1   8  371.75   14.01
  -2   1  -8  329.82   10.98
  -2  -1  -8  357.07    8.29
  -2  -1  -8  353.17   11.84
   2  -1   8  361.76    7.57
   2   1   8  385.53    8.79
  -2  -1  -9  240.66    6.85
  -2  -1  -9  237.80    6.70
  -2  -1  -9  250.82    6.44
   2   1   9  237.83    6.53
   2  -1   9  240.77    6.31
   2   1   9  263.65    7.42
  -2  -1  -9  240.99    6.05
  -2  -1 -10   42.06    2.74
   2   1  10   39.42    2.66
   2  -1  10   37.12    2.46
   2   1  10   44.98    3.00
  -2  -1 -10   39.29    2.49
  -2  -1 -10   36.99    2.63
  -2  -1 -11    4.88    0.97
   2   1  11    4.90    1.02
   2  -1  11    3.69    0.81
   2   1  12    6.90    1.02
   2  -1  12    7.34    0.98
  -2  -1 -12    7.64    0.95
   2   1  13    7.06    0.86
   2  -1  13    7.12    0.84
  -2   2  14    5.67    0.93
  -2  -2  14    5.65    0.79
   2  -2 -14    5.37    0.76
  -2  -2  14    6.11    0.87
   2   2 -14    4.80    0.77
  -2  -2  13   69.29    3.61
  -2   2  13   66.33    3.23
  -2   2  13   63.65    3.53
   2  -2 -13   62.85    2.85
  -2   2  13   62.92    2.68
  -2  -2  13   62.57    2.99
  -2  -2  13   60.60    3.30
  -2   2  13   63.19    3.39
   2  -2 -13   69.82    3.38
   2   2 -13   59.48    3.14
   2   2 -12   15.61    1.84
  -2   2  12   20.26    2.14
  -2  -2  12   14.91    1.88
   2  -2 -12   16.76    2.01
  -2   2  12   14.70    1.80
  -2   2  12   18.55    1.73
  -2   2  12   15.66    2.03
  -2  -2  12   18.72    2.08
  -2   2  12   16.41    2.01
  -2  -2  12   15.31    1.70
   2  -2 -11  330.54    9.45
  -2   2  11  370.57   10.10
  -2  -2  11  359.51    9.51
   2   2 -11  366.57    9.24
  -2   2  11  376.12    8.28
  -2   2  11  359.11    9.71
  -2  -2  11  395.46    9.78
  -2  -2  11  369.75    8.76
  -2  -2  11  348.53    8.49
  -2   2  11  347.67    9.92
  -2  -2  11  361.63    9.69
  -2   2  10  269.83    8.66
  -2  -2  10  296.40    8.61
  -2   2  10  264.22    8.90
  -2  -2  10  257.56    7.99
  -2   2  10  272.95    7.10
  -2  -2  10  258.64    7.22
  -2  -2  10  283.86    7.51
  -2   2  10  261.96    8.38
  -2   2  10  258.68    8.57
  -2  -2  10  280.76    8.50
  -2   2   9  318.98    9.48
  -2  -2   9  329.70    8.99
  -2   2   9  328.34   11.32
  -2   2   9  329.35    9.41
  -2  -2   9  342.58    8.61
  -2  -2   9  299.85    9.79
  -2  -2   9  294.48   10.52
  -2  -2   9  341.51    8.06
   2   2  -9  291.54   10.93
  -2  -2   9  334.22    7.85
  -2   2   9  311.61    9.12
  -2  -2   9  308.72    8.46
  -2  -2   9  328.17    8.94
  -2   2   9  332.27    9.30
  -2   2   8   94.99    4.80
  -2  -2   8  102.20    4.64
  -2   2   8   92.19    5.55
  -2  -2   8   96.72    3.86
  -2   2   8   98.96    4.81
  -2  -2   8   88.26    5.06
  -2  -2   8   85.39    5.27
   2   2  -8   84.71    5.46
  -2   2   8   95.73    4.71
  -2  -2   8   97.12    4.25
  -2   2   8   86.64    4.62
  -2  -2   7  213.06    7.86
  -2  -2   7  239.12    8.04
  -2   2   7  245.09    8.31
   2   2  -7  232.01    8.37
  -2  -2   6   40.80    3.18
   2   2  -6   41.78    3.24
  -2   2   6   44.31    3.22
  -2  -2   6   41.83    3.13
  -2  -2   5  452.18    9.90
   2   2  -5  474.39   10.13
  -2   2   5  484.60   10.07
  -2  -2   5  480.07   10.23
  -2  -2   4 2865.16   27.29
   2  -2  -4 2979.19   20.81
   2   2  -4 2904.15   27.16
  -2  -2   4 2770.92   27.18
  -2   2   4 2987.52   21.78
   2  -2  -4 2897.79   26.15
  -2   2   4 2799.89   26.83
   2  -2  -3  421.53    4.41
  -2   2   3  413.29    6.06
   2   2  -3  409.75    7.92
  -2  -2   3  384.83    7.87
   2  -2  -3  398.93    6.97
  -2  -2   3  399.18    7.96
  -2   2   3  394.60    7.82
  -2  -2   2   78.04    3.13
   2  -2  -2   88.21    1.27
  -2  -2   2   83.23    3.27
   2  -2  -2   80.71    2.67
   2   2  -2   89.13    3.36
  -2   2   2   81.49    3.18
  -2  -2   1  220.36    5.05
  -2  -2   1  238.52    5.48
  -2   2   1  210.13    4.99
   2  -2  -1  230.41    4.70
   2  -2  -1  225.04    2.79
   2   2  -1  241.01    2.82
   2   2  -1  245.37    5.77
  -2  -2   1  226.82    5.17
  -2  -2   0 2357.53   20.66
   2   2   0 2210.24   16.86
  -2  -2   0 2349.96   20.02
   2   2   0 2292.97   21.56
   2  -2   0 2110.51   19.20
  -2   2   0 2151.45   19.40
  -2  -2   0 2185.19   19.12
  -2  -2   0 2185.89   19.15
  -2  -2  -1 5078.11   36.07
  -2  -2  -1 4731.90   34.52
  -2  -2  -1 5073.30   36.69
   2   2   1 4930.75   39.42
  -2  -2  -1 5035.68   35.65
   2  -2   1 4689.25   36.51
   2  -2   2  789.98   12.10
  -2  -2  -2  836.21   11.53
  -2  -2  -2  810.93   10.74
  -2  -2  -2  856.30   10.72
   2   2   2  813.64   13.41
   2  -2   3  803.22   13.35
  -2  -2  -3  888.00   12.95
  -2  -2  -3  862.52   11.61
   2   2   3  826.30   14.49
  -2   2  -3  874.88   12.97
   2   2   4 1712.84   23.62
   2  -2   4 1751.26   23.06
  -2  -2  -4 1855.17   21.50
  -2   2  -4 1723.11   21.38
  -2  -2  -4 1894.67   20.08
   2   2   4 1918.16   21.85
  -2  -2  -5  457.08   10.72
  -2   2  -5  437.03   10.61
   2  -2   5  428.91   11.64
  -2  -2  -5  437.58    9.47
   2  -2   6  204.95    8.83
   2   2   6  182.26    8.33
  -2   2  -6  180.60    7.28
  -2  -2  -6  186.85    7.43
  -2  -2  -6  190.80    6.80
  -2  -2  -7  213.35    6.21
   2  -2   7  216.97    9.85
   2   2   7  201.42    9.51
  -2  -2  -7  199.10    7.68
   2  -2   7  204.20    5.31
  -2  -2  -7  192.07    8.09
   2   2   7  217.71    5.89
  -2  -2  -7  187.73    5.71
   2   2   7  216.15    6.40
  -2  -2  -7  211.92    6.23
  -2  -2  -8  227.99    6.67
   2  -2   8  220.83    5.86
   2   2   8  224.60    6.35
  -2  -2  -8  210.54    9.16
  -2  -2  -8  211.97    6.22
   2  -2   8  221.70   10.54
   2   2   8  232.57    6.96
   2   2   8  198.33   10.17
  -2  -2  -8  244.93    7.05
  -2  -2  -8  220.01    8.61
  -2  -2  -9  697.37   12.38
   2   2   9  718.78   12.08
   2  -2   9  709.88   11.22
  -2  -2  -9  708.53   11.87
   2  -2  10  118.44    4.32
   2   2  10  120.93    4.72
  -2  -2 -10  119.04    4.77
  -2  -2 -10  112.44    4.62
  -2  -2 -10  114.14    4.17
   2   2  10  126.65    5.09
  -2  -2 -10  118.29    4.42
  -2  -2 -11   33.13    2.16
  -2  -2 -11   33.31    2.33
   2   2  11   36.97    2.49
  -2  -2 -11   35.74    2.09
   2  -2  11   33.81    2.17
  -2  -2 -12   21.24    1.60
   2  -2  12   20.56    1.52
   2   2  12   22.90    1.76
   2  -2  13    3.96    0.57
  -2  -2 -13    3.75    0.52
   2   2  13    3.72    0.63
  -2  -3  14   17.91    1.25
  -2   3  14   18.54    1.46
   2   3 -14   14.02    1.13
   2  -3 -14   15.46    1.01
   2  -3 -13   61.62    2.82
  -2   3  13   64.01    3.11
   2   3 -13   60.68    3.00
  -2  -3  13   64.81    2.93
  -2   3  13   66.33    3.40
  -2  -3  13   61.44    2.90
  -2  -3  13   66.20    3.37
   2  -3 -13   69.66    3.25
  -2  -3  12    4.61    1.04
  -2   3  12    5.55    1.15
  -2  -3  12    4.99    1.15
  -2   3  12    3.96    1.06
  -2  -3  12    5.53    1.12
   2  -3 -12    5.13    1.21
  -2   3  12    5.63    1.14
   2   3 -12    4.86    1.11
  -2   3  12    4.83    1.22
  -2  -3  11  213.66    6.45
  -2   3  11  211.11    7.49
  -2   3  11  245.19    7.97
  -2  -3  11  213.56    6.50
  -2   3  11  213.45    7.57
  -2  -3  11  224.90    7.27
  -2  -3  11  230.72    7.51
  -2   3  11  214.19    7.74
   2  -3 -11  191.18    7.18
   2   3 -11  217.96    7.13
  -2  -3  10  525.69   11.65
   2   3 -10  519.51   11.46
  -2  -3  10  533.38   11.25
  -2   3  10  525.34   12.62
  -2  -3  10  540.66   11.79
  -2  -3  10  499.93   10.37
  -2   3  10  495.53   12.10
  -2  -3  10  545.81   10.45
  -2   3  10  510.66   12.31
  -2  -3   9  130.14    5.56
  -2  -3   9  128.69    7.32
  -2  -3   9  132.53    4.90
  -2  -3   9  122.09    6.66
   2   3  -9  115.32    6.72
  -2   3   9  132.16    6.12
  -2  -3   9  139.88    5.50
  -2   3   9  135.30    6.07
  -2   3   9  136.21    7.73
  -2   3   9  137.34    6.28
   2   3  -9  130.21    5.58
  -2  -3   9  134.31    5.70
  -2   3   8  479.21   11.46
  -2  -3   8  435.92   12.89
   2   3  -8  465.66   10.55
  -2   3   8  472.26   11.39
  -2  -3   8  491.25   10.02
  -2  -3   8  440.93   12.55
  -2  -3   8  499.68    9.40
  -2  -3   8  498.17   10.71
   2  -3  -8  540.09   13.99
   2   3  -8  437.55   12.49
  -2   3   8  478.97   13.85
  -2   3   8  497.17   11.72
  -2   3   8  469.12   11.04
  -2  -3   7   52.06    4.11
   2  -3  -7   63.78    4.31
   2   3  -7   54.65    4.06
  -2   3   7   59.92    4.50
  -2  -3   7   55.33    4.23
  -2  -3   6  459.28   11.67
  -2  -3   6  453.10   11.43
   2  -3  -6  501.60   10.88
   2   3  -6  467.40   11.07
  -2   3   6  493.27   12.17
   2  -3  -5 1947.47   20.92
  -2  -3   5 1880.98   24.01
  -2  -3   5 1910.72   23.71
   2   3  -5 1917.23   22.82
  -2   3   5 1977.74   24.56
   2   3  -5 1842.36   23.64
  -2  -3   4  747.33   13.21
  -2  -3   4  785.66   13.38
   2   3  -4  827.69   12.77
  -2   3   4  811.43   13.91
   2  -3  -4  771.52   10.60
   2   3  -4  719.68   13.93
  -2  -3   3  317.60    7.78
  -2   3   3  330.61    8.08
  -2  -3   3  308.08    7.43
   2  -3  -3  296.55    5.35
   2   3  -3  335.08    7.33
   2   3  -3  301.36    8.65
  -2  -3   2 1781.05   19.58
  -2  -3   2 1743.64   18.87
   2  -3  -2 1866.30   14.00
  -2   3   2 1893.89   20.53
   2  -3  -2 1832.38   15.21
  -2  -3   1 1066.75   13.51
  -2  -3   1 1130.65   14.59
   2   3  -1 1149.64   14.27
   2   3  -1 1180.65   10.60
  -2  -3   1 1043.20   12.96
  -2   3   1 1099.56   14.52
   2  -3  -1 1046.87   10.27
   2   3   0 5579.61   41.89
  -2  -3   0 5299.93   40.80
  -2  -3   0 5257.36   38.60
  -2   3   0 5379.98   41.17
  -2  -3   0 5333.21   38.13
  -2  -3   0 5690.64   41.38
   2   3   0 5305.68   36.66
   2  -3   0 5062.94   34.95
   2  -3   1 1570.62   15.43
  -2  -3  -1 1638.03   18.26
  -2  -3  -1 1599.54   16.34
   2   3   1 1627.80   19.48
  -2  -3  -1 1614.89   16.26
  -2  -3  -2 3341.25   27.32
  -2  -3  -2 3546.67   30.82
  -2  -3  -2 3539.17   29.83
   2   3   2 3680.36   31.30
   2  -3   2 3330.83   28.38
   2   3   2 3401.82   33.04
   2   3   2 3597.33   36.39
   2  -3   3 1860.91   21.30
   2   3   3 2011.04   23.22
  -2  -3  -3 1928.32   19.52
  -2  -3  -3 1951.61   22.00
   2   3   3 1796.44   23.49
   2   3   3 2109.34   26.18
  -2  -3  -3 1999.86   20.73
   2   3   4   50.66    3.66
  -2  -3  -4   44.69    3.18
  -2  -3  -4   48.95    3.01
   2  -3   4   54.63    3.54
   2   3   4   48.85    3.62
   2   3   4   40.08    3.44
   2  -3   5  422.09   11.29
  -2  -3  -5  406.67    9.60
  -2  -3  -5  385.06   10.17
   2  -3   6    4.41    1.36
   2   3   6    4.53    1.00
   2   3   6    2.79    1.11
  -2  -3  -6    5.86    1.32
  -2  -3  -6    3.53    1.13
   2   3   6    5.40    0.97
  -2  -3  -6    4.64    0.94
  -2  -3  -7 1082.85   15.38
  -2  -3  -7 1168.46   15.62
  -2  -3  -7 1071.71   18.83
   2   3   7 1080.54   14.95
   2   3   7 1115.60   23.89
  -2  -3  -7  995.03   19.56
   2   3   7 1107.80   15.94
   2   3   8  748.26   20.09
  -2  -3  -8  879.16   18.06
   2   3   8  874.20   13.61
  -2  -3  -8  868.57   13.90
  -2  -3  -8  821.59   18.56
   2  -3   8  764.43   21.20
  -2  -3  -8  749.40   12.80
   2  -3   8  892.54   12.42
   2   3   8  874.50   14.41
  -2  -3  -8  909.77   14.00
   2   3   9  744.25   12.62
   2  -3   9  730.12   11.21
  -2  -3  -9  717.06   12.43
  -2  -3 -10  105.10    4.21
   2   3  10  112.81    4.61
   2  -3  10  110.70    4.00
  -2  -3 -10  102.95    4.40
  -2  -3 -10  110.58    4.54
  -2  -3 -11  109.13    3.67
  -2  -3 -11  112.26    4.19
   2   3  11  114.79    4.31
   2  -3  11  104.61    3.58
  -2  -3 -11  112.40    4.16
  -2  -3 -11  116.03    3.92
   2   3  12   13.44    1.32
  -2  -3 -12   12.82    1.22
   2  -3  12   12.87    1.06
  -2  -3 -12   11.94    0.98
   2   3  13   12.56    0.99
   2  -4 -13   47.87    2.33
   2  -4 -13   54.33    2.59
  -2  -4  13   54.50    2.46
  -2   4  13   54.24    2.74
  -2  -4  13   52.59    2.67
   2   4 -13   49.28    2.45
  -2  -4  12  110.88    4.54
  -2   4  12  122.96    4.54
  -2   4  12  111.85    4.75
   2   4 -12  107.20    4.33
   2  -4 -12  106.52    4.49
  -2   4  12  111.78    4.68
  -2  -4  12  118.21    4.29
  -2  -4  11  110.14    4.38
  -2   4  11  104.87    5.19
  -2   4  11   94.27    4.80
  -2   4  11  109.10    5.46
  -2  -4  11  100.13    4.34
  -2  -4  11   99.13    4.37
  -2  -4  11  107.67    4.94
   2   4 -11  103.51    4.77
   2  -4 -11   94.84    4.89
  -2   4  11  111.90    5.14
  -2  -4  10   64.50    3.48
  -2   4  10   62.01    4.24
  -2   4  10   69.19    4.44
  -2  -4  10   59.45    3.59
  -2   4  10   56.49    3.93
  -2  -4  10   63.69    3.78
  -2  -4  10   60.99    3.85
  -2   4  10   62.64    4.38
   2   4 -10   56.42    3.75
   2   4  -9  246.93    8.03
  -2  -4   9  247.89    7.80
  -2  -4   9  253.37    6.87
  -2  -4   9  260.35    7.86
  -2   4   9  245.76    8.24
  -2   4   9  256.36    8.90
  -2   4   9  245.48    8.74
  -2  -4   9  253.86    7.45
  -2   4   8   17.32    2.29
  -2   4   8   18.24    2.36
  -2  -4   8   21.19    3.01
  -2   4   8   18.05    2.83
  -2   4   8   22.46    2.60
  -2  -4   8   25.71    2.43
  -2  -4   8   16.86    1.90
   2   4  -8   18.00    2.19
  -2   4   8   17.61    2.11
  -2  -4   8   20.41    2.85
  -2  -4   7   92.00    5.81
  -2   4   7   94.59    5.09
  -2  -4   7   91.59    5.87
  -2  -4   7  106.71    4.00
  -2   4   7   91.41    4.57
   2   4  -7  103.73    5.69
  -2   4   7  112.13    5.49
  -2   4   7  101.81    6.31
  -2   4   7   90.25    4.97
  -2  -4   7   98.35    4.52
   2   4  -7   92.52    4.72
  -2  -4   6   18.48    2.49
  -2  -4   6   21.13    2.69
  -2   4   6   21.17    2.30
   2   4  -6   26.41    2.64
  -2   4   6   22.55    2.85
  -2  -4   5   50.37    3.86
   2   4  -5   58.38    3.63
  -2   4   5   54.26    4.09
  -2  -4   5   51.89    3.79
   2   4  -5   52.47    4.00
  -2  -4   4  534.19   11.62
  -2   4   4  518.89   12.17
   2   4  -4  487.45   12.69
  -2  -4   4  527.19   11.98
  -2  -4   3  456.52    9.78
   2   4  -3  436.87   12.07
  -2   4   3  475.24   11.06
  -2  -4   3  463.04   10.43
  -2  -4   2  404.35    9.09
   2   4  -2  419.46    8.74
  -2   4   2  402.78    9.54
  -2  -4   2  397.90    8.39
  -2   4   2  395.26    9.67
  -2  -4   1  919.42   14.39
   2  -4  -1  901.19   11.03
   2   4  -1  941.48   13.56
  -2  -4   1  859.42   12.15
  -2   4   1  924.80   14.92
  -2  -4   1  914.12   13.38
  -2   4   1  887.80   14.54
  -2  -4   0 1496.97   16.79
  -2  -4   0 1371.19   15.20
  -2  -4   0 1415.34   18.34
   2   4   0 1523.40   18.57
  -2   4   0 1537.71   19.76
   2   4   0 1490.29   15.92
  -2   4   0 1375.94   18.85
   2   4   0 1436.38   23.54
  -2  -4   0 1504.43   18.76
  -2  -4  -1 1812.29   18.27
   2   4   1 1781.22   26.87
  -2  -4  -1 1756.73   17.94
  -2  -4  -1 1852.28   21.27
   2   4   1 1820.27   21.79
  -2  -4  -1 1801.21   21.03
   2   4   1 1769.83   19.77
  -2   4  -1 1759.53   21.78
  -2  -4  -2  925.85   11.95
  -2  -4  -2  937.71   14.63
  -2  -4  -2  906.61   14.01
   2   4   2  957.61   15.14
   2   4   2  940.72   18.99
   2   4   2  943.56   15.53
   2   4   3  211.13    8.60
  -2  -4  -3  201.77    6.84
   2   4   3  191.22    7.17
  -2  -4  -3  202.71    6.37
   2   4   4  604.57   14.31
  -2  -4  -4  552.48   12.31
  -2  -4  -4  580.65   11.65
   2   4   4  572.70   14.03
  -2  -4  -5   14.48    2.08
   2   4   5   14.97    2.31
   2   4   5   14.47    2.43
  -2  -4  -5   14.89    1.95
   2   4   5   13.68    1.48
   2   4   6  107.08    7.17
   2   4   6   91.81    6.17
  -2  -4  -6  103.24    5.42
  -2  -4  -6   97.07    5.71
  -2   4  -6  101.28    4.09
  -2  -4  -6   97.12    4.15
   2   4   6   95.64    4.16
  -2  -4  -7  738.93   12.49
   2   4   7  771.54   12.90
  -2  -4  -7  730.24   16.96
   2  -4   7  713.93   20.08
  -2   4  -7  765.01   12.00
  -2  -4  -7  774.26   16.11
  -2  -4  -8   67.77    3.66
   2   4   8   69.68    3.81
  -2  -4  -8   60.74    3.54
   2   4   9  316.07    8.13
  -2  -4  -9  302.82    7.58
  -2  -4  -9  305.47    7.66
   2   4  10   59.70    3.33
  -2  -4 -10   54.35    2.94
  -2  -4 -10   52.53    3.03
  -2  -4 -10   50.29    2.90
  -2  -4 -11    6.73    0.95
   2   4  11    6.21    1.04
  -2  -4 -11    4.41    0.79
  -2  -4 -11    4.15    0.82
   2   4  12    9.01    0.99
  -2  -4 -12    8.05    0.76
  -2  -4 -12    8.54    0.92
  -2  -5  13    8.30    0.86
   2  -5 -13    9.15    0.91
   2   5 -13    8.05    0.85
   2  -5 -13    8.40    0.84
   2  -5 -12   55.66    2.73
  -2  -5  12   64.40    2.99
  -2  -5  12   63.96    2.87
   2  -5 -12   60.26    2.97
   2   5 -12   62.91    2.94
   2  -5 -11   62.43    3.59
  -2  -5  11   71.62    3.27
  -2  -5  11   69.46    3.58
  -2   5  11   75.96    3.86
   2   5 -11   71.44    3.65
  -2  -5  11   69.77    3.40
  -2   5  11   74.43    3.79
  -2   5  11   72.91    4.09
   2   5 -10   91.87    4.59
  -2  -5  10   97.16    4.06
  -2   5  10  101.73    5.37
  -2   5  10  107.93    5.28
  -2  -5  10   96.38    4.58
  -2  -5  10  100.25    4.35
  -2   5  10   94.38    4.62
  -2   5   9  113.33    5.94
  -2   5   9  123.77    6.06
   2   5  -9  103.91    5.10
  -2  -5   9  112.55    4.48
  -2  -5   9  113.38    4.82
  -2   5   9  109.49    5.09
  -2  -5   9  107.25    5.04
  -2   5   9  112.60    5.95
  -2   5   8   18.23    2.45
  -2   5   8   24.45    2.76
  -2  -5   8   19.23    2.04
  -2   5   8   18.34    2.44
  -2   5   8   17.50    2.02
   2   5  -8   17.46    2.20
  -2  -5   7  101.56    6.46
  -2   5   7  103.33    5.57
  -2   5   7  118.95    6.02
   2   5  -7  101.77    5.15
  -2  -5   7  107.86    6.56
  -2   5   7  102.52    6.78
  -2  -5   7  110.58    4.85
  -2   5   7  100.22    5.50
  -2  -5   6   68.71    5.11
   2   5  -6   71.03    3.27
  -2   5   6   66.75    4.28
  -2   5   6   77.82    4.66
  -2  -5   6   66.79    4.85
  -2   5   6   72.39    5.45
   2   5  -6   71.20    4.21
  -2  -5   6   70.03    3.75
  -2   5   6   69.13    4.37
  -2   5   5   96.71    4.76
  -2   5   5  101.78    5.00
  -2  -5   5   90.92    5.56
  -2   5   5  104.73    5.15
  -2  -5   5   89.08    5.27
   2   5  -5   83.51    5.63
   2   5  -5   95.28    3.86
  -2   5   5   89.54    5.71
  -2   5   5   91.36    4.71
   2   5  -5  100.81    4.79
  -2  -5   4  193.10    7.19
   2   5  -4  182.47    8.50
  -2   5   4  196.30    8.07
  -2  -5   4  193.37    7.57
  -2  -5   3  276.85    7.87
  -2   5   3  275.67    9.27
  -2  -5   3  280.00    8.64
  -2  -5   2  279.77    8.12
  -2  -5   2  265.30    8.31
  -2   5   2  273.85    8.73
  -2   5   2  268.18    8.90
  -2  -5   2  290.81    7.50
   2   5  -1  276.08   10.81
  -2  -5   1  307.51    8.70
  -2  -5   1  291.70    8.73
  -2  -5   1  320.90    8.18
  -2   5   1  340.49    9.92
  -2   5   1  309.33    9.28
  -2  -5   0  758.55   14.04
  -2  -5   0  738.04   14.01
  -2   5   0  851.25   15.81
   2   5   0  727.26   18.05
  -2   5   0  735.11   14.71
  -2  -5   0  815.08   12.41
  -2  -5  -1   52.34    3.48
   2   5   1   56.36    4.96
  -2  -5  -1   49.99    3.50
   2   5   1   54.88    3.37
  -2   5  -1   53.64    3.88
  -2  -5  -2  223.80    7.45
  -2  -5  -2  232.12    7.45
   2   5   2  248.94    7.97
   2   5   2  227.48    9.99
   2   5   3   37.49    2.38
  -2  -5  -3   40.04    3.29
  -2  -5  -3   41.84    3.15
   2   5   3   46.00    3.78
   2   5   3   37.15    3.99
  -2   5  -3   46.68    2.55
  -2   5  -4  207.32    5.62
  -2   5  -4  192.48    5.73
   2  -5   4  158.98    7.75
   2   5   4  181.22    5.51
   2   5   4  207.74    8.92
  -2  -5  -4  171.09    7.17
  -2  -5  -4  185.83    6.94
   2   5   4  192.64    8.88
  -2  -5  -5  148.46    6.51
  -2  -5  -5  135.03    6.68
   2   5   5  143.76    5.16
   2  -5   5  128.20    7.59
   2   5   5  160.35    8.57
  -2   5  -5  141.28    4.94
  -2  -5  -6   58.95    3.23
  -2  -5  -6   59.26    4.28
   2   5   6   57.60    3.39
   2  -5   6   54.51    5.30
  -2   5  -6   54.93    3.10
  -2  -5  -6   63.23    4.75
  -2  -5  -7  579.61   10.70
   2   5   7  584.46   11.39
  -2   5  -7  559.40   10.12
  -2  -5  -8  192.18    5.91
   2   5   8  191.01    6.42
  -2  -5  -8  171.23    5.73
  -2   5  -8  183.92    5.43
  -2  -5  -9  465.79    9.17
  -2  -5  -9  478.39    9.21
  -2   5  -9  454.13    7.99
  -2  -5  -9  459.95    8.80
  -2  -5 -10   54.08    2.76
   2   5  10   62.37    3.17
  -2  -5 -10   52.82    2.66
  -2  -5 -10   54.72    2.67
  -2  -5 -10   51.10    2.60
  -2  -5 -11    0.62    0.37
  -2  -5 -11    0.51    0.42
   2   5  11    0.47    0.49
  -2  -5 -11    0.36    0.39
  -2  -5 -12    1.57    0.36
   2  -6 -12   42.58    1.90
   2   6 -12   50.16    2.10
  -2  -6  12   50.97    2.08
   2  -6 -12   41.97    1.75
   2  -6 -12   46.39    2.00
  -2  -6  11   31.67    1.89
   2  -6 -11   26.61    1.96
  -2   6  11   35.37    2.15
  -2  -6  11   30.13    1.95
  -2  -6  11   31.06    2.00
   2   6 -11   32.87    2.13
  -2  -6  10    2.45    0.68
  -2  -6  10    2.13    0.69
  -2   6  10    2.99    0.85
  -2   6  10    4.11    1.15
   2  -6 -10    0.90    0.70
  -2  -6  10    1.79    0.59
   2   6 -10    2.11    0.73
  -2  -6   9    4.49    0.91
  -2   6   9    4.86    1.26
  -2  -6   9    6.12    1.20
  -2   6   9    4.49    1.15
  -2  -6   9    4.61    0.90
   2   6  -9    4.54    1.12
   2   6  -8   20.16    2.24
  -2   6   8   24.71    2.76
  -2   6   8   20.24    2.56
  -2  -6   8   22.86    2.09
   2   6  -7  166.49    4.96
  -2   6   7  154.15    6.97
  -2   6   7  167.43    7.16
   2   6  -7  151.35    6.25
   2   6  -6  569.61   10.11
  -2   6   6  562.13   11.98
  -2   6   6  594.40   13.63
  -2   6   6  554.04   13.12
   2   6  -6  551.17   12.14
   2   6  -5  461.22    9.33
  -2  -6   5  477.71   13.60
  -2   6   5  458.67   11.20
  -2   6   5  472.62   11.72
  -2  -6   5  464.84   12.36
  -2   6   5  457.18   11.35
  -2   6   5  458.09   14.07
   2   6  -5  455.82   10.63
   2   6  -4   41.28    3.01
   2   6  -4   41.18    2.77
  -2   6   4   41.77    3.31
  -2   6   4   41.54    3.19
  -2  -6   4   42.54    3.84
  -2   6   4   45.89    3.60
   2   6  -4   35.95    4.10
  -2   6   4   41.04    4.09
  -2  -6   4   41.39    3.80
  -2   6   3  204.93    7.63
   2   6  -3  172.96    9.10
  -2  -6   3  183.25    7.75
  -2   6   3  183.66    6.36
  -2   6   3  191.18    6.83
  -2   6   3  202.76    8.66
  -2  -6   3  195.01    7.66
   2   6  -3  189.44    6.12
   2   6  -3  186.28    6.08
  -2  -6   2  189.84    7.04
   2   6  -2  167.32    9.12
  -2  -6   2  173.43    7.24
  -2   6   2  169.43    6.10
   2   6  -2  170.82    5.85
  -2  -6   2  167.45    7.34
  -2   6   2  191.25    7.29
  -2   6   2  189.40    8.24
   2   6  -1  185.81    6.21
  -2   6   1  171.64    5.99
  -2  -6   1  190.67    7.42
  -2  -6   1  174.68    7.32
  -2   6   1  186.36    7.14
   2   6  -1  178.90    9.56
  -2   6   1  199.47    8.41
   2   6  -1  219.31    5.85
  -2   6   1  208.03    8.57
  -2   6   0  164.66    7.62
   2   6   0  156.55    9.04
  -2   6   0  150.85    6.34
  -2   6   0  153.66    5.46
  -2  -6   0  154.87    6.54
  -2   6   0  170.73    5.02
  -2   6   0  171.54    5.15
   2   6   0  180.65    5.28
  -2  -6   0  167.91    7.18
   2   6   0  167.77    5.93
   2   6   1    3.53    0.96
  -2   6  -1    3.80    1.04
  -2   6  -1    4.61    0.88
  -2   6  -1    4.59    0.93
  -2  -6  -1    3.31    1.04
  -2  -6  -1    3.55    1.08
   2   6   1    4.31    1.63
  -2   6  -1    4.04    0.86
  -2   6  -2   95.50    3.83
   2   6   2   86.25    4.41
  -2   6  -2   83.53    4.41
  -2  -6  -2   81.49    4.79
  -2   6  -2   94.03    3.89
   2   6   2   87.59    6.75
  -2  -6  -2   89.32    4.92
  -2   6  -2   79.37    3.64
  -2   6  -3  193.49    5.63
   2   6   3  179.85    6.61
   2  -6   3  180.89    9.09
   2   6   3  168.72    5.46
  -2   6  -3  179.54    5.53
  -2  -6  -3  184.88    7.11
   2   6   3  170.09    9.31
  -2   6  -3  159.15    4.96
  -2  -6  -3  180.22    7.45
  -2   6  -3  162.67    5.97
   2  -6   4    0.37    0.86
  -2   6  -4    1.64    0.69
  -2  -6  -4    1.64    0.89
  -2  -6  -4    1.87    0.94
   2   6   4    1.75    0.81
   2   6   4    1.31    0.63
  -2   6  -4    0.54    0.54
   2   6   5   33.50    3.02
   2   6   5   34.40    2.62
  -2  -6  -5   36.04    2.45
  -2   6  -5   32.06    2.38
   2   6   6    9.70    1.70
   2   6   6   10.19    1.54
  -2   6  -6    9.78    1.34
  -2  -6  -7  127.44    4.66
   2   6   7  127.30    5.73
   2   6   7  133.73    5.23
  -2   6  -7  123.02    4.44
  -2  -6  -7  132.83    4.47
   2   6   8  181.63    6.34
  -2  -6  -8  166.49    5.20
  -2  -6  -8  163.53    5.06
  -2   6  -8  162.29    4.68
  -2  -6  -8  170.91    4.86
  -2   6  -9   29.74    1.71
   2   6   9   33.85    2.35
   2   6   9   36.51    2.45
  -2  -6  -9   33.26    2.07
  -2  -6  -9   30.94    1.87
  -2  -6  -9   29.97    1.97
  -2  -6 -10   52.57    2.21
   2   6  10   58.63    2.68
  -2  -6 -10   52.65    2.16
  -2  -6 -10   53.69    2.30
  -2  -6 -11    3.85    0.50
  -2  -6 -11    3.41    0.51
  -2  -6 -11    4.14    0.52
  -2  -7  11   30.39    1.49
   2   7 -11   31.02    1.54
  -2  -7  10   22.18    1.48
   2   7 -10   23.78    1.73
  -2  -7  10   19.66    1.33
  -2  -7  10   22.19    1.57
   2  -7 -10   18.48    1.51
  -2   7  10   25.14    1.78
  -2   7   9   22.94    2.12
  -2  -7   9   22.16    1.68
   2   7  -9   21.96    1.90
  -2  -7   9   20.09    1.60
  -2  -7   8    7.06    1.08
  -2   7   8    9.96    1.59
  -2  -7   8    6.71    1.03
   2   7  -8    8.07    1.36
   2   7  -7  264.64    6.14
  -2   7   7  263.21    8.45
   2   7  -7  243.01    7.36
  -2  -7   7  241.31    6.34
  -2   7   6  453.20   11.51
   2   7  -6  447.98    8.86
   2   7  -6  424.82   10.00
   2   7  -5 1344.20   17.16
  -2   7   5 1376.82   20.90
   2   7  -5 1360.71   18.93
   2   7  -4   43.33    3.01
  -2   7   4   46.98    3.81
  -2   7   4   41.92    3.42
   2   7  -4   42.63    3.05
   2   7  -3 1509.14   18.69
   2   7  -3 1490.09   19.43
  -2   7   3 1469.80   21.06
   2   7  -2  259.40    7.61
  -2   7   2  278.23    9.32
   2   7  -2  266.83    6.72
   2   7  -1   12.72    1.69
  -2   7   1   16.22    2.30
   2   7  -1   18.67    1.83
  -2   7   1   15.85    1.56
  -2   7   1   13.06    1.72
  -2   7   0   60.19    4.19
   2   7   0   58.90    3.73
  -2   7   0   48.68    3.16
   2   7   0   67.14    3.27
  -2  -7   0   54.34    4.03
  -2   7   0   62.43    3.17
  -2   7  -1   40.99    2.61
  -2   7  -1   38.61    3.25
   2   7   1   38.79    3.09
   2   7   1   46.31    2.71
  -2   7  -1   35.24    2.60
  -2   7  -1   47.92    2.94
  -2   7  -2  280.03    6.89
   2   7   2  262.76    8.22
  -2   7  -2  256.47    8.15
  -2   7  -2  251.33    6.73
  -2   7  -3  551.92    9.99
   2   7   3  494.14   11.53
  -2   7  -3  479.56    9.10
  -2   7  -3  530.39   10.01
   2   7   4  211.25    7.50
  -2   7  -4  225.59    6.34
   2   7   5  153.26    6.32
  -2  -7  -5  141.14    4.69
  -2   7  -5  147.04    4.94
  -2   7  -6  112.77    4.11
   2   7   6  119.14    4.73
   2   7   6  119.85    5.38
  -2  -7  -6  102.19    3.88
   2   7   7    3.21    0.94
   2   7   7    2.23    0.76
  -2  -7  -7    2.58    0.69
  -2  -7  -7    2.80    0.62
  -2   7  -7    3.53    0.74
   2   7   8   72.82    3.36
  -2   7  -8   63.95    2.50
  -2  -7  -8   65.39    2.67
  -2  -7  -8   66.20    2.76
  -2  -7  -8   68.58    2.59
  -2  -7  -9   16.98    1.23
  -2  -7  -9   18.60    1.22
  -2  -7  -9   16.91    1.11
  -2   7  -9   16.13    1.02
  -2  -7 -10   28.93    1.29
   2  -8  -9    5.64    0.64
  -2  -8   9    7.24    0.73
  -2   8   9    7.71    0.91
  -2  -8   9    8.25    0.84
   2   8  -9    7.76    0.85
  -2   8   8   17.27    1.66
   2   8  -8   18.04    1.51
  -2  -8   8   17.55    1.32
  -2   8   7   25.84    2.31
   2   8  -7   26.97    2.01
   2   8  -6   46.12    2.51
  -2   8   6   45.29    3.25
   2   8  -6   46.07    2.73
   2   8  -5   75.27    3.44
  -2   8   5   80.20    4.44
   2   8  -5   80.58    3.73
   2   8  -4  203.68    6.14
  -2   8   4  205.58    7.08
   2   8  -4  206.79    5.96
   2   8  -3  703.88   12.35
   2   8  -3  737.85   11.44
  -2   8   2   79.90    4.24
   2   8  -2   87.21    4.31
   2   8  -1  101.08    4.74
  -2   8   1   95.08    4.49
  -2   8   0  214.42    5.70
   2   8   0  184.49    6.54
  -2   8   0  180.61    6.07
   2   8   0  229.57    5.99
   2   8   1    2.01    0.79
   2   8   1    4.00    1.00
  -2   8  -1    4.69    1.08
  -2   8  -1    2.44    0.72
   2   8   2  333.58    9.04
  -2   8  -2  317.15    7.30
   2   8   3   37.29    2.98
  -2   8  -3   34.48    2.29
  -2   8  -3   39.59    2.60
  -2   8  -4   99.71    3.90
   2   8   4   99.65    4.78
   2   8   5   10.74    1.54
  -2   8  -5   11.22    1.31
   2   8   6   40.67    2.69
  -2  -8  -6   38.50    1.96
  -2   8  -6   37.78    2.06
   2   8   7    3.13    0.70
  -2  -8  -7    4.08    0.63
  -2   8  -7    5.16    0.73
  -2  -8  -8   45.92    1.87
  -2  -8  -8   43.82    1.65
  -2  -9   7    2.61    0.44
  -2   9   7    3.48    0.70
   2   9  -7    3.49    0.55
  -2   9   6   15.46    1.53
   2   9  -6   16.86    1.25
   2   9  -5  173.78    4.43
   2   9  -5  191.16    4.49
  -2   9   5  179.92    5.50
   2   9  -4   98.15    3.62
  -2   9   4  106.44    4.39
  -2   9   3   87.59    3.96
   2   9  -3   85.05    3.60
  -2   9   2   43.27    2.75
   2   9  -2   38.00    2.55
   2   9  -1    1.62    0.75
  -2   9   1    1.35    0.64
  -2   9   0   62.48    2.63
   2   9   0   56.17    3.21
  -2   9   0   55.44    2.96
   2   9   1   44.87    2.91
  -2   9  -1   45.38    2.49
  -2   9  -2   32.03    2.02
   2   9   2   31.43    2.43
   2   9   3   24.13    2.09
   2   9   4   42.89    2.59
   2   9   5   40.67    2.26
  -2  -9  -6   27.02    1.33
   2  10  -4   20.13    1.20
  -2  10   4   20.83    1.39
  -2  10   3    9.47    1.03
   2  10  -3    8.38    0.90
   2  10  -2   29.35    1.72
  -2  10   2   32.40    1.81
   2  10  -1   12.17    1.17
  -2  10   1   13.30    1.19
   2  10   0   31.73    1.89
   2  10   1   30.93    1.85
   2  10   2   58.24    2.41
  -3   0  14    5.71    0.87
  -3   0  14    5.29    0.96
   3   0 -14    4.36    0.77
  -3   0  13    1.20    0.52
  -3   0  13    0.44    0.56
  -3   0  13    1.25    0.48
  -3   0  13    0.18    0.41
  -3   0  12    5.82    1.25
  -3   0  12    5.33    1.18
  -3   0  12    5.52    1.03
  -3   0  12    4.49    1.17
  -3   0  12    5.50    1.17
   3   0 -12    5.42    1.00
  -3   0  12    5.88    1.33
  -3   0  11  225.57    8.21
  -3   0  11  221.49    6.20
  -3   0  11  223.53    7.72
  -3   0  11  219.47    7.85
   3   0 -11  218.63    6.61
  -3   0  11  222.01    7.24
  -3   0  11  229.88    7.62
  -3   0  10  317.23    9.81
  -3   0  10  318.19    9.10
  -3   0  10  292.18    8.41
   3   0 -10  300.97    8.26
  -3   0  10  307.84    7.49
  -3   0  10  304.56    9.27
  -3   0  10  307.35    9.17
  -3   0   9 1339.11   17.70
  -3   0   9 1373.12   19.96
  -3   0   9 1369.46   19.45
  -3   0   9 1302.31   18.41
  -3   0   9 1373.33   20.90
  -3   0   9 1322.46   16.56
  -3   0   9 1337.68   20.01
  -3   0   8  207.30    7.27
  -3   0   8  195.63    5.85
  -3   0   8  189.31    6.35
  -3   0   8  209.92    6.73
  -3   0   8  194.29    7.10
   3   0  -8  214.15    9.18
  -3   0   8  198.24    6.78
  -3   0   7   25.53    2.43
   3   0  -7   35.12    3.47
  -3   0   6  555.35    9.51
   3   0  -6  569.15   12.79
  -3   0   5 4468.30   34.84
  -3   0   5 4281.05   36.74
  -3   0   4  118.95    3.90
   3   0  -4  120.30    4.83
  -3   0   4  118.32    4.33
  -3   0   3 3183.71   27.54
  -3   0   3 3167.34   26.32
  -3   0   3 3228.78   24.01
  -3   0   2 2216.60   20.21
  -3   0   2 2134.07   20.74
   3   0  -2 2158.30   22.13
  -3   0   2 2211.07   14.18
  -3   0   1  201.60    5.20
   3   0  -1  215.55    6.26
  -3   0   1  205.14    4.22
  -3   0   1  218.86    3.11
  -3   0   1  209.57    5.60
  -3   0   0  173.25    4.24
  -3   0   0  167.50    5.31
   3   0   0  155.16    5.43
  -3   0   0  167.48    3.37
  -3   0   0  158.78    5.11
   3   0   1 1652.65   21.46
  -3   0  -1 1629.29   19.44
  -3   0  -1 1694.41   17.25
  -3   0  -2 2115.79   19.46
  -3   0  -2 2079.62   21.39
   3   0   2 2046.49   25.98
  -3   0  -3 3929.75   35.48
   3   0   3 3975.27   40.94
   3   0   4   53.15    4.33
  -3   0  -4   60.19    3.37
  -3   0  -4   49.56    3.45
   3   0   5   10.13    2.10
  -3   0  -5   10.02    1.75
  -3   0  -6   25.03    1.85
  -3   0  -6   22.07    2.55
  -3   0  -6   20.77    2.70
   3   0   6   25.00    3.47
  -3   0  -7  251.65    6.47
  -3   0  -7  257.89    6.10
   3   0   7  257.26    6.17
   3   0   7  252.45   11.73
  -3   0  -7  244.06    9.94
  -3   0  -7  255.20    6.35
  -3   0  -8    4.37    0.93
  -3   0  -8    3.20    1.26
   3   0   8    3.45    0.74
  -3   0  -9   12.69    1.44
   3   0   9   12.14    1.44
   3   0  10  127.47    4.35
  -3   0 -10  127.31    4.23
  -3   0 -11    2.10    0.62
   3   0  11    1.49    0.53
   3   0  12   12.65    1.09
   3   1 -14   22.24    1.61
  -3  -1  14   22.26    1.31
  -3   1  14   24.91    1.67
  -3   1  14   23.52    1.86
  -3  -1  14   21.97    1.79
  -3   1  14   23.87    1.68
   3  -1 -14   21.73    1.57
  -3   1  13   43.66    2.79
  -3  -1  13   47.91    2.41
   3   1 -13   42.75    2.67
  -3   1  13   46.40    3.10
  -3  -1  13   46.46    3.08
   3  -1 -13   48.73    2.57
  -3   1  13   45.18    2.95
  -3  -1  12   62.46    4.00
  -3   1  12   64.92    3.89
  -3  -1  12   62.30    3.58
  -3  -1  12   63.93    3.15
  -3   1  12   60.59    3.94
  -3  -1  12   64.93    4.05
  -3  -1  12   65.50    3.80
  -3   1  12   62.65    3.92
   3  -1 -12   66.10    3.54
  -3  -1  12   60.14    3.58
  -3   1  11   26.14    2.86
  -3   1  11   27.58    2.77
  -3  -1  11   26.39    2.53
  -3  -1  11   28.81    2.93
  -3   1  11   29.35    2.57
  -3  -1  11   24.72    2.50
   3  -1 -11   29.50    2.63
  -3   1  11   26.38    2.66
  -3  -1  11   25.60    2.14
  -3   1  11   27.44    2.79
  -3  -1  11   29.54    2.91
  -3  -1  11   27.36    2.63
  -3  -1  10  532.12   11.66
  -3   1  10  552.13   13.14
  -3  -1  10  560.16   13.02
  -3  -1  10  558.02   11.80
  -3   1  10  549.71   12.16
  -3  -1  10  524.37   10.22
  -3  -1  10  552.65   10.94
  -3   1  10  565.09   12.68
  -3   1  10  527.71   12.46
  -3   1  10  546.75   11.48
  -3  -1  10  566.03   12.69
  -3   1  10  543.47   12.67
  -3  -1  10  554.88   12.12
  -3   1   9  864.13   16.31
  -3   1   9  836.66   14.11
  -3  -1   9  873.46   14.69
  -3  -1   9  862.07   15.54
  -3   1   9  857.65   15.58
  -3  -1   9  893.91   14.62
  -3   1   9  844.58   15.82
  -3  -1   9  796.91   16.61
  -3  -1   9  900.95   16.43
  -3  -1   9  864.00   14.99
   3   1  -9  886.12   19.83
  -3  -1   9  792.97   12.63
  -3   1   9  836.83   15.58
  -3   1   9  869.16   15.47
  -3  -1   9  841.62   14.45
  -3  -1   9  838.86   13.21
  -3   1   8  476.27   11.45
  -3  -1   8  504.77   11.01
  -3   1   8  482.51   11.06
  -3  -1   8  504.07   10.35
  -3   1   8  499.11   11.32
  -3  -1   8  497.46    9.39
  -3   1   8  501.08   11.19
  -3  -1   8  506.99   10.24
  -3  -1   8  469.68   11.88
  -3  -1   8  520.93   11.25
   3  -1  -8  569.21   15.16
   3   1  -8  508.73   14.01
  -3   1   8  471.79   10.92
  -3  -1   8  507.52   11.50
  -3  -1   8  515.70   10.82
  -3  -1   7  736.83   13.07
  -3  -1   7  695.71   13.92
   3  -1  -7  836.63   17.15
   3   1  -7  731.62   15.82
  -3   1   7  789.14   12.97
  -3  -1   6 2676.74   27.17
  -3   1   6 2787.64   26.38
  -3  -1   6 2599.80   28.34
   3   1  -6 2686.91   31.01
  -3   1   6 2818.00   26.74
  -3   1   5 1455.78   14.94
  -3   1   5 1372.87   16.30
  -3  -1   5 1270.94   17.45
  -3  -1   5 1326.59   16.82
   3  -1  -5 1444.57   19.59
   3   1  -5 1330.56   18.98
  -3   1   5 1337.22   15.54
  -3  -1   4 1914.57   20.17
  -3   1   4 1972.77   18.29
  -3   1   4 2025.32   19.64
   3  -1  -4 2006.92   21.94
  -3  -1   4 1925.42   21.21
   3   1  -4 1913.78   22.19
  -3   1   4 1913.17   18.03
  -3   1   3 1173.18   13.58
  -3  -1   3 1095.86   13.68
   3  -1  -3 1104.42   14.60
   3   1  -3 1149.67   15.49
  -3   1   3 1057.69   11.54
  -3   1   3 1108.04   13.45
  -3  -1   3 1137.67   14.72
  -3  -1   2  552.08    9.47
  -3   1   2  591.83    9.86
  -3  -1   2  571.29    8.74
  -3  -1   2  562.89    7.31
  -3   1   2  537.02    7.21
  -3   1   2  537.01    9.16
   3   1  -2  563.44   10.25
   3  -1  -2  528.16    9.39
  -3  -1   2  551.25    9.03
  -3  -1   1  393.16    7.48
  -3   1   1  375.88    7.84
  -3   1   1  412.87    8.40
  -3  -1   1  417.73    7.26
  -3   1   1  426.67    5.55
   3  -1  -1  394.74    8.22
  -3  -1   1  441.60    6.19
  -3  -1   1  389.41    7.80
   3   1  -1  444.61    9.39
  -3  -1   0 1179.74   13.51
  -3  -1   0 1122.28   14.01
  -3   1   0 1104.38    9.97
  -3   1   0 1197.64   12.29
  -3  -1   0 1136.99   14.81
  -3  -1   0 1253.43   11.78
   3   1   0 1200.31   16.69
   3  -1   0 1138.13   15.75
  -3  -1  -1  145.35    5.14
  -3   1  -1  158.03    4.07
  -3   1  -1  137.09    4.28
  -3  -1  -1  145.35    3.81
  -3  -1  -1  146.57    4.60
   3   1   1  146.69    5.96
   3  -1   1  132.94    5.46
   3   1   2 1395.86   21.15
  -3  -1  -2 1475.43   18.72
  -3   1  -2 1529.65   16.34
  -3  -1  -2 1433.14   17.43
  -3  -1  -2 1550.23   15.96
  -3   1  -2 1487.60   17.51
   3  -1   2 1401.20   20.65
   3  -1   3   19.02    2.40
  -3   1  -3   24.16    2.04
  -3  -1  -3   20.13    2.03
  -3   1  -3   20.87    2.10
  -3  -1  -3   26.49    2.01
   3   1   3   21.19    2.63
  -3  -1  -4  848.18   13.36
   3   1   4  814.23   17.86
   3  -1   4  865.00   17.96
  -3   1  -4  836.10   15.24
  -3  -1  -4  858.20   15.15
  -3  -1  -5  566.57   11.82
   3  -1   5  546.04   15.17
  -3  -1  -5  540.40   12.88
   3   1   5  523.84   15.20
  -3   1  -5  524.92   12.90
  -3   1  -6  481.56   12.53
   3  -1   6  496.31   15.53
  -3  -1  -6  491.22   11.94
  -3  -1  -6  451.12   12.65
   3   1   6  450.90   14.78
  -3  -1  -6  512.00    9.32
  -3  -1  -6  486.53    8.62
  -3  -1  -6  518.40    8.92
  -3  -1  -6  531.04    9.41
   3  -1   7  232.35   11.21
  -3   1  -7  216.06    8.75
   3   1   7  205.31   10.57
  -3  -1  -7  219.76    8.53
  -3  -1  -7  238.36    6.50
   3   1   7  235.15    6.04
  -3  -1  -7  218.39    9.43
   3  -1   7  248.10    5.93
  -3  -1  -7  229.43    5.92
  -3  -1  -7  241.33    6.14
  -3   1  -7  231.85    5.92
  -3  -1  -7  229.30    6.36
  -3  -1  -8   18.77    1.87
   3   1   8   19.42    1.76
   3  -1   8   20.48    1.77
  -3  -1  -8   18.77    1.75
  -3  -1  -8   20.03    1.79
   3   1   9  188.15    5.62
   3  -1   9  193.41    5.43
  -3  -1  -9  194.12    5.36
  -3  -1  -9  183.71    5.57
  -3  -1  -9  184.51    5.74
  -3  -1 -10   49.38    2.79
  -3   1 -10   52.43    2.82
   3   1  10   55.26    2.91
   3  -1  10   53.51    2.73
  -3  -1 -11   29.02    1.88
   3   1  11   24.57    1.79
   3  -1  11   24.33    1.68
  -3  -1 -12    1.79    0.46
   3   1  12    2.59    0.57
   3  -1  12    2.41    0.50
  -3   2  14   17.24    1.31
  -3  -2  14   18.21    1.18
  -3   2  14   18.77    1.56
  -3  -2  14   17.45    1.46
   3   2 -14   16.13    1.34
   3  -2 -13   75.51    2.91
  -3   2  13   74.34    3.65
  -3   2  13   77.95    3.69
  -3  -2  13   77.89    3.05
  -3  -2  13   86.85    3.85
  -3   2  13   81.51    3.92
  -3  -2  13   77.89    3.78
   3  -2 -13   82.65    3.45
  -3   2  13   78.65    3.88
   3   2 -13   73.97    3.45
  -3  -2  12   30.51    2.58
  -3   2  12   24.50    2.46
  -3  -2  12   30.78    2.38
  -3   2  12   31.72    2.82
   3   2 -12   28.55    2.45
  -3  -2  12   28.02    2.12
  -3   2  12   26.56    2.59
  -3  -2  12   27.81    2.60
  -3   2  12   30.55    2.79
  -3  -2  12   31.18    2.61
   3  -2 -12   30.23    2.47
  -3   2  11   97.23    5.43
  -3  -2  11  110.18    5.33
  -3  -2  11  107.54    4.89
  -3  -2  11   96.56    4.33
  -3   2  11   94.92    5.11
  -3  -2  11   99.87    4.63
  -3   2  11   98.99    5.33
   3  -2 -11   85.14    4.62
  -3  -2  11   92.51    4.13
  -3   2  11   93.54    5.07
  -3  -2  11  101.16    5.19
  -3  -2  11   96.63    4.85
   3   2 -11   97.08    4.68
  -3   2  10   13.41    2.04
  -3   2  10   14.84    2.14
  -3  -2  10   19.03    2.30
  -3  -2  10   18.72    2.29
  -3   2  10   16.22    2.23
  -3  -2  10   16.87    1.91
  -3  -2  10   15.32    1.99
  -3  -2  10   16.12    1.75
  -3   2  10   14.66    2.08
  -3  -2  10   15.16    1.97
  -3  -2  10   17.37    1.86
  -3  -2  10   15.17    1.93
  -3   2   9  121.72    6.01
  -3  -2   9  133.92    6.05
  -3  -2   9  123.82    4.77
  -3   2   9  132.94    6.22
  -3   2   9  135.49    6.30
  -3  -2   9  137.34    5.38
  -3  -2   9  129.23    6.82
  -3   2   9  126.58    5.94
  -3  -2   9  139.05    5.63
   3  -2  -9  160.91    8.39
   3   2  -9  126.82    7.30
  -3   2   9  119.61    5.75
  -3  -2   9  136.45    5.97
  -3  -2   9  119.84    5.31
  -3  -2   9  140.61    5.69
  -3   2   8   93.18    5.06
  -3  -2   8   92.85    4.86
  -3  -2   8   92.99    4.30
  -3  -2   8   90.58    3.85
  -3   2   8   95.79    5.10
  -3  -2   8   89.16    5.41
  -3   2   8   90.94    4.90
   3  -2  -8  105.63    6.31
   3   2  -8   99.10    6.11
  -3  -2   8   90.84    4.12
  -3   2   8   86.29    4.68
  -3  -2   8   99.53    4.85
  -3  -2   8   89.92    4.99
  -3  -2   8   93.66    4.45
  -3   2   8   91.68    5.02
  -3  -2   7  653.57   13.42
  -3  -2   7  622.53   13.85
   3   2  -7  650.61   14.94
  -3  -2   6 1974.49   25.20
   3   2  -6 1992.68   25.98
  -3  -2   6 2000.76   24.29
  -3  -2   5  430.71    9.69
  -3  -2   5  413.76    9.84
   3   2  -5  418.95   10.20
  -3   2   5  448.58    9.42
  -3  -2   4 1854.90   21.30
   3   2  -4 1860.80   22.23
  -3  -2   4 1884.04   21.95
   3  -2  -4 1913.22   20.79
  -3   2   4 1892.55   20.48
  -3  -2   3 1470.55   17.58
  -3   2   3 1515.97   16.91
  -3   2   3 1453.42   16.46
   3   2  -3 1453.21   18.52
   3  -2  -3 1481.86   16.73
  -3  -2   2  142.24    4.87
  -3  -2   2  135.32    4.61
  -3  -2   2  138.92    4.73
  -3   2   2  141.29    4.34
   3   2  -2  134.55    5.08
   3  -2  -2  135.48    4.48
  -3  -2   1  358.64    7.50
   3  -2  -1  332.20    7.27
  -3  -2   1  365.78    7.71
  -3  -2   1  341.15    7.45
  -3  -2   1  372.84    7.11
   3   2  -1  358.57    8.64
   3   2   0  495.46   10.74
  -3  -2   0  481.00    9.34
  -3  -2   0  519.93    9.31
   3  -2   0  468.87    9.51
  -3  -2   0  534.15    8.45
  -3  -2   0  569.86    9.46
   3   2   1 1030.37   17.26
  -3  -2  -1 1063.17   14.46
  -3  -2  -1 1020.39   14.79
  -3  -2  -1 1066.12   14.22
   3  -2   1 1009.81   15.53
  -3  -2  -2 1401.96   17.93
  -3  -2  -2 1299.03   17.28
  -3  -2  -2 1343.47   15.51
   3   2   2 1239.21   20.33
   3  -2   2 1200.23   18.33
   3  -2   3  621.49   13.64
  -3  -2  -3  615.66   12.07
  -3  -2  -3  632.86   10.77
   3   2   4  370.44   11.91
  -3  -2  -4  398.64   10.38
  -3  -2  -4  406.12    9.21
   3  -2   4  402.31   11.62
  -3   2  -4  386.76    9.56
   3   2   5  219.26    9.90
   3  -2   5  251.09    9.93
  -3  -2  -5  237.50    8.60
  -3  -2  -5  242.05    7.73
  -3  -2  -6  550.83   13.03
   3  -2   6  527.53   15.69
  -3   2  -6  552.77    9.98
   3   2   6  481.28   15.46
  -3  -2  -6  519.10   13.86
   3   2   6  545.81    9.41
  -3  -2  -6  528.70    9.86
  -3  -2  -6  603.65   10.11
  -3  -2  -6  578.93   10.07
  -3  -2  -7 1011.50   19.21
   3  -2   7 1034.00   23.83
  -3  -2  -7 1006.70   13.44
  -3   2  -7 1016.61   14.31
   3   2   7 1030.63   14.00
  -3  -2  -7  997.97   20.61
  -3  -2  -7 1004.54   14.61
  -3  -2  -7  994.63   13.74
  -3  -2  -7 1052.51   14.25
  -3  -2  -7 1069.07   14.71
  -3  -2  -8  430.76    8.28
  -3  -2  -8  401.28    8.50
  -3  -2  -8  405.36    8.95
  -3   2  -8  410.72    8.69
   3   2   8  393.63    8.48
  -3  -2  -8  389.22    8.24
  -3  -2  -8  398.47    8.90
  -3   2  -9   52.06    2.92
   3   2   9   55.29    3.09
   3  -2   9   53.96    2.75
  -3  -2  -9   52.63    2.89
  -3  -2  -9   48.87    2.85
  -3  -2  -9   52.43    3.10
  -3  -2 -10   56.08    3.00
   3   2  10   50.97    2.83
   3  -2  10   54.52    2.61
  -3  -2 -10   57.63    2.76
   3   2  11  148.19    4.40
  -3  -2 -11  157.63    4.48
  -3  -2 -12    1.69    0.42
   3   2  12    1.20    0.36
   3   3 -14   38.92    1.84
  -3  -3  14   43.11    1.68
  -3   3  14   44.55    2.04
  -3   3  13   30.45    2.24
  -3   3  13   34.91    2.30
  -3  -3  13   34.38    2.33
  -3  -3  13   33.40    1.94
  -3   3  13   31.44    2.25
  -3  -3  13   30.99    2.18
   3  -3 -13   28.88    1.83
  -3   3  13   31.00    2.36
   3  -3 -13   32.19    2.10
   3   3 -13   32.66    2.19
  -3   3  12   28.47    2.57
  -3  -3  12   25.49    1.99
  -3   3  12   25.29    2.37
  -3  -3  12   24.80    2.30
  -3  -3  12   27.16    2.38
  -3   3  12   27.74    2.51
  -3   3  12   25.74    2.52
   3  -3 -12   23.73    2.24
   3   3 -12   22.79    2.12
  -3  -3  11  141.26    5.10
   3   3 -11  131.11    5.43
  -3   3  11  134.46    6.15
  -3  -3  11  142.94    5.20
  -3   3  11  152.84    6.52
  -3  -3  11  129.35    4.87
  -3   3  11  129.05    5.78
  -3  -3  11  141.54    6.00
  -3  -3  11  138.51    5.73
   3  -3 -11  111.71    5.36
  -3   3  11  136.15    6.25
  -3   3  10   23.44    2.73
  -3   3  10   23.03    2.68
  -3   3  10   27.69    2.99
  -3  -3  10   35.89    2.99
  -3  -3  10   23.00    2.11
  -3  -3  10   26.41    2.35
  -3   3  10   24.70    2.65
  -3  -3  10   23.70    2.55
  -3  -3  10   26.20    2.50
  -3   3  10   24.25    2.81
   3   3 -10   22.81    2.39
   3   3  -9  243.27    7.78
  -3   3   9  222.71    8.33
  -3  -3   9  249.35    7.97
  -3  -3   9  252.90    7.53
  -3  -3   9  231.48    6.55
  -3  -3   9  252.37    7.66
  -3   3   9  241.27    8.70
  -3  -3   9  246.78    7.12
  -3   3   9  235.38    8.46
  -3   3   9  224.78    7.91
  -3  -3   9  251.03    8.19
  -3   3   9  237.40    8.64
  -3   3   8  147.23    6.51
  -3  -3   8  162.78    6.33
  -3  -3   8  161.13    5.83
  -3   3   8  151.42    6.73
  -3  -3   8  143.27    6.84
  -3  -3   8  147.70    7.36
  -3  -3   8  154.90    5.40
  -3   3   8  152.07    6.63
  -3   3   8  146.79    6.65
  -3  -3   8  166.50    6.40
   3   3  -8  146.85    7.33
  -3   3   8  157.28    7.37
  -3   3   8  147.20    6.16
  -3  -3   8  159.01    5.80
   3   3  -8  162.87    6.18
  -3   3   7  253.18    8.17
  -3  -3   7  247.37    8.70
   3   3  -7  267.67    7.72
  -3   3   7  256.27    8.44
  -3  -3   7  251.69    9.13
  -3   3   7  254.61    8.43
  -3  -3   7  278.34    6.81
  -3   3   7  262.88    8.52
  -3  -3   7  274.03    7.26
   3   3  -7  249.35    9.05
  -3   3   7  262.38    9.09
  -3  -3   7  285.80    7.97
  -3  -3   6  571.01   12.84
   3   3  -6  586.62   13.30
  -3  -3   6  606.04   13.59
  -3   3   6  586.96   13.01
   3   3  -6  573.10   13.78
   3   3  -5  122.24    6.30
   3  -3  -5  135.78    4.91
   3   3  -5  137.48    5.92
  -3   3   5  131.92    5.70
  -3  -3   5  136.25    5.87
  -3  -3   4  419.60    9.85
  -3  -3   4  432.44   10.06
   3  -3  -4  402.90    7.92
   3   3  -4  418.57   10.03
  -3   3   4  433.49    9.85
  -3  -3   3  830.66   13.64
  -3  -3   3  829.10   13.65
  -3   3   3  825.26   13.41
   3   3  -3  804.89   13.84
   3  -3  -3  779.16   11.10
  -3  -3   2 1555.09   18.81
  -3  -3   2 1555.60   18.68
  -3   3   2 1512.55   18.63
   3   3  -2 1553.07   20.51
  -3  -3   1 2711.37   26.06
  -3  -3   1 2747.12   26.07
  -3  -3   1 2636.12   27.02
  -3  -3   1 2696.46   26.00
   3   3  -1 2582.27   28.19
  -3   3   1 2741.64   26.71
  -3  -3   0  246.92    6.46
  -3  -3   0  226.59    6.71
  -3  -3   0  242.93    6.53
   3   3   0  219.76    7.52
   3   3   1  824.88   15.88
  -3  -3  -1  829.64   12.39
  -3  -3  -1  850.13   13.48
  -3  -3  -1  905.55   13.03
  -3  -3  -1  847.65   13.76
   3  -3   1  772.32   12.55
  -3  -3  -2 1850.73   21.74
   3  -3   2 1567.53   20.44
  -3  -3  -2 1647.81   21.33
  -3  -3  -2 1698.59   19.60
   3   3   2 1845.55   20.26
   3   3   2 1579.24   24.33
   3  -3   3 1155.02   18.30
  -3  -3  -3 1196.49   18.69
  -3  -3  -3 1234.56   16.98
   3   3   3 1130.38   21.01
  -3  -3  -4  413.50   11.16
  -3  -3  -4  404.46    9.76
   3   3   4  430.50   12.89
  -3   3  -5  492.18    9.81
   3   3   5  421.01   13.86
  -3  -3  -5  480.02   12.89
   3   3   5  478.66    8.82
   3   3   5  547.03   14.37
  -3  -3  -5  503.95    8.96
  -3  -3  -5  498.65    9.27
  -3  -3  -5  485.23    9.00
  -3  -3  -5  476.58   11.48
  -3   3  -6 1157.87   16.10
  -3  -3  -6 1182.73   22.11
   3   3   6 1188.26   15.37
   3   3   6 1363.44   25.24
   3   3   6 1049.90   23.78
  -3  -3  -6 1230.83   15.83
  -3  -3  -6 1182.15   15.83
  -3  -3  -6 1223.89   15.53
  -3  -3  -6 1170.11   19.79
  -3  -3  -7  873.03   13.69
  -3   3  -7  886.41   13.71
   3   3   7  880.67   13.36
  -3  -3  -7  907.87   13.51
  -3  -3  -7  906.66   13.50
  -3  -3  -8  476.61    9.08
   3   3   8  497.94    9.84
  -3  -3  -8  459.27    9.16
  -3  -3  -8  496.07    9.66
  -3  -3  -8  487.14    9.75
  -3  -3  -8  467.09    9.77
  -3  -3  -9  153.08    4.70
   3   3   9  146.34    5.09
  -3  -3  -9  135.27    4.65
  -3  -3  -9  142.89    4.79
  -3  -3  -9  134.86    4.99
  -3  -3 -10  101.20    3.75
   3   3  10   88.29    3.67
  -3  -3 -10   95.87    3.58
  -3  -3 -10  100.18    3.96
   3   3  11   10.71    1.17
  -3  -3 -11   12.14    1.11
  -3  -3 -11   12.82    1.26
   3   3  12    2.56    0.53
  -3  -3 -12    1.72    0.38
   3  -4 -13   18.37    1.36
  -3   4  13   20.34    1.69
  -3   4  13   22.32    1.57
  -3  -4  13   21.58    1.69
  -3  -4  13   21.04    1.42
  -3   4  13   21.68    1.57
   3  -4 -13   22.45    1.61
   3   4 -13   20.20    1.52
  -3  -4  12   63.24    3.00
  -3   4  12   63.85    3.65
  -3   4  12   68.35    3.67
  -3  -4  12   65.47    3.02
  -3   4  12   64.16    3.28
  -3  -4  12   61.07    3.17
  -3  -4  12   63.74    3.41
  -3   4  12   66.10    3.80
   3  -4 -12   60.21    3.31
   3   4 -12   64.17    3.24
  -3  -4  11   46.39    2.80
  -3   4  11   43.82    3.45
  -3   4  11   50.72    3.67
  -3  -4  11   46.62    2.85
  -3   4  11   47.05    3.20
  -3  -4  11   44.96    3.15
   3  -4 -11   39.07    3.05
  -3  -4  11   43.27    3.15
  -3   4  11   46.56    3.60
   3   4 -11   47.50    3.17
  -3  -4  10  258.95    6.97
  -3   4  10  277.95    9.13
  -3  -4  10  271.29    7.18
  -3  -4  10  255.64    8.01
  -3   4  10  253.46    8.89
  -3   4  10  247.20    7.82
  -3  -4  10  279.80    8.40
  -3   4  10  253.28    8.87
  -3  -4  10  274.22    7.91
   3   4 -10  255.26    7.92
  -3  -4   9   98.92    4.22
  -3   4   9   89.05    5.36
  -3   4   9   91.30    5.42
  -3   4   9  104.22    5.78
  -3  -4   9  101.80    4.44
  -3  -4   9  106.82    4.91
  -3  -4   9  101.19    5.13
  -3   4   9   98.80    4.97
   3   4  -9   96.37    4.97
  -3   4   8  250.83    8.63
  -3   4   8  256.35    9.08
  -3  -4   8  266.97    7.72
   3   4  -8  270.60    8.36
  -3   4   8  246.07    8.87
  -3   4   8  288.97    9.50
  -3  -4   8  272.75    7.16
  -3  -4   8  273.41    8.39
  -3   4   7   35.12    3.09
  -3   4   7   42.63    3.53
  -3  -4   7   36.76    3.57
  -3   4   7   37.25    3.33
  -3  -4   7   39.76    2.78
  -3   4   7   34.41    3.18
  -3  -4   7   38.15    2.56
  -3   4   7   36.66    3.36
  -3  -4   7   39.28    3.04
  -3  -4   7   36.98    3.66
   3   4  -7   36.37    3.56
  -3   4   7   37.61    3.72
   3   4  -7   39.49    3.13
  -3   4   6    6.93    1.41
  -3  -4   6    7.13    1.17
  -3  -4   6    8.27    1.71
  -3  -4   6    6.62    1.53
  -3   4   6    9.54    1.67
   3   4  -6    8.90    1.72
  -3   4   6    7.60    1.42
  -3   4   6   10.21    1.75
  -3   4   6    9.85    1.87
   3   4  -6    9.46    1.53
  -3   4   5   31.63    2.71
  -3  -4   5   29.00    2.89
   3   4  -5   30.69    2.95
  -3   4   5   29.59    3.00
  -3  -4   5   40.48    3.47
   3   4  -5   27.66    3.34
  -3  -4   4   76.21    4.49
  -3  -4   4   71.47    4.31
  -3   4   4   71.67    4.42
   3   4  -4   79.44    4.60
   3   4  -4   68.56    5.28
  -3  -4   3 1655.63   21.62
  -3  -4   3 1495.53   21.57
  -3   4   3 1606.93   22.02
   3   4  -3 1753.22   23.20
  -3  -4   3 1632.85   21.15
   3   4  -3 1448.30   25.99
  -3  -4   2 1004.25   15.46
  -3  -4   2 1014.63   15.38
  -3  -4   2  987.76   16.43
  -3  -4   2  956.58   15.69
   3   4  -2  998.09   16.70
  -3   4   2 1018.39   16.73
  -3  -4   1  817.48   14.54
  -3  -4   1  798.35   12.97
  -3  -4   1  832.44   14.19
  -3  -4   1  861.64   13.75
  -3   4   1  877.66   15.15
   3   4  -1  839.18   15.53
   3   4  -1  832.68   19.48
  -3  -4   0  631.55   11.28
  -3  -4   0  622.37   11.34
  -3  -4   0  595.64   12.27
  -3  -4   0  619.85   12.00
   3   4   0  626.60   17.05
  -3  -4  -1    1.90    0.66
   3   4   1    0.85    0.71
  -3  -4  -1    0.26    0.39
  -3  -4  -1    0.78    0.71
   3   4   1    1.56    1.19
  -3  -4  -2  379.66    9.06
  -3  -4  -2  361.28    9.91
   3   4   2  384.09   13.71
  -3  -4  -2  350.64    8.86
   3   4   2  330.59   10.71
   3   4   3   84.48    5.65
  -3  -4  -3   88.92    5.12
  -3  -4  -3   88.83    4.58
   3   4   3   99.25    6.88
   3   4   4 1206.75   23.68
  -3  -4  -4 1296.90   21.67
   3   4   4 1280.88   15.62
  -3  -4  -4 1220.67   15.17
  -3  -4  -4 1308.34   19.67
  -3   4  -4 1311.57   18.04
  -3  -4  -4 1310.05   15.79
  -3   4  -5  937.54   15.05
  -3  -4  -5  973.23   19.35
   3   4   5  982.26   13.88
  -3  -4  -5  959.07   13.67
  -3  -4  -5  953.08   13.77
  -3  -4  -5  969.47   17.65
  -3  -4  -6  624.68   14.46
   3   4   6  608.26   11.08
  -3  -4  -6  629.47   16.14
  -3  -4  -6  605.48   10.99
  -3  -4  -6  600.42   10.73
  -3  -4  -6  607.71   10.45
   3   4   7  256.63    7.11
  -3  -4  -7  252.33    6.77
  -3  -4  -7  251.87    7.02
  -3  -4  -7  260.52    6.78
   3   4   8   66.56    3.57
  -3  -4  -8   60.79    3.25
  -3  -4  -8   62.97    3.45
  -3  -4  -8   67.81    3.38
  -3  -4  -8   62.19    3.25
   3   4   9   30.13    2.34
  -3  -4  -9   31.26    2.21
  -3  -4  -9   28.57    2.07
  -3  -4  -9   31.57    2.14
  -3  -4  -9   28.87    2.23
  -3  -4 -10   31.73    1.83
   3   4  10   25.27    1.95
  -3  -4 -10   23.96    1.75
  -3  -4 -10   26.95    1.83
  -3  -4 -10   25.17    1.86
   3   4  11   17.80    1.37
  -3  -4 -11   18.61    1.27
   3   4  11   15.66    1.31
  -3  -4 -11   18.02    1.35
   3  -5 -13    2.00    0.41
  -3  -5  13    2.44    0.50
  -3  -5  13    3.00    0.49
   3  -5 -13    2.54    0.48
   3   5 -13    2.63    0.46
  -3  -5  12   31.19    2.10
  -3   5  12   31.52    2.12
  -3  -5  12   33.04    1.94
   3   5 -12   30.79    1.96
   3  -5 -12   28.95    2.03
  -3   5  12   34.15    2.40
  -3   5  11   22.05    2.31
  -3  -5  11   21.62    1.82
  -3  -5  11   23.99    1.95
  -3   5  11   23.82    1.90
  -3  -5  11   20.92    1.80
  -3   5  11   22.79    2.26
  -3  -5  11   20.57    1.98
   3   5 -11   23.04    2.00
   3  -5 -11   16.84    1.82
  -3   5  10   17.62    2.28
  -3  -5  10   18.44    1.94
  -3  -5  10   17.34    1.74
  -3   5  10   17.77    2.27
  -3  -5  10   16.65    1.83
  -3  -5  10   21.67    2.23
  -3   5  10   20.68    2.48
   3   5 -10   19.34    2.09
  -3  -5   9  170.98    5.54
  -3   5   9  176.07    7.49
  -3   5   9  162.49    7.11
  -3  -5   9  183.36    5.73
  -3  -5   9  177.62    6.24
  -3  -5   9  174.73    6.39
  -3   5   9  166.21    7.25
   3   5  -9  168.38    6.37
  -3  -5   8   90.33    4.44
  -3   5   8   80.79    5.10
  -3   5   8   87.51    5.32
  -3  -5   8   83.59    3.88
  -3  -5   8   85.02    4.58
  -3   5   8   81.38    5.12
  -3   5   7  512.37   12.92
  -3  -5   7  513.77    9.77
  -3   5   7  470.17   12.32
  -3  -5   7  511.67   11.33
  -3   5   7  491.51   12.51
   3   5  -7  512.92   11.61
  -3  -5   6  197.02    8.37
  -3   5   6  173.07    7.06
  -3   5   6  188.47    7.53
  -3  -5   6  190.84    8.26
  -3   5   6  184.74    8.40
  -3   5   6  180.53    7.14
  -3   5   6  177.95    6.98
   3   5  -6  184.57    6.68
  -3  -5   6  201.32    6.10
  -3  -5   5  115.47    6.19
   3   5  -5   96.15    6.61
  -3   5   5  101.66    5.08
  -3   5   5  108.99    5.42
  -3   5   5  108.59    5.64
   3   5  -5  112.24    4.92
  -3  -5   5  110.84    5.94
  -3   5   5  106.79    6.19
  -3   5   5  105.05    5.09
  -3   5   5  111.43    5.68
  -3  -5   5  116.40    4.49
   3   5  -4  166.73    5.25
  -3   5   4  185.75    7.37
  -3  -5   4  183.16    7.84
  -3  -5   4  179.33    7.38
  -3   5   4  166.54    6.38
  -3   5   4  153.17    5.83
  -3   5   4  165.33    6.72
  -3   5   4  175.22    7.66
  -3  -5   4  168.53    6.90
   3   5  -4  155.52    8.69
   3   5  -3  748.11   11.94
  -3  -5   3  781.04   15.04
  -3   5   3  807.24   15.71
  -3  -5   3  733.87   15.61
  -3   5   3  705.87   13.03
  -3   5   3  775.00   16.23
   3   5  -3  705.20   19.23
  -3  -5   3  773.57   14.44
  -3   5   2  487.94   11.89
  -3  -5   2  447.64   10.18
  -3  -5   2  433.11   11.43
  -3  -5   2  443.95   10.72
  -3   5   2  391.96    9.12
  -3  -5   2  414.94   11.11
  -3   5   2  464.72   12.22
   3   5  -2  414.02   14.90
  -3  -5   1  389.89    9.55
  -3   5   1  388.49   10.45
  -3  -5   1  393.41   10.69
  -3  -5   1  381.93   10.43
   3   5  -1  398.22   14.86
   3   5   0   13.98    1.67
  -3   5   0   15.72    2.05
  -3  -5   0   15.33    1.83
  -3  -5   0   14.29    2.00
  -3  -5   0   14.64    2.03
   3   5   0   15.40    3.02
   3   5   1   20.66    2.09
  -3   5  -1   16.14    2.00
  -3   5  -1   25.06    2.46
  -3  -5  -1   21.14    2.48
  -3  -5  -1   20.72    2.33
  -3   5  -1   21.71    1.69
   3   5   1   20.11    3.43
  -3   5  -2  253.62    7.92
  -3  -5  -2  261.03    9.01
  -3   5  -2  226.52    7.36
   3   5   2  247.90    6.30
  -3  -5  -2  254.96    8.19
   3   5   2  265.73   12.32
  -3   5  -2  252.55    5.87
  -3   5  -3  546.70   11.83
   3   5   3  528.25    9.75
  -3  -5  -3  540.53   13.67
  -3  -5  -3  556.81   12.63
   3   5   3  557.54   17.58
  -3   5  -3  544.25    9.02
  -3  -5  -4   60.98    3.14
  -3  -5  -4   53.62    4.40
   3   5   4   60.30    3.29
  -3  -5  -4   54.63    2.89
  -3  -5  -4   57.62    4.13
  -3   5  -4   69.70    3.13
   3   5   5  242.72    6.88
  -3  -5  -5  240.50    6.55
   3   5   6  555.19   10.79
  -3  -5  -6  508.43    9.79
  -3  -5  -6  524.41   10.10
  -3  -5  -6  567.73    9.64
   3   5   7  127.37    5.03
  -3  -5  -7  118.21    4.50
  -3  -5  -7  123.34    4.54
  -3  -5  -7  122.72    4.66
  -3  -5  -7  125.30    4.38
   3   5   8   66.82    3.52
  -3  -5  -8   64.95    3.17
  -3  -5  -8   65.57    3.14
  -3  -5  -8   64.64    3.22
  -3  -5  -9   83.42    3.22
   3   5   9   87.79    3.72
  -3  -5  -9   80.72    3.25
  -3  -5  -9   79.94    3.13
  -3  -5  -9   80.72    3.32
  -3  -5 -10   11.12    1.02
   3   5  10    9.42    1.13
  -3  -5 -10    9.47    1.00
  -3  -5 -10    8.53    0.94
   3   5  10    7.94    1.07
  -3  -5 -10    8.40    0.96
   3   5  11    6.67    0.74
  -3  -5 -11    6.31    0.68
  -3  -5 -11    6.74    0.66
   3  -6 -12    6.03    0.68
  -3  -6  12    7.92    0.80
   3  -6 -12    6.59    0.76
   3   6 -12    6.74    0.70
  -3  -6  11   26.44    1.72
  -3   6  11   24.98    1.96
  -3  -6  11   27.53    1.83
  -3  -6  11   28.09    1.92
   3   6 -11   25.94    1.75
  -3  -6  10   21.76    1.76
  -3   6  10   22.84    2.27
  -3   6  10   25.00    2.42
  -3  -6  10   21.31    1.83
  -3  -6  10   20.71    1.91
   3   6 -10   22.73    1.94
  -3  -6   9   92.20    3.81
  -3   6   9   87.47    4.91
  -3   6   9   92.05    5.00
  -3  -6   9   82.95    4.12
  -3  -6   9   83.92    3.92
   3   6  -9   89.45    4.23
  -3  -6   8  247.08    7.12
  -3   6   8  243.91    8.62
  -3   6   8  228.81    8.30
  -3  -6   8  262.91    6.57
  -3  -6   8  240.91    7.04
   3   6  -8  232.86    7.25
  -3   6   7  492.54   12.36
  -3   6   7  532.47   13.07
  -3  -6   7  559.95   10.05
  -3  -6   7  517.24   11.00
   3   6  -7  525.90   11.34
   3   6  -6    4.33    0.89
  -3   6   6    5.04    1.29
  -3   6   6    4.36    1.10
  -3   6   6    4.33    1.35
  -3  -6   6    5.59    1.28
   3   6  -6    3.59    1.07
   3   6  -5  545.20    9.88
  -3   6   5  558.48   13.34
  -3   6   5  533.54   12.02
  -3   6   5  534.24   12.70
   3   6  -5  580.87   11.34
   3   6  -4  351.11    8.18
  -3  -6   4  382.73   12.11
  -3   6   4  339.32    9.70
  -3   6   4  356.63    9.18
  -3   6   4  366.44   10.99
  -3  -6   4  378.49   11.29
  -3  -6   3  334.85   10.08
  -3   6   3  333.59   10.52
   3   6  -3  312.16    7.94
  -3  -6   3  329.45   10.83
  -3   6   3  296.12    8.69
  -3  -6   3  318.85   10.62
  -3   6   3  354.30   11.68
   3   6  -3  285.49   12.84
  -3  -6   2   17.61    2.21
   3   6  -2   16.03    1.81
  -3   6   2   15.91    2.30
  -3  -6   2   16.64    2.42
  -3   6   2   20.79    2.18
  -3  -6   2   18.53    2.54
  -3   6   2   17.85    2.67
   3   6  -2   15.30    3.05
  -3   6   1   41.31    3.61
  -3   6   1   37.88    2.81
  -3  -6   1   48.47    3.94
  -3  -6   1   47.66    4.03
   3   6  -1   41.31    3.02
   3   6  -1   46.33    5.32
  -3   6   0  121.45    6.04
  -3  -6   0  126.69    6.32
   3   6   0  125.14    5.37
  -3  -6   0  126.86    6.18
   3   6   0  133.69    9.17
  -3   6  -1  315.60    6.70
  -3   6  -1  251.16    8.45
  -3   6  -1  287.25    8.92
  -3   6  -1  242.50    6.66
  -3  -6  -1  271.21    9.42
   3   6   1  281.42    8.29
  -3  -6  -1  282.35    9.22
   3   6   1  283.55   13.54
  -3   6  -1  312.16    6.96
   3   6   2    0.29    0.63
  -3   6  -2    0.05    0.49
  -3   6  -2    1.48    0.77
  -3  -6  -2    2.73    0.95
  -3  -6  -2    2.75    1.08
   3   6   2    1.18    1.25
  -3   6  -2    0.66    0.59
  -3   6  -3   80.18    4.23
   3   6   3   84.65    4.79
   3   6   3   81.75    3.89
  -3   6  -3   88.12    3.62
  -3  -6  -3   94.66    3.79
   3   6   4    5.50    1.29
  -3   6  -4    4.72    0.91
   3   6   4    5.24    1.10
  -3  -6  -4    3.74    0.82
   3   6   5    3.12    1.04
   3   6   5    0.92    0.60
  -3  -6  -5    0.75    0.47
  -3  -6  -5    1.63    0.60
  -3  -6  -5    2.54    0.74
  -3   6  -5    1.81    0.61
   3   6   6   98.02    5.28
   3   6   6   98.63    4.38
  -3  -6  -6   95.10    3.92
  -3  -6  -6   96.22    3.76
  -3  -6  -6  104.09    4.01
  -3   6  -6   96.11    3.47
   3   6   7   77.37    4.44
   3   6   7   78.23    3.77
  -3  -6  -7   72.02    3.20
  -3  -6  -7   70.14    3.21
  -3  -6  -7   71.58    3.08
   3   6   8   75.29    3.97
  -3  -6  -8   75.85    3.14
   3   6   8   82.90    3.63
  -3  -6  -8   71.32    2.95
  -3  -6  -8   66.53    2.91
  -3  -6  -8   67.47    2.72
   3   6   9   34.48    2.22
  -3  -6  -9   35.18    1.76
  -3  -6  -9   36.74    1.90
   3   6   9   39.78    2.23
  -3  -6  -9   34.06    1.85
  -3  -6  -9   31.66    1.74
  -3  -6 -10    5.39    0.59
  -3  -6 -10    5.76    0.65
  -3  -7  11   19.00    1.14
  -3  -7  10    2.41    0.58
  -3   7  10    2.95    0.70
  -3  -7  10    3.13    0.64
  -3  -7  10    1.90    0.52
   3  -7 -10    2.73    0.65
   3   7 -10    2.21    0.55
  -3  -7   9   42.65    2.32
  -3  -7   9   42.23    2.43
  -3  -7   9   50.35    2.47
  -3   7   9   45.07    3.00
   3   7  -9   45.81    2.47
  -3   7   8  165.45    6.28
  -3  -7   8  165.66    5.11
   3   7  -8  170.30    5.24
  -3   7   7   87.60    4.89
  -3  -7   7   93.86    3.66
  -3   7   6   97.43    5.24
  -3  -7   6  107.11    4.10
   3   7  -6  106.73    3.82
   3   7  -6   98.48    4.23
  -3   7   6  102.51    5.18
  -3   7   5  161.98    7.01
   3   7  -5  155.50    5.09
  -3   7   5  154.71    6.50
  -3  -7   5  156.25    5.49
   3   7  -5  166.36    5.36
   3   7  -4   83.15    3.92
  -3   7   4   91.86    5.46
  -3   7   4   85.43    4.79
  -3  -7   4   97.57    4.05
   3   7  -3  257.09    7.32
  -3   7   3  270.98    9.68
  -3   7   3  242.53    7.84
  -3   7   2   51.78    4.19
  -3   7   2   40.94    3.05
   3   7  -2   48.35    3.25
  -3   7   1   21.44    2.68
   3   7  -1   18.94    2.05
  -3   7   1   18.82    2.02
   3   7   0   93.87    4.77
  -3   7   0   88.78    5.25
  -3   7   0   83.23    4.06
   3   7   1   53.86    3.71
  -3   7  -1   48.37    3.73
  -3   7  -1   49.90    3.01
  -3   7  -2  538.98   11.96
  -3   7  -2  547.54    9.53
   3   7   3   25.33    2.66
  -3   7  -3   23.94    2.30
  -3   7  -3   31.62    2.21
  -3  -7  -4  246.95    5.95
  -3   7  -4  237.11    5.87
   3   7   5   92.79    4.93
  -3  -7  -5   86.59    3.44
  -3   7  -5   84.34    3.27
   3   7   6    6.68    1.39
  -3  -7  -6    7.06    0.96
  -3   7  -6    7.21    0.91
   3   7   7   29.43    2.40
  -3  -7  -7   27.31    1.84
  -3  -7  -7   28.45    1.55
  -3  -7  -7   29.10    1.79
   3   7   8   81.17    3.28
  -3  -7  -8   76.52    2.25
  -3  -7  -8   77.73    2.59
  -3  -7  -9   15.60    0.99
  -3  -7  -9   13.11    0.88
  -3  -8   9   42.46    1.74
  -3   8   9   42.52    2.10
  -3  -8   9   39.55    1.77
  -3  -8   8   37.01    1.91
  -3   8   8   33.94    2.26
  -3  -8   8   28.37    1.58
  -3  -8   8   31.16    1.61
   3   8  -8   35.84    1.71
  -3   8   7  148.96    5.32
   3   8  -7  153.99    3.95
   3   8  -6   16.60    1.35
  -3   8   6   14.91    1.84
  -3  -8   6   16.05    1.39
   3   8  -6   18.77    1.46
   3   8  -5  274.36    6.19
  -3   8   5  282.70    7.98
   3   8  -4   70.94    3.34
  -3   8   4   83.76    4.90
  -3   8   4   74.53    4.03
  -3   8   3  111.47    4.85
   3   8  -3  119.35    4.60
   3   8  -2  102.46    4.50
  -3   8   2  108.05    5.77
   3   8  -1   24.08    2.31
  -3   8   1   29.35    3.01
  -3   8   1   21.68    2.04
   3   8   0   47.78    3.31
  -3   8   0   51.91    3.79
  -3   8   0   43.83    2.73
   3   8   1   47.96    3.33
  -3   8  -1   45.33    2.61
   3   8   2  136.91    5.64
  -3   8  -2  131.63    4.13
  -3  -8  -2  141.45    4.30
   3   8   3   30.86    2.68
   3   8   4   24.57    2.33
   3   8   5   39.87    2.77
  -3  -8  -5   35.11    2.00
   3   8   6   66.40    3.20
  -3  -8  -6   64.10    2.51
  -3  -8  -6   63.44    2.13
   3   8   7   16.47    1.30
  -3  -8  -7   17.82    1.16
  -3  -9   7   21.62    1.13
  -3   9   7   23.16    1.48
  -3   9   6    8.31    1.06
   3   9  -5  175.30    3.86
  -3   9   5  183.43    5.10
   3   9  -4   37.83    2.01
  -3   9   4   40.59    2.45
  -3  -9   4   38.07    1.87
   3   9  -3   77.52    3.12
  -3   9   3   83.15    3.54
   3   9  -2  107.38    3.93
  -3   9   2  104.71    3.89
   3   9  -1   54.20    2.92
  -3   9   1   55.48    2.67
  -3  -9   1   55.44    2.23
   3   9   0   49.46    2.84
  -3   9   0   48.68    2.39
   3   9   1    2.71    0.80
  -3   9  -1    3.88    0.72
   3   9   2   19.88    1.83
  -3  -9  -3    1.73    0.44
   3   9   3    1.21    0.59
   3   9   4   46.16    2.45
  -3  -9  -4   47.81    1.77
   3   9   5   49.93    2.18
   3  10  -2   17.41    1.14
  -3  10   2   19.15    1.15
   3  10  -1   49.80    2.03
   3  10   0    8.86    0.88
   3  10   1   17.85    1.22
  -4   0  14   36.71    2.04
  -4   0  14   33.34    2.04
   4   0 -14   32.72    1.83
  -4   0  13    5.68    1.07
  -4   0  13    4.63    0.93
  -4   0  13    5.52    1.09
  -4   0  12    4.03    1.08
  -4   0  12    7.79    1.46
  -4   0  12    3.76    1.11
  -4   0  12    5.71    1.27
  -4   0  12    5.07    1.00
  -4   0  11  249.15    8.65
  -4   0  11  243.45    7.97
  -4   0  11  234.59    7.99
  -4   0  11  236.86    6.99
  -4   0  11  242.82    8.16
  -4   0  10  734.97   15.53
  -4   0  10  716.81   12.92
  -4   0  10  693.15   14.36
  -4   0  10  701.14   14.58
  -4   0   9  523.85   12.99
  -4   0   9  514.30   11.81
  -4   0   9  539.91   12.25
  -4   0   9  522.79   12.22
  -4   0   9  512.38   10.74
  -4   0   9  540.00   12.55
  -4   0   8 2390.77   29.05
  -4   0   8 2315.17   28.76
  -4   0   8 2349.97   23.65
  -4   0   8 2469.51   27.33
  -4   0   8 2368.94   27.75
  -4   0   8 2241.79   27.07
  -4   0   8 2312.94   25.75
  -4   0   8 2405.10   27.97
  -4   0   7  200.52    7.22
  -4   0   7  207.24    7.46
  -4   0   7  207.84    6.92
  -4   0   7  217.34    6.81
  -4   0   7  215.61    7.21
   4   0  -7  228.37    9.23
  -4   0   7  216.20    6.50
  -4   0   7  206.58    6.97
  -4   0   6   11.95    1.55
  -4   0   6   11.63    1.73
   4   0  -6    9.32    1.83
  -4   0   5   24.99    2.14
   4   0  -5   18.69    2.34
  -4   0   4   78.62    3.75
  -4   0   4   80.82    4.06
   4   0  -4   87.10    4.70
  -4   0   3   82.84    3.91
   4   0  -3   85.30    4.56
  -4   0   3   80.56    4.12
  -4   0   2 2861.67   28.52
  -4   0   2 2854.43   29.60
  -4   0   1 1001.76   16.11
  -4   0   1 1042.39   12.47
   4   0  -1 1033.58   17.13
  -4   0   0  739.81   13.95
   4   0   0  699.57   14.87
  -4   0  -1  359.16    8.18
   4   0   1  376.86   11.32
  -4   0  -2  220.93    5.87
  -4   0  -2  210.73    6.80
   4   0   2  208.19    8.99
  -4   0  -3   43.71    2.84
  -4   0  -3   40.65    3.23
   4   0   3   39.51    4.14
   4   0   4  251.03   10.98
  -4   0  -4  245.27    7.55
  -4   0  -4  261.54    8.89
  -4   0  -5  126.57    5.96
  -4   0  -5  140.07    4.44
  -4   0  -5  122.64    6.56
   4   0   5  129.91    8.51
  -4   0  -5  142.55    4.65
  -4   0  -5  141.20    4.74
  -4   0  -6    4.60    0.97
   4   0   6    2.86    1.33
  -4   0  -6    3.77    1.17
  -4   0  -6    2.94    0.76
  -4   0  -7    1.08    0.55
  -4   0  -7   -0.09    0.46
   4   0   8   26.02    1.95
  -4   0  -8   24.99    1.92
  -4   0  -8   22.14    1.94
  -4   0  -9  134.81    4.46
   4   0   9  136.45    4.27
  -4   0 -10   49.55    2.66
   4   0  10   49.15    2.31
  -4   0 -11  122.82    3.54
  -4   1  14    7.71    0.90
  -4   1  14    9.31    1.04
  -4   1  14    8.70    1.02
  -4  -1  14    7.87    1.02
  -4   1  14    7.52    0.93
   4   1 -14    8.15    0.91
   4  -1 -14    7.10    0.86
  -4  -1  13    2.84    0.72
  -4   1  13    3.95    0.95
  -4   1  13    2.52    0.71
  -4  -1  13    3.57    0.84
  -4   1  13    3.64    0.90
  -4  -1  13    4.13    0.98
   4   1 -13    3.20    0.81
  -4   1  13    2.94    0.82
  -4   1  12   13.75    1.97
  -4  -1  12   15.37    2.00
  -4  -1  12   15.03    1.82
  -4   1  12   13.77    1.82
  -4  -1  12   15.27    1.82
  -4   1  12   15.20    1.94
  -4   1  12   14.76    1.89
  -4  -1  12   16.02    1.98
  -4  -1  12   16.36    1.77
  -4   1  11   45.06    3.72
  -4  -1  11   46.68    3.73
  -4  -1  11   46.77    3.18
  -4   1  11   41.91    3.43
  -4  -1  11   46.83    3.49
  -4  -1  11   47.14    3.40
  -4   1  11   42.25    3.35
  -4  -1  11   45.82    3.47
   4  -1 -11   45.03    2.97
  -4   1  11   43.08    3.54
  -4   1  10   40.60    3.60
  -4  -1  10   39.84    3.59
  -4  -1  10   40.80    2.78
  -4   1  10   43.51    3.56
  -4  -1  10   44.41    3.31
  -4   1  10   39.71    3.50
  -4   1  10   43.69    3.48
  -4   1  10   36.86    3.23
  -4  -1  10   39.09    3.33
  -4  -1  10   42.72    3.15
  -4  -1  10   40.84    3.36
  -4   1   9  476.50   12.40
  -4  -1   9  497.67   12.54
  -4  -1   9  477.77    9.62
  -4   1   9  481.68   11.94
  -4  -1   9  496.18   11.10
  -4   1   9  478.49   12.13
  -4   1   9  494.40   12.04
  -4  -1   9  482.90   10.95
  -4  -1   9  461.95   10.42
  -4   1   9  477.38   11.66
  -4  -1   9  490.58   11.83
  -4  -1   9  479.78   12.95
  -4  -1   9  491.77   11.60
  -4   1   8  252.67    8.70
  -4  -1   8  268.85    8.79
  -4   1   8  250.10    8.09
  -4  -1   8  265.76    6.69
  -4  -1   8  254.96    7.46
  -4   1   8  256.24    8.28
  -4  -1   8  269.54    7.77
  -4   1   8  258.03    8.51
  -4  -1   8  269.45    8.15
   4   1  -8  274.37   10.67
  -4  -1   8  261.97    8.20
  -4  -1   8  252.34    8.98
  -4   1   8  247.41    8.39
  -4  -1   8  257.15    8.01
  -4  -1   7   67.38    3.11
  -4  -1   7   68.97    4.20
  -4  -1   7   71.32    4.09
  -4  -1   7   67.33    4.44
  -4   1   7   64.30    3.91
  -4   1   7   71.28    4.37
  -4  -1   7   70.84    3.69
  -4   1   7   65.25    4.13
  -4  -1   7   67.66    3.91
  -4  -1   7   67.51    3.55
  -4   1   7   66.90    4.08
   4  -1  -7   77.11    5.29
   4   1  -7   65.49    4.92
  -4  -1   7   63.02    3.78
  -4   1   7   64.50    3.90
  -4   1   7   65.31    4.06
  -4  -1   7   67.89    3.87
  -4   1   6  255.29    7.48
   4  -1  -6  274.26    9.31
   4   1  -6  267.66    9.34
  -4  -1   6  247.68    7.47
  -4  -1   6  243.03    8.08
  -4  -1   5  490.74   10.38
  -4   1   5  478.17   10.23
   4   1  -5  492.62   12.12
  -4  -1   5  478.13   11.07
  -4   1   4  786.73   13.46
  -4  -1   4  775.05   13.08
  -4   1   4  803.12   13.41
  -4  -1   4  769.00   13.86
  -4  -1   4  832.06   12.21
   4   1  -4  800.32   15.12
   4  -1  -4  843.08   14.85
  -4   1   3   78.24    4.14
  -4  -1   3   79.46    3.46
  -4  -1   3   67.42    3.58
  -4  -1   3   69.67    3.84
   4   1  -3   70.05    4.23
   4  -1  -3   72.07    4.09
  -4   1   3   69.45    3.88
  -4  -1   2  146.84    5.28
  -4   1   2  164.87    6.12
  -4   1   2  145.57    5.72
  -4  -1   2  168.52    5.00
   4   1  -2  165.69    6.60
   4  -1  -2  164.56    6.22
  -4  -1   2  152.47    5.81
  -4  -1   1  927.24   12.91
  -4  -1   1  933.77   15.39
   4   1  -1  941.80   16.62
   4  -1  -1  929.54   15.83
  -4  -1   0   27.17    2.61
  -4  -1   0   24.61    2.50
  -4  -1   0   26.96    2.16
  -4  -1   0   26.03    1.63
   4   1   0   24.94    2.77
   4  -1   0   23.49    2.60
  -4  -1  -1 1034.09   12.81
  -4  -1  -1 1035.25   17.31
  -4  -1  -1  956.64   14.84
  -4   1  -1 1072.77   14.53
   4   1   1 1000.88   19.38
   4  -1   1  967.08   18.28
  -4  -1  -2  178.15    6.40
  -4   1  -2  184.78    6.29
   4   1   2  190.10    8.66
   4  -1   2  180.47    8.15
  -4  -1  -2  185.02    5.41
  -4  -1  -3   31.41    2.45
  -4  -1  -3   30.24    2.84
  -4   1  -3   28.00    2.66
   4  -1   3   30.44    3.58
   4   1   4   97.15    6.91
   4  -1   4   96.61    6.71
  -4  -1  -4  111.31    5.12
  -4  -1  -4   99.07    3.87
  -4  -1  -4  100.96    5.63
  -4   1  -4   96.64    5.47
  -4  -1  -4  116.84    4.16
   4   1   5   90.25    7.11
   4  -1   5   87.46    6.67
  -4  -1  -5   87.45    4.94
  -4  -1  -5  105.08    4.10
  -4  -1  -5   82.61    5.45
  -4   1  -5   79.53    5.26
  -4   1  -5   83.49    3.65
  -4   1  -5   86.72    3.64
  -4  -1  -5   96.56    3.85
  -4  -1  -5   89.89    3.81
   4   1   6   46.42    5.31
   4  -1   6   42.32    4.95
  -4  -1  -6   43.29    3.71
  -4  -1  -6   51.77    2.84
   4   1   6   57.45    2.91
  -4  -1  -6   42.40    4.20
  -4  -1  -6   43.19    2.64
  -4   1  -6   45.69    2.74
  -4  -1  -6   41.69    2.69
  -4  -1  -7  101.89    3.89
  -4   1  -7   94.83    4.24
   4   1   7   98.86    3.89
  -4  -1  -7   92.89    3.89
  -4  -1  -7   89.48    4.03
  -4   1  -8   22.21    2.05
   4   1   8   20.76    1.80
  -4  -1  -8   19.31    1.75
  -4  -1  -8   20.26    1.92
  -4   1  -9   46.99    2.82
   4   1   9   43.49    2.47
  -4  -1  -9   47.03    2.51
  -4  -1  -9   44.53    2.64
  -4   1 -10  144.59    4.45
   4   1  10  140.64    4.06
  -4  -1 -10  144.88    4.30
  -4   1 -11   20.13    1.34
  -4  -1 -11   20.79    1.49
   4   1  11   19.69    1.25
   4   2 -14    9.84    0.94
  -4   2  14   10.41    0.98
  -4  -2  14    9.74    1.03
  -4   2  13   22.52    1.97
  -4  -2  13   19.30    1.59
  -4   2  13   20.30    1.85
   4   2 -13   20.12    1.66
  -4  -2  13   20.60    1.28
  -4   2  13   19.89    1.76
  -4  -2  13   20.47    1.88
  -4  -2  13   20.78    1.70
   4  -2 -13   20.97    1.47
  -4   2  13   19.02    1.89
  -4  -2  12   50.30    3.33
  -4  -2  12   51.97    3.13
  -4   2  12   46.00    3.27
  -4   2  12   57.25    3.66
  -4  -2  12   49.36    2.43
  -4   2  12   50.47    3.25
  -4  -2  12   53.63    3.45
  -4  -2  12   50.95    3.06
   4  -2 -12   52.22    2.96
  -4   2  12   51.20    3.51
  -4  -2  12   48.57    3.02
   4   2 -12   50.16    2.99
  -4   2  11  105.03    5.54
  -4  -2  11  112.69    5.47
  -4  -2  11  109.56    4.36
  -4   2  11  105.13    5.43
  -4  -2  11  114.32    5.00
   4   2 -11  109.71    4.78
  -4  -2  11  109.85    4.08
  -4   2  11  103.65    5.08
  -4  -2  11  119.28    5.57
  -4  -2  11  112.45    4.95
  -4   2  11  112.77    5.65
   4  -2 -11   93.90    4.52
  -4  -2  11  120.59    5.32
  -4   2  10   13.51    2.13
  -4  -2  10   16.59    2.29
  -4  -2  10   14.92    1.92
  -4  -2  10   13.92    1.67
  -4   2  10   13.45    2.15
  -4  -2  10   15.27    1.97
  -4   2  10   14.15    2.09
  -4  -2  10   23.49    1.97
  -4   2  10   15.33    2.09
  -4  -2  10   20.51    2.48
  -4  -2  10   13.87    1.86
  -4   2  10   13.98    2.14
  -4  -2  10   14.23    2.00
  -4   2   9  499.55   12.80
  -4  -2   9  538.90   11.45
  -4   2   9  520.97   12.91
  -4  -2   9  519.68    9.98
  -4   2   9  501.11   12.57
  -4  -2   9  550.73   11.40
  -4   2   9  539.40   12.99
  -4   2   9  520.13   12.07
  -4  -2   9  563.79   12.61
  -4  -2   9  549.67   13.03
  -4  -2   9  548.81   12.05
  -4   2   8  303.18    9.66
  -4  -2   8  320.14    9.64
  -4  -2   8  317.32    9.60
  -4  -2   8  312.40    7.26
  -4   2   8  298.52    9.33
  -4  -2   8  312.39    8.16
  -4   2   8  309.55    9.68
   4  -2  -8  353.64   11.69
   4   2  -8  315.95   11.30
  -4  -2   8  308.78   10.43
  -4   2   8  306.62    8.95
  -4  -2   8  315.59    9.09
  -4  -2   8  314.08    8.26
  -4   2   8  296.03    9.53
  -4  -2   8  316.18    8.75
  -4  -2   7  531.07   12.01
  -4  -2   7  489.03    8.77
  -4   2   7  477.33   11.80
  -4   2   7  486.71   11.56
  -4  -2   7  544.27   10.29
  -4   2   7  518.82   12.40
  -4  -2   7  508.53   10.15
   4  -2  -7  575.86   14.00
   4   2  -7  504.98   13.80
  -4  -2   7  496.40   12.91
  -4  -2   7  502.38   11.82
  -4  -2   7  503.27   11.06
  -4   2   7  489.21   11.86
  -4  -2   7  518.46   10.78
  -4  -2   6   38.75    3.02
  -4  -2   6   42.79    3.32
  -4  -2   6   42.08    2.97
  -4   2   6   43.03    3.29
  -4  -2   6   46.61    2.73
  -4   2   6   40.90    3.34
  -4   2   6   43.19    3.35
   4  -2  -6   43.33    3.55
   4   2  -6   42.79    3.78
  -4  -2   6   42.31    2.95
  -4  -2   6   44.73    2.89
  -4  -2   6   39.57    3.43
   4   2  -5  518.62   12.76
  -4  -2   5  546.51   11.38
  -4  -2   5  532.12   11.46
  -4  -2   5  525.22   12.12
  -4  -2   4  729.73   14.02
  -4  -2   4  723.54   13.17
  -4  -2   4  758.99   13.17
   4   2  -4  710.88   14.57
  -4  -2   3  152.50    5.52
  -4  -2   3  134.83    5.38
  -4  -2   3  142.94    5.75
   4   2  -3  136.09    6.21
   4  -2  -3  157.24    5.98
  -4  -2   2   49.31    3.21
  -4  -2   2   51.10    3.14
  -4  -2   2   59.65    2.76
  -4  -2   2   50.18    3.38
   4   2  -2   49.53    3.74
   4  -2  -2   49.22    3.28
  -4  -2   1   85.43    4.19
  -4  -2   1   84.15    4.51
  -4  -2   1   83.64    4.00
  -4  -2   1   92.12    3.40
   4   2  -1   83.37    4.94
   4  -2  -1   83.30    4.42
  -4  -2   0  111.33    5.07
  -4  -2   0  108.14    5.30
  -4  -2   0  111.13    4.77
  -4  -2   0  111.06    3.88
   4   2   0  107.01    5.93
   4  -2   0  105.35    5.31
  -4  -2  -1  138.86    6.16
  -4  -2  -1  120.35    5.25
   4   2   1  123.42    6.76
  -4  -2  -1  130.46    4.49
   4  -2   1  116.27    5.94
  -4  -2  -2  327.09    9.84
  -4  -2  -2  309.80    9.06
  -4  -2  -2  328.40    7.83
   4   2   2  290.66   11.12
   4  -2   2  285.11    9.78
   4  -2   3  666.79   16.21
  -4  -2  -3  715.30   14.88
  -4  -2  -3  724.21   12.89
   4   2   3  672.57   17.71
   4   2   4  133.58    8.34
   4  -2   4  130.50    7.40
  -4  -2  -4  156.02    4.96
  -4  -2  -4  152.27    4.85
  -4   2  -4  172.59    5.63
  -4  -2  -4  143.77    7.01
   4   2   4  162.23    4.72
  -4  -2  -4  151.75    4.77
  -4  -2  -4  154.14    4.61
  -4  -2  -4  139.48    5.88
  -4  -2  -5  504.96   12.47
   4   2   5  469.04   16.49
   4  -2   5  457.44   14.81
  -4  -2  -5  524.85    9.72
  -4  -2  -5  543.11    9.64
  -4   2  -5  509.66   10.21
   4   2   5  491.73    8.91
  -4  -2  -5  483.18   13.70
  -4  -2  -5  500.14    9.23
  -4  -2  -5  526.04    9.18
  -4  -2  -6  559.31   10.45
   4   2   6  517.97   17.67
  -4  -2  -6  548.72   13.76
   4  -2   6  521.46   16.68
  -4   2  -6  557.11   10.83
  -4  -2  -6  631.20   10.70
   4   2   6  575.57    9.93
  -4  -2  -6  556.84   15.49
  -4  -2  -6  558.64   10.06
  -4  -2  -6  599.96   10.25
  -4   2  -7   51.85    3.18
   4   2   7   56.23    3.03
  -4  -2  -7   53.14    3.01
  -4  -2  -7   55.03    3.05
  -4  -2  -7   51.86    3.09
  -4   2  -8   15.22    1.72
  -4  -2  -8   15.74    1.52
   4   2   8   14.50    1.55
  -4  -2  -8   15.20    1.61
  -4  -2  -8   15.44    1.69
  -4   2  -9    1.50    0.58
   4   2   9    1.16    0.54
  -4  -2  -9    2.01    0.63
  -4  -2 -10   44.92    2.40
  -4   2 -10   42.55    2.25
   4   2  10   39.09    2.12
  -4  -2 -10   46.43    2.22
   4   2  11   58.48    2.13
  -4  -2 -11   62.18    2.44
   4  -3 -13   38.11    1.78
  -4   3  13   40.40    2.47
  -4   3  13   43.91    2.54
  -4  -3  13   37.47    1.68
  -4   3  13   40.86    2.18
  -4  -3  13   41.35    2.40
  -4  -3  13   42.58    2.32
   4  -3 -13   40.65    2.02
  -4   3  13   42.01    2.58
   4   3 -13   40.92    2.17
  -4   3  12   63.01    3.70
  -4   3  12   73.35    3.92
  -4  -3  12   65.49    3.20
  -4  -3  12   64.76    2.75
  -4   3  12   66.89    3.38
  -4  -3  12   67.97    3.68
  -4  -3  12   72.43    3.57
   4  -3 -12   63.45    3.28
  -4   3  12   64.32    3.78
   4   3 -12   65.71    3.27
  -4   3  11    9.00    1.66
  -4  -3  11   10.80    1.57
   4   3 -11   10.81    1.57
  -4  -3  11    9.73    1.31
  -4   3  11   14.98    2.07
  -4  -3  11    8.79    1.36
  -4   3  11    7.63    1.45
  -4  -3  11    9.43    1.25
  -4   3  11    9.44    1.48
  -4  -3  11    9.27    1.61
  -4  -3  11    9.93    1.56
  -4  -3  11   10.01    1.47
  -4   3  10   13.70    2.09
  -4  -3  10   15.31    2.04
  -4   3  10   14.39    2.14
  -4  -3  10   14.01    1.62
  -4   3  10   14.04    2.12
  -4   3  10   17.42    2.35
  -4  -3  10   16.04    1.92
  -4  -3  10   14.83    1.63
  -4   3  10   17.13    2.04
  -4  -3  10   17.91    2.23
  -4  -3  10   13.81    1.83
  -4  -3  10   15.63    1.97
  -4  -3  10   14.67    1.88
   4   3 -10   13.73    1.80
  -4   3   9   96.77    5.47
  -4  -3   9  104.86    5.40
  -4   3   9   86.93    5.27
  -4   3   9   93.14    5.40
  -4   3   9  114.91    5.99
  -4  -3   9   97.95    4.59
  -4   3   9   97.42    5.55
  -4  -3   9   95.33    4.65
  -4  -3   9  101.78    5.25
  -4  -3   9   90.46    3.97
  -4   3   9   95.10    4.85
  -4  -3   9  102.70    4.97
   4   3  -9  101.72    4.85
  -4   3   8  154.76    6.88
  -4  -3   8  172.49    6.93
  -4  -3   8  159.64    7.11
  -4  -3   8  159.86    5.18
  -4   3   8  160.53    7.03
  -4  -3   8  167.85    5.84
  -4   3   8  160.52    7.19
  -4  -3   8  161.93    5.94
  -4  -3   8  173.47    6.76
  -4   3   8  154.63    7.00
  -4  -3   8  171.08    6.31
   4   3  -8  166.96    6.21
  -4   3   7  323.45    9.81
  -4  -3   7  367.67   10.01
  -4  -3   7  351.59   10.45
  -4   3   7  335.33    9.91
  -4  -3   7  383.03    8.51
  -4   3   7  356.70   10.66
   4   3  -7  340.87   11.37
  -4  -3   7  357.48   11.33
  -4  -3   7  363.55    9.56
  -4  -3   7  361.46    9.40
  -4   3   7  329.39   10.04
  -4  -3   7  366.81    9.05
   4   3  -7  386.88    9.28
  -4   3   6 1039.91   17.63
  -4  -3   6 1137.47   19.01
  -4   3   6 1183.82   18.83
  -4  -3   6 1197.96   20.44
  -4  -3   6 1136.36   17.64
  -4  -3   6 1165.36   16.92
  -4   3   6 1082.91   17.65
  -4  -3   6 1188.28   15.18
  -4   3   6 1070.73   18.81
   4   3  -6 1139.63   20.70
  -4   3   6 1101.73   18.17
   4   3  -6 1047.69   21.57
  -4  -3   6 1169.51   16.01
  -4  -3   5  921.38   16.43
  -4  -3   5  937.85   15.17
  -4  -3   5  938.01   16.87
  -4   3   5  925.23   14.94
  -4   3   5  888.20   16.55
  -4   3   5  927.56   16.56
   4   3  -5  928.55   17.87
  -4  -3   5  977.62   14.58
  -4  -3   5  967.71   17.49
  -4  -3   5  985.13   13.79
  -4  -3   4  333.06    9.66
  -4  -3   4  302.83    8.82
  -4  -3   4  304.48    8.97
  -4  -3   4  315.25    8.13
  -4   3   4  323.48    8.46
   4   3  -4  306.79    9.94
  -4  -3   3  191.78    6.87
  -4  -3   3  193.57    7.02
  -4  -3   3  194.82    7.00
  -4  -3   3  211.61    6.46
  -4   3   3  210.84    6.64
   4   3  -3  195.85    7.77
  -4  -3   2   19.36    2.16
  -4  -3   2   22.59    2.06
  -4  -3   2   18.51    2.18
  -4  -3   2   17.97    2.07
  -4  -3   1  948.83   15.44
  -4  -3   1  947.30   16.24
  -4  -3   1  933.57   15.57
  -4  -3   1  949.57   13.88
   4   3  -1  914.70   18.12
  -4  -3   0  253.97    8.36
  -4  -3   0  256.89    7.89
  -4  -3   0  236.94    7.69
  -4  -3   0  254.34    6.79
   4   3   0  239.61    9.49
  -4  -3  -1  110.05    5.45
  -4  -3  -1  100.56    5.17
  -4  -3  -1  106.51    4.49
   4   3   1   96.14    6.15
  -4  -3  -2   73.25    4.67
  -4  -3  -2   67.93    4.47
  -4  -3  -2   68.49    3.78
   4   3   2   63.82    5.36
  -4  -3  -3  116.92    4.24
  -4   3  -3  117.51    5.00
  -4  -3  -3  105.97    5.91
   4   3   3  101.02    3.80
  -4  -3  -3  111.57    4.01
  -4  -3  -3  118.87    3.86
  -4  -3  -3  109.73    5.20
  -4  -3  -3  107.77    4.03
   4   3   3   96.60    6.87
  -4   3  -4 1076.92   16.33
  -4  -3  -4 1066.73   14.41
  -4  -3  -4 1110.43   20.84
   4   3   4 1093.58   14.09
  -4  -3  -4 1138.87   14.51
  -4  -3  -4 1145.50   13.86
  -4  -3  -4 1131.95   14.75
  -4  -3  -4 1100.44   18.27
  -4  -3  -5  301.89    7.31
  -4   3  -5  293.59    8.06
   4   3   5  283.25    6.86
  -4  -3  -5  299.52   11.15
  -4  -3  -5  302.11    7.22
  -4  -3  -5  314.77    7.03
  -4  -3  -5  302.16    7.36
  -4  -3  -5  293.66    9.60
  -4  -3  -6  612.76   10.74
  -4   3  -6  575.24   11.52
   4   3   6  601.90   10.49
  -4  -3  -6  581.44   10.42
  -4  -3  -6  607.19   10.24
  -4  -3  -6  593.05   10.84
  -4  -3  -7   68.41    3.43
  -4   3  -7   60.63    3.49
   4   3   7   66.34    3.34
  -4  -3  -7   64.94    3.32
  -4  -3  -7   66.24    3.26
  -4  -3  -7   64.80    3.42
  -4   3  -8   78.62    3.73
   4   3   8   80.29    3.57
  -4  -3  -8   78.70    3.55
  -4  -3  -8   75.37    3.60
   4   3   9  224.97    5.67
  -4  -3  -9  244.66    5.86
  -4  -3  -9  241.87    6.07
   4   3  10   17.57    1.38
  -4  -3 -10   18.44    1.38
  -4  -3 -10   17.39    1.47
  -4  -3 -11   27.94    1.49
   4   3  11   23.42    1.26
   4  -4 -13   48.24    1.86
  -4   4  13   54.96    2.55
  -4   4  13   56.37    2.43
  -4  -4  13   59.40    2.46
   4  -4 -13   52.94    2.08
   4   4 -13   51.28    2.04
  -4   4  12   20.43    1.99
  -4   4  12   22.15    2.02
  -4  -4  12   20.82    1.48
  -4  -4  12   20.37    1.81
  -4  -4  12   23.45    1.92
  -4   4  12   20.62    2.01
   4  -4 -12   20.84    1.80
   4   4 -12   18.99    1.61
  -4  -4  11   91.14    4.14
  -4  -4  11   88.25    3.61
  -4   4  11   89.32    4.67
  -4   4  11  100.22    4.92
  -4  -4  11   89.77    3.83
  -4  -4  11   90.98    3.56
  -4  -4  11   89.99    4.32
  -4  -4  11   97.46    4.37
  -4   4  11   90.81    4.72
   4   4 -11   87.93    3.90
  -4  -4  10  133.84    5.33
  -4  -4  10  124.07    4.50
  -4   4  10  116.91    5.82
  -4   4  10  145.72    6.46
  -4  -4  10  122.91    4.83
  -4  -4  10  135.90    5.78
   4   4 -10  127.41    5.16
  -4  -4  10  128.33    5.39
  -4   4  10  117.58    5.85
  -4  -4  10  132.52    5.14
  -4  -4   9  131.01    4.69
  -4   4   9  123.99    6.20
  -4   4   9  148.06    6.70
  -4  -4   9  139.94    5.28
  -4   4   9  122.43    6.18
  -4  -4   9  138.66    6.04
  -4  -4   9  137.87    5.55
  -4  -4   9  135.88    5.53
   4   4  -9  134.96    5.53
  -4   4   8  135.30    6.27
  -4  -4   8  148.99    6.14
  -4   4   8  130.77    6.41
  -4   4   8  149.87    6.78
  -4  -4   8  145.46    5.37
  -4   4   8  133.68    6.70
  -4  -4   8  153.00    6.39
  -4  -4   8  148.99    5.76
  -4   4   8  126.60    6.30
  -4  -4   8  147.91    5.78
   4   4  -8  144.36    5.78
  -4  -4   7   19.69    2.29
  -4   4   7   18.22    2.31
  -4   4   7   15.16    2.14
  -4   4   7   18.11    2.34
  -4  -4   7   16.84    1.80
  -4   4   7   14.97    2.27
  -4  -4   7   18.63    2.12
  -4  -4   7   24.90    2.57
  -4  -4   7   19.51    2.09
   4   4  -7   20.90    2.19
  -4  -4   6   23.36    2.76
  -4  -4   6   26.35    2.56
  -4   4   6   21.08    2.53
  -4  -4   6   23.82    2.94
  -4   4   6   19.91    2.34
  -4   4   6   22.88    2.47
  -4  -4   6   21.69    1.95
  -4   4   6   21.25    2.64
   4   4  -6   21.60    2.90
  -4  -4   6   21.73    2.24
  -4   4   6   24.59    2.63
  -4  -4   6   24.79    2.95
  -4  -4   6   25.02    2.26
  -4  -4   5  201.78    8.07
  -4  -4   5  185.66    7.49
  -4  -4   5  200.44    6.85
  -4   4   5  198.95    7.88
  -4  -4   5  212.71    5.62
  -4  -4   5  192.77    7.96
  -4   4   5  170.93    6.38
  -4   4   5  179.42    6.56
  -4   4   5  180.84    7.49
  -4   4   5  201.60    7.65
   4   4  -5  196.47    8.51
  -4  -4   5  197.53    6.44
   4   4  -5  183.30    9.65
  -4  -4   5  196.31    5.98
  -4   4   4  720.97   15.39
  -4  -4   4  706.35   14.64
  -4  -4   4  685.84   12.63
  -4  -4   4  717.12   15.10
  -4  -4   4  705.37   10.47
  -4  -4   4  691.39   15.04
  -4  -4   4  719.17   12.22
  -4   4   4  602.31   11.90
  -4   4   4  647.84   14.10
  -4  -4   4  672.28   13.69
  -4   4   4  649.81   14.33
  -4   4   4  742.96   14.87
   4   4  -4  705.19   16.00
   4   4  -4  628.34   18.36
  -4  -4   3 2409.56   28.20
  -4   4   3 2431.81   29.89
  -4  -4   3 2329.59   24.68
  -4   4   3 2208.82   26.71
  -4  -4   3 2327.56   28.88
  -4  -4   3 2348.10   28.18
  -4   4   3 2023.07   23.67
  -4  -4   3 2377.13   27.06
  -4   4   3 2106.71   27.39
  -4   4   3 2513.12   28.72
   4   4  -3 2321.14   30.77
  -4   4   2  274.15    9.04
  -4  -4   2  266.47    8.42
  -4   4   2  256.21    8.09
  -4  -4   2  264.15    8.73
  -4  -4   2  278.06    8.44
  -4   4   2  243.17    8.22
  -4  -4   2  262.65    8.40
   4   4  -2  260.25    9.65
  -4   4   1   62.90    4.21
  -4  -4   1   62.33    3.95
  -4  -4   1   68.58    3.56
  -4   4   1   58.95    3.83
  -4  -4   1   62.75    4.19
  -4  -4   1   65.22    4.28
  -4  -4   1   64.12    3.86
   4   4  -1   58.13    4.77
  -4   4   0   24.73    2.60
  -4  -4   0   27.83    2.63
  -4   4   0   28.07    2.64
  -4  -4   0   27.95    2.81
  -4  -4   0   26.84    2.81
  -4  -4   0   28.18    2.51
   4   4   0   27.47    3.37
  -4   4  -1   17.23    2.11
  -4  -4  -1   15.07    2.12
  -4  -4  -1   19.22    1.70
  -4   4  -1   14.97    1.97
  -4  -4  -1   15.68    2.24
   4   4   1   13.76    1.40
  -4  -4  -1   17.86    1.55
  -4  -4  -1   16.74    1.99
   4   4   1   14.26    2.60
   4   4   1   16.31    3.22
  -4   4  -2   73.26    4.18
  -4  -4  -2   85.80    3.56
  -4  -4  -2   85.40    5.13
  -4  -4  -2   83.54    3.58
  -4   4  -2   81.51    4.51
  -4  -4  -2   83.79    5.33
   4   4   2   75.33    3.34
  -4  -4  -2   85.03    3.47
  -4  -4  -2   76.23    4.38
   4   4   2   81.45    7.19
   4   4   2   70.34    5.75
  -4   4  -3 1221.38   18.71
  -4  -4  -3 1240.93   22.15
   4   4   3 1234.31   15.39
  -4  -4  -3 1265.88   15.33
  -4  -4  -3 1233.24   19.46
  -4  -4  -3 1332.06   15.82
   4   4   3 1315.48   29.04
   4   4   4 2884.78   43.53
  -4   4  -4 2988.37   32.47
  -4  -4  -4 3353.96   40.24
   4   4   4 3194.78   29.02
  -4  -4  -4 3277.73   28.94
  -4  -4  -4 3354.04   27.79
  -4  -4  -4 3265.37   29.18
  -4  -4  -4 3358.84   36.31
  -4   4  -5  947.34   15.82
   4   4   5  950.85   13.84
  -4  -4  -5  983.44   13.89
  -4  -4  -5  985.68   13.12
  -4  -4  -5  999.38   14.16
  -4  -4  -5  963.77   13.99
  -4  -4  -6  224.73    6.33
  -4   4  -6  222.60    7.07
   4   4   6  225.70    6.39
  -4  -4  -6  222.88    6.22
  -4  -4  -6  226.77    5.96
  -4  -4  -6  230.85    6.46
  -4  -4  -7   82.02    3.69
  -4   4  -7   76.83    3.87
   4   4   7   82.64    3.75
  -4  -4  -7   78.34    3.60
  -4  -4  -7   81.32    3.47
  -4  -4  -7   80.50    3.73
  -4  -4  -8   73.44    3.24
   4   4   8   62.92    3.12
  -4  -4  -8   64.10    3.07
  -4  -4  -8   64.11    3.15
  -4  -4  -9    8.77    0.99
   4   4   9    7.49    1.02
  -4  -4  -9    8.68    1.08
  -4  -4  -9    7.67    1.07
   4   4  10    2.26    0.52
  -4  -4 -10    2.64    0.55
  -4  -4 -10    2.19    0.56
  -4  -5  12    7.44    0.99
  -4   5  12    8.02    1.10
  -4   5  12    7.95    1.07
  -4  -5  12    7.66    0.81
  -4  -5  12    6.14    0.78
   4  -5 -12    6.33    0.89
   4   5 -12    6.60    0.79
  -4  -5  11   49.81    2.47
  -4   5  11   45.92    3.09
  -4   5  11   48.36    3.09
  -4  -5  11   48.71    2.43
  -4  -5  11   46.20    2.69
  -4  -5  11   50.68    2.88
   4   5 -11   46.18    2.44
  -4  -5  10   16.07    1.59
  -4   5  10   18.86    2.22
  -4   5  10   14.77    2.00
  -4  -5  10   16.07    1.60
  -4  -5  10   14.99    1.71
  -4  -5  10   19.22    2.01
  -4  -5  10   17.96    1.97
  -4   5  10   16.27    2.07
   4   5 -10   19.12    1.81
  -4  -5   9   24.74    2.02
  -4  -5   9   24.33    2.35
  -4   5   9   24.29    2.64
  -4   5   9   27.58    2.94
  -4  -5   9   21.70    1.98
  -4  -5   9   23.29    2.40
  -4   5   9   21.35    2.53
   4   5  -9   23.52    2.17
  -4   5   8  436.05   11.48
  -4   5   8  478.05   12.25
  -4  -5   8  473.63    9.64
  -4  -5   8  461.65   11.07
  -4  -5   8  491.21   10.45
  -4   5   8  435.36   11.48
  -4  -5   8  495.00   10.29
   4   5  -8  474.24   10.19
  -4   5   7  431.69   11.09
  -4   5   7  405.29   10.97
  -4   5   7  441.89   11.72
  -4  -5   7  454.16    9.31
  -4  -5   7  455.57   10.92
  -4   5   7  403.88   10.90
   4   5  -7  465.65   10.06
  -4  -5   7  458.62   10.01
  -4   5   6   75.89    4.88
  -4   5   6   70.32    4.32
  -4   5   6   79.04    4.75
  -4  -5   6   81.62    3.79
  -4   5   6   77.78    5.13
  -4   5   6   73.80    4.40
  -4  -5   6   86.36    4.34
  -4  -5   6   85.10    4.18
  -4   5   5   88.26    5.42
  -4  -5   5   91.70    5.64
  -4   5   5   79.98    4.35
  -4   5   5   82.56    4.67
  -4   5   5   91.33    5.40
  -4  -5   5   94.75    4.48
  -4  -5   5   92.64    4.22
  -4   5   4  412.33   12.01
  -4  -5   4  420.75   11.65
  -4  -5   4  405.52    7.96
  -4  -5   4  394.36   11.26
  -4  -5   4  411.16   12.14
  -4   5   4  363.52    9.59
  -4   5   4  374.67   10.73
  -4  -5   4  374.35   10.94
  -4   5   4  415.13   12.01
  -4  -5   4  409.95    9.39
   4   5  -4  370.97   15.06
  -4   5   3  737.64   16.26
  -4  -5   3  732.81   15.22
  -4  -5   3  738.39   12.94
  -4  -5   3  712.23   15.98
  -4  -5   3  783.69   11.63
  -4  -5   3  700.54   14.99
  -4  -5   3  693.34   14.60
  -4  -5   3  744.65   12.71
   4   5  -3  698.57   21.36
   4   5  -2  692.90   11.90
  -4   5   2  729.17   16.00
  -4  -5   2  760.68   15.13
  -4  -5   2  786.24   13.22
  -4   5   2  694.87   14.69
  -4  -5   2  739.84   16.00
  -4   5   2  633.57   11.96
  -4  -5   2  795.00   11.70
  -4   5   2  701.23   14.97
  -4  -5   2  744.61   15.12
   4   5  -2  795.67   23.42
  -4  -5   2  751.73   15.06
   4   5  -1  205.45    6.41
  -4   5   1  214.46    8.32
  -4  -5   1  219.10    7.82
  -4  -5   1  235.72    7.00
  -4   5   1  198.17    7.63
  -4  -5   1  218.98    8.43
  -4  -5   1  235.06    6.19
  -4   5   1  207.70    7.72
  -4  -5   1  206.14    7.59
   4   5  -1  247.18   13.17
   4   5   0    4.73    1.07
  -4   5   0    5.17    1.33
  -4  -5   0    5.48    1.27
  -4  -5   0    5.52    0.99
  -4   5   0    3.66    1.04
   4   5   0    4.76    2.03
  -4  -5   0    5.36    1.30
  -4  -5   0    3.49    1.17
   4   5   1  138.70    5.68
  -4   5  -1  127.35    5.94
  -4  -5  -1  143.39    4.74
  -4   5  -1  123.44    5.95
  -4  -5  -1  134.60    6.84
  -4  -5  -1  131.76    5.99
   4   5   1  149.47   10.39
  -4   5  -2  245.58    8.02
  -4  -5  -2  283.84    6.93
  -4   5  -2  276.18    8.88
  -4  -5  -2  306.10   10.67
  -4  -5  -2  315.19    6.96
  -4  -5  -2  284.28    9.08
   4   5   2  311.51   14.92
  -4   5  -3  297.20    9.07
   4   5   3  292.76    7.32
  -4  -5  -3  349.84    7.56
  -4  -5  -3  355.54    7.62
  -4   5  -4   32.78    2.91
   4   5   4   29.46    2.36
  -4  -5  -4   39.56    2.55
  -4  -5  -4   36.47    2.47
  -4  -5  -5   59.80    3.28
  -4   5  -5   62.57    3.78
   4   5   5   61.59    3.36
  -4  -5  -5   62.24    3.21
  -4  -5  -5   63.62    2.95
  -4  -5  -5   62.42    3.23
  -4  -5  -6   50.52    2.93
   4   5   6   52.85    3.06
  -4  -5  -6   51.36    2.88
  -4  -5  -6   52.06    2.64
  -4  -5  -6   52.28    2.90
  -4  -5  -7   52.37    2.83
   4   5   7   47.02    2.76
  -4  -5  -7   48.03    2.66
  -4  -5  -7   47.23    2.45
  -4  -5  -7   46.31    2.63
   4   5   8  113.74    3.94
  -4  -5  -8  112.41    3.77
  -4  -5  -8  113.71    3.81
   4   5   9   96.66    3.83
  -4  -5  -9  102.75    2.97
   4   5   9   92.89    3.13
  -4  -5  -9   92.40    3.03
  -4  -5  -9   91.43    2.58
  -4  -5  -9   98.47    3.08
  -4  -5 -10    5.70    0.62
  -4  -6  11   25.79    1.53
  -4   6  11   23.98    1.79
  -4  -6  11   25.11    1.51
  -4  -6  11   23.69    1.66
   4  -6 -11   20.20    1.54
   4   6 -11   21.05    1.23
  -4  -6  10   56.19    2.98
  -4  -6  10   56.01    2.57
  -4   6  10   54.87    3.25
  -4   6  10   59.53    3.35
  -4  -6  10   51.58    2.62
  -4  -6  10   52.10    2.72
   4   6 -10   53.64    2.44
  -4  -6   9  159.66    4.65
  -4   6   9  150.77    5.83
  -4   6   9  151.56    5.99
  -4  -6   9  147.44    4.62
  -4  -6   9  145.07    5.11
  -4  -6   9  152.93    5.16
   4   6  -9  155.31    4.69
  -4   6   8  229.11    7.58
  -4   6   8  243.83    8.12
  -4  -6   8  230.49    6.20
  -4  -6   8  235.48    6.77
  -4  -6   8  230.49    7.01
   4   6  -8  238.88    6.21
  -4   6   7   51.35    3.58
  -4   6   7   57.38    4.06
  -4  -6   7   58.56    3.19
  -4   6   7   59.46    3.88
  -4  -6   7   59.45    3.71
  -4  -6   7   62.20    3.37
  -4   6   6   95.68    5.42
  -4   6   6   86.33    4.91
  -4   6   6   89.04    4.60
  -4  -6   6   94.75    4.06
  -4  -6   6   99.92    4.87
  -4  -6   6  101.04    4.40
  -4   6   5  218.44    8.64
  -4  -6   5  228.51    6.70
   4   6  -4  239.39    6.35
  -4   6   4  233.00    9.20
  -4  -6   4  265.74    6.39
  -4   6   4  210.05    7.34
  -4  -6   4  255.42    7.26
   4   6  -3  181.23    5.84
  -4   6   3  190.12    8.35
  -4  -6   3  192.29    5.48
  -4   6   3  171.04    6.35
  -4  -6   3  208.83    6.49
   4   6  -2  352.40    8.61
  -4   6   2  361.07   11.45
  -4   6   2  326.07    8.49
   4   6  -1  138.03    5.49
  -4   6   1  135.90    6.82
  -4  -6   1  155.97    5.61
  -4   6   1  126.86    4.94
  -4  -6   1  159.74    5.12
   4   6   0  337.70    9.00
  -4   6   0  316.94   10.18
  -4  -6   0  389.55    9.08
  -4  -6   0  407.70    8.00
   4   6   1   37.03    3.06
  -4   6  -1   29.70    2.97
  -4  -6  -1   39.12    2.50
  -4   6  -1   31.96    3.08
   4   6   2  234.25    7.85
  -4  -6  -2  237.19    6.32
  -4   6  -2  220.34    7.96
   4   6   3  149.89    6.39
  -4  -6  -3  147.41    5.03
  -4   6  -3  138.42    6.00
  -4  -6  -3  157.29    4.85
   4   6   4   42.72    3.46
  -4  -6  -4   40.73    2.63
  -4  -6  -4   41.80    2.52
   4   6   5  105.21    5.38
  -4  -6  -5  101.93    4.07
  -4  -6  -5   99.77    3.83
  -4  -6  -5  103.20    3.78
   4   6   6  122.41    5.47
  -4  -6  -6  112.34    4.06
  -4  -6  -6  110.20    3.86
  -4  -6  -6  110.04    3.77
   4   6   7   27.85    2.42
  -4  -6  -7   26.88    1.73
  -4  -6  -7   29.62    1.96
  -4  -6  -7   25.12    1.71
   4   6   8   95.50    3.83
  -4  -6  -8   92.73    2.94
  -4  -6  -9   81.90    2.31
  -4  -7  10   18.86    1.22
  -4   7  10   18.24    1.44
  -4  -7  10   20.16    1.29
  -4  -7  10   17.44    1.25
  -4  -7   9   26.65    1.68
  -4   7   9   26.17    2.08
  -4  -7   9   24.96    1.74
  -4  -7   9   25.54    1.81
  -4   7   8   23.01    2.21
  -4  -7   8   22.63    1.67
  -4  -7   8   20.76    1.67
  -4  -7   8   23.63    1.88
  -4   7   7  119.78    4.84
  -4   7   7  122.81    5.19
  -4  -7   7  121.40    4.13
  -4  -7   7  115.72    4.38
  -4  -7   7  124.83    4.56
  -4   7   6   97.64    5.01
  -4   7   6  102.12    4.87
  -4  -7   6  100.39    3.94
  -4  -7   6   97.03    4.28
  -4  -7   6  100.30    3.93
  -4   7   5   65.38    4.40
  -4   7   5   62.57    3.83
  -4  -7   5   66.07    3.32
   4   7  -4  100.33    3.91
  -4   7   4   99.03    5.66
  -4  -7   4  109.34    4.37
   4   7  -3    9.83    1.37
  -4   7   3   12.35    2.11
  -4  -7   3   11.98    1.37
  -4   7   3    8.86    1.45
   4   7  -2   11.51    1.57
  -4   7   2   11.28    2.00
  -4   7   2    7.75    1.26
  -4  -7   2   14.57    1.66
   4   7  -1  230.27    7.08
  -4   7   1  234.07    8.71
  -4   7   1  213.32    6.22
   4   7   0   55.25    3.58
  -4   7   0   51.71    3.92
  -4   7   0   51.11    2.82
   4   7   1   22.41    2.33
  -4   7  -1   18.02    2.20
  -4  -7  -1   22.99    1.87
   4   7   2    0.50    0.73
  -4   7  -2    0.55    0.65
  -4  -7  -2    1.16    0.60
   4   7   3   20.81    2.31
  -4  -7  -3   23.06    1.96
  -4  -7  -3   22.14    1.83
   4   7   4    0.33    0.66
  -4  -7  -4    0.18    0.52
  -4  -7  -4    0.63    0.42
   4   7   5   20.00    2.11
  -4  -7  -5   19.14    1.60
  -4  -7  -5   18.88    1.44
   4   7   6    1.37    0.66
  -4  -7  -6    1.31    0.55
  -4  -7  -6    1.98    0.54
   4   7   7    4.78    0.86
  -4  -7  -7    4.66    0.70
  -4  -7  -7    4.90    0.67
  -4  -7  -7    4.56    0.62
  -4   8   8   65.90    2.77
  -4  -8   8   62.97    2.22
  -4  -8   8   57.19    2.13
  -4   8   7   32.30    2.16
  -4  -8   7   33.09    1.69
  -4  -8   7   34.31    1.93
  -4   8   6   10.53    1.31
  -4  -8   6   11.76    1.17
  -4  -8   5    6.15    0.92
  -4   8   5    4.74    0.93
  -4  -8   5    6.54    0.94
   4   8  -4   16.13    1.37
  -4   8   4   17.26    2.14
  -4   8   4   16.48    1.67
  -4  -8   4   15.82    1.54
  -4  -8   4   17.28    1.50
   4   8  -3   24.77    1.88
  -4   8   3   25.93    2.66
  -4   8   3   23.56    1.98
  -4  -8   3   25.00    1.88
   4   8  -2  134.67    4.68
  -4   8   2  153.47    6.38
  -4  -8   2  147.20    4.25
  -4   8   2  129.95    4.46
   4   8  -1   23.44    2.04
  -4   8   1   24.54    2.53
  -4   8   1   21.35    1.71
   4   8   0  103.57    4.42
  -4   8   0   97.77    4.78
  -4   8   0  101.68    3.43
  -4  -8   0  107.92    3.83
   4   8   1   51.04    3.16
  -4  -8  -1   58.88    2.66
   4   8   2   53.44    3.22
  -4  -8  -2   56.24    2.60
  -4  -8  -3    0.97    0.53
  -4  -8  -3    0.75    0.42
   4   8   3    0.19    0.54
   4   8   4   10.13    1.35
  -4  -8  -4   11.09    1.08
  -4  -8  -4   10.36    1.06
   4   8   5    1.80    0.63
  -4  -8  -5    1.27    0.43
  -4  -8  -5    1.22    0.40
   4   8   6    2.61    0.56
  -4  -8  -6    2.26    0.41
  -4   9   5    0.44    0.36
  -4  -9   5    0.09    0.26
   4   9  -4    4.19    0.54
  -4   9   4    4.74    0.73
  -4  -9   4    4.09    0.64
   4   9  -3   31.64    1.61
  -4   9   3   30.96    1.70
   4   9  -2   44.22    2.10
  -4   9   2   44.74    1.97
  -4  -9   2   42.20    1.83
   4   9  -1   31.18    1.90
  -4  -9   1   28.50    1.44
  -4   9   1   27.95    1.45
  -4  -9   1   26.76    1.53
   4   9   0   16.92    1.44
  -4  -9   0   16.73    1.18
   4   9   1   10.29    1.16
  -4  -9  -1   10.32    0.93
   4   9   2    4.96    0.82
  -4  -9  -2    6.04    0.71
   4   9   3   28.27    1.69
  -4  -9  -3   25.56    1.26
   5   0 -13   28.78    1.79
  -5   0  13   28.39    2.01
  -5   0  13   30.36    2.05
  -5   0  13   29.83    2.08
  -5   0  12   12.03    1.71
  -5   0  12   11.22    1.58
  -5   0  12   11.29    1.57
  -5   0  12   13.74    1.66
  -5   0  11   70.99    4.43
  -5   0  11   72.13    4.11
  -5   0  11   72.00    4.10
  -5   0  11   75.26    4.37
  -5   0  10   19.33    2.50
  -5   0  10   18.90    2.24
  -5   0  10   17.70    2.21
  -5   0  10   19.02    2.38
  -5   0   9  163.96    7.22
  -5   0   9  165.11    6.60
  -5   0   9  161.94    6.78
  -5   0   9  162.79    6.58
  -5   0   9  173.92    7.06
  -5   0   8  647.26   14.52
  -5   0   8  659.54   13.32
  -5   0   8  670.57   14.24
  -5   0   8  676.46   13.56
  -5   0   8  679.17   12.33
  -5   0   8  690.44   14.23
  -5   0   7   78.32    4.76
  -5   0   7   82.85    4.39
  -5   0   7   90.90    5.01
   5   0  -7   97.93    6.47
  -5   0   7   86.17    4.54
  -5   0   7   88.91    4.13
  -5   0   7   87.90    5.24
  -5   0   7   88.36    4.86
  -5   0   6  338.45    8.75
  -5   0   6  354.65    8.69
  -5   0   6  352.94    9.60
  -5   0   6  348.92    9.31
  -5   0   6  338.37   10.34
  -5   0   6  328.18    9.50
  -5   0   6  342.69    9.09
  -5   0   5 1200.33   20.19
  -5   0   5 1131.53   17.69
  -5   0   5 1239.10   19.32
  -5   0   5 1187.14   15.95
  -5   0   5 1223.44   18.00
  -5   0   5 1200.45   17.57
  -5   0   5 1111.23   16.99
  -5   0   5 1204.71   17.10
  -5   0   4 1040.29   18.09
  -5   0   4 1012.90   18.40
  -5   0   4 1031.19   15.85
  -5   0   3   58.53    4.29
  -5   0   3   61.79    4.35
   5   0  -3   67.67    4.88
  -5   0   2   10.03    1.78
   5   0  -2    9.76    1.90
  -5   0   2   12.62    2.02
  -5   0   1 1004.27   18.85
   5   0  -1 1005.09   20.19
   5   0   0    1.43    0.94
  -5   0  -1   39.94    2.58
   5   0   1   40.91    4.34
  -5   0  -2   78.55    3.62
  -5   0  -2   70.06    3.48
   5   0   2   72.01    6.11
  -5   0  -3  489.57    9.61
   5   0   3  471.15   16.30
   5   0   4   80.66    6.90
  -5   0  -4   92.80    4.14
  -5   0  -4   77.77    3.71
  -5   0  -5  170.09    5.73
  -5   0  -5  144.98    5.08
  -5   0  -6  430.00    9.28
  -5   0  -6  399.27    8.51
  -5   0  -7   68.95    3.61
  -5   0  -7   69.58    3.30
  -5   0  -8    0.66    0.61
  -5   0  -8    0.16    0.35
  -5   0  -9    0.89    0.56
  -5   0 -10   28.59    1.72
  -5   1  13    9.11    1.16
  -5  -1  13    8.59    1.08
  -5   1  13    9.50    1.19
  -5  -1  13    9.60    1.16
  -5   1  13    9.44    1.10
  -5  -1  13   10.56    1.25
  -5   1  13    8.61    1.18
   5   1 -13    9.69    1.03
  -5   1  12    7.56    1.35
  -5   1  12   10.54    1.60
  -5  -1  12    9.25    1.11
  -5  -1  12    8.85    1.43
  -5   1  12    9.46    1.47
  -5  -1  12    8.09    1.30
  -5  -1  12    8.37    1.34
  -5  -1  12    8.93    1.36
  -5   1  12    8.61    1.29
   5   1 -12    8.93    1.20
  -5   1  11  163.33    6.63
  -5  -1  11  154.21    6.44
  -5   1  11  150.76    6.05
  -5  -1  11  155.51    5.89
  -5   1  11  156.45    5.98
  -5   1  11  148.03    6.17
  -5  -1  11  162.10    5.13
  -5   1  11  167.02    6.05
  -5  -1  11  170.38    6.25
  -5  -1  11  154.95    6.12
  -5   1  10  322.60    9.88
  -5  -1  10  326.64   10.06
  -5   1  10  326.90    9.56
  -5  -1  10  335.77    9.07
  -5   1  10  328.26    9.53
  -5   1  10  314.40    8.87
  -5  -1  10  319.46    9.16
  -5  -1  10  324.07    7.93
  -5   1  10  314.40    9.61
  -5  -1  10  321.13    9.25
  -5   1   9  107.34    5.81
  -5  -1   9  111.69    5.90
  -5  -1   9  103.03    4.05
  -5   1   9  110.19    5.57
  -5  -1   9  117.30    5.40
  -5   1   9  109.04    5.75
  -5  -1   9  111.71    5.40
  -5   1   9  106.57    5.24
  -5  -1   9  109.09    5.37
  -5  -1   9  106.40    4.80
  -5  -1   9  111.52    4.71
  -5   1   9  103.20    5.54
  -5  -1   9  108.63    5.45
  -5   1   8   19.60    2.51
  -5  -1   8   14.34    1.48
  -5  -1   8   13.41    2.07
  -5   1   8   15.30    2.07
  -5  -1   8   14.59    1.91
  -5   1   8   19.25    2.50
  -5  -1   8   13.48    1.93
  -5   1   8   14.32    1.92
  -5  -1   8   15.50    2.04
  -5  -1   8   13.07    1.70
  -5   1   8   18.36    2.36
  -5  -1   8   19.37    2.29
  -5   1   7  152.19    6.74
  -5  -1   7  155.85    6.78
  -5   1   7  184.35    6.78
  -5   1   7  159.48    6.37
  -5  -1   7  170.13    6.05
  -5  -1   7  202.25    8.10
  -5   1   7  159.29    6.86
  -5  -1   7  164.17    6.52
  -5   1   7  169.13    6.87
   5   1  -7  187.38    8.96
   5  -1  -7  188.80    8.86
  -5   1   7  169.42    6.34
  -5  -1   7  163.47    5.65
  -5  -1   7  162.33    6.30
  -5   1   7  162.52    6.73
  -5  -1   7  155.97    6.20
  -5   1   6  130.83    5.79
  -5   1   6  117.04    5.68
  -5  -1   6  115.20    5.58
  -5  -1   6  116.74    5.67
  -5   1   6  112.20    5.03
  -5  -1   6  114.84    4.72
  -5   1   6  123.05    5.87
  -5  -1   6  113.50    5.24
  -5  -1   6  117.68    6.09
  -5   1   6  114.23    5.55
   5   1  -6  130.59    7.26
   5  -1  -6  129.09    6.97
  -5  -1   6  122.56    4.62
  -5  -1   6  126.28    5.31
  -5  -1   6  110.21    5.20
  -5   1   6  115.08    5.41
  -5  -1   6  116.16    5.11
  -5   1   5  396.50   10.08
  -5  -1   5  389.25    9.84
  -5   1   5  446.85   10.77
  -5  -1   5  373.18    9.97
  -5   1   5  391.70    9.01
  -5  -1   5  398.47    8.47
  -5   1   5  374.11   10.04
  -5  -1   5  396.99    9.44
  -5   1   5  409.29   10.29
  -5  -1   5  391.79   11.11
   5   1  -5  441.24   13.04
   5  -1  -5  445.69   12.82
  -5  -1   5  388.04    8.97
  -5  -1   5  379.70    9.31
  -5   1   5  400.23    9.70
  -5  -1   5  400.39    9.10
  -5   1   5  397.11   11.12
  -5  -1   4  588.01   11.64
  -5   1   4  727.52   13.68
  -5  -1   4  551.62   12.27
  -5   1   4  644.26   14.34
  -5   1   4  618.86   12.61
  -5  -1   4  625.73   11.51
  -5   1   4  592.58   12.12
  -5   1   4  593.53   13.77
   5   1  -4  693.18   16.56
   5  -1  -4  710.26   16.03
  -5  -1   4  593.38   11.25
  -5  -1   4  611.04   10.80
  -5  -1   4  613.25   14.02
   5  -1  -3  666.57   15.18
  -5  -1   3  632.82   13.71
  -5  -1   3  633.67   14.51
   5   1  -3  649.50   15.59
  -5  -1   2   84.05    5.25
  -5  -1   2   87.01    5.18
   5   1  -2   83.93    5.57
   5  -1  -2   86.02    5.40
  -5  -1   1 1262.59   21.45
   5   1  -1 1256.01   23.15
   5  -1  -1 1229.88   22.01
  -5  -1   0  500.55   13.39
  -5  -1   0  495.81   10.84
   5   1   0  497.93   14.94
   5  -1   0  492.55   14.14
  -5   1  -1  263.13    6.99
  -5  -1  -1  260.36    6.37
  -5  -1  -1  236.93    7.85
  -5  -1  -1  228.47    5.91
  -5   1  -1  245.56    6.87
  -5  -1  -1  251.79    6.38
   5   1   1  231.91   10.45
   5  -1   1  225.61    9.99
  -5  -1  -2  376.58    7.90
  -5   1  -2  386.86    8.64
  -5  -1  -2  390.00    7.94
  -5  -1  -2  348.19   10.27
  -5  -1  -2  338.47    7.24
  -5   1  -2  344.88    8.27
  -5  -1  -2  348.58    7.73
   5   1   2  362.17   13.94
   5  -1   2  342.49   12.89
   5  -1   3  105.49    7.37
  -5  -1  -3  119.63    4.44
  -5   1  -3  125.80    4.95
  -5  -1  -3  108.56    6.01
  -5  -1  -3  110.61    4.05
  -5   1  -3  107.98    4.47
  -5  -1  -3  118.39    4.50
   5   1   3  112.00    7.97
   5   1   4  239.36   12.01
   5  -1   4  232.68   11.49
  -5  -1  -4  245.80    6.47
  -5   1  -4  261.25    7.26
  -5  -1  -4  212.61    8.99
  -5   1  -4  232.42    6.63
  -5  -1  -4  231.22    6.43
  -5  -1  -5  182.38    5.56
  -5   1  -5  168.49    5.88
  -5   1  -5  167.70    5.50
  -5  -1  -5  171.55    5.55
  -5  -1  -5  165.66    5.60
  -5   1  -6  198.55    6.31
  -5  -1  -6  195.63    6.06
  -5   1  -6  197.91    5.85
  -5  -1  -6  201.75    5.97
  -5   1  -7   26.01    2.27
  -5  -1  -7   25.85    2.07
  -5   1  -8   23.53    2.01
  -5  -1  -8   21.27    1.90
  -5  -1  -8   19.15    1.66
  -5   1  -9   16.18    1.50
  -5  -1  -9   19.72    1.67
  -5  -1  -9   19.15    1.42
  -5   1 -10   63.67    2.44
  -5  -1 -10   69.25    2.64
  -5   2  13   11.80    1.28
  -5  -2  13   11.60    1.16
  -5   2  13   13.81    1.38
  -5   2  13   11.93    1.07
  -5  -2  13   11.66    1.26
  -5   2  13   11.93    1.32
   5   2 -13   10.76    1.00
  -5  -2  12   70.13    3.60
  -5  -2  12   70.13    3.42
  -5   2  12   67.77    3.60
  -5  -2  12   63.75    3.25
  -5   2  12   76.39    3.79
  -5   2  12   70.60    3.19
  -5  -2  12   74.95    3.67
  -5  -2  12   70.78    3.03
  -5   2  12   69.25    3.71
   5   2 -12   66.86    2.96
  -5   2  11   47.52    3.46
  -5  -2  11   44.59    3.31
  -5   2  11   49.28    3.50
  -5   2  11   48.91    3.44
  -5  -2  11   44.19    2.96
  -5   2  11   56.44    3.63
  -5   2  11   47.81    3.02
  -5  -2  11   50.18    3.38
  -5  -2  11   47.96    2.85
   5  -2 -11   44.79    2.70
  -5  -2  11   47.21    3.21
   5   2 -11   44.92    2.74
  -5   2  10  191.03    7.48
  -5  -2  10  207.93    7.73
  -5  -2  10  184.32    5.34
  -5   2  10  197.60    7.29
  -5  -2  10  203.66    6.71
  -5   2  10  196.95    7.45
  -5   2  10  194.70    6.54
  -5  -2  10  196.71    7.06
  -5  -2  10  188.61    6.25
  -5  -2  10  192.86    6.20
  -5   2  10  183.17    7.28
  -5  -2  10  201.36    7.04
   5   2 -10  196.50    6.10
  -5   2   9   95.15    5.44
  -5  -2   9   88.03    3.70
  -5   2   9   92.03    5.16
  -5  -2   9   96.09    4.67
  -5  -2   9   99.49    5.49
  -5   2   9   92.99    5.39
  -5   2   9   94.59    4.67
  -5  -2   9   92.46    4.93
  -5  -2   9   91.05    4.38
  -5   2   9   87.63    5.15
  -5  -2   9   98.81    5.01
   5   2  -9  102.43    4.46
  -5   2   8   48.59    3.92
  -5  -2   8   49.74    3.89
  -5  -2   8   48.32    3.19
  -5  -2   8   45.36    2.63
  -5   2   8   49.13    3.81
  -5  -2   8   52.27    3.37
  -5   2   8   49.65    4.04
  -5  -2   8   49.12    3.49
  -5  -2   8   47.98    3.53
  -5   2   8   53.35    4.05
  -5  -2   8   48.78    3.50
  -5   2   7  924.34   17.42
  -5  -2   7  965.65   17.40
  -5   2   7 1011.83   17.20
  -5  -2   7  942.33   17.59
  -5  -2   7  953.62   12.58
  -5  -2   7  932.91   18.66
  -5   2   7  950.11   16.73
  -5  -2   7  947.77   14.64
  -5   2   7  956.95   18.18
  -5  -2   7  971.23   16.07
  -5   2   7  956.51   17.62
  -5  -2   7  953.71   14.49
   5   2  -7 1012.53   21.28
  -5  -2   7  917.75   15.78
  -5  -2   7  932.31   16.25
  -5   2   7  922.55   16.99
  -5  -2   7  958.17   15.80
  -5   2   6 1121.66   18.81
  -5  -2   6 1187.98   18.86
  -5   2   6 1290.59   20.24
  -5  -2   6 1215.82   19.99
  -5   2   6 1112.01   17.47
  -5  -2   6 1184.64   20.85
  -5  -2   6 1208.83   16.10
  -5   2   6 1133.29   19.64
  -5  -2   6 1172.70   17.41
  -5   2   6 1173.67   19.66
   5   2  -6 1261.32   23.44
   5  -2  -6 1372.36   22.92
  -5  -2   6 1150.15   17.32
  -5  -2   6 1236.36   18.25
  -5   2   6 1152.03   18.55
  -5  -2   6 1148.74   16.90
  -5   2   5  166.56    6.62
  -5  -2   5  181.29    6.67
  -5   2   5  192.29    7.37
  -5  -2   5  170.63    7.00
  -5   2   5  162.64    5.95
  -5  -2   5  178.30    5.44
  -5   2   5  165.44    6.96
  -5  -2   5  172.82    6.02
  -5   2   5  179.06    7.08
  -5  -2   5  168.44    7.36
   5   2  -5  177.77    8.44
   5  -2  -5  194.01    8.07
  -5  -2   5  178.71    6.24
  -5   2   5  166.03    6.34
  -5  -2   5  168.43    5.73
  -5  -2   4   35.61    2.82
  -5   2   4   41.56    3.40
  -5  -2   4   35.31    3.14
  -5  -2   4   40.90    2.57
  -5   2   4   40.59    3.03
  -5  -2   4   41.01    2.46
  -5   2   4   34.71    3.09
  -5  -2   4   38.56    2.68
  -5   2   4   37.65    3.17
   5   2  -4   38.21    3.86
   5  -2  -4   37.60    3.39
  -5  -2   4   38.85    3.54
  -5  -2   4   38.18    2.76
  -5  -2   4   46.60    2.82
  -5  -2   3  136.54    6.70
  -5  -2   3  138.41    5.30
  -5  -2   3  121.57    5.75
  -5  -2   3  134.22    4.55
  -5   2   3  134.64    5.42
  -5  -2   3  123.62    4.11
  -5   2   3  128.31    5.64
  -5  -2   3  144.17    5.03
  -5   2   3  141.27    5.95
   5   2  -3  132.76    7.12
   5  -2  -3  132.31    6.30
  -5  -2   3  133.23    4.95
  -5  -2   3  129.21    4.54
  -5  -2   2  446.45    9.07
  -5   2   2  483.21   11.17
  -5  -2   2  475.39    9.74
  -5  -2   2  459.18   11.77
  -5  -2   2  478.40    8.68
  -5   2   2  489.01   10.41
  -5  -2   2  498.05   10.86
  -5  -2   2  476.50    9.14
  -5   2   2  460.89   10.70
  -5  -2   2  496.66   13.19
   5   2  -2  469.21   13.80
   5  -2  -2  469.57   12.35
   5  -2  -1   70.98    4.88
  -5  -2   1   76.99    5.19
  -5   2   1   77.35    4.34
  -5  -2   1   75.51    3.69
  -5  -2   1   78.50    5.07
  -5  -2   1   75.74    3.27
  -5   2   1   78.13    4.04
  -5  -2   1   76.81    4.32
  -5  -2   1   88.94    3.71
  -5   2   1   74.87    4.18
   5   2  -1   72.95    5.54
  -5   2   0  415.76   10.03
  -5  -2   0  445.95    9.20
  -5  -2   0  477.56   13.17
  -5  -2   0  424.35    7.96
  -5  -2   0  486.25    8.74
  -5   2   0  497.47   10.49
  -5  -2   0  445.16   11.09
  -5  -2   0  431.71    8.42
   5   2   0  436.69   14.38
  -5   2   0  432.97   10.07
  -5  -2   0  463.91    8.64
   5  -2   0  414.81   12.41
  -5   2  -1   76.64    4.15
  -5  -2  -1   85.63    3.41
  -5  -2  -1  103.01    4.01
  -5  -2  -1   94.18    5.96
  -5   2  -1   95.59    4.50
  -5  -2  -1   88.02    5.05
  -5  -2  -1   87.49    3.68
  -5   2  -1   86.94    4.30
  -5  -2  -1   93.13    3.81
   5   2   1   81.14    6.40
   5  -2   1   77.27    5.52
   5  -2   2   60.08    5.05
  -5   2  -2   61.68    3.61
  -5  -2  -2   72.97    3.12
  -5  -2  -2   83.01    3.65
  -5   2  -2   79.59    4.15
  -5  -2  -2   69.71    4.76
  -5  -2  -2   70.62    3.31
  -5   2  -2   68.72    3.81
  -5  -2  -2   75.54    3.47
   5   2   2   69.21    6.18
   5  -2   3   28.60    3.65
  -5  -2  -3   36.48    2.18
  -5  -2  -3   37.19    2.55
  -5   2  -3   34.94    2.76
  -5  -2  -3   32.88    3.47
  -5  -2  -3   37.58    2.43
  -5   2  -3   31.17    2.52
  -5  -2  -3   33.39    2.35
  -5  -2  -3   32.24    2.39
   5   2   3   30.43    4.27
  -5  -2  -4   67.88    3.50
  -5  -2  -4   77.97    3.75
  -5   2  -4   68.07    3.89
  -5  -2  -4   66.69    5.12
  -5  -2  -4   68.09    3.24
  -5   2  -4   64.51    3.55
  -5  -2  -4   64.99    3.34
  -5  -2  -5   80.12    3.72
  -5   2  -5   81.03    4.24
  -5  -2  -5   77.56    3.39
  -5  -2  -5   74.98    3.65
  -5  -2  -5   80.59    3.87
  -5  -2  -6   37.28    2.46
  -5   2  -6   34.26    2.72
   5   2   6   41.93    2.50
  -5  -2  -6   36.28    2.52
  -5  -2  -6   34.48    2.54
  -5   2  -7   25.20    2.21
   5   2   7   28.70    2.00
  -5  -2  -7   26.81    2.17
  -5  -2  -7   27.23    2.12
  -5   2  -8   14.99    1.57
   5   2   8   18.75    1.50
  -5  -2  -8   16.93    1.55
  -5   2  -9   12.58    1.28
  -5  -2  -9   12.66    1.28
  -5  -2  -9   11.47    1.13
  -5  -2 -10   13.15    1.12
  -5   3  13   35.25    1.98
  -5   3  13   41.36    2.11
  -5  -3  13   36.52    1.94
  -5   3  13   39.74    2.14
  -5  -3  12   41.69    2.33
  -5  -3  12   44.16    2.32
  -5  -3  12   41.26    2.30
  -5   3  12   42.84    2.72
  -5   3  12   43.56    2.69
  -5  -3  12   40.35    2.35
  -5  -3  12   43.18    2.61
   5  -3 -12   38.95    2.07
  -5   3  12   40.35    2.67
   5   3 -12   38.84    2.05
  -5  -3  11   28.48    2.38
  -5  -3  11   32.08    2.01
  -5   3  11   31.65    2.71
  -5   3  11   32.83    2.69
  -5  -3  11   28.83    2.26
  -5  -3  11   32.87    2.62
  -5  -3  11   31.28    2.27
   5  -3 -11   27.95    2.17
  -5   3  11   31.63    2.70
  -5  -3  11   30.22    2.39
   5   3 -11   34.21    2.24
  -5   3  10   31.26    2.87
  -5  -3  10   29.31    2.70
  -5  -3  10   31.07    2.11
  -5   3  10   33.19    2.96
  -5   3  10   36.44    3.02
  -5  -3  10   31.94    2.54
  -5   3  10   33.02    3.08
  -5  -3  10   32.91    2.03
  -5  -3  10   32.60    2.81
  -5  -3  10   33.99    2.62
  -5   3  10   33.25    3.03
  -5  -3  10   31.89    2.69
   5   3 -10   34.38    2.45
  -5  -3  10   34.87    2.63
  -5   3   9   81.54    4.87
  -5  -3   9   90.17    5.02
  -5  -3   9   81.58    3.50
  -5   3   9   82.69    4.85
  -5   3   9   93.89    4.99
  -5  -3   9   87.77    4.26
  -5   3   9   85.49    5.19
  -5  -3   9   83.53    4.67
  -5  -3   9   86.25    4.23
  -5   3   9   81.31    4.87
  -5  -3   9   87.06    4.57
   5   3  -9   89.47    4.11
  -5   3   8  106.44    5.60
  -5  -3   8  103.21    5.50
  -5  -3   8  102.73    3.91
  -5   3   8  104.02    5.46
  -5   3   8  109.26    5.40
  -5  -3   8  103.10    4.60
  -5   3   8  103.61    5.86
  -5  -3   8   99.95    4.56
  -5  -3   8  102.73    5.19
  -5   3   8   99.78    5.50
  -5  -3   8  110.00    5.13
  -5   3   7  281.21    9.10
  -5  -3   7  292.93    9.27
  -5   3   7  314.49    9.72
  -5  -3   7  279.75    7.52
  -5  -3   7  259.28    6.19
  -5   3   7  263.76    8.53
  -5   3   7  288.22    8.63
  -5  -3   7  283.98    7.52
  -5   3   7  271.89    9.65
  -5  -3   7  268.11    8.26
  -5  -3   7  278.74    8.54
  -5   3   7  280.36    9.08
  -5  -3   7  284.83    8.12
  -5  -3   6  155.39    6.52
  -5   3   6  163.10    7.22
  -5  -3   6  158.43    7.10
  -5  -3   6  154.35    6.14
  -5  -3   6  155.79    7.42
  -5   3   6  150.94    6.14
  -5   3   6  148.02    5.91
  -5  -3   6  144.98    5.16
  -5   3   6  146.61    7.07
  -5  -3   6  163.03    5.97
  -5   3   6  157.35    7.14
   5   3  -6  164.71    8.43
  -5  -3   6  154.07    6.04
  -5   3   6  159.69    6.53
  -5  -3   6  155.98    5.82
  -5  -3   5   15.91    2.02
  -5   3   5    9.45    1.89
  -5  -3   5    8.86    1.24
  -5  -3   5    9.89    1.83
  -5   3   5    8.86    1.48
  -5  -3   5   10.40    1.34
   5   3  -5   10.01    2.08
  -5  -3   5    9.65    1.89
  -5  -3   5   10.35    1.48
  -5   3   5   11.31    1.94
  -5   3   5   12.56    2.05
  -5  -3   5   11.42    1.66
  -5  -3   5    9.99    1.45
  -5   3   4   35.60    3.37
  -5  -3   4   49.65    3.40
  -5  -3   4   34.90    3.29
  -5  -3   4   35.64    2.41
  -5   3   4   32.70    2.88
  -5  -3   4   32.52    3.04
  -5   3   4   30.26    2.45
  -5   3   4   32.03    3.13
  -5  -3   4   36.25    2.61
  -5   3   4   31.32    3.11
  -5  -3   4   36.58    3.49
   5   3  -4   33.36    3.69
  -5  -3   4   35.26    2.72
  -5  -3   4   36.04    2.55
  -5  -3   3  343.06   10.95
  -5   3   3  329.12   10.02
  -5  -3   3  324.74    8.47
  -5  -3   3  327.34    9.96
  -5  -3   3  322.59    7.21
  -5   3   3  321.57    9.09
  -5  -3   3  327.57    9.52
  -5   3   3  298.14    9.24
  -5  -3   3  328.05    7.68
  -5   3   3  301.27    9.46
   5   3  -3  321.09   11.48
  -5  -3   3  327.67    8.07
  -5   3   2  415.74   11.14
  -5  -3   2  444.09    9.73
  -5  -3   2  429.06   11.25
  -5  -3   2  437.20    8.35
  -5   3   2  460.62   10.82
  -5  -3   2  450.28   11.26
  -5   3   2  397.47   10.25
  -5  -3   2  430.03    8.68
  -5  -3   2  449.88   12.64
  -5   3   2  409.25   10.90
   5   3  -2  435.70   13.74
  -5  -3   1    3.89    1.22
  -5   3   1    6.08    1.36
  -5  -3   1    5.15    1.08
  -5  -3   1    6.44    1.06
  -5  -3   1    5.34    1.42
  -5  -3   1    5.10    0.93
  -5   3   1    4.53    1.13
   5   3  -1    3.61    1.35
  -5  -3   1    5.61    1.03
  -5   3   1    4.15    1.13
  -5  -3   1    5.51    0.97
  -5   3   0   41.61    3.35
  -5  -3   0   50.20    3.18
  -5  -3   0   53.03    4.46
  -5  -3   0   50.25    2.76
  -5   3   0   50.40    3.54
  -5  -3   0   42.94    3.64
  -5  -3   0   44.54    2.70
  -5   3   0   44.70    3.40
  -5  -3   0   48.54    2.73
   5   3   0   45.41    4.72
  -5   3  -1  231.49    7.73
  -5  -3  -1  266.64   10.16
  -5   3  -1  265.44    8.18
  -5  -3  -1  244.78    9.07
  -5  -3  -1  251.62    6.46
  -5   3  -1  240.66    7.79
  -5  -3  -1  263.66    6.49
   5   3   1  238.63   11.34
  -5   3  -2 1176.74   18.31
  -5   3  -2 1387.51   19.94
   5   3   2 1401.10   16.04
  -5  -3  -2 1310.09   22.85
  -5  -3  -2 1336.38   16.39
  -5   3  -2 1257.39   18.52
  -5  -3  -2 1434.72   16.82
   5   3   2 1264.75   27.57
   5   3   3  555.51   18.39
  -5   3  -3  592.05   12.45
   5   3   3  620.89   10.18
  -5  -3  -3  566.37   15.10
  -5  -3  -3  594.57   10.31
  -5  -3  -3  608.91   10.61
  -5  -3  -3  592.10   10.67
  -5   3  -4  138.89    5.84
   5   3   4  142.46    4.76
  -5  -3  -4  142.73    4.98
  -5  -3  -4  144.59    5.16
  -5   3  -5  181.14    6.48
   5   3   5  194.84    5.61
  -5  -3  -5  195.80    5.55
  -5  -3  -5  193.19    5.84
  -5  -3  -5  188.56    5.87
  -5  -3  -6   43.62    2.66
  -5   3  -6   40.01    2.94
   5   3   6   41.80    2.52
  -5  -3  -6   39.64    2.39
  -5  -3  -6   41.58    2.65
  -5  -3  -6   42.55    2.76
  -5  -3  -7    2.77    0.71
  -5   3  -7    4.89    1.03
  -5  -3  -7    3.58    0.72
   5   3   7    3.26    0.75
  -5  -3  -7    2.90    0.82
  -5  -3  -7    2.42    0.79
  -5   3  -8   13.01    1.42
   5   3   8   12.05    1.19
  -5  -3  -8   14.08    1.38
  -5   3  -9   17.57    1.29
  -5  -3  -9   19.81    1.47
   5   3   9   17.23    1.17
  -5  -3  -9   20.11    1.41
  -5  -3 -10   12.19    0.94
  -5   4  12   20.71    1.70
  -5   4  12   22.40    1.76
  -5  -4  12   18.36    1.32
  -5  -4  12   20.49    1.61
  -5  -4  12   20.82    1.48
  -5   4  12   23.48    1.81
   5  -4 -12   19.36    1.38
   5   4 -12   18.28    1.15
  -5  -4  11   18.77    1.45
  -5   4  11   21.19    2.05
  -5   4  11   19.90    2.01
  -5  -4  11   17.23    1.60
  -5  -4  11   18.29    1.29
  -5  -4  11   20.18    1.90
  -5  -4  11   18.80    1.71
  -5   4  11   20.54    2.01
   5  -4 -11   16.41    1.61
  -5  -4  11   19.35    1.65
   5   4 -11   19.65    1.47
  -5  -4  10   36.10    2.16
  -5   4  10   36.50    2.92
  -5   4  10   39.25    3.06
  -5  -4  10   31.75    2.35
  -5  -4  10   34.70    2.02
  -5  -4  10   33.66    2.71
  -5  -4  10   38.38    2.63
  -5  -4  10   37.43    2.62
  -5   4  10   35.69    2.90
  -5  -4  10   35.05    2.57
   5   4 -10   34.73    2.21
  -5   4   9  109.66    5.09
  -5  -4   9  102.34    4.87
  -5  -4   9  100.89    3.77
  -5   4   9   99.75    5.12
  -5   4   9  102.76    5.13
  -5   4   9  101.06    5.06
  -5  -4   9  100.51    4.35
  -5   4   9  100.27    5.49
  -5  -4   9  108.64    5.11
  -5  -4   9   99.53    4.43
  -5  -4   9  101.77    4.66
  -5  -4   8   34.56    2.66
  -5  -4   8   26.40    2.63
  -5  -4   8   24.43    1.90
  -5   4   8   22.71    2.49
  -5   4   8   25.86    2.68
  -5  -4   8   24.11    2.20
  -5   4   8   24.93    2.90
  -5  -4   8   28.54    2.71
  -5   4   8   23.67    2.53
  -5  -4   8   29.88    2.61
  -5  -4   7  159.45    6.56
  -5   4   7  157.25    6.85
  -5   4   7  145.06    6.16
  -5   4   7  154.06    6.34
  -5  -4   7  156.24    5.43
  -5   4   7  148.32    7.11
  -5  -4   7  162.30    6.34
  -5   4   7  154.60    6.41
  -5  -4   7  156.37    5.91
  -5  -4   6   99.06    5.17
  -5   4   6  104.91    5.90
  -5   4   6   84.13    4.52
  -5   4   6   90.31    4.72
  -5  -4   6   91.95    4.05
  -5   4   6   86.95    5.44
  -5  -4   6   94.30    4.80
  -5  -4   6   98.38    4.57
  -5  -4   5   23.94    2.51
  -5   4   5   19.76    2.69
  -5  -4   5   17.69    1.74
  -5   4   5   16.83    1.98
  -5  -4   5   17.25    1.72
  -5   4   5   18.93    2.53
  -5  -4   5   20.81    2.07
  -5   4   5   18.93    2.56
  -5  -4   5   18.31    2.09
  -5  -4   5   22.05    2.12
  -5  -4   4    3.89    0.92
  -5   4   4    9.01    1.83
  -5  -4   4    6.04    1.29
  -5  -4   4    6.40    1.09
  -5  -4   4    6.27    1.56
  -5   4   4    6.44    1.23
   5   4  -4    4.21    1.40
  -5   4   4    5.27    1.36
  -5  -4   4    6.12    1.09
  -5  -4   4    5.89    1.48
  -5   4   4    4.23    1.26
  -5  -4   4    7.51    1.69
  -5  -4   4    4.89    1.17
  -5   4   3  407.98   11.98
  -5  -4   3  423.98   10.03
  -5  -4   3  428.94   11.80
  -5  -4   3  419.71   12.41
  -5  -4   3  410.22    8.32
  -5   4   3  410.47   11.02
  -5  -4   3  406.44   11.51
  -5   4   3  393.02   10.77
  -5  -4   3  424.03    8.89
  -5   4   3  385.94   11.44
   5   4  -3  384.86   13.28
  -5  -4   3  416.36    9.49
  -5   4   2  172.66    7.62
  -5  -4   2  189.42    6.44
  -5  -4   2  180.84    7.45
  -5  -4   2  181.05    5.38
  -5   4   2  179.35    7.18
  -5  -4   2  172.59    7.43
  -5  -4   2  183.41    5.65
  -5   4   2  171.48    7.31
   5   4  -2  177.30    9.28
  -5  -4   2  188.94    8.34
  -5  -4   1  279.62   10.15
  -5   4   1  270.09    9.37
  -5  -4   1  300.83    8.13
  -5  -4   1  295.68   10.14
  -5   4   1  286.97    9.05
  -5  -4   1  282.82    9.74
  -5  -4   1  289.55    7.08
  -5   4   1  253.90    8.78
   5   4  -1  277.56   11.83
  -5   4   0  365.76   10.58
  -5  -4   0  424.62    9.69
  -5  -4   0  444.98   13.25
  -5  -4   0  472.52    8.92
  -5   4   0  405.77   10.91
  -5  -4   0  396.55   11.86
  -5  -4   0  417.99    8.61
  -5   4   0  373.13   10.48
  -5  -4   0  433.31    8.36
   5   4   0  406.50   14.72
  -5   4  -1  870.59   16.41
  -5  -4  -1 1065.72   20.88
  -5   4  -1  956.52   17.18
  -5  -4  -1  990.15   19.80
  -5  -4  -1  995.74   14.04
  -5   4  -1  966.33   16.90
  -5  -4  -1 1028.23   13.76
   5   4   1  923.85   23.30
  -5   4  -2  366.84   10.24
  -5  -4  -2  380.43    8.04
  -5   4  -3  571.86   12.69
   5   4   3  589.71   10.19
  -5  -4  -3  600.50   10.46
  -5   4  -4  578.33   12.48
   5   4   4  593.45   10.32
  -5  -4  -4  632.10   10.78
  -5  -4  -4  622.62   10.86
  -5  -4  -5   21.41    2.02
  -5   4  -5   15.52    1.99
   5   4   5   16.46    1.63
  -5  -4  -5   19.60    1.83
  -5  -4  -5   18.01    1.79
  -5  -4  -6   29.02    2.19
  -5   4  -6   26.04    2.31
   5   4   6   24.74    1.92
  -5  -4  -6   24.28    1.86
  -5  -4  -6   24.01    1.97
  -5  -4  -6   24.54    2.00
  -5  -4  -7    2.83    0.72
  -5   4  -7    3.13    0.83
  -5  -4  -7    4.03    0.77
   5   4   7    2.66    0.68
  -5  -4  -7    2.56    0.74
   5   4   8   30.50    1.73
  -5  -4  -8   34.28    1.95
  -5  -4  -9   53.84    2.05
  -5  -4  -9   55.00    2.09
  -5  -5  11   45.63    1.97
  -5   5  11   48.36    2.57
  -5   5  11   49.38    2.67
  -5  -5  11   44.04    2.10
  -5  -5  11   42.97    1.74
  -5  -5  11   47.92    2.45
  -5  -5  11   47.69    2.39
   5  -5 -11   41.69    2.27
  -5  -5  10   24.73    1.64
  -5   5  10   25.05    2.13
  -5   5  10   26.29    2.29
  -5  -5  10   23.96    1.83
  -5  -5  10   24.46    1.60
  -5  -5  10   24.74    2.07
  -5  -5  10   26.81    2.03
  -5  -5  10   26.17    2.06
  -5   5  10   26.37    2.17
  -5  -5  10   23.92    1.80
  -5  -5   9   16.60    1.46
  -5  -5   9   16.13    1.87
  -5   5   9   16.40    1.88
  -5   5   9   19.23    2.12
  -5  -5   9   17.63    1.72
  -5  -5   9   17.57    1.81
  -5   5   9   19.32    2.03
  -5  -5   9   16.68    1.71
  -5  -5   8   10.38    1.24
  -5   5   8    9.80    1.51
  -5   5   8   10.24    1.63
  -5  -5   8   10.30    1.39
  -5  -5   8   10.90    1.63
  -5  -5   8   10.89    1.50
  -5   5   8   11.77    1.63
  -5  -5   8   11.84    1.57
  -5   5   7   46.01    3.57
  -5   5   7   40.15    3.04
  -5   5   7   43.49    3.31
  -5  -5   7   49.20    2.94
  -5   5   7   38.98    3.53
  -5  -5   7   51.19    3.52
  -5  -5   7   49.23    3.19
  -5   5   6   96.28    5.62
  -5  -5   6   96.51    4.81
  -5   5   6   89.48    4.70
  -5  -5   6   98.31    4.13
  -5   5   6   88.01    5.36
  -5  -5   6  101.28    4.95
  -5  -5   6  102.58    4.84
  -5  -5   6   98.69    4.50
  -5  -5   5  109.31    5.15
  -5   5   5   96.92    5.83
  -5  -5   5   94.51    3.94
  -5   5   5   93.39    4.71
  -5  -5   5   96.86    4.07
  -5   5   5   95.86    5.47
  -5  -5   5  109.17    4.97
  -5  -5   5  101.44    4.50
  -5   5   4   30.42    3.40
  -5  -5   4   30.30    2.72
  -5  -5   4   32.69    2.32
  -5   5   4   29.58    2.56
  -5   5   4   39.02    3.37
  -5  -5   4   34.85    2.55
  -5  -5   4   29.77    2.62
  -5  -5   4   30.28    2.45
  -5   5   3  136.21    7.08
  -5  -5   3  152.88    5.97
  -5  -5   3  152.33    4.97
  -5   5   3  125.27    5.04
  -5  -5   3  150.27    5.18
  -5   5   3  127.36    6.54
  -5  -5   3  152.12    5.75
  -5   5   2  439.94   12.65
  -5  -5   2  495.37   10.80
  -5  -5   2  476.04    9.05
  -5   5   2  460.46   12.18
  -5  -5   2  507.05    9.61
  -5   5   2  440.40   12.16
   5   5  -1  409.96    9.07
  -5   5   1  389.90   11.65
  -5  -5   1  446.01   10.19
  -5   5   1  405.23   11.46
  -5  -5   1  438.85    8.97
  -5   5   1  403.48   11.29
   5   5   0   41.93    2.97
  -5   5   0   40.02    3.52
  -5  -5   0   43.96    3.15
  -5  -5   0   52.78    2.90
  -5   5   0   38.33    3.45
  -5  -5   0   42.54    2.75
  -5   5   0   45.97    3.59
   5   5   1   37.03    2.95
  -5   5  -1   30.90    2.96
  -5  -5  -1   39.95    3.01
  -5  -5  -1   49.14    2.94
  -5   5  -1   29.68    2.96
  -5  -5  -1   38.02    2.57
  -5  -5  -1   39.44    2.45
   5   5   2  159.81    6.23
  -5   5  -2  133.49    5.76
  -5  -5  -2  191.15    5.87
  -5   5  -2  141.41    6.38
  -5  -5  -2  162.31    5.31
  -5  -5  -2  164.74    5.10
  -5   5  -3   45.01    3.46
  -5  -5  -3   50.16    2.83
  -5  -5  -4   18.86    1.87
  -5   5  -4   13.50    1.86
  -5  -5  -4   16.04    1.60
  -5   5  -5  203.81    6.46
  -5  -5  -5  222.60    5.73
  -5  -5  -5  204.29    5.55
  -5   5  -6   70.40    3.33
  -5  -5  -6   72.37    3.00
  -5  -5  -6   76.10    3.17
   5   5   7  109.49    4.41
  -5  -5  -7  105.65    3.40
  -5  -5  -7   94.18    3.02
  -5  -5  -7   95.80    3.27
  -5  -5  -8   88.99    2.51
  -5  -5  -8   94.45    2.84
  -5  -6  10    7.03    0.78
  -5   6  10    6.60    0.97
  -5  -6  10    5.71    0.73
  -5  -6  10    7.07    0.75
  -5  -6  10    6.54    0.87
  -5  -6  10    6.61    0.91
  -5  -6  10    7.81    1.00
  -5  -6   9   13.14    1.18
  -5   6   9   12.67    1.52
  -5   6   9   12.67    1.40
  -5  -6   9   11.82    1.25
  -5  -6   9   12.96    1.45
  -5  -6   9   12.96    1.36
  -5  -6   8    7.12    0.98
  -5   6   8    5.97    1.20
  -5   6   8    5.72    1.03
  -5  -6   8    6.20    1.00
  -5  -6   8    6.42    1.10
  -5  -6   8    6.31    1.21
  -5  -6   8    6.95    1.06
  -5   6   7   20.19    2.15
  -5   6   7   22.62    2.20
  -5  -6   7   22.66    1.88
  -5  -6   7   22.40    2.18
  -5  -6   7   22.72    1.99
  -5   6   6   17.84    2.25
  -5   6   6   19.94    2.12
  -5  -6   6   20.94    1.84
  -5  -6   6   20.68    2.18
  -5  -6   6   20.50    1.97
  -5  -6   6   19.73    1.94
  -5   6   5   55.80    4.24
  -5  -6   5   58.24    2.90
  -5   6   5   47.29    3.15
  -5  -6   5   55.60    3.01
  -5  -6   5   59.86    3.45
  -5  -6   5   60.17    3.35
  -5   6   4  217.84    8.72
  -5  -6   4  235.02    6.05
  -5  -6   4  232.59    6.96
  -5  -6   4  227.18    6.52
  -5   6   3  101.26    5.93
  -5  -6   3  112.07    4.87
  -5  -6   3  110.40    4.16
  -5   6   3   91.86    4.16
  -5  -6   3  120.96    4.49
  -5  -6   3  111.17    4.80
   5   6  -2   59.24    3.19
  -5   6   2   54.47    4.31
  -5  -6   2   61.42    3.59
  -5  -6   2   61.20    3.13
  -5  -6   2   64.81    3.27
  -5  -6   2   66.99    3.73
   5   6  -1   69.25    3.62
  -5   6   1   66.49    4.63
  -5  -6   1   69.21    3.34
  -5  -6   1   77.14    3.61
   5   6   0   65.20    3.67
  -5   6   0   66.30    4.44
  -5  -6   0   73.20    3.90
  -5  -6   0   74.08    3.52
   5   6   1   27.47    2.48
  -5   6  -1   22.58    2.45
  -5  -6  -1   29.61    2.50
  -5  -6  -1   31.89    2.23
  -5   6  -1   22.40    2.54
  -5  -6  -1   28.02    2.16
   5   6   2   43.16    3.13
  -5   6  -2   39.49    2.93
  -5  -6  -2   45.29    3.01
  -5  -6  -2   50.55    2.77
  -5   6  -2   39.31    3.23
  -5  -6  -2   48.77    2.81
  -5  -6  -2   46.26    2.49
   5   6   3   47.52    3.29
  -5  -6  -3   47.50    2.99
  -5  -6  -3   55.75    2.95
  -5   6  -3   42.41    3.12
  -5  -6  -3   47.34    2.68
  -5  -6  -3   50.05    2.59
   5   6   4   82.56    4.26
  -5   6  -4   77.42    3.82
  -5  -6  -4   88.85    3.51
  -5  -6  -4   82.72    3.24
   5   6   5   55.50    3.31
  -5  -6  -5   56.04    2.68
  -5  -6  -5   52.72    2.52
  -5  -6  -5   48.89    2.38
   5   6   6  101.58    4.10
  -5  -6  -6   89.96    2.53
  -5  -6  -6   99.49    3.20
  -5  -6  -6   97.73    3.10
  -5  -6  -6   92.75    3.04
   5   6   7    4.50    0.81
  -5  -6  -7    3.99    0.66
  -5  -6  -7    4.27    0.62
  -5  -6  -7    4.11    0.58
  -5  -6  -7    4.92    0.68
  -5  -7   9   54.43    1.89
  -5   7   9   52.56    2.30
  -5  -7   9   53.90    1.90
  -5  -7   9   53.50    2.15
  -5  -7   9   52.53    2.20
  -5   7   8   60.26    2.79
  -5  -7   8   60.48    2.46
  -5  -7   8   57.26    2.55
  -5  -7   8   64.86    2.73
  -5   7   7    9.38    1.23
  -5  -7   7   10.61    1.26
  -5   7   7   10.79    1.33
  -5  -7   7    9.92    1.13
  -5  -7   7    9.81    1.24
  -5  -7   7    9.86    1.08
  -5   7   6   36.97    2.79
  -5   7   6   37.26    2.45
  -5  -7   6   41.69    2.31
  -5  -7   6   41.32    2.62
  -5  -7   6   38.52    2.31
  -5   7   5   12.62    1.81
  -5   7   5   11.44    1.41
  -5  -7   5   15.25    1.50
  -5  -7   5   14.04    1.65
  -5  -7   5   14.38    1.53
  -5   7   4   60.48    4.06
  -5  -7   4   63.10    2.79
  -5   7   4   57.92    3.04
  -5  -7   4   64.76    3.17
  -5  -7   4   63.03    3.15
  -5   7   3   22.68    2.60
  -5  -7   3   25.74    1.87
  -5   7   3   22.96    1.87
  -5  -7   3   26.21    2.09
  -5  -7   3   26.80    2.10
   5   7  -2  103.39    3.88
  -5   7   2  109.44    5.56
  -5  -7   2  113.08    3.95
  -5  -7   2  109.25    4.35
   5   7  -1   29.99    2.23
  -5   7   1   29.72    2.84
  -5  -7   1   31.15    2.12
  -5  -7   1   33.73    2.19
  -5  -7   1   31.22    2.34
   5   7   0   41.27    2.72
  -5   7   0   44.43    3.26
  -5  -7   0   49.23    2.76
  -5  -7   0   46.69    2.55
  -5  -7   0   51.71    2.70
   5   7   1   42.62    2.81
  -5   7  -1   39.20    2.83
  -5  -7  -1   39.08    2.44
  -5  -7  -1   44.90    2.24
  -5  -7  -1   40.21    2.36
   5   7   2   26.70    2.23
  -5   7  -2   22.38    1.90
  -5  -7  -2   25.62    1.94
  -5  -7  -2   29.68    1.85
  -5  -7  -2   26.07    1.88
   5   7   3   20.63    1.94
  -5  -7  -3   17.66    1.55
  -5  -7  -3   22.63    1.59
  -5  -7  -3   20.66    1.61
   5   7   4   90.07    3.81
  -5  -7  -4   82.10    3.08
  -5  -7  -4   80.80    2.75
  -5  -7  -4   90.82    3.00
  -5  -7  -4   84.26    3.00
   5   7   5   13.63    1.40
  -5  -7  -5   11.45    1.06
  -5  -7  -5   11.98    0.93
  -5  -7  -5   13.36    1.07
  -5  -7  -5   13.02    1.09
  -5  -7  -5   12.10    0.91
   5   7   6   28.12    1.67
  -5  -7  -6   26.76    1.30
  -5  -8   7   17.35    1.15
  -5   8   6   12.42    1.08
  -5  -8   6   12.54    1.05
  -5  -8   6   12.11    1.11
  -5   8   5   18.27    1.36
  -5  -8   5   21.56    1.45
  -5  -8   5   20.18    1.47
  -5  -8   5   21.19    1.37
  -5   8   4    8.94    1.35
  -5   8   4    8.56    0.94
  -5  -8   4    9.24    1.03
  -5  -8   4    8.20    1.02
  -5  -8   4    8.84    0.99
  -5   8   3   31.20    2.49
  -5  -8   3   34.14    1.73
  -5   8   3   29.25    1.61
  -5  -8   3   33.18    1.97
   5   8  -2   38.95    1.95
  -5   8   2   39.26    2.81
  -5  -8   2   44.12    2.10
  -5  -8   2   41.56    2.21
   5   8  -1   14.20    1.31
  -5   8   1   13.62    1.61
  -5  -8   1   16.50    1.34
  -5  -8   1   14.58    1.26
  -5  -8   1   16.72    1.42
   5   8   0   11.57    1.21
  -5   8   0   11.92    1.41
  -5  -8   0   11.78    1.13
  -5  -8   0   11.35    1.03
  -5  -8   0   11.77    1.16
  -5  -8  -1    2.77    0.60
  -5  -8  -1    2.68    0.55
  -5  -8  -1    2.25    0.58
   5   8   2    0.46    0.41
  -5  -8  -2    0.33    0.35
  -5  -8  -2    0.36    0.30
  -5  -8  -2    0.64    0.39
   5   8   3    1.78    0.53
  -5  -8  -3    2.59    0.52
  -5  -8  -3    2.17    0.46
  -5  -8  -3    1.96    0.45
   5   8   4   22.56    1.41
  -6   0  13   11.30    1.04
  -6   0  13   13.25    1.07
  -6   0  13   11.55    1.04
  -6   0  12   10.83    1.37
  -6   0  12   11.01    1.30
  -6   0  12   11.83    1.23
  -6   0  12   11.08    1.34
   6   0 -12   11.30    1.04
  -6   0  11    5.44    1.13
  -6   0  11    6.33    1.28
  -6   0  11    5.79    1.13
  -6   0  11    5.84    1.07
  -6   0  11    5.90    1.03
  -6   0  10   46.43    3.47
  -6   0  10   45.42    3.14
  -6   0  10   43.87    3.14
  -6   0  10   45.57    2.98
  -6   0  10   45.28    3.22
  -6   0   9    1.03    0.80
  -6   0   9    2.71    1.03
  -6   0   9   -0.14    0.80
  -6   0   9    0.11    0.68
  -6   0   9    0.28    0.57
  -6   0   8   15.91    2.24
  -6   0   8   17.26    2.06
  -6   0   8   16.60    2.20
  -6   0   8   15.74    1.92
  -6   0   8   14.95    2.00
  -6   0   7   42.48    3.54
  -6   0   7   48.37    3.45
  -6   0   7   37.57    2.93
  -6   0   7   38.52    3.38
  -6   0   7   41.34    3.30
  -6   0   7   45.34    3.17
  -6   0   7   40.11    3.22
  -6   0   6  568.62   13.09
  -6   0   6  561.78   11.21
  -6   0   6  611.12   13.45
  -6   0   6  627.18   13.21
  -6   0   6  601.32   12.46
  -6   0   5    7.42    1.37
   6   0  -5   10.95    2.38
  -6   0   5    7.25    1.26
  -6   0   5    8.31    1.52
  -6   0   5    8.22    1.56
  -6   0   5    6.60    1.42
  -6   0   5    7.02    1.65
  -6   0   4  122.95    5.54
  -6   0   4  128.46    7.11
  -6   0   4  126.77    5.71
  -6   0   4  125.72    5.60
   6   0  -4  141.67    8.06
  -6   0   4  120.31    5.26
  -6   0   4  129.49    5.16
  -6   0   3   46.41    3.28
  -6   0   3   46.45    3.30
  -6   0   3   50.94    3.47
   6   0  -3   53.47    4.98
  -6   0   3   48.27    3.20
  -6   0   3   58.01    3.28
  -6   0   2    1.63    0.77
   6   0  -2    1.06    0.88
  -6   0   2    2.29    0.83
  -6   0   2    3.17    0.93
  -6   0   2    2.17    0.69
   6   0  -1  177.61    9.60
  -6   0   1  159.53    5.72
  -6   0   1  180.04    5.86
  -6   0   1  173.79    6.07
  -6   0   1  177.05    6.22
  -6   0   0  205.05    6.33
  -6   0   0  228.02    6.64
  -6   0   0  221.66    6.69
  -6   0   0  225.80    7.04
   6   0   0  227.93   11.17
  -6   0  -1   15.46    1.72
  -6   0  -1   15.76    1.79
   6   0   1   15.00    3.01
  -6   0  -1   16.12    1.77
  -6   0  -1   15.24    1.79
  -6   0  -2    0.57    0.54
  -6   0  -2    0.28    0.42
  -6   0  -2    0.57    0.48
  -6   0  -2    0.71    0.49
  -6   0  -2    0.79    0.54
  -6   0  -3  112.22    4.73
  -6   0  -3  103.48    4.61
  -6   0  -4    1.38    0.76
  -6   0  -4    0.16    0.58
  -6   0  -5   99.92    4.39
  -6   0  -5   92.40    4.11
  -6   0  -6  155.30    5.26
  -6   0  -6  152.25    4.95
  -6   0  -7   27.98    2.10
  -6   0  -7   27.44    1.87
  -6   0  -8   -0.51    0.52
  -6   0  -9    3.11    0.56
  -6   1  12   30.77    2.19
  -6  -1  12   29.15    2.13
  -6   1  12   30.95    2.10
  -6  -1  12   30.53    2.04
  -6   1  12   33.01    2.10
  -6   1  12   29.27    1.67
  -6  -1  12   30.70    1.96
  -6   1  12   31.61    2.16
  -6  -1  12   29.73    2.07
   6   1 -12   28.92    1.53
  -6   1  11   22.21    2.19
  -6  -1  11   20.78    2.15
  -6   1  11   20.58    2.00
  -6  -1  11   20.62    1.90
  -6   1  11   22.81    2.02
  -6   1  11   19.94    1.92
  -6   1  11   21.33    1.72
  -6  -1  11   21.47    1.91
  -6   1  11   21.20    2.06
  -6  -1  11   18.85    1.91
   6   1 -11   21.91    1.58
  -6   1  10   16.50    2.10
  -6  -1  10   16.82    2.10
  -6   1  10   18.51    2.04
  -6  -1  10   17.63    1.92
  -6   1  10   15.82    1.98
  -6  -1  10   17.11    1.84
  -6   1  10   16.78    1.69
  -6  -1  10   16.49    1.86
  -6   1  10   16.03    1.98
  -6  -1  10   16.69    1.97
  -6   1   9   93.36    5.09
  -6  -1   9  103.92    5.41
  -6   1   9   93.64    4.72
  -6  -1   9   97.41    4.61
  -6   1   9   97.72    5.23
  -6  -1   9  104.75    5.04
  -6   1   9  105.75    4.50
  -6  -1   9   94.94    4.60
  -6   1   9   96.75    5.01
  -6  -1   9   95.22    4.80
  -6   1   8   30.43    3.00
  -6  -1   8   26.87    2.84
  -6   1   8   28.31    2.64
  -6  -1   8   27.60    2.47
  -6   1   8   29.36    3.01
  -6  -1   8   29.12    2.80
  -6  -1   8   26.73    2.50
  -6  -1   8   28.18    2.23
  -6   1   8   27.95    2.76
  -6  -1   8   26.61    2.59
  -6   1   7   15.68    2.16
  -6  -1   7   15.73    2.20
  -6   1   7   18.71    2.25
  -6  -1   7   21.03    2.25
  -6   1   7   15.70    1.94
  -6  -1   7   15.07    1.84
  -6   1   7   19.98    2.59
  -6  -1   7   15.13    2.10
  -6   1   7   18.33    2.28
  -6  -1   7   16.77    1.97
  -6   1   7   14.65    1.98
  -6  -1   7   15.13    1.95
  -6   1   6   20.28    2.44
  -6  -1   6   20.89    2.46
  -6   1   6   26.69    2.74
  -6   1   6   19.19    2.02
  -6  -1   6   23.95    2.22
  -6   1   6   20.53    2.52
  -6  -1   6   21.91    2.46
  -6   1   6   23.06    2.61
  -6  -1   6   21.52    2.19
  -6  -1   6   17.53    2.18
  -6   1   6   21.34    2.33
  -6  -1   6   18.75    2.14
  -6   1   5  416.61   10.80
  -6  -1   5  410.47   10.62
  -6  -1   5  426.46    9.08
  -6   1   5  423.43   11.23
  -6  -1   5  434.85   10.55
  -6   1   5  429.95   11.11
  -6  -1   5  450.60   10.43
  -6  -1   5  427.55    9.59
  -6  -1   5  415.33   10.14
  -6   1   5  429.57   10.11
  -6  -1   5  405.24    9.55
  -6   1   4  117.97    5.47
  -6  -1   4  111.06    5.25
  -6   1   4  129.89    5.96
  -6  -1   4  126.77    7.26
  -6  -1   4  123.67    7.07
  -6  -1   4  119.39    4.47
  -6   1   4  125.64    5.94
  -6  -1   4  129.38    5.56
  -6   1   4  122.85    5.78
  -6  -1   4  126.46    5.37
   6   1  -4  129.80    7.86
   6  -1  -4  123.84    7.34
  -6  -1   4  120.14    4.81
  -6  -1   4  117.97    5.15
  -6  -1   4  118.27    4.89
  -6   1   3   93.64    4.69
  -6  -1   3   90.13    4.59
  -6   1   3  105.60    5.34
  -6  -1   3  103.00    6.46
  -6   1   3   99.24    4.57
  -6   1   3   91.99    4.91
  -6  -1   3   92.82    4.53
  -6   1   3   92.91    4.93
  -6  -1   3   98.60    4.61
   6   1  -3  107.58    7.18
   6  -1  -3   97.70    6.57
  -6  -1   3   92.37    4.39
  -6  -1   3   96.31    4.21
  -6   1   2   60.25    3.63
  -6  -1   2   50.63    3.31
  -6   1   2   55.18    3.82
  -6  -1   2   54.89    4.81
  -6   1   2   53.04    3.36
  -6   1   2   50.67    3.47
  -6  -1   2   55.12    3.42
  -6   1   2   57.23    3.79
  -6  -1   2   52.98    3.30
   6   1  -2   65.07    5.69
   6  -1  -2   56.15    5.13
  -6  -1   2   50.90    3.17
  -6  -1   2   54.36    3.01
  -6   1   1   75.35    4.35
  -6  -1   1   71.52    3.84
  -6  -1   1   72.82    3.54
  -6   1   1   82.85    4.20
  -6   1   1   74.85    4.12
  -6  -1   1   79.92    4.01
  -6   1   1   77.95    4.36
  -6  -1   1   75.00    3.90
   6   1  -1   82.98    6.66
  -6  -1   1   73.24    3.69
   6  -1  -1   76.54    6.10
  -6   1   0  121.57    5.42
  -6  -1   0  119.21    4.89
  -6  -1   0  119.59    4.43
  -6   1   0  138.73    5.49
  -6   1   0  122.69    5.07
  -6  -1   0  122.91    4.86
  -6   1   0  126.69    5.45
  -6  -1   0  129.94    5.06
  -6  -1   0  126.94    4.73
   6   1   0  133.99    8.60
   6  -1   0  122.91    7.92
  -6   1  -1   13.43    1.76
  -6  -1  -1   14.45    1.70
  -6  -1  -1   12.63    1.40
  -6   1  -1   15.77    1.87
  -6  -1  -1   15.42    1.68
   6  -1   1   13.57    2.86
  -6  -1  -1   14.93    1.69
  -6   1  -1   13.65    1.80
  -6  -1  -1   14.23    1.73
  -6  -1  -1   14.36    1.56
  -6   1  -2  186.85    6.37
  -6  -1  -2  183.67    5.99
  -6   1  -2  202.66    6.68
  -6  -1  -2  202.33    6.10
  -6  -1  -2  179.98    5.67
  -6   1  -2  190.20    6.48
  -6  -1  -2  197.33    6.28
  -6  -1  -3   53.14    3.15
  -6   1  -3   56.55    3.52
  -6  -1  -3   60.12    3.30
  -6  -1  -3   51.44    2.89
  -6   1  -3   51.51    3.31
  -6  -1  -3   51.98    3.18
  -6  -1  -4  296.79    7.32
  -6   1  -4  304.41    8.10
  -6  -1  -4  317.66    7.69
  -6   1  -4  281.96    7.61
  -6  -1  -4  296.61    7.54
  -6  -1  -5  144.70    4.81
  -6   1  -5  141.86    5.34
  -6  -1  -5  148.77    5.14
  -6   1  -5  132.85    4.89
  -6  -1  -5  139.68    4.99
  -6  -1  -6   63.41    2.91
  -6   1  -6   69.71    3.60
  -6  -1  -6   61.30    3.20
  -6   1  -6   61.02    3.02
  -6  -1  -6   63.63    3.16
  -6   1  -7   80.86    3.55
  -6  -1  -7   78.62    3.33
  -6  -1  -7   75.48    3.15
  -6   1  -8    2.84    0.70
  -6  -1  -8    3.76    0.74
  -6  -1  -8    3.21    0.59
  -6   1  -9    1.02    0.36
  -6  -1  -9    1.29    0.38
  -6  -2  12   17.23    1.52
  -6   2  12   15.31    1.43
  -6   2  12   15.43    1.40
  -6  -2  12   14.05    1.31
  -6  -2  12   15.28    1.38
  -6   2  12   14.75    1.45
  -6  -2  12   15.26    1.39
  -6   2  11   51.02    3.06
  -6  -2  11   50.17    3.08
  -6   2  11   51.43    3.01
  -6  -2  11   47.65    2.74
  -6   2  11   53.21    2.92
  -6  -2  11   51.37    2.88
  -6   2  11   53.01    3.11
  -6  -2  11   47.08    2.81
  -6   2  10    2.54    0.90
  -6  -2  10    1.25    0.71
  -6   2  10    2.61    0.86
  -6  -2  10    2.34    0.86
  -6   2  10    2.72    0.85
  -6   2  10    2.13    0.82
  -6  -2  10    0.55    0.55
  -6   2  10    2.10    0.86
  -6  -2  10    1.66    0.80
  -6  -2  10    1.97    0.59
  -6   2   9   19.31    2.27
  -6  -2   9   18.24    2.24
  -6   2   9   18.55    2.09
  -6   2   9   22.37    2.22
  -6  -2   9   19.25    1.97
  -6   2   9   17.60    2.27
  -6  -2   9   19.95    2.08
  -6  -2   9   20.45    2.16
  -6  -2   9   18.90    1.81
  -6  -2   9   19.57    1.75
  -6   2   9   20.44    2.28
  -6  -2   9   18.69    2.10
  -6   2   8   64.63    4.26
  -6  -2   8   69.02    4.42
  -6   2   8   72.50    4.21
  -6   2   8   63.78    3.90
  -6   2   8   64.29    3.72
  -6  -2   8   61.44    3.53
  -6   2   8   69.30    4.62
  -6  -2   8   69.58    4.07
  -6  -2   8   60.63    3.71
  -6  -2   8   65.68    3.39
  -6   2   8   63.03    4.07
  -6  -2   8   67.24    3.97
  -6   2   7  240.02    8.26
  -6  -2   7  250.73    8.48
  -6   2   7  254.04    8.56
  -6   2   7  223.40    7.25
  -6   2   7  230.16    7.03
  -6  -2   7  232.67    6.88
  -6   2   7  235.40    8.66
  -6  -2   7  243.19    7.80
  -6   2   7  260.74    8.80
  -6  -2   7  231.19    6.42
  -6  -2   7  224.86    7.24
  -6   2   7  231.23    7.86
  -6  -2   7  231.73    7.42
  -6   2   6  168.70    6.88
  -6  -2   6  175.32    7.00
  -6   2   6  178.35    7.33
  -6   2   6  162.61    5.99
  -6   2   6  179.76    5.98
  -6  -2   6  166.68    5.68
  -6   2   6  173.64    7.43
  -6  -2   6  169.27    6.41
  -6   2   6  180.42    7.44
  -6  -2   6  173.86    5.40
  -6  -2   6  173.49    6.26
  -6  -2   6  161.57    6.38
  -6   2   6  180.34    6.69
  -6  -2   6  163.30    6.05
  -6   2   5  154.79    6.42
  -6  -2   5  146.61    6.27
  -6   2   5  154.28    6.92
  -6  -2   5  146.06    5.10
  -6   2   5  146.22    6.77
  -6  -2   5  146.10    5.89
  -6   2   5  146.00    6.74
  -6  -2   5  143.57    5.56
  -6  -2   5  142.11    5.84
  -6  -2   5  147.85    5.64
  -6  -2   4   84.99    4.65
  -6   2   4   94.29    5.36
  -6   2   4   87.94    4.60
  -6  -2   4   84.08    3.71
  -6   2   4   96.71    5.37
  -6  -2   4   88.10    4.42
  -6   2   4   91.78    5.24
  -6  -2   4   88.39    4.48
  -6  -2   4   84.67    4.09
  -6  -2   3  189.35    6.73
  -6   2   3  216.09    8.03
  -6  -2   3  195.30    6.08
  -6  -2   3  229.05    9.89
  -6   2   3  206.67    7.06
  -6  -2   3  207.62    5.60
  -6   2   3  193.93    7.35
  -6  -2   3  207.43    6.66
  -6   2   3  216.12    7.90
  -6  -2   3  222.58    6.74
  -6  -2   3  216.36    9.66
   6   2  -3  207.92   10.16
  -6  -2   3  203.86    6.57
  -6  -2   3  195.14    6.03
  -6   2   2   74.38    4.60
  -6  -2   2   71.84    3.99
  -6  -2   2   69.30    3.50
  -6  -2   2   85.90    6.02
  -6   2   2   79.68    4.38
  -6   2   2   78.37    4.51
  -6  -2   2   82.30    4.04
  -6   2   2   74.91    4.60
  -6  -2   2   78.98    3.93
   6   2  -2   79.42    6.48
  -6  -2   2   75.57    3.88
  -6  -2   2   72.06    3.51
  -6   2   1   98.93    5.20
  -6  -2   1   91.85    4.40
  -6  -2   1   91.23    3.96
  -6  -2   1  105.05    6.76
  -6   2   1  106.23    5.02
  -6   2   1   97.01    4.80
  -6  -2   1   99.63    4.41
  -6   2   1   99.46    5.18
  -6  -2   1  103.03    4.42
  -6  -2   1  100.66    4.37
   6   2  -1   93.65    7.21
  -6  -2   1   94.33    3.89
  -6   2   0  645.21   13.43
  -6  -2   0  652.64   12.15
  -6  -2   0  671.14   11.02
  -6   2   0  713.96   13.54
  -6  -2   0  647.69   11.46
  -6   2   0  678.38   13.64
  -6  -2   0  681.80   11.82
  -6  -2   0  679.36   11.69
  -6  -2   0  675.77   10.57
  -6   2  -1   83.56    4.53
  -6  -2  -1   86.04    4.21
  -6  -2  -1   91.61    3.77
  -6   2  -1   94.80    4.80
  -6  -2  -1   93.62    4.09
  -6   2  -1   87.75    4.63
  -6  -2  -1   91.97    4.17
  -6   2  -2    0.54    0.51
  -6  -2  -2    0.71    0.59
  -6  -2  -2    1.88    0.58
  -6   2  -2    1.00    0.86
  -6  -2  -2    2.21    0.70
  -6  -2  -2    0.23    0.51
  -6   2  -2    1.44    0.61
  -6  -2  -2    2.23    0.79
  -6  -2  -3    5.39    1.10
  -6   2  -3    3.59    0.88
  -6  -2  -3    5.31    1.00
  -6  -2  -3    4.46    0.90
  -6   2  -3    5.98    1.18
  -6  -2  -3    5.62    1.14
  -6  -2  -4   10.47    1.38
  -6   2  -4    8.58    1.43
  -6  -2  -4   11.31    1.35
  -6   2  -4   12.62    1.65
  -6  -2  -4   10.86    1.48
  -6   2  -5  105.69    4.71
  -6  -2  -5  107.42    4.19
  -6  -2  -5  110.93    3.82
  -6   2  -5  104.93    4.27
  -6  -2  -5  105.88    4.24
  -6  -2  -6   26.78    1.97
  -6   2  -6   26.26    2.23
  -6  -2  -6   27.17    2.03
  -6  -2  -6   27.97    2.09
  -6  -2  -7    4.87    0.78
  -6   2  -7    4.54    0.94
  -6  -2  -7    4.65    0.84
  -6  -2  -7    5.45    0.91
  -6   2  -8   12.36    1.20
  -6  -2  -8   11.53    1.12
  -6  -2  -8   10.97    1.02
  -6   3  12   30.89    1.77
  -6   3  12   33.45    1.85
  -6  -3  12   29.17    1.63
  -6  -3  12   31.50    1.77
  -6   3  12   31.78    1.82
  -6  -3  11    3.04    0.76
  -6  -3  11    2.23    0.66
  -6   3  11    2.95    0.74
  -6   3  11    1.93    0.66
  -6  -3  11    2.39    0.63
  -6  -3  11    3.11    0.77
  -6  -3  11    3.70    0.63
  -6   3  11    2.29    0.71
  -6   3  10   36.65    2.60
  -6  -3  10   34.52    2.64
  -6   3  10   35.68    2.58
  -6   3  10   37.22    2.58
  -6  -3  10   32.05    2.28
  -6   3  10   32.81    2.70
  -6  -3  10   33.66    2.50
  -6  -3  10   34.29    2.12
  -6   3  10   34.65    2.62
  -6  -3  10   33.41    2.44
  -6   3   9   56.79    3.49
  -6  -3   9   51.52    3.51
  -6   3   9   57.70    3.48
  -6   3   9   54.31    3.36
  -6  -3   9   51.31    3.00
  -6   3   9   53.01    3.76
  -6  -3   9   54.78    3.37
  -6  -3   9   52.06    2.88
  -6  -3   9   51.57    2.84
  -6   3   9   52.29    3.42
  -6  -3   9   50.81    3.22
  -6   3   8  128.03    5.51
  -6  -3   8  129.95    5.87
  -6   3   8  121.93    5.35
  -6   3   8  114.19    5.01
  -6   3   8  124.82    5.10
  -6  -3   8  120.10    4.72
  -6   3   8  117.80    5.90
  -6  -3   8  121.86    5.22
  -6  -3   8  123.51    4.60
  -6   3   8  118.28    5.30
  -6  -3   8  128.17    5.35
  -6   3   7   34.34    2.92
  -6  -3   7   40.68    3.34
  -6   3   7   39.27    3.40
  -6   3   7   31.95    2.65
  -6   3   7   35.76    2.79
  -6  -3   7   31.30    2.43
  -6   3   7   34.59    3.38
  -6  -3   7   36.09    2.86
  -6  -3   7   33.03    2.39
  -6  -3   7   34.60    2.82
  -6   3   7   35.17    2.90
  -6  -3   7   36.85    2.90
  -6  -3   6  151.44    6.44
  -6   3   6  151.02    7.00
  -6   3   6  134.01    5.22
  -6  -3   6  130.24    4.88
  -6   3   6  143.87    6.81
  -6  -3   6  137.80    5.59
  -6   3   6  138.95    6.69
  -6  -3   6  134.62    4.78
  -6  -3   6  133.80    5.50
  -6  -3   6  143.37    5.93
  -6  -3   6  127.45    5.26
  -6  -3   5  230.74    7.88
  -6   3   5  232.22    8.85
  -6  -3   5  217.33    6.17
  -6   3   5  218.93    8.44
  -6  -3   5  235.86    7.32
  -6  -3   5  222.50    7.31
  -6  -3   5  212.97    6.67
  -6  -3   4   16.54    2.09
  -6   3   4   17.34    2.48
  -6  -3   4   15.72    1.72
  -6  -3   4   15.74    1.64
  -6   3   4   16.00    2.25
  -6  -3   4   16.49    1.92
  -6   3   4   20.18    2.59
  -6  -3   4   15.85    1.89
  -6  -3   4   15.86    1.77
  -6   3   3  330.99   10.39
  -6  -3   3  322.40    8.85
  -6  -3   3  320.96    7.73
  -6   3   3  327.61    9.41
  -6  -3   3  310.96    7.00
  -6   3   3  318.42    9.64
  -6  -3   3  321.11    8.20
  -6   3   3  328.91   10.18
  -6  -3   3  303.93    8.22
  -6  -3   3  307.96    7.63
  -6   3   2  889.64   17.20
  -6  -3   2  896.17   15.02
  -6  -3   2  890.74   13.21
  -6   3   2  916.04   16.30
  -6  -3   2  852.25   11.76
  -6   3   2  902.95   15.98
  -6  -3   2  904.26   14.04
  -6   3   2  912.76   17.25
  -6  -3   2  956.25   14.06
  -6  -3   2  853.99   14.05
  -6  -3   2  854.01   13.04
  -6   3   1  657.87   14.32
  -6  -3   1  672.25   12.67
  -6  -3   1  681.47   11.30
  -6   3   1  712.24   14.18
  -6  -3   1  682.03   11.91
  -6   3   1  697.66   14.63
  -6  -3   1  740.30   12.09
  -6  -3   1  689.79   12.18
  -6   3   0  270.03    8.82
  -6  -3   0  270.65    7.80
  -6  -3   0  273.31    6.84
  -6   3   0  291.92    8.89
  -6  -3   0  284.95    7.31
  -6   3   0  287.60    9.00
  -6  -3   0  281.32    7.22
  -6   3  -1 1221.97   19.12
  -6  -3  -1 1286.40   17.90
  -6  -3  -1 1284.04   15.79
  -6   3  -1 1424.12   20.43
  -6  -3  -1 1301.16   16.66
  -6   3  -1 1293.95   19.46
  -6  -3  -1 1370.13   17.09
  -6   3  -2  211.92    7.08
  -6  -3  -2  217.31    6.74
  -6  -3  -2  215.66    5.73
  -6   3  -2  231.73    7.75
  -6  -3  -2  211.71    6.07
  -6   3  -2  216.13    7.19
  -6  -3  -2  222.25    6.39
  -6  -3  -3   16.78    1.85
  -6  -3  -3   18.05    1.57
  -6   3  -3   16.87    2.07
  -6  -3  -3   22.56    1.82
  -6  -3  -3   20.01    1.84
  -6   3  -3   18.60    2.00
  -6  -3  -3   20.93    1.94
  -6   3  -4   55.90    3.60
  -6  -3  -4   57.92    2.91
  -6  -3  -4   52.95    2.82
  -6  -3  -4   54.09    3.04
  -6   3  -5    4.52    1.06
  -6  -3  -5    4.96    0.92
  -6  -3  -5    4.69    0.83
  -6  -3  -5    4.18    0.92
  -6   3  -6   21.52    1.95
  -6  -3  -6   21.37    1.66
  -6  -3  -6   22.65    1.53
  -6  -3  -6   23.01    1.80
  -6  -3  -7   17.49    1.42
  -6   3  -7   18.13    1.58
  -6  -3  -7   17.84    1.39
  -6  -3  -7   17.56    1.42
  -6  -3  -8    1.68    0.40
  -6   3  -8    1.56    0.43
  -6  -3  -8    1.29    0.39
  -6  -3  -8    1.59    0.44
  -6   4  11   11.15    1.13
  -6   4  11   12.31    1.22
  -6  -4  11   10.44    1.05
  -6  -4  11   11.65    1.19
  -6  -4  11   10.55    0.94
  -6   4  11   12.36    1.17
  -6  -4  11   10.91    1.04
  -6  -4  10   19.59    1.67
  -6   4  10   18.72    1.66
  -6   4  10   20.18    1.79
  -6  -4  10   16.38    1.50
  -6  -4  10   17.94    1.72
  -6  -4  10   18.86    1.52
  -6  -4  10   17.62    1.47
  -6   4  10   19.36    1.71
  -6  -4  10   19.56    1.71
  -6  -4   9   11.43    1.52
  -6  -4   9   11.58    1.05
  -6   4   9   11.89    1.44
  -6   4   9   11.88    1.54
  -6  -4   9   10.63    1.31
  -6  -4   9   13.08    1.60
  -6  -4   9   11.47    1.31
  -6   4   9   11.46    1.47
  -6  -4   9    9.86    1.33
  -6  -4   8    4.48    1.00
  -6   4   8    5.29    1.05
  -6  -4   8    5.08    0.75
  -6  -4   8    4.08    1.02
  -6   4   8    5.44    1.10
  -6   4   8    5.67    1.07
  -6  -4   8    4.74    0.99
  -6   4   8    5.12    1.29
  -6  -4   8    5.29    1.03
  -6  -4   8    5.14    1.12
  -6   4   8    6.31    1.14
  -6  -4   7   77.62    4.39
  -6   4   7   74.69    4.48
  -6   4   7   75.48    3.92
  -6  -4   7   74.07    3.55
  -6   4   7   72.99    4.64
  -6  -4   7   77.52    3.60
  -6  -4   7   77.40    4.16
  -6  -4   7   79.30    4.00
  -6  -4   6   48.27    3.53
  -6   4   6   47.37    3.86
  -6   4   6   44.51    2.98
  -6  -4   6   43.11    2.72
  -6   4   6   44.32    3.69
  -6  -4   6   49.15    3.14
  -6  -4   6   45.42    3.18
  -6  -4   6   45.70    3.28
  -6  -4   6   57.76    3.39
  -6  -4   5   61.15    3.96
  -6   4   5   64.84    4.66
  -6  -4   5   57.68    3.08
  -6   4   5   59.01    4.26
  -6  -4   5   62.16    3.59
  -6   4   5   59.24    4.42
  -6  -4   5   61.25    3.73
  -6  -4   5   60.95    3.46
  -6  -4   4    1.71    0.66
  -6   4   4    3.03    1.25
  -6  -4   4    3.24    1.01
  -6  -4   4    1.96    0.75
  -6  -4   4    2.80    0.76
  -6   4   4    4.38    1.25
  -6  -4   4    1.70    0.76
  -6   4   4    0.51    0.88
  -6  -4   4    3.69    1.04
  -6   4   3   73.96    5.03
  -6  -4   3   78.06    4.36
  -6  -4   3   73.63    3.60
  -6  -4   3   71.12    3.27
  -6   4   3   73.23    4.41
  -6  -4   3   76.97    3.89
  -6   4   3   70.18    4.78
  -6  -4   3   76.54    4.06
  -6  -4   3   69.48    3.56
  -6   4   2   67.72    4.70
  -6  -4   2   69.76    4.02
  -6  -4   2   65.99    3.37
  -6   4   2   64.05    4.28
  -6  -4   2   69.78    3.66
  -6   4   2   70.90    4.75
  -6  -4   2   64.46    3.68
  -6  -4   2   62.01    3.32
  -6   4   1  160.90    7.15
  -6  -4   1  164.29    6.08
  -6  -4   1  165.31    5.32
  -6   4   1  170.50    6.95
  -6  -4   1  172.89    5.68
  -6   4   1  160.44    6.99
  -6  -4   1  185.28    5.58
  -6  -4   1  170.44    5.92
  -6   4   0  429.48   11.32
  -6  -4   0  466.59   10.33
  -6  -4   0  458.31    8.92
  -6   4   0  473.49   11.72
  -6  -4   0  471.44    9.44
  -6   4   0  444.22   11.28
  -6  -4   0  476.97    9.16
   6   4   1  616.67   11.13
  -6   4  -1  547.46   12.22
  -6  -4  -1  616.41   11.84
  -6  -4  -1  588.98   10.03
  -6   4  -1  609.58   13.17
  -6  -4  -1  577.07   10.44
  -6   4  -1  591.97   12.55
  -6  -4  -1  624.16   10.62
  -6   4  -2  109.71    4.92
  -6  -4  -2  117.15    4.89
  -6  -4  -2  115.29    4.12
  -6  -4  -2  129.73    4.58
  -6   4  -2  118.71    5.55
  -6  -4  -2  121.10    4.49
  -6  -4  -2  117.76    4.43
  -6  -4  -3   15.33    1.76
  -6  -4  -3   14.38    1.40
  -6  -4  -3   14.49    1.55
  -6   4  -3   13.02    1.81
  -6  -4  -3   14.82    1.55
  -6  -4  -3   14.45    1.58
  -6  -4  -4   65.59    3.40
  -6  -4  -4   64.79    2.68
  -6  -4  -4   65.34    3.11
  -6   4  -4   64.88    3.71
  -6  -4  -4   65.55    3.06
  -6  -4  -4   65.99    3.15
  -6  -4  -5    9.63    1.28
  -6   4  -5    8.32    1.26
  -6  -4  -5    9.71    1.05
  -6  -4  -5    9.31    1.12
  -6  -4  -5    8.47    1.15
  -6  -4  -6   48.27    2.46
  -6   4  -6   45.28    2.53
  -6  -4  -6   47.16    2.12
  -6  -4  -6   44.07    2.03
  -6  -4  -6   44.65    2.28
  -6  -4  -7   28.23    1.66
  -6   4  -7   25.10    1.53
  -6  -4  -7   26.06    1.39
  -6  -4  -7   29.81    1.64
  -6   5  10    0.60    0.32
  -6  -5  10    0.69    0.37
  -6  -5  10    1.03    0.47
  -6  -5  10    0.78    0.37
  -6  -5   9   24.43    1.35
  -6   5   9   25.65    1.91
  -6   5   9   24.48    1.67
  -6  -5   9   25.74    1.79
  -6  -5   9   26.81    2.03
  -6  -5   9   26.83    1.80
  -6  -5   9   26.45    1.83
  -6  -5   9   25.98    1.88
  -6  -5   8   53.36    2.89
  -6  -5   8   49.85    2.07
  -6   5   8   51.40    2.88
  -6  -5   8   47.44    2.58
  -6  -5   8   50.44    3.00
  -6  -5   8   52.03    2.69
  -6  -5   8   51.17    2.86
  -6  -5   7   36.94    2.66
  -6   5   7   36.76    2.91
  -6  -5   7   40.29    1.94
  -6   5   7   38.43    2.58
  -6  -5   7   39.32    2.43
  -6  -5   7   38.43    2.41
  -6  -5   7   39.85    2.81
  -6  -5   7   36.45    2.53
  -6  -5   6    2.88    0.84
  -6   5   6    1.86    0.89
  -6  -5   6    2.85    0.96
  -6   5   6    4.12    0.92
  -6  -5   6    3.62    0.85
  -6   5   6    2.07    0.77
  -6  -5   6    3.30    1.03
  -6  -5   6    2.08    0.75
  -6  -5   5   36.45    2.89
  -6   5   5   36.25    3.34
  -6   5   5   40.59    2.62
  -6  -5   5   34.47    2.31
  -6   5   5   37.65    3.07
  -6  -5   5   37.67    2.55
  -6  -5   5   37.60    2.81
  -6  -5   5   38.35    2.67
  -6   5   4  284.09    9.64
  -6  -5   4  291.89    8.30
  -6  -5   4  282.00    6.79
  -6  -5   4  262.11    6.42
  -6   5   4  284.14    8.24
  -6  -5   4  286.85    7.30
  -6  -5   4  298.97    7.92
  -6  -5   4  289.31    7.30
  -6   5   3   13.36    2.17
  -6  -5   3   16.70    2.04
  -6  -5   3   16.48    1.69
  -6  -5   3   14.65    1.50
  -6  -5   3   15.98    1.79
  -6  -5   3   14.73    1.81
  -6  -5   3   15.41    1.72
  -6   5   2   29.66    3.06
  -6  -5   2   33.36    2.72
  -6  -5   2   33.86    2.35
  -6  -5   2   32.63    2.43
  -6   5   2   28.52    2.89
  -6  -5   2   34.16    2.64
  -6  -5   2   29.95    2.31
  -6   5   1  205.33    7.80
  -6  -5   1  237.20    7.20
  -6  -5   1  220.73    5.99
  -6   5   1  216.80    7.89
  -6  -5   1  218.53    6.25
  -6   5   1  215.81    7.74
  -6  -5   1  238.41    6.91
   6   5   0  127.38    4.60
  -6   5   0  115.14    5.54
  -6  -5   0  131.33    5.23
  -6  -5   0  121.50    4.35
  -6   5   0  123.85    5.89
  -6  -5   0  130.50    4.72
  -6   5   0  134.89    5.73
   6   5   1   62.56    3.32
  -6   5  -1   62.16    3.81
  -6  -5  -1   70.94    3.77
  -6  -5  -1   67.79    3.13
  -6   5  -1   67.37    4.16
  -6  -5  -1   76.06    3.50
  -6  -5  -1   68.16    3.13
   6   5   2   11.41    1.45
  -6   5  -2   11.95    1.52
  -6  -5  -2   10.59    1.50
  -6  -5  -2   12.50    1.35
  -6   5  -2    9.43    1.53
  -6  -5  -2   11.05    1.35
  -6  -5  -2   10.83    1.27
   6   5   3   54.03    3.13
  -6  -5  -3   55.09    3.09
  -6  -5  -3   58.49    2.62
  -6  -5  -3   58.29    2.79
  -6   5  -3   56.39    3.48
  -6  -5  -3   58.25    2.87
  -6  -5  -3   53.69    2.69
   6   5   4   30.01    2.24
  -6  -5  -4   27.60    2.07
  -6  -5  -4   28.77    1.68
  -6   5  -4   28.79    2.28
  -6  -5  -4   28.31    1.88
  -6  -5  -4   28.91    1.91
   6   5   5   32.63    2.19
  -6  -5  -5   30.38    2.01
  -6   5  -5   29.54    2.03
  -6  -5  -5   29.00    1.72
  -6  -5  -5   29.09    1.79
   6   5   6   21.42    1.61
  -6  -5  -6   22.61    1.53
  -6   5  -6   19.01    1.32
  -6  -5  -6   19.36    1.21
  -6  -5  -6   21.80    1.39
  -6   6   9    2.38    0.50
  -6  -6   9    2.59    0.53
  -6  -6   9    2.63    0.51
  -6  -6   9    2.57    0.58
  -6  -6   9    3.10    0.57
  -6  -6   8    5.61    0.84
  -6  -6   8    5.62    0.63
  -6  -6   8    6.28    0.88
  -6   6   8    4.73    0.79
  -6  -6   8    5.65    0.84
  -6  -6   8    4.79    0.85
  -6   6   7   37.37    2.48
  -6  -6   7   37.00    1.66
  -6   6   7   35.21    2.08
  -6  -6   7   37.41    2.13
  -6  -6   7   41.24    2.55
  -6  -6   7   38.61    2.17
  -6  -6   7   37.11    2.26
  -6   6   6    8.22    1.39
  -6  -6   6    8.81    0.89
  -6   6   6    7.26    1.00
  -6  -6   6    9.34    1.15
  -6  -6   6    8.13    1.11
  -6  -6   6    9.65    1.33
  -6  -6   6    8.37    1.18
  -6  -6   5   31.92    2.28
  -6   6   5   29.70    2.75
  -6   6   5   29.64    1.93
  -6  -6   5   32.26    2.05
  -6  -6   5   33.26    2.47
  -6  -6   5   30.85    2.29
  -6  -6   5   31.23    2.22
  -6   6   4   49.24    3.65
  -6  -6   4   51.16    3.03
  -6  -6   4   45.02    2.45
  -6  -6   4   48.89    2.54
  -6  -6   4   47.06    2.91
  -6  -6   4   48.80    2.77
  -6   6   3   53.66    3.85
  -6  -6   3   53.62    3.17
  -6  -6   3   52.92    2.73
  -6  -6   3   54.67    2.65
  -6  -6   3   57.02    2.92
  -6  -6   3   56.61    3.19
  -6  -6   3   54.11    2.92
  -6   6   2   73.24    4.44
  -6  -6   2   78.61    3.83
  -6  -6   2   72.38    3.21
  -6  -6   2   75.99    3.39
  -6  -6   2   77.35    3.70
  -6  -6   2   75.76    3.42
  -6   6   1   63.29    3.98
  -6  -6   1   69.68    3.55
  -6  -6   1   68.22    3.07
  -6  -6   1   70.16    3.25
  -6  -6   1   73.11    3.57
   6   6   0   84.36    3.44
  -6   6   0   82.45    4.28
  -6  -6   0   86.03    3.90
  -6  -6   0   92.12    3.50
  -6  -6   0   84.85    3.54
  -6  -6   0   86.56    3.81
   6   6   1   15.49    1.54
  -6   6  -1   14.99    1.68
  -6  -6  -1   17.53    1.73
  -6  -6  -1   19.51    1.59
  -6  -6  -1   17.21    1.56
  -6  -6  -1   20.30    1.80
   6   6   2   51.10    2.76
  -6  -6  -2   50.47    2.77
  -6  -6  -2   53.80    2.46
  -6  -6  -2   50.19    2.54
   6   6   3   10.84    1.27
  -6  -6  -3   10.33    1.23
  -6  -6  -3   10.51    1.05
  -6  -6  -3    9.80    1.10
  -6  -6  -3    9.75    0.99
   6   6   4   70.97    2.98
  -6  -6  -4   70.74    2.84
  -6  -6  -4   69.53    2.28
  -6  -6  -4   71.63    2.64
  -6  -6  -4   68.12    2.39
   6   6   5    2.55    0.60
  -6  -6  -5    2.13    0.50
  -6  -6  -5    2.17    0.46
  -6  -6  -5    2.72    0.48
  -6  -7   7  111.03    3.02
  -6  -7   7  114.83    3.29
  -6  -7   7  118.67    3.14
  -6   7   6   28.95    1.95
  -6  -7   6   28.24    1.24
  -6  -7   6   28.07    1.66
  -6  -7   6   31.57    1.93
  -6  -7   6   32.00    1.78
  -6  -7   6   28.97    1.69
  -6   7   5   66.97    3.37
  -6  -7   5   73.84    2.70
  -6  -7   5   74.34    3.12
  -6  -7   5   71.62    2.87
  -6   7   4   26.83    2.25
  -6  -7   4   26.06    1.65
  -6  -7   4   28.22    2.01
  -6  -7   4   26.20    1.77
  -6  -7   4   26.59    1.81
  -6   7   3   27.99    2.37
  -6  -7   3   28.17    1.72
  -6  -7   3   30.64    1.75
  -6  -7   3   28.04    1.91
  -6  -7   3   30.84    1.96
  -6   7   2   48.83    3.06
  -6  -7   2   52.23    2.38
  -6  -7   2   52.09    2.25
  -6  -7   2   55.91    2.43
  -6  -7   2   51.54    2.62
  -6  -7   2   53.54    2.55
  -6   7   1   57.77    3.19
  -6  -7   1   60.57    2.66
  -6  -7   1   61.73    2.57
  -6  -7   1   57.26    2.29
  -6  -7   1   62.10    2.61
  -6  -7   1   62.24    2.87
  -6  -7   1   63.35    2.73
   6   7   0   25.43    1.56
  -6   7   0   23.83    1.92
  -6  -7   0   26.39    1.74
  -6  -7   0   26.72    1.67
  -6  -7   0   26.76    1.71
  -6  -7   0   28.65    1.91
  -6  -7   0   27.93    1.76
   6   7   1    7.97    0.92
  -6   7  -1    8.19    1.00
  -6  -7  -1    7.98    0.96
  -6  -7  -1    9.87    1.01
  -6  -7  -1    7.69    0.74
  -6  -7  -1    9.53    1.02
  -6  -7  -1    9.02    1.08
   6   7   2   32.18    1.77
  -6  -7  -2   29.67    1.67
  -6  -7  -2   33.39    1.67
  -6  -7  -2   30.59    1.70
  -6  -7  -2   32.19    1.82
   6   7   3   14.93    1.13
  -6  -7  -3   14.84    0.99
  -6  -7  -3   14.69    1.09
  -6  -7  -3   14.68    1.13
  -6  -7  -3   14.17    0.96
  -6  -8   3    8.42    0.74
  -6  -8   2   28.74    1.32
  -6  -8   2   29.81    1.58
  -6  -8   2   27.94    1.45
  -6  -8   1   70.10    2.26
  -7   0  11   15.15    1.44
  -7   0  11   13.14    1.22
  -7   0  11   12.72    1.05
  -7   0  11   14.85    1.38
  -7   0  10   38.46    2.60
  -7   0  10   36.17    2.28
  -7   0  10   38.96    2.10
  -7   0  10   34.71    2.33
  -7   0  10   36.21    2.39
  -7   0   9    5.17    1.05
  -7   0   9    5.50    1.17
  -7   0   9    5.33    0.90
  -7   0   9    4.93    0.97
  -7   0   9    5.22    1.13
  -7   0   8    7.60    1.21
  -7   0   8    7.94    1.44
  -7   0   8    7.38    1.20
  -7   0   8    7.45    1.42
  -7   0   8    8.63    1.38
  -7   0   7   99.69    5.01
  -7   0   7  100.47    4.72
  -7   0   7   98.03    4.19
  -7   0   7  102.39    5.10
  -7   0   7   97.73    4.58
  -7   0   7   99.60    4.57
  -7   0   6   31.50    2.89
  -7   0   6   32.95    2.89
  -7   0   6   29.86    2.29
  -7   0   6   34.75    3.04
  -7   0   6   32.44    2.82
  -7   0   6   32.44    2.61
  -7   0   5  501.87   11.48
  -7   0   5  516.71   11.82
  -7   0   5  527.11   11.73
  -7   0   5  500.67   10.28
  -7   0   4   85.31    4.56
  -7   0   4   97.01    5.02
  -7   0   4   94.36    4.88
  -7   0   4   89.49    4.73
  -7   0   4   87.13    4.01
  -7   0   3   18.75    2.11
  -7   0   3   20.17    2.31
  -7   0   3   19.40    2.18
  -7   0   3   21.77    2.34
  -7   0   3   19.65    2.00
  -7   0   2   14.58    1.86
  -7   0   2   15.21    1.95
  -7   0   2   14.52    1.91
  -7   0   2   15.35    1.99
  -7   0   2   16.76    1.82
  -7   0   1    0.00    0.72
  -7   0   1    0.46    0.50
  -7   0   1    0.72    0.54
  -7   0   1   -0.08    0.55
  -7   0   1    0.22    0.68
  -7   0   0   44.75    2.94
  -7   0   0   40.97    3.09
  -7   0   0   42.51    2.86
  -7   0   0   43.97    2.99
  -7   0   0   43.98    3.21
  -7   0  -1  159.40    5.28
  -7   0  -1  147.86    5.59
  -7   0  -1  158.61    5.53
  -7   0  -1  142.35    5.16
  -7   0  -1  152.29    5.79
  -7   0  -2  388.47    8.69
  -7   0  -2  371.00    8.85
  -7   0  -3   75.21    3.71
  -7   0  -3   76.81    3.81
  -7   0  -4    4.69    0.93
  -7   0  -4    4.89    0.98
  -7   0  -5    5.82    0.98
  -7   0  -5    5.74    0.96
  -7   0  -6    0.46    0.42
  -7   0  -6    0.36    0.33
  -7   0  -7   25.43    1.52
  -7   1  11   64.50    2.78
  -7  -1  11   65.45    2.90
  -7   1  11   61.49    2.53
  -7   1  11   60.99    2.27
  -7  -1  11   61.76    2.57
  -7  -1  11   59.79    2.18
  -7   1  11   61.93    2.65
  -7  -1  11   65.40    2.76
  -7   1  10    2.62    0.74
  -7  -1  10    2.80    0.78
  -7   1  10    2.52    0.72
  -7  -1  10    3.23    0.81
  -7   1  10    3.13    0.67
  -7   1  10    3.33    0.77
  -7  -1  10    3.06    0.77
  -7   1  10    2.31    0.70
  -7  -1  10    3.21    0.76
  -7  -1  10    2.72    0.62
  -7   1   9   43.93    2.97
  -7  -1   9   42.55    2.99
  -7   1   9   40.94    2.54
  -7   1   9   41.94    2.33
  -7  -1   9   38.00    2.44
  -7   1   9   39.77    2.89
  -7  -1   9   38.60    2.68
  -7  -1   9   43.38    2.46
  -7   1   9   41.35    2.74
  -7  -1   9   40.76    2.72
  -7   1   8    1.65    0.76
  -7  -1   8    2.28    0.83
  -7   1   8    2.76    0.83
  -7  -1   8    3.20    0.80
  -7   1   8    1.56    0.79
  -7  -1   8    1.73    0.83
  -7   1   8    3.07    0.91
  -7  -1   8    2.71    0.80
  -7   1   8    4.22    1.16
  -7  -1   8    2.14    0.72
  -7  -1   8    2.35    0.69
  -7   1   7   70.97    4.14
  -7  -1   7   68.68    4.15
  -7   1   7   71.62    4.10
  -7  -1   7   69.26    3.78
  -7   1   7   65.96    3.39
  -7  -1   7   67.25    3.43
  -7   1   7   69.83    4.27
  -7  -1   7   67.55    4.00
  -7   1   7   69.23    4.01
  -7  -1   7   73.02    3.54
  -7   1   7   72.81    3.86
  -7  -1   7   69.46    3.77
  -7   1   6   41.04    3.19
  -7  -1   6   38.47    3.14
  -7   1   6   41.10    3.28
  -7  -1   6   42.58    3.17
  -7  -1   6   38.28    2.56
  -7   1   6   41.61    3.38
  -7  -1   6   39.55    3.09
  -7   1   6   42.24    3.35
  -7   1   6   39.50    2.82
  -7  -1   6   37.60    2.81
  -7   1   5   66.46    4.04
  -7  -1   5   65.55    4.03
  -7   1   5   73.40    4.47
  -7  -1   5   66.21    3.26
  -7   1   5   66.58    4.26
  -7  -1   5   66.07    4.01
  -7   1   5   69.00    4.34
  -7  -1   5   70.70    3.96
  -7  -1   5   64.24    3.58
  -7   1   4   30.80    2.68
  -7  -1   4   30.33    2.74
  -7   1   4   35.77    3.18
  -7   1   4   29.04    2.84
  -7  -1   4   28.34    2.60
  -7   1   4   30.51    2.95
  -7  -1   4   29.21    2.59
  -7  -1   4   26.44    2.42
  -7  -1   4   29.87    2.38
  -7   1   3   93.61    4.54
  -7  -1   3   91.99    4.65
  -7   1   3   96.65    5.10
  -7   1   3   91.87    4.87
  -7  -1   3   96.28    4.73
  -7   1   3   95.08    5.07
  -7  -1   3   97.31    4.69
  -7  -1   3   88.26    4.28
  -7  -1   3   92.74    4.03
  -7  -1   2  333.72    8.74
  -7   1   2  345.58    9.61
  -7   1   2  357.23    8.60
  -7   1   2  330.38    9.07
  -7  -1   2  343.62    8.85
  -7   1   2  359.82    9.82
  -7  -1   2  343.39    8.91
  -7  -1   2  330.53    8.19
  -7  -1   1   72.35    3.90
  -7   1   1   71.57    4.27
  -7   1   1   73.36    3.89
  -7   1   1   73.19    4.04
  -7  -1   1   72.43    3.92
  -7   1   1   73.81    4.34
  -7  -1   1   74.85    4.09
  -7  -1   1   72.66    3.63
  -7   1   0   88.53    4.60
  -7  -1   0   96.92    4.39
  -7   1   0  101.25    4.61
  -7   1   0   93.65    4.35
  -7  -1   0   97.07    4.43
  -7   1   0   96.75    4.83
  -7  -1   0  100.20    4.58
  -7  -1   0  104.69    4.16
  -7   1  -1  358.15    8.93
  -7  -1  -1  376.50    8.52
  -7  -1  -1  380.08    8.97
  -7   1  -1  392.35    9.22
  -7  -1  -1  378.84    8.56
  -7   1  -1  371.53    9.44
  -7  -1  -1  374.69    8.96
  -7  -1  -2   25.04    2.10
  -7  -1  -2   25.72    2.11
  -7   1  -2   26.78    2.39
  -7  -1  -2   25.37    2.09
  -7  -1  -2   26.73    2.12
  -7   1  -2   24.36    2.32
  -7  -1  -2   27.62    2.41
  -7  -1  -3   43.67    2.54
  -7   1  -3   40.37    2.83
  -7  -1  -3   40.19    2.56
  -7  -1  -3   40.24    2.37
  -7   1  -3   39.70    2.77
  -7  -1  -3   40.56    2.71
  -7  -1  -4    7.59    0.98
  -7  -1  -4    7.96    1.13
  -7   1  -4    7.76    1.20
  -7   1  -4    7.06    1.11
  -7  -1  -4    7.49    1.17
  -7   1  -5    7.32    1.13
  -7  -1  -5    6.66    0.98
  -7   1  -5    7.69    1.05
  -7  -1  -5    8.23    1.12
  -7   1  -6    3.40    0.72
  -7  -1  -6    2.86    0.63
  -7  -1  -6    3.05    0.63
  -7  -1  -7    4.68    0.64
  -7   1  -7    3.77    0.62
  -7  -2  11    4.72    0.72
  -7  -2  11    6.05    0.85
  -7  -2  11    5.13    0.72
  -7  -2  11    5.05    0.66
  -7   2  11    4.83    0.70
  -7   2  10    8.36    1.08
  -7  -2  10    9.34    1.28
  -7   2  10    8.68    1.03
  -7   2  10    8.14    0.95
  -7  -2  10    8.96    1.07
  -7   2  10    8.35    1.20
  -7  -2  10    8.57    1.04
  -7   2  10    8.79    1.11
  -7  -2  10    9.25    1.19
  -7   2   9    2.97    0.78
  -7  -2   9    3.48    0.81
  -7   2   9    2.63    0.73
  -7  -2   9    4.32    0.98
  -7   2   9    3.29    0.73
  -7   2   9    2.82    0.69
  -7  -2   9    2.40    0.67
  -7   2   9    2.65    0.83
  -7  -2   9    2.71    0.69
  -7  -2   9    3.25    0.79
  -7   2   8    2.73    0.85
  -7  -2   8    2.23    0.77
  -7   2   8    2.79    0.82
  -7  -2   8    3.38    0.77
  -7   2   8    3.39    0.87
  -7  -2   8    2.98    1.03
  -7   2   8    4.30    0.89
  -7  -2   8    3.44    0.84
  -7   2   8    3.01    1.02
  -7  -2   8    2.60    0.77
  -7  -2   8    3.29    0.85
  -7   2   7   91.47    4.40
  -7  -2   7   86.81    4.54
  -7   2   7   86.77    4.56
  -7  -2   7   89.92    4.11
  -7  -2   7   86.78    3.78
  -7   2   7   92.88    4.93
  -7  -2   7   86.67    4.27
  -7  -2   7   89.62    3.95
  -7   2   7   92.58    4.09
  -7  -2   7   91.29    4.20
  -7   2   6   60.09    3.60
  -7  -2   6   57.87    3.73
  -7   2   6   60.03    4.02
  -7  -2   6   55.40    2.99
  -7   2   6   57.21    3.95
  -7  -2   6   59.06    3.62
  -7   2   6   57.84    3.95
  -7  -2   6   54.46    3.12
  -7  -2   6   54.27    3.26
  -7  -2   5    3.13    0.95
  -7   2   5    0.88    0.74
  -7  -2   5    0.41    0.61
  -7  -2   5    1.34    0.61
  -7   2   5    1.53    0.97
  -7  -2   5    0.38    0.83
  -7   2   5    0.65    0.79
  -7  -2   5    0.84    0.60
  -7  -2   5    1.84    0.70
  -7  -2   4   20.79    2.31
  -7   2   4   24.20    2.65
  -7  -2   4   26.64    1.97
  -7   2   4   21.16    2.43
  -7  -2   4   22.75    2.27
  -7   2   4   23.51    2.65
  -7  -2   4   20.80    2.02
  -7  -2   4   25.14    2.13
  -7  -2   4   21.26    2.15
  -7  -2   4   20.56    1.96
  -7  -2   3  285.12    8.26
  -7   2   3  287.57    9.13
  -7   2   3  308.69    8.25
  -7   2   3  289.48    8.69
  -7  -2   3  306.05    8.24
  -7   2   3  319.25    9.53
  -7  -2   3  297.65    7.87
  -7  -2   3  282.06    7.71
  -7  -2   3  289.41    7.23
  -7  -2   2  245.03    7.40
  -7   2   2  232.62    8.05
  -7   2   2  250.07    7.50
  -7   2   2  243.71    7.65
  -7  -2   2  236.28    7.07
  -7   2   2  237.40    8.07
  -7  -2   2  241.89    7.05
  -7  -2   2  231.15    6.83
  -7  -2   2  241.80    6.34
  -7   2   1   99.48    5.12
  -7  -2   1  101.59    4.62
  -7   2   1  107.49    4.93
  -7   2   1  101.66    4.69
  -7  -2   1  105.45    4.60
  -7   2   1   98.07    5.07
  -7  -2   1  107.64    4.67
  -7  -2   1   99.29    4.31
  -7   2   0  382.43    9.83
  -7  -2   0  404.04    9.16
  -7   2   0  421.95    9.87
  -7  -2   0  410.34    9.06
  -7   2   0  415.03   10.38
  -7  -2   0  410.04    9.10
  -7  -2   0  384.92    8.40
  -7   2  -1   12.77    1.74
  -7  -2  -1   13.66    1.69
  -7   2  -1   16.02    1.93
  -7  -2  -1   17.85    1.80
  -7   2  -1   15.02    1.90
  -7  -2  -1   16.78    1.84
  -7  -2  -1   14.76    1.55
  -7  -2  -2   85.49    3.76
  -7  -2  -2   85.41    3.87
  -7   2  -2   79.20    4.09
  -7  -2  -2   84.69    3.70
  -7   2  -2   88.20    4.32
  -7  -2  -2   79.77    3.78
  -7  -2  -2   86.66    3.50
  -7  -2  -3   56.92    2.96
  -7   2  -3   56.29    3.35
  -7  -2  -3   53.86    2.71
  -7  -2  -3   52.57    2.69
  -7   2  -3   55.58    3.19
  -7  -2  -3   53.56    3.00
  -7  -2  -4   34.14    2.13
  -7   2  -4   34.07    2.47
  -7  -2  -4   32.56    2.05
  -7  -2  -4   32.89    1.91
  -7   2  -4   32.72    2.23
  -7  -2  -4   35.62    2.32
  -7  -2  -5   38.44    1.99
  -7   2  -5   40.13    2.44
  -7  -2  -5   36.74    2.03
  -7  -2  -5   38.17    2.22
  -7   2  -6    2.66    0.65
  -7  -2  -6    1.73    0.45
  -7  -2  -6    2.98    0.61
  -7  -3  10    7.86    1.02
  -7   3  10    7.16    0.82
  -7  -3  10    8.46    0.95
  -7  -3  10    7.74    0.93
  -7  -3  10    7.38    0.95
  -7  -3   9   22.63    1.96
  -7   3   9   21.81    1.55
  -7   3   9   21.65    1.53
  -7  -3   9   21.91    1.67
  -7   3   9   22.48    2.03
  -7  -3   9   23.33    1.76
  -7   3   9   21.91    1.61
  -7  -3   9   20.63    1.73
  -7  -3   8   15.61    1.81
  -7   3   8   15.10    1.62
  -7  -3   8   14.28    1.43
  -7   3   8   16.12    1.90
  -7  -3   8   13.90    1.46
  -7  -3   8   14.73    1.50
  -7  -3   8   14.81    1.25
  -7  -3   8   14.97    1.59
  -7  -3   7    7.52    1.21
  -7   3   7    7.58    1.36
  -7  -3   7    7.97    1.43
  -7  -3   7    8.16    1.18
  -7   3   7    6.88    1.40
  -7  -3   7    6.97    1.22
  -7  -3   7    5.70    1.05
  -7  -3   6   72.20    4.07
  -7   3   6   77.63    4.53
  -7  -3   6   82.71    3.52
  -7   3   6   81.52    4.54
  -7  -3   6   69.40    3.73
  -7  -3   6   71.01    3.57
  -7  -3   6   78.07    3.75
  -7  -3   5  224.54    7.28
  -7   3   5  232.46    8.17
  -7  -3   5  222.15    5.78
  -7   3   5  242.40    7.98
  -7  -3   5  229.96    6.89
  -7   3   5  243.94    8.25
  -7  -3   5  232.74    6.50
  -7  -3   5  227.91    6.90
  -7  -3   5  234.27    6.59
  -7  -3   4   80.11    4.33
  -7   3   4   77.32    4.76
  -7  -3   4   72.66    3.18
  -7   3   4   73.83    4.34
  -7  -3   4   72.00    3.84
  -7   3   4   74.65    4.66
  -7  -3   4   76.26    3.66
  -7  -3   4   71.79    3.83
  -7  -3   4   67.47    3.47
  -7  -3   3  239.09    7.39
  -7   3   3  243.25    8.49
  -7  -3   3  242.43    5.67
  -7   3   3  242.05    7.61
  -7  -3   3  243.61    7.08
  -7   3   3  255.50    8.61
  -7  -3   3  223.80    6.79
  -7  -3   3  233.61    6.34
  -7   3   2  160.93    6.76
  -7  -3   2  156.05    5.83
  -7   3   2  162.20    6.22
  -7  -3   2  160.81    5.65
  -7   3   2  172.16    6.93
  -7  -3   2  163.25    5.45
  -7  -3   2  153.93    5.46
  -7  -3   2  149.24    4.90
  -7   3   1  287.25    8.81
  -7  -3   1  288.47    7.86
  -7   3   1  311.30    8.64
  -7  -3   1  299.67    7.55
  -7   3   1  305.98    9.05
  -7  -3   1  304.24    7.45
  -7  -3   1  286.90    7.35
  -7  -3   1  300.16    6.75
  -7  -3   0    2.86    0.70
  -7   3   0    2.02    0.84
  -7  -3   0    5.22    1.15
  -7  -3   0    3.68    0.87
  -7   3   0    4.15    1.13
  -7  -3   0    3.24    0.99
  -7   3   0    3.36    0.97
  -7  -3   0    5.02    1.10
  -7  -3   0    2.97    0.85
  -7   3  -1   43.06    3.00
  -7  -3  -1   47.90    2.97
  -7  -3  -1   45.47    2.49
  -7   3  -1   43.47    3.12
  -7  -3  -1   48.40    2.83
  -7   3  -1   40.97    3.03
  -7  -3  -1   42.26    2.66
  -7  -3  -1   43.38    2.62
  -7  -3  -2   31.89    2.34
  -7   3  -2   32.55    2.60
  -7  -3  -2   33.93    2.27
  -7   3  -2   30.82    2.46
  -7  -3  -2   31.66    2.25
  -7  -3  -2   34.45    2.21
  -7  -3  -3   16.98    1.63
  -7   3  -3   18.60    1.89
  -7  -3  -3   15.96    1.47
  -7   3  -3   16.25    1.61
  -7  -3  -3   15.10    1.50
  -7  -3  -3   16.90    1.44
  -7  -3  -4   18.98    1.57
  -7   3  -4   17.86    1.72
  -7  -3  -4   18.81    1.42
  -7  -3  -4   17.97    1.55
  -7  -3  -5    1.40    0.48
  -7   3  -5    1.02    0.50
  -7  -3  -5    0.68    0.39
  -7   3  -6   66.71    2.52
  -7  -3  -6   63.68    2.30
  -7  -4  10   11.58    0.94
  -7  -4   9    8.35    1.00
  -7  -4   9    8.55    0.96
  -7  -4   9    9.01    1.03
  -7  -4   9    8.34    1.00
  -7  -4   8    9.50    1.28
  -7   4   8    7.82    1.05
  -7  -4   8    8.78    1.05
  -7   4   8   10.09    1.40
  -7  -4   8    9.21    1.15
  -7  -4   8    8.99    0.92
  -7  -4   8    8.55    0.90
  -7  -4   8   10.10    1.21
  -7  -4   7   48.69    3.01
  -7   4   7   44.86    2.92
  -7  -4   7   44.93    2.38
  -7   4   7   46.05    3.04
  -7  -4   7   42.03    2.09
  -7  -4   7   46.72    2.68
  -7  -4   7   46.85    2.69
  -7  -4   6  101.41    4.54
  -7   4   6   92.22    4.59
  -7  -4   6   95.84    3.57
  -7   4   6  102.72    4.67
  -7  -4   6   97.79    3.97
  -7  -4   6   98.59    3.29
  -7  -4   6  102.50    4.11
  -7  -4   6  103.72    4.05
  -7  -4   5   87.72    4.29
  -7   4   5   87.55    4.77
  -7  -4   5   81.69    3.28
  -7   4   5   91.76    4.41
  -7  -4   5   84.44    3.85
  -7  -4   5   89.50    3.16
  -7  -4   5   89.45    3.88
  -7  -4   5   83.29    3.96
  -7  -4   5   89.77    3.80
  -7  -4   4   72.86    3.95
  -7   4   4   79.74    4.64
  -7  -4   4   74.70    3.06
  -7   4   4   74.77    3.91
  -7  -4   4   70.74    3.57
  -7   4   4   75.78    4.49
  -7  -4   4   78.74    3.64
  -7  -4   4   72.42    3.70
  -7  -4   4   75.72    3.50
  -7   4   3  134.85    6.07
  -7  -4   3  123.96    5.11
  -7  -4   3  128.91    3.92
  -7  -4   3  122.26    4.68
  -7   4   3  141.87    6.16
  -7  -4   3  125.71    4.86
  -7  -4   3  122.65    4.43
  -7   4   2   22.79    2.52
  -7  -4   2   20.81    2.15
  -7  -4   2   21.03    1.84
  -7  -4   2   20.20    1.92
  -7   4   2   24.24    2.61
  -7  -4   2   20.76    1.99
  -7  -4   2   21.92    1.87
  -7   4   1  302.43    8.65
  -7  -4   1  311.21    7.85
  -7  -4   1  309.68    6.83
  -7   4   1  308.06    8.46
  -7  -4   1  298.88    7.20
  -7   4   1  324.72    8.93
  -7  -4   1  321.06    7.53
  -7  -4   1  299.69    6.60
  -7   4   0   36.88    2.85
  -7  -4   0   35.20    2.57
  -7  -4   0   32.34    2.12
  -7   4   0   35.81    2.83
  -7  -4   0   37.76    2.44
  -7   4   0   36.36    2.82
  -7  -4   0   34.01    2.22
  -7  -4   0   32.28    2.30
  -7  -4   0   33.87    2.05
  -7   4  -1   45.23    2.86
  -7  -4  -1   50.17    2.91
  -7  -4  -1   47.05    2.43
  -7   4  -1   48.17    3.15
  -7  -4  -1   48.93    2.70
  -7   4  -1   49.93    3.03
  -7  -4  -1   48.31    2.60
  -7  -4  -1   46.44    2.62
  -7  -4  -1   48.11    2.27
  -7  -4  -2   84.99    3.60
  -7  -4  -2   77.83    2.90
  -7   4  -2   80.97    3.93
  -7  -4  -2   81.23    3.30
  -7  -4  -2   77.02    3.19
  -7  -4  -2   80.51    3.25
   7   4   3    5.27    0.81
  -7  -4  -3    6.90    1.01
  -7   4  -3    6.14    1.08
  -7  -4  -3    6.34    0.90
  -7  -4  -3    5.64    0.85
  -7  -4  -3    5.44    0.82
   7   4   4    1.12    0.45
  -7  -4  -4    1.03    0.46
  -7   4  -4    0.70    0.40
  -7  -4  -4    1.00    0.42
  -7  -4  -4    0.77    0.38
  -7  -4  -4    1.10    0.38
  -7  -4  -5    9.16    0.90
  -7   4  -5   10.15    1.03
  -7  -4  -5    8.95    0.90
  -7  -5   8   17.74    1.26
  -7  -5   8   17.20    1.35
  -7  -5   8   15.48    1.04
  -7  -5   8   16.68    1.09
  -7  -5   8   16.46    1.31
  -7  -5   7   22.64    1.70
  -7   5   7   21.28    1.73
  -7  -5   7   22.98    1.54
  -7  -5   7   24.50    1.77
  -7  -5   7   21.31    1.34
  -7  -5   7   23.18    1.69
  -7  -5   6   37.30    2.41
  -7   5   6   39.72    2.71
  -7  -5   6   38.35    2.04
  -7  -5   6   37.70    1.88
  -7  -5   6   38.15    2.31
  -7  -5   6   37.73    2.23
  -7  -5   5   37.15    2.52
  -7   5   5   38.32    2.85
  -7  -5   5   36.57    2.01
  -7  -5   5   37.15    2.21
  -7  -5   5   37.49    1.92
  -7  -5   5   37.68    2.36
  -7  -5   5   36.66    2.40
  -7  -5   5   38.40    2.32
  -7  -5   4    5.18    0.94
  -7   5   4    3.05    0.93
  -7  -5   4    4.39    0.93
  -7  -5   4    4.93    0.80
  -7  -5   4    4.38    0.87
  -7  -5   4    5.78    1.01
  -7  -5   4    4.38    0.90
  -7   5   3   35.46    2.85
  -7  -5   3   39.56    2.65
  -7  -5   3   37.66    1.96
  -7  -5   3   34.13    2.26
  -7  -5   3   36.29    2.41
  -7  -5   3   36.36    2.24
  -7   5   2   82.41    4.23
  -7  -5   2   79.33    3.75
  -7  -5   2   80.75    2.74
  -7  -5   2   81.27    3.49
  -7  -5   2   80.04    3.55
  -7  -5   2   84.02    3.32
  -7   5   1   47.31    3.10
  -7  -5   1   49.86    2.93
  -7  -5   1   50.79    2.53
  -7  -5   1   51.56    2.73
  -7  -5   1   54.43    2.87
  -7  -5   1   47.86    2.42
  -7   5   0   33.82    2.43
  -7  -5   0   35.44    2.36
  -7  -5   0   34.00    2.00
  -7  -5   0   35.17    2.18
  -7  -5   0   37.26    2.30
  -7  -5   0   33.83    1.92
  -7   5  -1    5.55    0.90
  -7  -5  -1    5.25    0.99
  -7  -5  -1    5.60    0.80
  -7   5  -1    5.44    1.05
  -7  -5  -1    5.78    0.95
  -7  -5  -1    5.55    0.91
  -7  -5  -1    6.11    0.78
  -7  -5  -2   52.01    2.58
  -7  -5  -2   47.65    2.05
  -7   5  -2   53.16    2.87
  -7  -5  -2   50.78    2.38
  -7  -5  -2   51.03    2.21
  -7  -5  -2   49.15    2.34
  -7  -5  -2   47.46    1.85
  -7  -5  -3   17.60    1.39
  -7   5  -3   19.60    1.59
  -7  -5  -3   18.69    1.33
  -7  -5  -3   16.16    1.18
  -7  -5  -3   17.30    1.27
  -7  -5  -4   24.89    1.45
  -7  -5  -4   24.02    1.29
  -7   6   6    7.46    0.96
  -7  -6   6    8.30    0.83
  -7  -6   6    8.12    0.94
  -7  -6   6    7.83    0.91
  -7   6   5   33.27    2.20
  -7  -6   5   31.20    1.61
  -7  -6   5   29.17    1.46
  -7  -6   5   34.18    1.96
  -7  -6   5   31.82    1.84
  -7  -6   4    7.43    0.96
  -7   6   4    7.88    1.16
  -7  -6   4    7.10    0.79
  -7  -6   4    6.89    0.75
  -7  -6   4    9.33    1.10
  -7  -6   4    6.95    0.95
  -7  -6   4    7.27    0.96
  -7  -6   3    1.40    0.51
  -7   6   3    1.68    0.61
  -7  -6   3    2.23    0.59
  -7  -6   3    2.36    0.48
  -7  -6   3    1.10    0.44
  -7  -6   3    1.37    0.53
  -7  -6   3    0.57    0.39
  -7   6   2   45.51    2.68
  -7  -6   2   48.48    2.48
  -7  -6   2   42.75    1.74
  -7  -6   2   45.92    2.24
  -7  -6   2   49.15    2.46
  -7  -6   2   47.37    2.22
  -7   6   1   32.26    2.12
  -7  -6   1   33.48    2.04
  -7  -6   1   34.39    1.94
  -7  -6   1   33.85    1.99
  -7  -6   1   35.37    1.86
  -7   6   0    6.86    0.90
  -7  -6   0    6.82    0.95
  -7  -6   0    6.12    0.77
  -7  -6   0    6.92    0.88
  -7  -6   0    7.00    0.92
  -7  -6   0    6.71    0.78
  -7  -6  -1   12.46    1.16
  -7  -6  -1   11.85    0.97
  -7  -6  -1   11.69    1.08
  -7  -6  -1   14.24    1.20
  -7  -6  -1   12.66    0.95
  -7  -6  -2   43.57    1.95
  -7  -6  -2   42.80    1.85
  -7  -6  -2   44.89    1.89
  -8   0   9   67.25    2.70
  -8   0   9   67.00    2.74
  -8   0   9   65.22    2.40
  -8   0   8   17.25    1.56
  -8   0   8   15.40    1.32
  -8   0   8   17.65    1.65
  -8   0   8   16.22    1.34
  -8   0   7   44.20    2.66
  -8   0   7   39.80    2.45
  -8   0   7   42.82    2.74
  -8   0   7   39.48    2.18
  -8   0   6    2.68    0.79
  -8   0   6    4.17    0.93
  -8   0   6    2.56    0.69
  -8   0   5   84.33    3.86
  -8   0   5   87.35    4.12
  -8   0   5   85.46    4.10
  -8   0   5   83.18    3.89
  -8   0   4   21.80    2.00
  -8   0   4   23.27    2.20
  -8   0   4   24.98    2.24
  -8   0   4   22.86    2.14
  -8   0   3    3.88    0.95
  -8   0   3    5.53    0.99
  -8   0   3    7.11    1.21
  -8   0   3    5.05    1.08
  -8   0   2    8.51    1.20
  -8   0   2    7.87    1.34
  -8   0   2    8.56    1.29
  -8   0   2    8.74    1.37
  -8   0   1   82.37    4.00
  -8   0   1   83.65    3.77
  -8   0   1   77.32    3.87
  -8   0   0    1.92    0.76
  -8   0   0    1.33    0.74
  -8   0   0    2.23    0.90
  -8   0  -1  469.78    8.41
  -8   0  -1  457.96    7.86
  -8   0  -1  483.54    9.32
  -8   0  -2    5.47    0.87
  -8   0  -2    5.84    1.00
  -8   0  -3   19.15    1.43
  -8   0  -3   19.45    1.60
  -8   0  -4    6.65    0.77
  -8   0  -4    8.13    0.90
  -8  -1   9   23.93    1.65
  -8   1   9   23.21    1.63
  -8  -1   9   21.88    1.45
  -8  -1   9   23.06    1.46
  -8   1   8   14.50    1.31
  -8  -1   8   14.50    1.47
  -8   1   8   14.38    1.27
  -8  -1   8   13.50    1.17
  -8  -1   8   13.55    1.08
  -8   1   8   15.30    1.53
  -8  -1   8   14.70    1.44
  -8  -1   8   15.72    1.34
  -8   1   7    8.42    1.10
  -8  -1   7    9.71    1.31
  -8   1   7    8.64    1.21
  -8  -1   7    9.08    1.15
  -8   1   7   10.54    1.41
  -8  -1   7    8.80    1.22
  -8  -1   7    9.09    1.11
  -8  -1   6    0.13    0.47
  -8   1   6    0.63    0.45
  -8  -1   6    0.00    0.48
  -8   1   6    0.52    0.43
  -8  -1   6    0.62    0.59
  -8   1   6    0.86    0.64
  -8  -1   6   -0.16    0.59
  -8   1   6   -0.03    0.44
  -8   1   5   10.25    1.29
  -8  -1   5   10.50    1.43
  -8  -1   5    9.82    1.39
  -8   1   5    7.45    1.26
  -8   1   5    9.16    1.41
  -8  -1   5    8.40    1.32
  -8   1   5    9.60    1.41
  -8  -1   5    9.44    1.27
  -8  -1   5    9.10    1.11
  -8  -1   4   49.33    3.01
  -8   1   4   47.75    3.14
  -8  -1   4   55.11    3.26
  -8   1   4   50.96    3.20
  -8  -1   4   52.59    3.18
  -8   1   4   51.44    3.28
  -8  -1   4   49.64    2.92
  -8  -1   3   87.01    3.95
  -8   1   3   84.04    4.21
  -8  -1   3   93.22    4.24
  -8   1   3   86.69    4.07
  -8  -1   3   84.66    4.00
  -8   1   3   88.54    4.31
  -8  -1   3   84.05    3.88
  -8  -1   2   42.57    2.69
  -8   1   2   42.34    2.96
  -8  -1   2   47.44    3.00
  -8   1   2   43.22    2.78
  -8  -1   2   46.69    2.89
  -8   1   2   42.58    2.99
  -8  -1   2   40.01    2.70
  -8  -1   1   39.56    2.50
  -8   1   1   39.63    2.75
  -8  -1   1   42.18    2.77
  -8   1   1   35.31    2.25
  -8   1   1   38.79    2.47
  -8  -1   1   42.26    2.66
  -8   1   1   39.16    2.81
  -8  -1   1   39.02    2.64
  -8  -1   0   97.66    3.72
  -8   1   0   92.94    4.02
  -8  -1   0   99.89    4.02
  -8   1   0   91.78    3.64
  -8  -1   0   93.37    3.75
  -8   1   0   95.34    4.25
  -8  -1   0   97.02    4.06
  -8  -1  -1   56.00    2.60
  -8   1  -1   54.31    2.77
  -8  -1  -1   53.97    2.66
  -8   1  -1   52.90    2.72
  -8  -1  -1   54.37    2.62
  -8   1  -1   57.25    3.13
  -8  -1  -1   56.34    2.99
  -8   1  -2  113.20    3.84
  -8   1  -2  118.98    4.20
  -8  -1  -2  112.78    4.01
  -8   1  -3    4.16    0.76
  -8  -1  -3    3.25    0.58
  -8   1  -3    4.66    0.81
  -8  -1  -3    4.55    0.82
  -8   1  -4   13.69    1.13
  -8  -1  -4   15.44    1.22
  -8  -2   9    1.30    0.39
  -8  -2   9    1.65    0.45
  -8   2   9    1.56    0.46
  -8  -2   8    6.01    0.93
  -8  -2   8    4.20    0.61
  -8   2   8    5.42    0.89
  -8  -2   8    5.25    0.79
  -8  -2   8    4.92    0.76
  -8  -2   7    6.35    0.88
  -8  -2   7    7.72    1.12
  -8   2   7    6.54    1.04
  -8  -2   7    6.26    0.92
  -8  -2   7    5.51    0.69
  -8   2   7    6.85    1.11
  -8  -2   7    6.43    0.98
  -8  -2   6   11.13    1.42
  -8   2   6   10.08    1.39
  -8  -2   6   10.53    1.30
  -8   2   6   12.16    1.51
  -8  -2   6    8.76    1.23
  -8  -2   6   11.40    1.22
  -8  -2   5   34.83    2.46
  -8   2   5   34.45    2.63
  -8  -2   5   33.29    2.32
  -8   2   5   35.86    2.60
  -8  -2   5   34.12    2.42
  -8   2   5   34.66    2.60
  -8  -2   5   32.68    2.06
  -8  -2   4  123.85    4.67
  -8   2   4  123.03    5.07
  -8  -2   4  123.57    4.62
  -8   2   4  122.84    4.75
  -8  -2   4  112.53    4.45
  -8   2   4  124.34    5.08
  -8  -2   4  120.94    3.87
  -8  -2   3   31.69    2.35
  -8   2   3   33.00    2.69
  -8  -2   3   37.12    2.58
  -8   2   3   28.56    2.22
  -8  -2   3   31.47    2.34
  -8   2   3   29.81    2.51
  -8  -2   3   32.15    2.21
  -8  -2   3   29.90    2.14
  -8  -2   2    8.02    1.27
  -8   2   2    7.42    1.29
  -8  -2   2    6.16    1.08
  -8   2   2    5.22    0.89
  -8  -2   2    6.15    1.06
  -8   2   2    6.26    1.23
  -8  -2   2    5.19    0.95
  -8  -2   2    6.30    1.00
  -8  -2   1   13.02    1.45
  -8   2   1   12.23    1.55
  -8  -2   1   14.44    1.56
  -8   2   1   11.48    1.32
  -8  -2   1   12.02    1.41
  -8   2   1   13.49    1.67
  -8  -2   1   12.68    1.44
  -8  -2   1   14.86    1.36
  -8   2   0   13.46    1.53
  -8  -2   0   13.47    1.42
  -8  -2   0   13.26    1.39
  -8   2   0   13.26    1.43
  -8  -2   0   13.25    1.42
  -8   2   0   16.63    1.79
  -8  -2   0   13.23    1.46
  -8  -2   0   15.03    1.29
  -8  -2  -1   28.81    1.90
  -8  -2  -1   27.24    1.80
  -8   2  -1   27.34    2.00
  -8  -2  -1   28.89    1.90
  -8   2  -1   29.30    2.19
  -8  -2  -1   27.52    1.98
  -8  -2  -2   86.02    2.98
  -8   2  -2   83.04    3.28
  -8  -2  -2   83.85    2.87
  -8   2  -2   91.02    3.47
  -8  -2  -2   86.44    3.31
  -8   2  -3   33.60    1.94
  -8   2  -3   32.79    1.79
  -8  -2  -3   33.31    1.90
  -8   2  -4   24.95    1.46
  -8  -2  -4   26.16    1.47
  -8  -3   8    1.32    0.42
  -8  -3   8    1.17    0.40
  -8   3   8    1.98    0.50
  -8  -3   7   20.39    1.66
  -8   3   7   20.79    1.59
  -8  -3   7   18.94    1.35
  -8  -3   7   16.26    1.11
  -8   3   7   21.66    1.70
  -8  -3   7   18.29    1.41
  -8  -3   7   18.62    1.21
  -8  -3   7   18.28    1.38
  -8  -3   6   22.53    1.86
  -8   3   6   21.57    1.89
  -8  -3   6   21.95    1.65
  -8  -3   6   17.89    1.19
  -8   3   6   21.21    1.77
  -8  -3   6   20.92    1.67
  -8  -3   6   21.20    1.37
  -8  -3   6   19.73    1.51
  -8  -3   5    7.41    1.17
  -8  -3   5    8.31    1.17
  -8   3   5    5.97    1.11
  -8   3   5    6.82    1.09
  -8  -3   5    5.99    1.05
  -8  -3   5    5.84    0.90
  -8  -3   4   57.94    3.04
  -8   3   4   57.85    3.34
  -8  -3   4   64.74    3.11
  -8   3   4   56.49    2.84
  -8  -3   4   55.37    2.88
  -8   3   4   61.93    3.42
  -8  -3   4   59.93    2.90
  -8  -3   4   56.27    2.55
  -8  -3   3   39.03    2.51
  -8   3   3   39.77    2.76
  -8  -3   3   35.93    2.32
  -8   3   3   38.89    2.76
  -8  -3   3   34.72    2.22
  -8  -3   3   35.50    1.95
  -8  -3   2    8.96    1.24
  -8   3   2    8.83    1.34
  -8  -3   2    8.68    1.16
  -8   3   2    9.14    1.37
  -8  -3   2    8.48    1.05
  -8  -3   2   10.01    1.22
  -8   3   1   11.22    1.40
  -8  -3   1   12.50    1.37
  -8  -3   1   14.31    1.46
  -8  -3   1   12.15    1.32
  -8   3   1   12.88    1.53
  -8  -3   1   10.36    1.16
  -8  -3   1   12.60    1.26
  -8   3   0   30.54    2.07
  -8  -3   0   34.14    2.14
  -8  -3   0   32.29    1.98
  -8   3   0   32.05    2.15
  -8  -3   0   32.90    2.05
  -8   3   0   32.47    2.25
  -8  -3   0   32.04    1.97
  -8  -3   0   32.38    1.84
  -8  -3  -1    5.06    0.72
  -8  -3  -1    5.31    0.83
  -8   3  -1    4.85    0.88
  -8  -3  -1    5.86    0.85
  -8  -3  -1    5.71    0.84
  -8   3  -1    5.85    0.91
  -8  -3  -1    6.12    0.74
  -8  -3  -2   37.00    1.89
  -8   3  -2   36.19    2.07
  -8  -3  -2   37.76    1.84
  -8   3  -2   34.47    1.80
  -8  -3  -2   36.52    1.92
  -8   3  -3   19.58    1.38
  -8  -3  -3   19.29    1.28
  -8  -4   7   59.38    2.18
  -8  -4   6   20.44    1.56
  -8   4   6   22.89    1.69
  -8  -4   6   19.03    1.32
  -8  -4   6   20.19    1.37
  -8  -4   5  184.47    4.89
  -8   4   5  186.20    5.24
  -8  -4   5  188.59    4.60
  -8  -4   5  176.40    4.45
  -8  -4   5  173.05    3.85
  -8  -4   5  174.85    4.18
  -8  -4   4  139.09    4.34
  -8   4   4  135.81    4.62
  -8  -4   4  132.65    4.02
  -8  -4   4  129.03    3.35
  -8  -4   4  129.13    3.56
  -8   4   3    6.48    1.12
  -8  -4   3    6.10    0.99
  -8  -4   3    6.26    0.93
  -8  -4   3    4.77    0.67
  -8  -4   3    6.47    0.97
  -8  -4   3    5.68    0.78
  -8   4   2   11.91    1.37
  -8  -4   2   11.96    1.29
  -8  -4   2   10.38    1.13
  -8  -4   2   12.17    1.21
  -8  -4   2   11.12    0.98
  -8   4   1   15.35    1.42
  -8  -4   1   17.15    1.48
  -8  -4   1   18.84    1.47
  -8  -4   1   16.12    1.36
  -8   4   1   17.33    1.51
  -8  -4   1   17.01    1.34
  -8   4   0    2.66    0.57
  -8  -4   0    3.28    0.60
  -8  -4   0    3.22    0.65
  -8  -4   0    3.70    0.67
  -8  -4   0    3.84    0.64
  -8  -4  -1   24.89    1.56
  -8  -4  -1   23.94    1.47
  -8  -4  -1   22.91    1.29
  -8  -4  -2    6.03    0.70
  -8   5   4    2.67    0.62
  -8  -5   4    2.71    0.53
  -8  -5   3   45.08    2.07
  -8   5   3   43.22    2.17
  -8  -5   3   41.83    1.86
  -8  -5   3   43.10    1.96
  -8   5   2   49.97    2.22
  -8  -5   2   51.99    2.22
  -8  -5   2   48.63    2.02
  -8  -5   2   48.83    2.04
  -8  -5   1   14.28    1.13
  -8  -5   1   14.96    1.10
  -8  -5   1   15.18    1.10
  -9   0   5   35.63    1.88
  -9   0   5   37.78    1.90
  -9   0   4    1.82    0.57
  -9   0   4    2.21    0.53
  -9   0   3   14.76    1.28
  -9   0   3   14.63    1.18
  -9   0   3   14.17    1.20
  -9   0   2   14.98    1.26
  -9   0   2   14.85    1.25
  -9   0   1   22.91    1.53
  -9   0   0   11.70    1.03
  -9   1   5   24.41    1.53
  -9  -1   5   24.81    1.50
  -9  -1   5   24.41    1.50
  -9   1   4   11.44    1.13
  -9  -1   4   11.15    1.07
  -9  -1   4   10.90    1.06
  -9   1   3    0.71    0.34
  -9  -1   3    0.90    0.37
  -9  -1   3    1.25    0.40
  -9   1   3    0.64    0.35
  -9   1   2   24.82    1.57
  -9  -1   2   22.68    1.47
  -9  -1   2   23.14    1.41
  -9   1   2   22.74    1.57
  -9   1   1   25.06    1.59
  -9  -2   3    7.28    0.81
  -9  -2   3    7.64    0.82
  -9   2   2    4.02    0.66
   0   0   0    0.00    0.00






TITL exp_47 in P2(1)/m
REM P2(1)/m (#11 in standard setting)
CELL 1.54184   7.374172   8.590387  12.087770  90.0000 101.0024  90.0000
ZERR    3.00   0.000077   0.000106   0.000128   0.0000   0.0011   0.0000
LATT  1
SYMM -x, y+1/2,-z
SFAC C H N O
UNIT 33.00 30.00 3.00 3.00
TREF
HKLF 4
END
_computing_structure_solution     'SHELXT 2018/2 (Sheldrick, 2018)'
_computing_structure_solution     'SHELXT 2018/2 (Sheldrick, 2018)'
_computing_structure_solution     'SHELXT 2018/2 (Sheldrick, 2018)'
_computing_structure_solution     'SHELXT 2018/2 (Sheldrick, 2018)'
_computing_structure_solution     'SHELXT 2018/2 (Sheldrick, 2018)'
;
_shelx_hkl_checksum              77618
_olex2_submission_special_instructions 'No special instructions were received'
loop_
_space_group_symop_operation_xyz
'x, y, z'
'-x, y+1/2, -z'
loop_
_atom_site_label
_atom_site_type_symbol
_atom_site_fract_x
_atom_site_fract_y
_atom_site_fract_z
_atom_site_U_iso_or_equiv
_atom_site_adp_type
_atom_site_occupancy
_atom_site_site_symmetry_order
_atom_site_calc_flag
_atom_site_refinement_flags_posn
_atom_site_refinement_flags_adp
_atom_site_refinement_flags_occupancy
_atom_site_disorder_assembly
_atom_site_disorder_group
O18 O 0.7307(2) 0.4902(2) 0.52811(12) 0.0510(4) Uani 1 1 d . . . . .
H001 H 0.698793 0.440296 0.469819 0.077 Uiso 1 1 calc GR . . . .
O19 O 0.3424(2) 0.6034(2) 0.52581(13) 0.0548(5) Uani 1 1 d . . . . .
O21 O 0.4642(3) 0.8418(2) 0.66021(16) 0.0649(5) Uani 1 1 d . . . . .
N9 N 0.4930(2) 0.5873(2) 0.61502(15) 0.0430(4) Uani 1 1 d . . . . .
C11 C 0.5842(2) 0.3503(2) 0.79085(15) 0.0353(4) Uani 1 1 d . . . . .
C8 C 0.6129(2) 0.4559(3) 0.60289(15) 0.0382(4) Uani 1 1 d . . . . .
H006 H 0.535537 0.366834 0.573367 0.046 Uiso 1 1 calc R . . . .
C16 C 0.5546(3) 0.4210(3) 0.88873(17) 0.0455(5) Uani 1 1 d . . . . .
H007 H 0.620249 0.510547 0.914294 0.055 Uiso 1 1 calc R . . . .
C7 C 0.7224(2) 0.4137(2) 0.72155(15) 0.0352(4) Uani 1 1 d . . . . .
C17 C 0.8616(3) 0.2844(3) 0.7099(2) 0.0478(5) Uani 1 1 d . . . . .
H00A H 0.918291 0.247725 0.783442 0.072 Uiso 1 1 calc GR . . . .
H00B H 0.954934 0.324901 0.672253 0.072 Uiso 1 1 calc GR . . . .
H00C H 0.798591 0.199921 0.666904 0.072 Uiso 1 1 calc GR . . . .
C1 C 0.8186(3) 0.5609(2) 0.77397(16) 0.0378(4) Uani 1 1 d . . . . .
C12 C 0.4847(3) 0.2154(3) 0.75483(18) 0.0464(5) Uani 1 1 d . . . . .
H00D H 0.503626 0.164742 0.689991 0.056 Uiso 1 1 calc R . . . .
C14 C 0.3281(3) 0.2287(3) 0.9118(2) 0.0537(6) Uani 1 1 d . . . . .
H00E H 0.241557 0.189361 0.951184 0.064 Uiso 1 1 calc R . . . .
C13 C 0.3570(3) 0.1561(3) 0.8155(2) 0.0557(6) Uani 1 1 d . . . . .
H00F H 0.290819 0.066541 0.790459 0.067 Uiso 1 1 calc R . . . .
C10 C 0.5524(3) 0.7201(3) 0.67091(16) 0.0440(5) Uani 1 1 d . . . . .
C6 C 0.7334(3) 0.7048(3) 0.74963(15) 0.0413(4) Uani 1 1 d . . . . .
C15 C 0.4282(3) 0.3604(3) 0.94984(19) 0.0543(6) Uani 1 1 d . . . . .
H00G H 0.411438 0.408592 1.016041 0.065 Uiso 1 1 calc R . . . .
C2 C 0.9883(3) 0.5572(3) 0.8475(2) 0.0517(5) Uani 1 1 d . . . . .
H00H H 1.047891 0.462373 0.864582 0.062 Uiso 1 1 calc R . . . .
C5 C 0.8161(4) 0.8407(3) 0.7986(2) 0.0557(6) Uani 1 1 d . . . . .
H00I H 0.757851 0.936192 0.782192 0.067 Uiso 1 1 calc R . . . .
C3 C 1.0706(3) 0.6926(4) 0.8960(2) 0.0635(7) Uani 1 1 d . . . . .
H00J H 1.184056 0.687671 0.945196 0.076 Uiso 1 1 calc R . . . .
C4 C 0.9853(4) 0.8331(4) 0.8717(2) 0.0649(7) Uani 1 1 d . . . . .
H00K H 1.040681 0.923635 0.904270 0.078 Uiso 1 1 calc R . . . .
C20 C 0.1787(4) 0.5519(8) 0.5608(4) 0.1080(18) Uani 1 1 d . . . . .
H00L H 0.078025 0.551730 0.497315 0.162 Uiso 1 1 calc GR . . . .
H00M H 0.150430 0.620707 0.617712 0.162 Uiso 1 1 calc GR . . . .
H00N H 0.197094 0.448404 0.590824 0.162 Uiso 1 1 calc GR . . . .
loop_
_atom_site_aniso_label
_atom_site_aniso_U_11
_atom_site_aniso_U_22
_atom_site_aniso_U_33
_atom_site_aniso_U_23
_atom_site_aniso_U_13
_atom_site_aniso_U_12
O18 0.0548(8) 0.0596(11) 0.0409(7) -0.0062(7) 0.0147(6) -0.0187(8)
O19 0.0384(7) 0.0725(13) 0.0489(8) 0.0214(8) -0.0033(6) -0.0054(7)
O21 0.0842(12) 0.0482(11) 0.0595(10) 0.0093(8) 0.0067(9) 0.0227(9)
N9 0.0399(7) 0.0448(11) 0.0410(7) 0.0091(7) -0.0010(6) 0.0007(6)
C11 0.0379(7) 0.0274(9) 0.0393(8) 0.0049(7) 0.0043(6) 0.0016(7)
C8 0.0403(8) 0.0372(11) 0.0363(8) -0.0005(7) 0.0056(6) -0.0079(7)
C16 0.0508(10) 0.0445(11) 0.0410(9) -0.0020(8) 0.0084(8) -0.0036(8)
C7 0.0372(8) 0.0298(10) 0.0376(8) -0.0013(7) 0.0042(6) -0.0024(7)
C17 0.0447(10) 0.0372(12) 0.0616(12) -0.0063(9) 0.0105(8) 0.0025(8)
C1 0.0394(8) 0.0342(10) 0.0393(8) -0.0017(8) 0.0061(6) -0.0050(8)
C12 0.0547(10) 0.0316(11) 0.0537(11) -0.0008(9) 0.0121(8) -0.0063(8)
C14 0.0495(10) 0.0521(14) 0.0617(12) 0.0224(11) 0.0160(9) 0.0037(9)
C13 0.0558(11) 0.0396(13) 0.0729(14) 0.0093(10) 0.0153(10) -0.0112(9)
C10 0.0547(10) 0.0371(11) 0.0416(9) 0.0098(8) 0.0126(8) 0.0073(9)
C6 0.0529(10) 0.0336(10) 0.0378(9) 0.0029(8) 0.0098(7) -0.0038(8)
C15 0.0588(11) 0.0609(16) 0.0454(10) 0.0054(9) 0.0154(8) 0.0023(11)
C2 0.0448(10) 0.0482(13) 0.0569(11) -0.0065(10) -0.0037(8) -0.0051(10)
C5 0.0780(14) 0.0337(12) 0.0569(12) -0.0007(9) 0.0165(10) -0.0098(11)
C3 0.0519(11) 0.0663(18) 0.0667(14) -0.0120(14) -0.0027(10) -0.0198(13)
C4 0.0777(16) 0.0505(16) 0.0662(15) -0.0136(12) 0.0129(12) -0.0303(13)
C20 0.0449(12) 0.163(5) 0.112(3) 0.063(3) 0.0061(14) -0.0191(19)
loop_
_atom_type_symbol
_atom_type_description
_atom_type_scat_dispersion_real
_atom_type_scat_dispersion_imag
_atom_type_scat_source
C C 0.0181 0.0091 'International Tables Vol C Tables 4.2.6.8 and 6.1.1.4'
H H 0.0000 0.0000 'International Tables Vol C Tables 4.2.6.8 and 6.1.1.4'
N N 0.0311 0.0180 'International Tables Vol C Tables 4.2.6.8 and 6.1.1.4'
O O 0.0492 0.0322 'International Tables Vol C Tables 4.2.6.8 and 6.1.1.4'
loop_
_geom_angle_atom_site_label_1
_geom_angle_atom_site_label_2
_geom_angle_atom_site_label_3
_geom_angle
_geom_angle_site_symmetry_1
_geom_angle_site_symmetry_3
_geom_angle_publ_flag
N9 O19 C20 109.50(19) . . ?
O19 N9 C8 113.98(17) . . ?
C10 N9 O19 115.72(17) . . ?
C10 N9 C8 123.87(16) . . ?
C16 C11 C7 122.65(18) . . ?
C16 C11 C12 118.14(18) . . ?
C12 C11 C7 119.21(17) . . ?
O18 C8 N9 111.39(18) . . ?
O18 C8 C7 111.67(14) . . ?
N9 C8 C7 107.87(15) . . ?
C11 C16 C15 121.3(2) . . ?
C11 C7 C8 107.74(14) . . ?
C17 C7 C11 108.50(16) . . ?
C17 C7 C8 108.90(16) . . ?
C1 C7 C11 111.78(15) . . ?
C1 C7 C8 108.03(16) . . ?
C1 C7 C17 111.77(15) . . ?
C6 C1 C7 119.51(16) . . ?
C2 C1 C7 122.5(2) . . ?
C2 C1 C6 118.0(2) . . ?
C13 C12 C11 120.4(2) . . ?
C13 C14 C15 119.7(2) . . ?
C14 C13 C12 120.6(2) . . ?
O21 C10 N9 123.4(2) . . ?
O21 C10 C6 122.4(2) . . ?
N9 C10 C6 114.15(18) . . ?
C1 C6 C10 121.73(19) . . ?
C1 C6 C5 120.65(19) . . ?
C5 C6 C10 117.6(2) . . ?
C14 C15 C16 119.8(2) . . ?
C3 C2 C1 121.2(2) . . ?
C4 C5 C6 119.9(3) . . ?
C4 C3 C2 120.2(2) . . ?
C3 C4 C5 120.0(2) . . ?
loop_
_geom_bond_atom_site_label_1
_geom_bond_atom_site_label_2
_geom_bond_distance
_geom_bond_site_symmetry_2
_geom_bond_publ_flag
O18 C8 1.399(2) . ?
O19 N9 1.400(2) . ?
O19 C20 1.424(3) . ?
O21 C10 1.225(3) . ?
N9 C8 1.458(3) . ?
N9 C10 1.355(3) . ?
C11 C16 1.384(3) . ?
C11 C7 1.537(2) . ?
C11 C12 1.396(3) . ?
C8 C7 1.549(2) . ?
C16 C15 1.396(3) . ?
C7 C17 1.537(3) . ?
C7 C1 1.527(3) . ?
C1 C6 1.393(3) . ?
C1 C2 1.391(3) . ?
C12 C13 1.396(3) . ?
C14 C13 1.372(4) . ?
C14 C15 1.381(4) . ?
C10 C6 1.490(3) . ?
C6 C5 1.395(3) . ?
C2 C3 1.389(4) . ?
C5 C4 1.386(4) . ?
C3 C4 1.367(5) . ?
