#------------------------------------------------------------------------------
#$Date: 2021-01-07 06:46:42 +0200 (Thu, 07 Jan 2021) $
#$Revision: 260660 $
#$URL: file:///home/coder/svn-repositories/cod/cif/7/12/71/7127150.cif $
#------------------------------------------------------------------------------
#
# This file is available in the Crystallography Open Database (COD),
# http://www.crystallography.net/
#
# All data on this site have been placed in the public domain by the
# contributors.
#
data_7127150
loop_
_publ_author_name
'Wu, Ting'
'Jiang, Shenlong'
'Samanta, Pabitra Narayan'
'Xie, Yangbin'
'Li, Jipeng'
'Wang, Xiaoling'
'Devashis, Majumdar'
'Gu, Xiangwei'
'Wang, Yusong'
'Huang, Wei'
'Zhang, Qun'
'Leszczynski, Jerzy'
'Wu, Dayu'
_publ_section_title
;
 Negative thermal quenching of photoluminescence in a copper-organic
 framework emitter.
;
_journal_issue                   80
_journal_name_full
'Chemical communications (Cambridge, England)'
_journal_page_first              12057
_journal_page_last               12060
_journal_paper_doi               10.1039/d0cc04788k
_journal_volume                  56
_journal_year                    2020
_chemical_formula_sum            'C5 H6 Cu2 I2 N2'
_chemical_formula_weight         475.00
_space_group_crystal_system      monoclinic
_space_group_IT_number           14
_space_group_name_Hall           '-P 2yn'
_space_group_name_H-M_alt        'P 1 21/n 1'
_atom_sites_solution_hydrogens   geom
_audit_creation_method           SHELXL-2014/6
_audit_update_record
;
2020-05-09 deposited with the CCDC.	2020-09-01 downloaded from the CCDC.
;
_cell_angle_alpha                90
_cell_angle_beta                 90.451(3)
_cell_angle_gamma                90
_cell_formula_units_Z            4
_cell_length_a                   11.4918(4)
_cell_length_b                   4.23200(10)
_cell_length_c                   19.5567(7)
_cell_measurement_reflns_used    4556
_cell_measurement_temperature    140(2)
_cell_measurement_theta_max      29.6890
_cell_measurement_theta_min      2.0700
_cell_volume                     951.08(5)
_computing_cell_refinement       'Bruker XSCANS'
_computing_data_collection       'Bruker XSCANS'
_computing_data_reduction        'Bruker SHELXTL'
_computing_molecular_graphics    'Bruker SHELXTL'
_computing_publication_material  'Bruker SHELXTL'
_computing_structure_refinement  'SHELXL-2014/6 (Sheldrick, 2014)'
_computing_structure_solution    'Bruker SHELXTL'
_diffrn_ambient_temperature      140(2)
_diffrn_measured_fraction_theta_full 0.973
_diffrn_measured_fraction_theta_max 1.000
_diffrn_measurement_device_type  HyPix
_diffrn_radiation_type           MoK\a
_diffrn_radiation_wavelength     0.71073
_diffrn_reflns_av_R_equivalents  0.0456
_diffrn_reflns_av_unetI/netI     0.0408
_diffrn_reflns_Laue_measured_fraction_full 0.973
_diffrn_reflns_Laue_measured_fraction_max 1.000
_diffrn_reflns_limit_h_max       13
_diffrn_reflns_limit_h_min       -13
_diffrn_reflns_limit_k_max       4
_diffrn_reflns_limit_k_min       -5
_diffrn_reflns_limit_l_max       21
_diffrn_reflns_limit_l_min       -23
_diffrn_reflns_number            6611
_diffrn_reflns_point_group_measured_fraction_full 0.973
_diffrn_reflns_point_group_measured_fraction_max 1.000
_diffrn_reflns_theta_full        25.242
_diffrn_reflns_theta_max         25.000
_diffrn_reflns_theta_min         2.048
_diffrn_source                   'Rotating-anode X-ray tube'
_exptl_absorpt_coefficient_mu    10.902
_exptl_absorpt_correction_T_max  1.00000
_exptl_absorpt_correction_T_min  0.03404
_exptl_absorpt_correction_type   multi-scan
_exptl_absorpt_process_details
;
CrysAlisPro 1.171.40.14a (Rigaku Oxford Diffraction, 2018)
Empirical absorption correction using spherical harmonics,
 implemented in SCALE3 ABSPACK scaling algorithm.
;
_exptl_crystal_colour            brown
_exptl_crystal_density_diffrn    3.317
_exptl_crystal_description       needle
_exptl_crystal_F_000             856
_exptl_crystal_size_max          0.32
_exptl_crystal_size_mid          0.15
_exptl_crystal_size_min          0.12
_refine_diff_density_max         1.139
_refine_diff_density_min         -1.161
_refine_diff_density_rms         0.245
_refine_ls_extinction_method     none
_refine_ls_goodness_of_fit_ref   1.080
_refine_ls_hydrogen_treatment    constr
_refine_ls_matrix_type           full
_refine_ls_number_parameters     100
_refine_ls_number_reflns         1666
_refine_ls_number_restraints     0
_refine_ls_restrained_S_all      1.080
_refine_ls_R_factor_all          0.0389
_refine_ls_R_factor_gt           0.0363
_refine_ls_shift/su_max          0.001
_refine_ls_shift/su_mean         0.000
_refine_ls_structure_factor_coef Fsqd
_refine_ls_weighting_details
'w=1/[\s^2^(Fo^2^)+(0.0497P)^2^+2.1994P] where P=(Fo^2^+2Fc^2^)/3'
_refine_ls_weighting_scheme      calc
_refine_ls_wR_factor_gt          0.0911
_refine_ls_wR_factor_ref         0.0927
_reflns_Friedel_coverage         0.000
_reflns_number_gt                1505
_reflns_number_total             1666
_reflns_threshold_expression     'I > 2\s(I)'
_cod_data_source_file            d0cc04788k3.cif
_cod_data_source_block           140k
_cod_depositor_comments
'Adding full bibliography for 7127147--7127150.cif.'
_cod_original_sg_symbol_H-M      'P 21/n'
_cod_database_code               7127150
_shelx_space_group_comment
;
The symmetry employed for this shelxl refinement is uniquely defined
by the following loop, which should always be used as a source of
symmetry information in preference to the above space-group names.
They are only intended as comments.
;
_shelxl_version_number           2014/6
_shelx_res_file
;
TITL 1 in P2(1)/n
CELL 0.71073  11.4918   4.2320  19.5567  90.000  90.451  90.000
ZERR   4.00   0.0004   0.0001   0.0007   0.000   0.003   0.000
LATT  1
SYMM 0.5-X, 0.5+Y, 0.5-Z
SFAC C H N Cu I
UNIT 20 24 8 8 8

L.S. 124
acta
BOND $h
omit 0 50
FMAP 2
PLAN 20

WGHT    0.049700    2.199400
FVAR       0.10712
CU1   4    0.674260    0.138742    0.208561    11.00000    0.03253    0.03471 =
         0.02725   -0.00100    0.00685   -0.00098
CU2   4    0.545610   -0.349839    0.139414    11.00000    0.01869    0.02783 =
         0.03412   -0.00310    0.00292   -0.00482
I1    5    0.637656    0.140820    0.078124    11.00000    0.02318    0.01766 =
         0.02189   -0.00198    0.00521   -0.00188
I2    5    0.591658   -0.361522    0.276180    11.00000    0.01891    0.01876 =
         0.02118   -0.00050    0.00479   -0.00073
C3    1    0.180025   -0.374026    0.147315    11.00000    0.01559    0.02486 =
         0.02337    0.00150    0.00575    0.00304
AFIX  43
H3A   2    0.107266   -0.323672    0.164722    11.00000   -1.20000
AFIX   0
C2    1    0.284991   -0.271022    0.170896    11.00000    0.02349    0.01716 =
         0.02397   -0.00487    0.00659    0.00088
AFIX  43
H2A   2    0.296263   -0.133439    0.207433    11.00000   -1.20000
AFIX   0
C1    1    0.319983   -0.580648    0.085958    11.00000    0.02106    0.02098 =
         0.02043   -0.00384    0.00198   -0.00442
AFIX  43
H1A   2    0.357619   -0.700463    0.052965    11.00000   -1.20000
AFIX   0
C4    1    0.117188   -0.738158    0.050967    11.00000    0.01295    0.02032 =
         0.03249   -0.00015   -0.00414   -0.00146
AFIX  23
H4A   2    0.059889   -0.833021    0.080787    11.00000   -1.20000
H4B   2    0.156029   -0.907351    0.026677    11.00000   -1.20000
AFIX   0
C5    1    0.055925   -0.527563   -0.000029    11.00000    0.02275    0.01801 =
         0.02240   -0.00044    0.00007   -0.00613
AFIX  43
H5A   2    0.100488   -0.431013   -0.033575    11.00000   -1.20000
AFIX   0
N1    3    0.373982   -0.405713    0.131217    11.00000    0.01421    0.02481 =
         0.02389    0.00455    0.00200   -0.00061
N2    3    0.202968   -0.567283    0.092654    11.00000    0.01588    0.01476 =
         0.02338    0.00210   -0.00575    0.00102

HKLF 4

REM  1 in P2(1)/n
REM R1 =  0.0363 for    1505 Fo > 4sig(Fo)  and  0.0389 for all    1666 data
REM    100 parameters refined using      0 restraints

END

WGHT      0.0500      2.1069

REM Highest difference peak  1.139,  deepest hole -1.161,  1-sigma level  0.245
Q1    1   0.6312 -0.3688  0.3406  11.00000  0.05    1.14
Q2    1   0.7276  0.1256  0.0885  11.00000  0.05    1.10
Q3    1   0.5129 -0.3636  0.2607  11.00000  0.05    1.09
Q4    1   0.5707 -0.3610  0.2049  11.00000  0.05    1.07
Q5    1   0.6708  0.1387  0.1430  11.00000  0.05    1.06
Q6    1   0.6888 -0.3690  0.2842  11.00000  0.05    1.01
Q7    1   0.6056 -0.1558  0.2912  11.00000  0.05    1.00
Q8    1   0.7739  0.1479  0.0560  11.00000  0.05    0.95
Q9    1   0.5833 -0.5788  0.2664  11.00000  0.05    0.84
Q10   1   0.5407  0.1493  0.0759  11.00000  0.05    0.84
Q11   1   0.6044 -0.5586  0.2976  11.00000  0.05    0.82
Q12   1   0.5379 -0.5599  0.1633  11.00000  0.05    0.81
Q13   1   0.6059  0.1561  0.0152  11.00000  0.05    0.81
Q14   1   0.4541 -0.3259  0.1225  11.00000  0.05    0.81
Q15   1   0.6199  0.3657  0.0630  11.00000  0.05    0.79
Q16   1   0.6437 -0.0557  0.0987  11.00000  0.05    0.77
Q17   1   0.6500  0.3547  0.1010  11.00000  0.05    0.76
Q18   1   0.5932 -0.1789  0.2403  11.00000  0.05    0.73
Q19   1   0.5075  0.1708  0.1023  11.00000  0.05    0.70
Q20   1   0.6825  0.3416  0.1892  11.00000  0.05    0.64
;
_shelx_res_checksum              56958
_shelx_hkl_file
;
   0   0  -2  268.48   13.83
   0   0   2  256.71   13.60
   0   0   2  258.36   13.81
   0   0  -2  285.08   13.62
   0   0   3    0.23    0.23
   0   0  -3    0.02    0.07
   0   0   3    0.02    0.06
   0   0   4    3.62    0.35
   0   0   4    3.17    0.53
   0   0  -4    3.40    0.35
   0   0   5    0.19    0.13
   0   0   5    0.15    0.27
   0   0   6  509.41   26.25
   0   0  -6  518.96   26.10
   0   0   6  516.52   26.90
   0   0   7    0.11    0.13
   0   0  -7    0.08    0.08
   0   0   7    0.11    0.31
   0   0   8   24.20    1.52
   0   0  -8   22.25    1.34
   0   0  -9   -0.03    0.11
   0   0   9    0.32    0.17
   0   0  -9    0.15    0.38
   0   0   9   -0.14    0.47
   0   0 -10   24.72    2.47
   0   0  10   21.92    1.65
   0   0  10   23.84    2.41
   0   0 -10   25.88    1.54
   0   0  11    0.22    0.16
   0   0 -11    0.37    0.53
   0   0 -11   -0.03    0.13
   0   0  12    1.25    0.35
   0   0 -12    1.58    0.71
   0   0 -13    0.43    0.20
   0   0  13    0.19    0.20
   0   0 -14  851.90   44.64
   0   0 -14  845.32   42.72
   0   0  14  827.98   42.93
   0   0  15    1.08    0.32
   0   0 -15    0.31    0.27
   0   0 -15    0.94    0.73
   0   0  16  128.25    7.35
   0   0 -16  142.23    9.07
   0   0 -16  130.42    7.17
   0   0 -17   -0.25    0.69
   0   0 -17    0.19    0.30
   0   0  17   -0.08    0.25
   0   0 -18    3.95    0.64
   0   0 -18    5.66    1.47
   0   0  18    5.92    0.82
   0   0 -19    0.27    0.61
   0   0 -19    0.07    0.32
   0   0  19    0.18    0.23
   0   0 -20  131.86    9.26
   0   0  20  148.42    7.93
   0   0 -20  127.25    7.62
   0   0 -21    0.09    0.34
   0   0 -21    0.83    0.90
   0   0 -22   31.37    2.46
   0   0 -22   30.26    3.57
   0   0 -23    0.11    0.35
   0   0 -23    0.29    0.83
   0   0 -24    5.66    1.51
   0   0 -24    4.85    0.95
   0   0 -25    0.28    0.81
   0   0 -26    8.73    1.87
   0  -1   0    0.11    0.10
   0  -1  -1    9.16    0.72
   0  -1   1    9.10    0.69
   0  -1   2  131.64    6.87
   0  -1  -2  145.60    7.14
   0   1   2  135.67    6.87
   0  -1   2  133.41    7.04
   0  -1   3    7.01    0.50
   0  -1  -3    7.80    0.68
   0   1   3    8.38    0.52
   0  -1   3    6.17    0.56
   0  -1   4   55.78    2.98
   0  -1   4   53.43    3.03
   0   1   4   55.85    2.98
   0   1   5  101.84    5.46
   0  -1   5  103.90    5.46
   0  -1   5  103.02    5.53
   0  -1   5  105.71    5.79
   0   1   6  887.38   45.46
   0  -1   6  905.67   45.46
   0  -1   6  906.49   45.91
   0  -1   7  993.79   50.90
   0   1   7 1011.95   50.91
   0  -1   7 1028.89   51.50
   0  -1  -7  973.87   52.32
   0  -1  -7 1009.25   51.05
   0  -1  -8  975.35   52.34
   0  -1   8  955.54   50.83
   0  -1   8 1128.08   51.67
   0   1  -8  977.12   51.35
   0   1   8 1024.56   50.85
   0  -1  -8 1006.51   50.97
   0  -1   9   84.40    5.01
   0   1   9   90.20    5.03
   0  -1  -9   86.86    6.35
   0   1  -9   88.11    5.54
   0  -1  -9   98.92    5.18
   0  -1   9  102.02    5.90
   0  -1 -10    1.54    0.38
   0  -1  10    1.29    0.30
   0  -1  10    1.62    0.65
   0   1  10    0.98    0.26
   0   1 -10    1.80    0.55
   0  -1  11    2.99    0.80
   0   1  11    2.93    0.46
   0  -1  11    2.27    0.42
   0   1 -11    2.44    0.67
   0  -1 -11    3.20    0.52
   0   1 -12   55.32    4.08
   0  -1 -12   60.70    3.61
   0   1  12   57.86    3.49
   0  -1  12   54.61    3.47
   0  -1  12   63.63    4.53
   0  -1  13  113.03    6.95
   0  -1  13   97.93    5.63
   0  -1 -13  105.80    5.80
   0   1  13   94.38    5.61
   0   1 -13   93.08    6.29
   0  -1  14   92.85    5.74
   0  -1 -14  113.93    5.99
   0   1  14  100.01    5.78
   0   1 -14   95.07    6.49
   0  -1  14  113.97    7.21
   0   1 -15    2.76    0.83
   0  -1 -15    3.52    0.65
   0  -1  15    3.58    1.11
   0  -1  15    2.93    0.55
   0  -1 -15    3.97    1.34
   0   1  15    2.26    0.50
   0  -1 -16   11.88    2.27
   0  -1 -16    9.86    1.15
   0   1  16   10.01    1.05
   0  -1  16   10.75    1.84
   0  -1  16   10.60    1.09
   0   1 -16    6.55    1.31
   0   1  17    1.69    0.43
   0   1 -17    1.65    0.76
   0  -1  17    2.04    0.50
   0  -1 -17    0.88    0.43
   0   1  18    2.17    0.54
   0   1 -18    3.46    0.99
   0  -1 -18    1.74    1.08
   0  -1 -18    1.55    0.54
   0  -1  18    2.72    0.57
   0  -1  19    2.66    0.59
   0   1  19    3.35    0.69
   0  -1 -19    2.27    0.61
   0   1 -19    3.03    0.91
   0  -1 -19    1.75    1.03
   0   1 -20    7.78    1.53
   0  -1 -20    9.15    1.20
   0  -1 -20    8.17    1.98
   0  -1 -21   55.06    5.68
   0   1 -21   58.68    4.93
   0  -1 -21   66.23    4.28
   0  -1 -22   67.16    4.42
   0  -1 -22   58.90    5.82
   0   1 -22   60.45    5.04
   0  -1 -23    5.31    1.03
   0   1 -23    4.33    1.27
   0  -1 -23    6.88    1.86
   0  -1 -24    1.02    0.99
   0   1 -24    1.16    0.72
   0  -1 -24    1.48    0.62
   0  -1 -25    2.82    0.86
   0   1 -25    1.17    0.73
   0  -2   0   79.66    4.65
   0  -2  -1 1342.62   67.55
   0  -2   1 1318.26   67.51
   0  -2   2   17.54    1.37
   0  -2  -2   15.35    1.36
   0  -2   3    1.05    0.13
   0  -2  -3    0.69    0.32
   0  -2   4    0.06    0.20
   0  -2  -4    0.36    0.29
   0   2   4    0.26    0.10
   0  -2   4    0.42    0.11
   0  -2  -5  118.10    6.38
   0   2   5  106.69    5.80
   0  -2   5  113.87    5.80
   0  -2   5  107.31    6.19
   0  -2  -6    3.47    0.64
   0   2   6    4.51    0.45
   0  -2   6    4.38    0.43
   0  -2   6    4.20    0.61
   0  -2   7   61.89    3.80
   0  -2   7   58.47    3.81
   0  -2   7   57.86    3.36
   0   2   7   64.75    3.41
   0  -2   8    5.32    0.84
   0  -2   8    7.95    1.00
   0   2   8    6.54    0.62
   0  -2   8    6.69    0.61
   0   2   9   33.02    2.11
   0  -2   9   34.33    2.12
   0  -2   9   38.25    2.74
   0  -2  -9   33.43    2.51
   0  -2   9   35.32    2.74
   0  -2 -10    8.41    1.03
   0  -2 -10    6.43    1.48
   0  -2  10    8.58    1.17
   0   2  10    7.25    0.71
   0  -2  10    6.59    0.69
   0   2  11    5.07    0.60
   0  -2 -11    5.82    0.89
   0  -2  11    6.07    1.08
   0  -2  11    4.80    0.59
   0  -2  12    1.90    0.40
   0  -2  12    2.18    0.70
   0  -2 -12    1.76    0.53
   0  -2 -12    1.37    0.85
   0   2  12    1.65    0.37
   0  -2 -13  186.11   13.47
   0  -2 -13  236.00   12.23
   0  -2  13  215.44   11.66
   0   2  13  217.77   11.67
   0  -2  13  229.84   12.84
   0  -2 -14   17.46    1.70
   0   2  14   14.24    1.28
   0  -2  14   14.02    1.27
   0  -2  14   14.22    1.90
   0   2  15  448.01   21.71
   0  -2  15  393.40   21.60
   0  -2 -15  436.60   22.21
   0  -2  15  425.42   22.89
   0  -2 -16    0.26    0.55
   0   2  16    2.56    0.58
   0  -2  16    1.61    0.88
   0  -2  17    2.31    0.90
   0   2  17    1.17    0.49
   0  -2 -17    1.26    0.56
   0  -2  17    1.92    0.51
   0  -2  18    0.22    0.64
   0   2  18   -0.17    0.32
   0  -2 -18    0.15    0.43
   0  -2  18   -0.36    0.37
   0   2  19   27.25    2.22
   0  -2  19   30.42    2.30
   0  -2 -19   30.02    2.76
   0  -2  19   28.66    3.18
   0  -2 -20    5.55    1.16
   0  -2 -21   74.28    7.38
   0  -2 -21   98.60    6.29
   0  -2 -22   -0.40    0.83
   0  -2 -22   -0.18    0.61
   0  -2 -23    0.19    0.61
   0  -2 -24    0.39    0.54
   0  -2 -25    6.91    1.43
   0  -3   0   -0.11    0.35
   0  -3  -1   84.24    5.23
   0  -3   1   79.33    5.18
   0  -3   2   45.36    3.31
   0  -3  -2   45.38    3.32
   0  -3   3    0.34    0.38
   0  -3  -3    0.80    0.45
   0   3   4    0.15    0.06
   0  -3  -4   -0.11    0.37
   0  -3   4    0.11    0.33
   0  -3   5   36.00    2.75
   0  -3  -5   32.32    2.69
   0  -3   5   34.50    1.87
   0  -3   6   87.62    4.66
   0  -3   6   90.84    5.61
   0   3   6   88.18    4.67
   0  -3  -6   98.37    5.75
   0  -3   7  635.26   32.75
   0  -3   7  643.84   33.81
   0   3   7  647.99   32.77
   0  -3  -7  713.35   33.97
   0  -3   8  169.64    9.12
   0   3   8  179.83    9.16
   0  -3  -8  191.73   10.24
   0  -3   8  173.63   10.17
   0  -3   9   91.68    5.99
   0  -3   9   87.20    4.86
   0   3   9   96.76    4.91
   0  -3   9   80.33    5.43
   0   3  10    1.28    0.31
   0  -3  10    1.09    0.73
   0  -3  10    1.61    0.30
   0  -3  10    0.75    0.48
   0   3  11    1.45    0.32
   0  -3 -11    0.93    0.84
   0  -3  11    1.05    0.50
   0  -3  11    1.92    0.99
   0  -3 -11    1.53    0.61
   0  -3  11    1.65    0.32
   0  -3  12    7.75    1.20
   0  -3  12   10.09    2.12
   0  -3 -12    9.43    1.40
   0  -3 -12    5.11    1.49
   0   3  12    8.89    0.83
   0  -3  12    7.92    0.78
   0   3  13  142.77    7.33
   0  -3  13  133.17    7.26
   0  -3 -13  156.66    8.47
   0  -3  13  134.73    8.17
   0  -3  14   45.51    3.56
   0   3  14   45.26    2.73
   0  -3  14   41.92    2.67
   0  -3 -14   45.18    3.54
   0  -3 -15    1.08    0.91
   0   3  15    1.95    0.43
   0  -3 -15    0.99    0.60
   0  -3  15    1.33    0.37
   0  -3  16    2.62    0.85
   0  -3  16    2.82    0.52
   0  -3 -16    2.23    1.22
   0   3  16    2.82    0.53
   0  -3 -16    2.94    0.93
   0   3  17    0.50    0.36
   0  -3 -17    1.27    0.72
   0  -3  17    1.20    0.41
   0  -3 -17    1.16    1.05
   0  -3  17    1.48    0.70
   0  -3 -18    0.76    0.73
   0   3  18    0.53    0.37
   0  -3 -18    0.40    0.71
   0  -3  18    0.30    0.39
   0  -3  19    3.30    0.66
   0  -3 -19    3.79    1.08
   0  -3 -19    2.47    1.35
   0  -3 -20    0.42    0.97
   0  -3 -20    0.21    0.57
   0  -3 -21   49.89    4.36
   0  -3 -22   26.44    3.04
   0  -3 -23   15.78    2.38
   0  -4   0  561.73   30.18
   0  -4   1   65.53    4.91
   0  -4  -1   62.91    4.82
   0  -4  -2   60.41    4.52
   0  -4   2   54.78    4.42
   0  -4  -3    4.28    1.18
   0  -4   3    4.78    1.16
   0  -4   4    1.28    0.71
   0  -4  -4    1.60    0.78
   0  -4   5    7.07    1.48
   0  -4  -5    9.26    1.53
   0  -4   6  123.33    7.86
   0  -4  -6  114.03    7.64
   0  -4  -7    6.84    1.36
   0  -4   7    5.51    1.25
   0  -4  -8    4.55    1.12
   0  -4   8    4.72    0.39
   0  -4   8    5.01    1.27
   0  -4   9    4.91    0.88
   0  -4   9    6.03    1.49
   0  -4  -9    5.53    1.22
   0   4   9    6.67    0.57
   0  -4   9    8.71    0.64
   0  -4  10    3.03    1.31
   0  -4 -10    2.55    1.41
   0  -4 -10    3.37    1.05
   0  -4  10    2.05    0.55
   0   4  10    3.34    0.44
   0  -4  10    4.84    0.52
   0  -4 -11    1.86    1.09
   0  -4  11    1.52    0.50
   0  -4  11    2.90    0.44
   0  -4  11    3.42    1.71
   0   4  11    2.01    0.35
   0  -4  12   -0.71    2.53
   0   4  12    0.21    0.20
   0  -4 -12    0.76    0.87
   0   4  13    4.61    0.58
   0  -4 -13    2.73    1.28
   0  -4 -13    3.80    1.15
   0  -4 -14  171.43   10.61
   0   4  14  175.67    9.08
   0  -4 -15   22.97    3.70
   0  -4 -15   26.29    3.03
   0   4  15   28.26    1.92
   0   4  16   36.04    2.36
   0  -4 -16   36.49    3.54
   0   4  17    0.19    0.45
   0  -5   0   -0.27    0.75
   0  -5   1    5.62    1.57
   0  -5  -1    2.69    1.15
   0  -5   2   31.52    3.65
   0  -5  -2   27.34    3.31
   0  -5   3    0.59    1.05
   0  -5  -3    3.40    1.35
   0  -5   4    0.30    0.92
   0  -5  -4    0.26    0.88
   0  -5  -5    3.33    1.13
   0  -5   5    3.05    1.41
   0  -5  -6   89.29    7.02
   0  -5   6  105.97    7.83
   0  -5  -7   19.44    2.65
   0  -5   7   19.77    3.15
   0  -5  -8  137.19    9.17
   0  -5   8  161.25   10.47
   0  -5  -9    1.75    1.43
   0  -5 -10    1.77    1.58
   0  -5 -11   -0.45    1.21
   1   0 -26    0.90    0.82
   1   0 -25   10.32    2.06
   1   0 -24   -0.61    0.83
   1   0 -23   23.82    1.87
   1   0 -23   18.97    2.90
   1   0 -22    0.07    0.24
   1   0 -22   -0.31    0.71
   1   0 -21   41.32    4.30
   1   0 -21   36.06    2.49
   1   0 -20    0.30    0.53
   1   0 -20   -0.06    0.24
   1   0 -19    5.47    1.50
   1   0 -19    5.59    0.70
  -1   0  19    4.71    0.81
  -1   0  18    0.09    0.25
   1   0 -18   -0.27    0.56
   1   0 -18   -0.06    0.20
   1   0 -17   91.07    5.21
   1   0 -17   94.70    7.06
  -1   0  17   97.57    5.60
   1   0 -16    0.14    0.21
  -1   0  16    1.24    0.40
   1   0 -16    0.24    0.67
   1   0 -15  898.96   46.79
   1   0 -15  903.05   48.80
  -1   0  15  921.73   49.01
  -1   0  15  974.71   47.23
  -1   0  14    0.78    0.32
   1   0 -14    0.21    0.49
  -1   0  14    0.22    0.65
   1   0 -14    0.04    0.19
   1   0 -13  120.16    6.38
   1   0 -13  111.56    7.80
  -1   0  13  125.95    6.72
  -1   0  13  106.21    7.80
  -1   0  12   -0.06    0.17
  -1   0  12   -0.19    0.48
   1   0 -12    0.18    0.42
   1   0 -11  103.55    6.79
  -1   0  11   95.80    6.73
   1   0 -11  103.52    5.77
  -1   0  11  103.02    5.72
   1   0 -10   -0.06    0.23
  -1   0  10   -0.16    0.47
  -1   0  10    0.29    0.18
   1   0  -9  737.35   37.15
  -1   0   9  716.50   37.07
  -1   0   9  742.30   38.20
   1   0  -8    0.13    0.15
  -1   0   8    0.20    0.14
  -1   0   8    0.26    0.40
  -1   0   7    1.74    0.58
   1   0  -7    2.13    0.32
  -1   0   7    1.59    0.28
  -1   0   6    0.25    0.13
   1   0  -6   -0.03    0.11
  -1   0   6    0.20    0.34
   1   0  -5   21.83    1.34
  -1   0   5   18.28    1.76
  -1   0   5   22.96    1.36
   1   0  -4    0.06    0.24
  -1   0   4   -0.07    0.23
  -1   0   4    0.02    0.07
   1   0  -4   -0.02    0.07
  -1   0   3  246.90   13.11
   1   0  -3  223.44   13.03
  -1   0   3  246.19   12.69
   1   0  -3  263.18   12.71
  -1   0   2    0.08    0.05
   1   0  -2    0.24    0.18
  -1   0   2   -0.04    0.17
   1   0  -2   -0.01    0.05
   1   0  -1 1209.76   59.80
  -1   0   1 1169.35   59.79
  -1   0   1 1180.85   59.98
   1   0   0   -0.02    0.05
   1   0   1   86.04    5.06
   1   0   2   -0.11    0.25
   1   0   3    2.34    0.35
   1   0   4    0.13    0.13
  -1   0  -5 1468.02   73.75
   1   0   5 1453.98   73.56
   1   0   6    0.16    0.10
  -1   0  -6    0.20    0.17
   1   0   7  171.38    8.93
  -1   0  -7  175.43    9.16
  -1   0  -7  178.88    9.96
  -1   0  -8    0.67    0.50
  -1   0  -8    0.18    0.18
   1   0   8    0.23    0.17
   1   0   9    0.47    0.18
  -1   0  -9    0.15    0.41
  -1   0  -9    0.19    0.19
  -1   0 -10    0.05    0.19
  -1   0 -10    0.17    0.38
   1   0  10    0.06    0.12
  -1   0 -11   62.18    3.65
  -1   0 -11   62.78    4.71
   1   0  11   59.54    3.67
  -1   0 -12    0.12    0.20
   1   0  12   -0.13    0.20
  -1   0 -12   -0.39    0.57
   1   0  13  104.48    6.00
  -1   0 -13  113.67    7.44
  -1   0 -13  103.65    5.96
   1   0  14    0.58    0.28
  -1   0 -14   -0.45    0.62
  -1   0 -14   -0.07    0.28
  -1   0 -15    0.47    0.68
  -1   0 -15    0.54    0.33
   1   0  15    1.76    0.43
   1   0  16    1.06    0.34
  -1   0 -16    0.24    0.56
  -1   0 -16   -0.08    0.40
  -1   0 -17  155.23    9.57
  -1   0 -17  132.70    7.81
   1   0  17  136.58    7.79
  -1   0 -18    0.29    0.32
  -1   0 -18   -0.25    0.51
   1   0  18    0.09    0.24
  -1   0 -19  113.76    6.77
  -1   0 -19  111.41    8.00
   1   0  19  112.99    6.63
  -1   0 -20    0.35    0.43
  -1   0 -20    1.01    0.86
  -1   0 -21   22.58    2.14
  -1   0 -21   18.53    2.60
  -1   0 -22   -0.14    0.78
  -1   0 -22   -0.25    0.69
  -1   0 -23    6.15    1.15
  -1   0 -23    9.64    1.80
  -1   0 -24   -0.26    0.70
  -1   0 -25   42.77    4.26
  -1   0 -26    0.25    0.69
   1  -1 -25    0.13    0.47
   1  -1 -24   23.32    2.23
   1  -1 -24   22.59    3.47
   1  -1 -23  129.42    7.69
   1  -1 -23  126.84    9.70
   1   1 -22   94.36    7.34
   1  -1 -22   91.31    8.16
   1  -1 -21   79.97    7.39
   1   1 -21   89.03    6.63
   1  -1 -21   95.37    5.70
   1   1 -20    2.88    1.04
   1  -1 -20    4.49    0.82
  -1   1  19    1.48    0.43
   1  -1 -19    1.49    1.08
  -1  -1  19    0.58    0.79
   1  -1 -19    0.39    0.30
   1   1 -19    0.85    0.58
  -1  -1  19    1.41    0.45
  -1   1  18   20.42    1.80
  -1  -1  18   21.59    1.83
   1  -1 -18   20.54    3.19
  -1  -1  18   28.04    3.25
   1  -1 -18   24.12    1.92
   1   1 -18   21.68    2.57
   1  -1 -17  117.64    6.53
  -1  -1  17  117.30    8.06
   1   1 -17   91.61    7.20
   1  -1 -17  115.39    8.81
  -1  -1  17  112.70    6.47
  -1   1  17  113.48    6.47
  -1   1  16   88.74    5.28
   1   1 -16   76.56    6.04
   1  -1 -16   93.44    5.32
  -1  -1  16   84.33    6.61
  -1  -1  16   95.23    5.36
   1   1 -15    4.02    1.04
   1  -1 -15    5.53    0.76
  -1  -1  15    6.13    1.39
  -1  -1  15    5.96    0.80
  -1   1  15    5.62    0.78
  -1  -1  14   22.81    1.76
   1   1 -14   16.87    2.12
   1  -1 -14   21.99    1.70
  -1  -1  14   21.11    2.53
  -1   1  14   25.53    1.82
   1   1 -13    7.61    1.25
  -1  -1  13    9.44    0.96
   1  -1 -13    7.91    0.87
  -1  -1  13    7.48    1.49
  -1   1  13    9.03    0.93
  -1  -1  12    8.96    0.89
  -1   1  12    8.56    0.87
  -1  -1  12    8.02    1.38
   1   1 -12    5.80    1.07
   1  -1 -12    6.35    0.76
  -1  -1  11    9.47    0.93
   1  -1 -11    9.24    1.82
  -1   1  11   10.34    0.96
   1   1 -11    8.77    1.30
  -1  -1  11   10.85    1.59
  -1  -1  10   36.58    2.29
   1  -1 -10   39.32    3.70
   1  -1 -10   32.03    2.26
  -1  -1  10   41.07    3.17
   1   1 -10   33.90    2.02
  -1   1  10   43.57    2.39
   1   1 -10   32.16    2.26
  -1  -1   9  518.28   27.93
  -1   1   9  558.29   27.13
   1  -1  -9  495.61   27.09
  -1  -1   9  559.25   27.13
   1   1  -9  507.38   27.09
   1  -1  -9  546.15   28.95
  -1  -1   8  817.83   40.02
   1  -1  -8  808.93   41.73
  -1   1   8  755.92   39.99
   1  -1  -8  811.45   40.05
  -1  -1   8  779.54   40.73
   1   1  -8  765.82   40.01
  -1  -1   7  548.92   28.68
  -1   1   7  558.68   27.99
   1  -1  -7  543.90   28.01
   1  -1  -7  564.07   29.54
   1   1  -7  564.21   28.01
  -1  -1   7  530.21   27.97
  -1  -1   6   58.59    3.32
  -1  -1   6   60.40    3.83
  -1   1   6   60.08    3.32
   1   1  -6   60.91    3.35
   1  -1  -6   67.96    4.60
   1  -1  -6   59.26    3.35
   1   1  -6   62.08    3.39
   1   1  -5    2.51    0.35
  -1   1   5    2.32    0.28
   1   1  -5    2.63    0.30
  -1  -1   5    2.06    0.49
   1  -1  -5    3.09    0.85
  -1  -1   5    2.11    0.27
  -1  -1   5    2.22    0.71
   1  -1  -5    2.80    0.32
  -1   1   4    0.02    0.08
   1  -1  -4    0.08    0.09
   1   1  -4    0.07    0.16
  -1  -1   4    0.04    0.07
   1  -1  -4   -0.12    0.40
   1   1  -4    0.19    0.10
   1  -1  -3  542.67   26.27
  -1   1   3  505.67   25.18
  -1  -1   3  524.53   25.82
   1  -1  -3  482.11   25.20
   1   1  -3  496.90   25.42
  -1  -1   3  496.99   25.18
   1   1  -3  495.95   25.18
  -1   1   2  944.72   45.74
   1  -1  -2  877.09   45.73
   1   1  -2  822.77   45.72
  -1  -1   2  989.20   46.31
  -1  -1   2  984.34   45.73
   1   1  -1  538.28   26.71
  -1   1   1  526.97   26.71
   1  -1  -1  526.48   26.71
  -1  -1   1  511.35   27.18
  -1  -1   0   23.82    1.64
  -1  -1   0   22.49    1.38
   1   1   0   22.62    1.28
   1  -1   0   23.71    1.30
   1   1   1    0.65    0.16
   1  -1   1    0.48    0.14
   1   1   1    0.65    0.23
  -1  -1  -1    0.62    0.25
  -1  -1  -2    7.95    0.80
   1   1   2    8.22    0.74
  -1  -1  -3    3.15    0.50
   1   1   3    3.27    0.42
   1   1   4    8.05    0.72
   1  -1   4    7.71    0.65
   1   1   5  122.33    6.82
   1  -1   5  132.61    6.87
   1  -1   6  195.70    9.81
   1   1   6  173.02    9.59
   1   1   7  264.41   13.93
  -1  -1  -7  275.26   14.23
  -1   1  -7  262.36   14.16
   1  -1   7  280.47   14.30
   1  -1   7  266.58   13.95
  -1   1  -8   41.53    2.82
   1  -1   8   40.50    2.92
  -1  -1  -8   45.46    2.86
   1   1   8   44.88    2.63
   1  -1   8   40.02    2.59
  -1  -1  -9   98.88    5.51
   1  -1   9   94.97    5.75
  -1   1  -9   92.50    5.55
   1   1   9   92.41    5.24
   1  -1   9   91.17    5.24
   1  -1  10   58.52    4.00
   1  -1  10   55.07    3.42
   1   1  10   55.15    3.42
  -1   1 -10   56.68    3.77
  -1  -1 -10   62.11    3.70
  -1  -1 -11   24.96    1.93
   1  -1  11   21.10    2.17
   1  -1  11   24.87    1.76
  -1   1 -11   20.11    1.96
   1   1  11   24.63    1.75
  -1   1 -12  177.07   10.73
   1  -1  12  188.61   10.27
  -1  -1 -12  200.21   10.56
   1  -1  12  200.52   11.24
   1   1  12  190.66   10.26
  -1   1 -13  268.82   15.36
   1   1  13  279.82   14.78
   1  -1  13  279.44   14.80
  -1  -1 -13  300.83   15.14
  -1  -1 -13  254.56   16.39
   1   1  14   51.01    3.15
  -1  -1 -14   54.12    3.43
   1  -1  14   45.82    3.11
  -1   1 -14   41.32    3.53
  -1  -1 -14   46.97    4.49
   1   1  15    0.91    0.38
  -1   1 -15    0.90    0.56
  -1  -1 -15    0.56    0.70
  -1  -1 -15    1.54    0.54
   1  -1  15    0.46    0.34
   1  -1  16    3.75    0.65
  -1   1 -16    1.91    0.74
  -1  -1 -16    2.36    1.06
  -1  -1 -16    2.87    0.68
   1   1  16    1.77    0.48
  -1   1 -17   14.88    1.87
   1   1  17   15.71    1.44
   1  -1  17   14.90    1.42
  -1  -1 -17   12.82    2.30
  -1  -1 -17   14.47    1.56
  -1   1 -18   22.11    2.40
   1   1  18   23.41    1.88
   1  -1  18   21.92    1.85
  -1  -1 -18   19.16    1.93
  -1  -1 -18   18.62    2.88
  -1   1 -19   20.80    2.46
   1   1  19   26.22    2.07
  -1  -1 -19   22.35    3.19
  -1  -1 -19   25.68    2.26
   1  -1  19   24.36    2.03
  -1   1 -20    3.12    0.95
  -1  -1 -20    3.39    1.31
  -1  -1 -20    3.31    0.79
  -1  -1 -21    5.32    1.04
  -1  -1 -21    4.67    1.56
  -1   1 -21    6.27    1.29
  -1  -1 -22   -0.14    0.74
  -1  -1 -22    0.34    0.77
  -1   1 -22    0.21    0.53
  -1  -1 -23   27.65    2.57
  -1  -1 -23   28.53    3.68
  -1   1 -23   26.38    2.93
  -1   1 -24   23.13    2.69
  -1  -1 -24   16.61    2.82
  -1  -1 -24   22.16    2.27
  -1  -1 -25    7.51    1.83
  -1   1 -25    6.85    1.46
  -1   1 -26    1.34    0.83
   1  -2 -25   -0.19    0.59
   1  -2 -24   47.38    3.99
   1  -2 -23    0.18    0.57
   1  -2 -22    7.32    1.32
   1  -2 -22    6.58    2.10
  -1  -2  21    1.63    1.09
   1  -2 -21    2.03    0.71
   1  -2 -20    8.45    1.35
  -1  -2  20   15.70    2.32
  -1  -2  19    0.51    0.79
   1  -2 -19    0.27    0.49
  -1  -2  19    0.85    0.33
  -1   2  19    1.25    0.43
   1  -2 -18    2.38    0.68
  -1  -2  18    1.68    0.49
  -1   2  18    3.49    0.64
  -1  -2  18    3.20    1.14
   1  -2 -17    0.37    0.86
  -1  -2  17    0.45    0.37
   1  -2 -17   -0.12    0.45
  -1   2  17    0.60    0.39
  -1  -2  17    0.24    0.59
   1  -2 -16  443.81   22.04
   1  -2 -16  395.38   24.30
  -1   2  16  417.78   21.54
  -1  -2  16  449.12   23.33
  -1  -2  16  385.25   21.50
  -1  -2  15   39.25    2.65
   1  -2 -15   36.31    4.28
  -1  -2  15   44.32    3.88
   1  -2 -15   44.66    3.04
  -1   2  15   37.68    2.62
  -1   2  14  378.21   19.38
   1  -2 -14  335.95   21.69
  -1  -2  14  422.54   21.11
   1  -2 -14  378.17   19.76
  -1  -2  14  357.06   19.35
   1  -2 -13    0.09    0.36
  -1  -2  13    0.18    0.53
  -1  -2  13    0.78    0.30
   1  -2 -13    0.31    0.71
  -1   2  13    0.63    0.29
  -1  -2  12    0.76    0.25
  -1  -2  12    0.48    0.46
   1  -2 -12    0.58    0.60
  -1   2  12    0.10    0.17
   1  -2 -12    0.09    0.25
  -1  -2  11    4.70    0.58
  -1  -2  11    4.91    1.01
   1  -2 -11    4.06    0.72
  -1   2  11    6.04    0.64
   1  -2 -11    3.32    1.16
   1  -2 -10  320.75   20.34
  -1  -2  10  369.55   19.38
  -1   2  10  350.32   18.39
  -1  -2  10  353.85   18.38
   1  -2 -10  380.79   18.82
  -1  -2   9   13.89    1.88
  -1   2   9   11.54    0.89
  -1  -2   9    9.19    0.82
   1  -2  -9   10.33    1.81
  -1  -2   9   10.67    1.32
   1  -2  -8  168.85   10.90
  -1  -2   8  168.15    9.78
  -1  -2   8  185.97   10.53
  -1   2   8  177.36    9.09
  -1  -2   8  170.30    9.06
  -1  -2   7    0.57    0.16
  -1   2   7    0.40    0.14
   1  -2  -7    0.63    0.53
  -1  -2   7    0.70    0.48
  -1  -2   6   27.20    1.68
   1  -2  -6   30.21    2.08
   1   2  -6   29.89    1.82
  -1   2   6   29.53    1.70
  -1  -2   6   30.46    2.48
  -1  -2   5    0.16    0.10
  -1  -2   5    0.21    0.34
   1  -2  -5    0.13    0.20
   1   2  -5    0.15    0.15
   1  -2  -5    0.16    0.12
  -1   2   5    0.12    0.09
   1  -2  -4   40.61    2.27
   1   2  -4   38.53    2.44
  -1  -2   4   41.03    2.22
  -1   2   4   41.08    2.23
  -1  -2   4   42.36    2.95
   1   2  -3    1.12    0.30
  -1  -2   3    1.32    0.16
   1   2  -3    1.34    0.17
   1  -2  -3    1.34    0.18
  -1  -2   3    1.87    0.51
  -1   2   3    1.27    0.16
  -1  -2   2  396.14   20.04
   1  -2  -2  379.15   19.21
  -1  -2   2  376.99   19.26
   1   2  -2  381.22   19.20
   1   2  -2  376.98   19.59
  -1  -2   1   58.55    3.56
   1   2  -1   50.32    3.14
  -1  -2   0  840.80   42.18
   1   2   0  759.48   41.74
   1  -2   0  877.52   41.82
  -1  -2  -1    0.26    0.37
   1  -2   1    0.56    0.30
   1   2   2   48.26    2.61
  -1  -2  -2   54.45    3.35
   1  -2   2   54.49    2.95
  -1  -2  -3    5.15    0.81
   1   2   3    4.07    0.35
   1  -2   3    4.09    0.36
   1  -2   3    4.72    0.55
   1  -2   4  226.12   12.01
   1   2   4  232.87   12.00
  -1  -2  -4  264.98   12.88
   1  -2   4  241.15   12.26
   1  -2   5   16.20    1.08
   1   2   5   16.37    1.07
   1  -2   5   15.45    1.19
  -1  -2  -5   18.68    1.65
   1   2   6  740.99   36.64
   1  -2   6  702.92   36.64
   1  -2   6  723.19   36.75
   1  -2   7   32.99    2.10
   1   2   7   36.19    2.11
   1  -2   7   35.91    2.39
   1  -2   7   34.18    2.16
   1  -2   8    3.11    0.42
   1  -2   8    2.77    0.42
   1   2   8    3.29    0.42
   1  -2   8    2.60    0.54
   1  -2   9    3.00    0.46
   1  -2   9    3.25    0.45
   1  -2   9    2.92    0.62
  -1  -2  -9    3.06    0.70
   1   2   9    2.70    0.42
   1   2  10   20.72    1.48
   1  -2  10   19.09    1.85
  -1  -2 -10   20.61    1.96
   1  -2  10   17.67    1.49
   1  -2  10   21.63    1.50
   1   2  11    2.51    0.45
  -1  -2 -11    2.85    0.74
   1  -2  11    3.38    0.50
   1  -2  11    2.39    0.71
   1  -2  12    8.86    1.26
  -1  -2 -12    5.92    1.54
  -1  -2 -12    8.92    1.26
   1  -2  12    7.37    0.83
   1   2  12    8.92    0.89
   1   2  13    7.26    0.80
  -1  -2 -13    3.91    1.32
   1  -2  13    5.82    0.73
  -1  -2 -13    5.94    1.03
   1  -2  13    3.70    0.91
   1  -2  14   62.99    3.97
   1   2  14   69.60    3.99
   1  -2  14   63.94    4.64
   1  -2  15    0.30    0.29
   1   2  15    0.43    0.25
  -1  -2 -15   -0.15    0.76
   1  -2  15   -0.16    0.47
  -1  -2 -16   55.40    4.13
   1  -2  16   52.31    3.48
   1   2  16   54.28    3.46
   1  -2  16   55.80    4.32
   1   2  17    6.20    0.90
   1  -2  17    6.23    0.87
  -1  -2 -17    5.76    1.16
  -1  -2 -18    2.64    0.82
   1  -2  18    0.97    0.40
   1   2  18    1.88    0.50
  -1  -2 -19    0.86    0.64
  -1  -2 -19   -0.36    0.64
   1  -2  19    0.57    0.38
   1   2  19    0.92    0.41
  -1  -2 -20   67.79    7.11
  -1  -2 -20  113.12    6.67
  -1  -2 -21    2.82    1.05
  -1  -2 -21    1.52    1.04
  -1  -2 -22   -0.58    0.69
  -1  -2 -22   -0.39    0.90
  -1  -2 -23   -0.20    0.58
  -1  -2 -24    0.83    0.71
  -1  -2 -25    0.43    0.88
   1  -3 -23   23.32    2.81
   1  -3 -22  138.58    9.00
   1  -3 -21   15.66    2.19
   1  -3 -20    3.18    0.99
   1  -3 -20    3.06    1.56
   1  -3 -19    1.95    0.84
   1  -3 -19    0.42    0.75
  -1  -3  18   20.92    1.68
   1  -3 -18   21.67    2.31
   1  -3 -18   17.58    3.14
  -1   3  18   19.93    1.67
  -1  -3  18   20.60    2.51
  -1  -3  17   19.78    1.62
   1  -3 -17   24.55    2.36
   1  -3 -17   15.78    2.94
  -1   3  17   20.70    1.66
  -1  -3  17   20.22    2.40
   1  -3 -16   43.51    5.19
  -1   3  16   58.53    3.44
   1  -3 -16   53.73    4.06
  -1  -3  16   54.36    3.37
  -1  -3  16   51.50    4.39
  -1  -3  15    3.83    0.59
   1  -3 -15    3.50    0.88
   1  -3 -15    4.03    1.42
  -1   3  15    4.71    0.64
  -1  -3  15    5.47    1.19
  -1  -3  14    5.53    1.20
  -1   3  14    8.86    0.83
   1  -3 -14    6.87    1.16
  -1  -3  14    6.88    0.74
  -1   3  13    1.60    0.35
  -1  -3  13    1.32    0.32
   1  -3 -13    2.72    1.31
   1  -3 -13    2.07    0.64
  -1  -3  13    1.50    0.64
  -1  -3  12    0.71    0.24
   1  -3 -12    1.11    0.49
  -1   3  12    0.94    0.29
   1  -3 -12    1.29    1.05
  -1  -3  12    1.00    0.53
  -1  -3  11    0.33    1.09
  -1  -3  11    0.12    0.19
  -1   3  11    0.39    0.23
   1  -3 -11    1.23    1.00
  -1  -3  11   -0.13    0.35
   1  -3 -10    7.30    1.77
  -1  -3  10   10.75    2.08
  -1  -3  10    9.86    0.83
  -1  -3  10   11.11    1.37
  -1   3  10   10.87    0.87
   1  -3  -9   62.37    5.68
  -1  -3   9   60.71    4.52
  -1  -3   9   80.37    5.78
  -1   3   9   69.76    3.88
  -1  -3   9   73.26    3.88
   1  -3  -8  519.42   27.22
  -1  -3   8  526.47   28.16
  -1   3   8  531.21   26.41
  -1  -3   8  520.97   26.40
   1  -3  -7   90.58    5.67
  -1   3   7   93.23    4.92
  -1  -3   7   79.71    6.08
  -1  -3   7   93.95    4.91
  -1   3   6   34.91    1.98
  -1  -3   6   34.57    3.09
  -1  -3   6   34.82    1.98
   1  -3  -6   36.50    2.69
  -1  -3   5    0.44    0.13
   1  -3  -5    0.10    0.37
  -1  -3   5    0.44    0.40
  -1  -3   4   11.63    1.53
   1  -3  -4   11.68    1.31
  -1  -3   4   12.43    0.79
  -1   3   4   12.49    0.79
  -1  -3   3   78.39    5.30
   1  -3  -3   80.79    4.96
   1  -3  -2  372.13   20.18
  -1  -3   2  396.84   20.69
  -1  -3   1   52.67    3.99
   1  -3  -1   57.35    3.70
   1  -3   0   30.23    2.40
  -1  -3   0   35.28    2.85
  -1  -3  -1    0.14    0.45
   1  -3   1    0.55    0.33
  -1  -3  -2   -0.14    0.61
   1  -3   2    0.37    0.30
  -1  -3  -3   16.50    1.88
   1  -3   3   18.58    1.65
   1   3   4   16.90    0.90
   1  -3   4   12.21    0.96
  -1  -3  -4   19.59    1.97
   1  -3   4   17.01    0.88
   1   3   4   14.39    0.94
   1  -3   4   18.03    1.59
  -1  -3  -5   11.10    1.46
   1  -3   5   10.90    1.21
   1  -3   5    9.76    0.64
   1  -3   6  208.25   10.95
  -1  -3  -6  238.56   12.47
   1   3   6  212.10   10.97
   1  -3   6  232.11   11.79
  -1  -3  -7   38.95    3.18
   1   3   7   33.87    2.07
   1  -3   7   37.17    2.67
   1  -3   7   36.51    2.08
   1  -3   8    1.69    0.57
   1   3   8    2.73    0.40
  -1  -3  -8    2.02    0.87
   1  -3   8    1.31    0.46
   1  -3   9    7.89    1.07
   1  -3   9    6.95    0.68
   1  -3   9    5.85    0.88
   1   3   9    7.70    0.74
   1  -3  10   23.69    2.07
   1  -3  10   27.17    2.31
   1   3  10   30.27    1.87
   1  -3  10   26.26    1.77
  -1  -3 -11   31.88    2.87
   1  -3  11   28.74    2.33
   1   3  11   31.08    2.00
   1  -3  11   27.31    1.91
   1  -3  11   26.91    2.54
   1   3  12  177.51    9.38
   1  -3  12  165.59    9.32
  -1  -3 -12  181.36   10.59
   1  -3  12  163.84    9.86
   1   3  13   44.88    2.76
  -1  -3 -13   45.85    3.72
   1  -3  13   37.58    3.06
   1  -3  13   43.11    2.73
   1  -3  14   41.85    3.30
   1  -3  14   48.40    2.98
   1   3  14   50.11    2.98
  -1  -3 -14   42.23    3.76
   1  -3  15    1.14    0.37
   1   3  15    0.99    0.41
  -1  -3 -15    2.12    0.79
  -1  -3 -15    0.71    0.89
   1  -3  15    1.45    0.61
  -1  -3 -16    1.40    0.68
   1  -3  16    0.61    0.43
   1   3  16    0.88    0.38
   1  -3  16    0.83    0.34
  -1  -3 -16    0.37    0.66
   1  -3  17    4.22    0.71
  -1  -3 -17    5.37    1.82
  -1  -3 -17    4.15    1.13
   1   3  17    3.80    0.69
  -1  -3 -18   48.32    4.10
   1   3  18   50.03    3.10
   1  -3  18   44.69    3.04
  -1  -3 -19    8.28    1.63
  -1  -3 -19    7.30    2.00
  -1  -3 -20   -0.23    0.72
  -1  -3 -20    0.42    0.74
  -1  -3 -21    1.48    1.01
  -1  -3 -22    1.03    0.92
  -1  -3 -23    5.36    1.60
  -1   4  16   15.31    1.32
   1  -4 -16   15.56    2.16
   1  -4 -16   12.44    2.72
  -1   4  15  215.84   10.76
   1  -4 -15  191.60   11.98
  -1   4  14   20.90    1.52
   1  -4 -14   20.93    2.40
   1  -4 -13   10.06    1.60
   1  -4 -13    8.23    2.11
  -1   4  13    9.84    0.90
  -1  -4  12    0.38    0.43
  -1  -4  12    1.01    3.11
  -1   4  12    0.50    0.23
   1  -4 -12    0.38    0.78
  -1  -4  11   13.67    1.77
  -1  -4  11   28.92    4.70
   1  -4 -11   13.79    2.72
  -1  -4  11   24.31    1.50
  -1   4  11   19.54    1.35
  -1  -4  10    6.89    1.17
  -1  -4  10    8.24    2.38
   1  -4 -10    3.84    1.44
   1  -4 -10    6.72    1.31
  -1   4  10    7.25    0.66
  -1  -4  10    9.91    0.80
  -1   4   9  158.62    8.85
   1  -4  -9  157.33   10.09
  -1  -4   9  160.72   11.36
   1  -4  -8    5.60    1.72
   1  -4  -8    5.17    1.09
  -1  -4   8    6.56    0.64
  -1   4   8    6.05    0.56
  -1  -4   8    8.54    1.83
   1  -4  -7    0.15    0.45
  -1  -4   7    0.24    0.67
   1  -4  -7   -0.32    0.74
  -1  -4   6   -0.23    0.89
   1  -4  -6   -0.15    0.45
   1  -4  -5    1.67    0.65
  -1  -4   5    0.89    0.69
   1  -4  -4    4.22    0.98
  -1  -4   4    4.57    1.22
   1  -4  -3    1.35    0.62
  -1  -4   3    2.59    1.00
  -1  -4   2   21.64    2.55
   1  -4  -2   20.90    2.21
  -1  -4   1  316.69   17.91
   1  -4  -1  309.60   17.31
  -1  -4   0   26.26    2.86
   1  -4   0   26.24    2.58
  -1  -4  -1   20.95    2.55
   1  -4   1   21.17    2.26
  -1  -4  -2    5.41    1.35
   1  -4   2    6.03    1.22
   1  -4   3   -0.16    0.62
  -1  -4  -3    0.21    0.64
  -1  -4  -4   10.81    1.77
   1  -4   4   12.09    1.62
  -1  -4  -5  259.07   15.17
   1  -4   5  260.41   14.75
  -1  -4  -6   25.16    2.77
   1  -4   6   23.74    2.45
   1  -4   7   25.43    2.45
  -1  -4  -7   24.00    2.68
   1   4   7   21.58    1.20
   1   4   8    0.23    0.15
   1  -4   8    0.17    0.68
  -1  -4  -8    0.63    0.65
   1  -4   8    0.44    0.15
   1  -4   8    0.15    0.23
   1   4   9    0.08    0.14
   1  -4   9    0.18    0.55
  -1  -4  -9    0.21    0.54
   1  -4   9    0.20    0.16
   1  -4   9    0.16    0.28
  -1  -4 -10   10.12    1.75
   1   4  10    9.70    0.76
   1  -4  10    9.81    0.78
   1  -4  10    6.85    0.95
   1  -4  10   11.05    1.77
   1  -4  11   49.17    2.74
   1  -4  11   57.05    4.72
   1   4  11   51.00    2.73
   1   4  12    1.53    0.34
   1  -4  12    2.00    1.54
   1   4  13   12.61    1.02
  -1  -4 -13   12.49    1.96
  -1  -4 -14    2.44    1.34
  -1  -4 -14    5.31    1.36
   1   4  14    4.32    0.58
  -1  -4 -15    0.24    0.73
   1   4  15    0.06    0.33
   1   4  16   10.04    1.00
  -1  -4 -16    6.85    2.12
  -1  -4 -16    8.75    1.83
   1  -5 -11    4.86    1.72
   1  -5 -10    0.43    0.99
   1  -5  -9   60.50    6.18
   1  -5  -8   14.19    2.88
  -1  -5   8   23.76    3.83
   1  -5  -8   18.30    2.51
  -1  -5   7  131.67    9.67
   1  -5  -7  104.15    9.19
   1  -5  -7  123.36    8.27
   1  -5  -6    1.17    1.06
  -1  -5   6    0.36    1.29
   1  -5  -6    1.38    1.11
  -1  -5   5    2.81    1.49
   1  -5  -5    3.21    1.18
   1  -5  -5    1.15    0.97
   1  -5  -4    2.54    1.15
  -1  -5   4    2.75    1.42
  -1  -5   3   79.29    6.74
   1  -5  -3   72.81    5.83
  -1  -5   2   16.51    2.89
   1  -5  -2   27.36    2.97
   1  -5  -1   82.85    6.69
  -1  -5   1  108.75    7.82
   1  -5   0    1.45    0.90
  -1  -5   0    1.28    1.04
   1  -5   1    3.70    1.26
  -1  -5  -1    4.70    1.62
  -1  -5  -2    2.14    1.26
   1  -5   2    1.75    1.00
   1  -5   3   40.41    3.90
  -1  -5  -3   29.59    3.73
   1  -5   4    5.66    1.50
  -1  -5  -4    4.69    1.50
   1  -5   5    1.85    0.99
  -1  -5  -5    3.75    1.36
  -1  -5  -6    4.84    1.47
   1  -5   6    2.45    1.33
   1  -5   7   64.38    5.65
  -1  -5  -7   65.26    5.65
   1  -5   8    4.17    1.55
  -1  -5  -8    4.19    1.51
   2   0 -25    0.67    0.84
   2   0 -24  134.08    9.77
   2   0 -24  131.04    7.35
   2   0 -23   -0.07    0.25
   2   0 -23    0.67    0.97
   2   0 -22    6.06    0.78
   2   0 -22    8.52    1.99
   2   0 -21    0.06    0.25
   2   0 -21    0.64    0.81
   2   0 -20   20.96    3.02
   2   0 -20   21.41    1.60
   2   0 -19    0.11    0.19
  -2   0  19    0.09    0.33
  -2   0  18    0.91    0.38
   2   0 -18    1.15    0.84
   2   0 -18    0.90    0.29
  -2   0  17    0.55    0.31
  -2   0  17    0.29    0.84
   2   0 -17   -0.27    0.68
   2   0 -17    0.05    0.18
  -2   0  16  425.59   23.25
   2   0 -16  416.82   23.09
  -2   0  16  394.61   21.07
  -2   0  15   -0.25    0.68
   2   0 -15    0.48    0.60
  -2   0  15    1.05    0.32
   2   0 -15    0.43    0.23
   2   0 -14    2.40    0.52
   2   0 -14    0.22    0.56
  -2   0  14    1.19    0.69
  -2   0  14    0.92    0.34
  -2   0  13   -0.22    0.40
   2   0 -13   -0.20    0.51
  -2   0  13    0.06    0.17
   2   0 -13    0.07    0.21
  -2   0  12    1.46    0.35
   2   0 -12    2.21    0.47
  -2   0  12    2.06    0.77
   2   0 -11    0.18    0.18
  -2   0  11    0.15    0.20
  -2   0  11    0.19    0.59
   2   0 -10  998.68   48.05
  -2   0  10  882.15   47.95
  -2   0  10 1016.13   49.53
   2   0  -9    0.76    0.21
  -2   0   9    0.34    0.19
  -2   0   9    0.16    0.37
   2   0  -8  197.51   10.21
  -2   0   8  187.75   10.14
  -2   0   8  209.06   11.40
   2   0  -7   -0.04    0.12
  -2   0   7    0.03    0.11
  -2   0   7    0.13    0.47
  -2   0   6    0.46    0.34
   2   0  -6    0.32    0.16
   2   0  -6    0.68    0.36
  -2   0   6    0.37    0.15
   2   0  -5    0.03    0.09
  -2   0   5   -0.03    0.07
  -2   0   5    0.57    0.38
   2   0  -5    0.35    0.30
  -2   0   4  502.68   23.40
   2   0  -4  455.50   22.70
  -2   0   4  421.12   22.68
   2   0  -4  458.07   23.31
  -2   0   3    0.04    0.07
  -2   0   3   -0.07    0.28
   2   0  -3   -0.07    0.23
   2   0  -3    0.13    0.09
   2   0  -2  287.06   15.15
  -2   0   2  306.56   15.15
  -2   0   2  302.92   15.55
  -2   0   1    0.13    0.11
   2   0  -1    0.36    0.11
   2   0   0   12.19    0.90
  -2   0   0   10.33    0.89
   2   0   1    0.14    0.15
   2   0   2  573.69   30.34
   2   0   3   -0.13    0.52
   2   0   4  382.87   20.25
   2   0   5    2.10    0.43
  -2   0  -5   -0.34    0.47
   2   0   6   92.74    5.24
  -2   0  -6   92.70    5.69
  -2   0  -7    0.10    0.41
   2   0   7    0.19    0.17
   2   0   8  152.34    8.15
  -2   0  -8  160.48    9.05
  -2   0  -8  152.09    8.72
   2   0   9   -0.04    0.15
  -2   0  -9   -0.10    0.31
  -2   0  -9   -0.14    0.41
  -2   0 -10  170.48    9.15
  -2   0 -10  165.34    9.70
   2   0  10  157.04    8.43
  -2   0 -11    0.17    0.43
  -2   0 -11    0.30    0.31
   2   0  12   39.59    2.64
  -2   0 -12   37.36    2.86
  -2   0 -12   41.00    3.52
  -2   0 -13   -0.11    0.32
  -2   0 -13   -0.20    0.58
   2   0  13   -0.08    0.25
  -2   0 -14   69.14    5.11
   2   0  14   57.03    3.84
  -2   0 -14   64.11    4.20
  -2   0 -15    0.12    0.37
  -2   0 -15    0.22    0.56
   2   0  15    0.25    0.25
  -2   0 -16  360.05   19.97
   2   0  16  348.13   18.43
  -2   0 -16  340.98   18.81
   2   0  17   -0.09    0.28
  -2   0 -17    0.24    0.61
  -2   0 -17   -0.13    0.37
  -2   0 -18   12.49    1.62
  -2   0 -18   10.37    1.86
   2   0  18   12.65    1.34
  -2   0 -19    0.25    0.51
  -2   0 -19   -0.75    0.53
   2   0  19    0.10    0.31
  -2   0 -20    0.94    0.56
  -2   0 -20    0.74    0.67
  -2   0 -21    0.16    0.71
  -2   0 -21    0.24    0.56
  -2   0 -22   52.77    4.88
  -2   0 -22   66.56    4.70
  -2   0 -23   -0.24    0.65
  -2   0 -24    3.08    1.04
  -2   0 -25    0.23    0.48
  -2   0 -26    9.29    1.76
   2  -1 -25    1.63    0.55
   2  -1 -24   50.47    5.76
   2  -1 -24   59.15    4.04
   2  -1 -23   73.10    4.68
   2  -1 -23   61.69    6.46
   2  -1 -22   50.67    3.55
   2  -1 -22   48.95    5.44
   2  -1 -21    1.20    1.09
   2  -1 -21    1.19    0.48
  -2  -1  21    0.33    0.91
   2  -1 -20    2.06    0.58
  -2  -1  20    1.89    1.12
   2  -1 -20    0.39    0.99
  -2  -1  19   17.69    2.69
   2  -1 -19   16.80    1.50
  -2   1  19   14.70    1.43
  -2  -1  19   13.01    1.38
   2  -1 -19   17.41    2.99
  -2   1  18  124.52    7.33
  -2  -1  18  136.30    9.36
   2  -1 -18  136.47    7.39
  -2  -1  18  126.21    7.34
   2   1 -17  135.90    7.20
  -2  -1  17  158.60    9.92
   2   1 -17  134.00    7.47
  -2  -1  17  146.91    7.90
   2  -1 -17  165.74    7.97
  -2   1  17  145.62    7.89
  -2  -1  16  182.80   10.78
  -2   1  16  159.65    8.73
   2  -1 -16  169.72    8.75
   2   1 -16  154.74    8.11
  -2  -1  16  161.56    8.74
   2   1 -16  155.17    8.59
  -2   1  15   20.62    1.61
  -2  -1  15   18.96    1.58
  -2  -1  15   23.22    2.84
   2  -1 -14    4.14    0.66
  -2  -1  14    3.69    0.58
  -2   1  14    3.24    0.53
   2   1 -14    3.26    0.57
  -2  -1  13   16.94    2.23
   2   1 -13   15.30    1.36
  -2  -1  13   16.20    1.32
   2  -1 -13   17.01    1.43
   2  -1 -13   18.59    2.74
  -2   1  13   14.89    1.28
   2   1 -12   70.53    4.31
  -2  -1  12   82.13    5.63
   2  -1 -12   76.85    6.12
  -2   1  12   69.85    4.21
   2  -1 -12   77.39    4.38
  -2  -1  12   72.36    4.23
  -2  -1  11   11.50    1.71
  -2   1  11   13.64    1.12
   2  -1 -11   16.53    1.25
   2   1 -11   11.98    1.37
   2  -1 -11   13.34    2.18
   2   1 -11   13.22    1.16
  -2  -1  11   13.57    1.12
   2   1 -10   37.13    2.84
   2  -1 -10   40.38    2.50
  -2  -1  10   40.25    3.25
  -2   1  10   37.24    2.40
   2   1 -10   38.42    2.47
   2  -1 -10   46.23    4.09
  -2  -1  10   40.37    2.43
   2  -1  -9  176.13    9.90
  -2   1   9  144.14    7.77
   2   1  -9  143.45    7.81
   2  -1  -9  149.98    7.85
  -2  -1   9  154.99    8.79
   2   1  -9  143.34    8.37
  -2  -1   9  141.48    7.76
  -2  -1   8  215.20   11.57
   2   1  -8  199.77   11.29
   2   1  -8  205.23   10.67
  -2  -1   8  202.24   10.62
   2  -1  -8  203.41   10.68
  -2   1   8  195.61   10.62
   2  -1  -7   11.16    1.58
  -2  -1   7    8.70    0.75
   2  -1  -7   10.61    0.83
  -2  -1   7    9.01    1.19
   2   1  -7   10.83    0.82
  -2   1   7    9.75    0.78
   2   1  -7    9.55    1.18
  -2  -1   6  171.77    9.05
  -2   1   6  167.43    9.04
   2   1  -6  175.22    9.08
   2  -1  -6  192.00   10.50
  -2  -1   6  174.60    9.76
   2  -1  -6  177.41    9.10
   2   1  -6  182.84    9.84
   2  -1  -5   10.27    1.39
   2  -1  -5   11.89    0.81
   2   1  -5   10.31    1.21
   2   1  -5   11.83    0.80
  -2   1   5    9.54    0.74
  -2  -1   5    9.49    0.73
  -2  -1   4   38.73    2.20
   2  -1  -4   37.48    2.20
  -2   1   4   40.17    2.20
   2   1  -4   39.30    2.83
   2  -1  -4   45.35    3.16
   2   1  -4   38.89    2.20
  -2  -1   4   42.08    3.54
   2   1  -3  354.43   19.51
  -2  -1   3  368.19   20.31
   2  -1  -3  376.46   18.80
   2  -1  -3  380.34   19.69
  -2  -1   3  354.00   18.78
  -2   1   3  371.69   18.79
   2   1  -3  379.26   18.79
  -2   1   2  621.35   31.87
   2  -1  -2  616.32   31.89
   2  -1  -2  622.17   31.21
   2   1  -2  652.70   31.21
  -2  -1   2  581.33   31.18
  -2   1   2  617.74   31.19
  -2  -1   2  617.34   32.48
   2   1  -1   38.66    2.10
   2  -1  -1   37.77    2.11
  -2  -1   1   41.61    2.27
   2  -1  -1   37.69    2.55
  -2   1   1   39.28    2.25
  -2  -1   1   36.60    2.93
  -2  -1   0   41.56    2.39
  -2  -1   0   34.12    2.77
  -2   1   0   41.26    2.35
   2  -1   0   39.14    2.22
   2   1   0   34.69    2.17
   2  -1   0   36.81    2.35
   2  -1   1    2.98    0.42
  -2  -1  -1    1.93    0.52
   2   1   1    2.90    0.53
   2   1   1    2.97    0.40
   2  -1   1    2.97    0.35
   2   1   2   73.74    4.45
  -2  -1  -2   76.34    4.67
   2   1   3  221.13   11.80
  -2  -1  -3  220.44   12.04
   2   1   4   92.67    5.31
   2   1   5   21.06    1.60
   2   1   6    5.66    0.69
  -2   1  -7   48.79    2.89
  -2  -1  -7   52.05    3.34
   2   1   7   43.55    2.91
  -2  -1  -8  324.37   16.36
   2  -1   8  305.45   16.00
   2   1   8  294.16   15.85
  -2   1  -8  300.35   15.90
  -2   1  -9  221.25   12.09
   2   1   9  220.43   11.94
   2  -1   9  225.47   11.57
  -2  -1  -9  246.64   12.50
   2   1  10   59.74    3.59
  -2  -1 -10   63.75    4.06
  -2   1 -10   56.86    3.78
  -2  -1 -11   14.37    1.51
   2  -1  11   15.14    1.30
  -2   1 -11   13.32    1.40
   2   1  11   13.58    1.24
  -2  -1 -12   73.53    4.66
   2  -1  12   72.51    4.30
  -2   1 -12   65.95    4.52
  -2  -1 -12   64.85    5.34
   2   1  12   72.47    4.30
   2  -1  13    3.24    0.62
  -2  -1 -13    2.07    0.86
  -2   1 -13    2.24    0.63
   2   1  13    3.05    0.60
  -2  -1 -13    2.92    0.70
   2  -1  14   37.04    2.61
  -2  -1 -14   29.15    3.39
   2   1  14   39.35    2.62
  -2   1 -14   35.07    2.92
  -2  -1 -14   36.43    2.88
   2   1  15   59.49    3.75
  -2  -1 -15   61.28    4.12
  -2   1 -15   52.90    4.11
  -2  -1 -15   48.52    4.77
   2  -1  15   60.75    3.78
   2   1  16    5.25    0.82
   2  -1  16    5.48    0.83
  -2  -1 -16    5.39    1.44
  -2   1 -16    8.72    1.33
  -2  -1 -16    6.59    1.11
  -2  -1 -17   34.89    3.86
  -2   1 -17   35.44    3.15
  -2  -1 -17   36.31    3.01
   2   1  17   38.62    2.73
   2  -1  17   38.05    2.72
   2   1  18   46.58    3.08
  -2  -1 -18   42.87    3.35
  -2  -1 -18   36.25    4.16
   2  -1  18   41.92    3.01
  -2   1 -18   39.31    3.46
  -2  -1 -19   10.64    1.43
   2   1  19    9.18    1.13
   2  -1  19    9.56    1.20
  -2  -1 -19    7.58    1.80
  -2   1 -19    8.91    1.51
  -2  -1 -20    3.73    0.94
  -2   1 -20    4.71    1.07
  -2  -1 -20    4.04    1.37
  -2  -1 -21    1.29    1.00
  -2  -1 -21    1.08    0.58
  -2   1 -21    1.87    0.80
  -2  -1 -22   41.62    4.49
  -2   1 -22   43.83    3.80
  -2  -1 -22   38.94    3.39
  -2  -1 -23   56.41    5.39
  -2   1 -23   57.17    4.63
  -2  -1 -23   59.13    4.44
  -2  -1 -24   51.31    4.17
  -2  -1 -24   48.40    4.98
  -2   1 -24   58.74    4.60
  -2   1 -25    7.54    1.49
  -2  -1 -25    9.38    1.97
  -2   1 -26    0.21    0.57
  -2   1 -27    0.21    0.44
   2  -2 -25   88.51    6.18
   2  -2 -24    4.14    1.11
   2  -2 -23   43.48    3.61
   2  -2 -22    0.75    0.58
   2  -2 -21    0.97    0.57
  -2  -2  21    0.89    0.91
   2  -2 -20    1.03    0.55
  -2  -2  20    1.15    0.89
   2  -2 -19   39.92    2.99
  -2  -2  19   36.92    4.00
   2  -2 -19   37.58    4.65
  -2   2  19   35.16    2.59
  -2  -2  19   36.37    2.62
   2  -2 -18    0.45    0.36
  -2  -2  18    0.27    0.73
  -2  -2  18    0.31    0.29
  -2   2  18    0.55    0.33
   2  -2 -18    0.40    1.01
   2  -2 -17   81.53    7.38
  -2  -2  17   83.48    4.93
  -2   2  17   81.57    4.93
  -2  -2  17   94.41    6.70
   2  -2 -17   81.13    5.18
  -2  -2  16    6.79    0.84
   2  -2 -16    6.64    1.95
  -2  -2  16    5.86    1.46
  -2   2  16    7.82    0.88
   2  -2 -16    5.16    0.93
  -2   2  15  114.99    6.67
  -2  -2  15  116.35    6.66
  -2  -2  15  134.24    8.35
   2  -2 -15  124.74    9.37
   2  -2 -15  124.63    6.99
  -2  -2  14    0.58    0.33
  -2   2  14    0.84    0.34
   2  -2 -14    0.70    0.44
   2  -2 -14    0.70    0.88
  -2  -2  14    1.02    0.78
   2  -2 -13   25.21    3.38
   2  -2 -13   25.96    2.06
  -2   2  13   29.07    1.90
  -2  -2  13   24.95    1.82
  -2  -2  13   24.78    2.66
  -2  -2  12    4.22    0.99
   2  -2 -12    3.44    1.30
   2  -2 -12    3.04    0.60
  -2   2  12    4.65    0.58
  -2  -2  12    3.40    0.50
   2   2 -11  192.87    9.78
   2  -2 -11  184.90   10.09
   2   2 -11  193.91   10.12
  -2  -2  11  179.51    9.96
   2  -2 -11  195.87   12.44
  -2   2  11  190.95    9.99
  -2  -2  11  185.17   11.06
   2   2 -10   16.13    1.10
  -2  -2  10   14.29    1.12
  -2   2  10   17.16    1.19
   2   2 -10   14.74    1.21
   2  -2 -10   14.04    1.21
   2  -2 -10   14.55    2.33
  -2  -2  10   15.74    1.77
  -2   2   9  376.46   19.34
   2   2  -9  377.47   19.35
   2  -2  -9  390.13   21.67
  -2  -2   9  367.82   19.32
   2  -2  -9  378.88   19.45
  -2  -2   9  365.11   20.28
   2   2  -9  387.11   19.45
   2   2  -8    4.82    0.55
  -2   2   8    5.98    0.56
   2  -2  -8    4.27    1.25
   2  -2  -8    5.53    0.58
   2   2  -8    5.93    0.62
  -2  -2   8    5.24    0.53
  -2  -2   8    4.36    1.25
   2  -2  -7    0.89    0.22
   2   2  -7    0.91    0.22
  -2   2   7    0.92    0.22
  -2  -2   7    1.11    0.23
   2   2  -7    0.73    0.26
   2  -2  -7    1.77    0.82
  -2  -2   7    0.45    0.69
   2   2  -6    7.26    0.74
   2  -2  -6    5.84    1.27
  -2   2   6    6.69    0.56
   2   2  -6    6.20    0.56
   2  -2  -6    6.33    0.57
  -2  -2   6    6.06    0.54
  -2  -2   6    7.27    1.44
   2   2  -5  154.92    8.01
   2  -2  -5  139.58    7.66
   2  -2  -5  149.31    9.24
  -2  -2   5  145.66    7.64
  -2  -2   5  157.07    9.23
   2   2  -5  143.08    7.65
  -2   2   5  154.69    7.66
  -2  -2   4    2.79    0.85
  -2   2   4    1.83    0.24
   2  -2  -4    1.65    0.22
   2  -2  -4    1.48    0.66
   2   2  -4    1.82    0.41
   2   2  -4    1.67    0.23
  -2  -2   4    1.71    0.23
   2   2  -3    0.17    0.10
  -2   2   3    0.09    0.08
  -2  -2   3    0.14    0.36
   2   2  -3    0.30    0.24
  -2   2   3    0.14    0.10
   2  -2  -3    0.15    0.37
   2  -2  -2   13.25    1.49
  -2  -2   2   12.99    0.81
   2  -2  -2   12.16    0.63
   2   2  -2   13.74    1.09
  -2  -2   2   12.30    1.45
  -2   2   2   13.07    0.79
  -2  -2   1   68.68    4.21
  -2   2   1   72.40    4.20
   2  -2  -1   75.74    4.01
   2   2  -1   78.92    4.54
   2   2  -1   82.52    4.01
  -2  -2   1   79.28    5.09
   2   2   0    2.91    0.26
   2   2   0    2.53    0.53
  -2  -2   0    3.53    0.79
   2  -2   0    3.14    0.28
  -2  -2  -1  374.79   21.22
   2  -2   1  401.42   20.29
   2   2   1  399.99   20.25
   2  -2   2   20.81    1.49
   2   2   2   25.92    1.53
  -2  -2  -2   26.48    2.25
  -2  -2  -3   -0.12    0.30
   2  -2   3    0.22    0.18
   2   2   4   40.56    2.73
  -2  -2  -4   42.03    3.14
   2   2   5  295.85   16.47
  -2  -2  -5  350.00   17.20
   2   2   6    2.05    0.50
   2  -2   6    2.49    0.37
   2   2   7   66.89    4.49
   2  -2   7   78.63    4.18
   2  -2   7   77.58    4.28
   2  -2   8    1.92    0.29
   2  -2   8    1.51    0.37
   2  -2   8    1.40    0.34
   2   2   8    1.76    0.37
  -2  -2  -9   14.01    1.73
   2  -2   9   16.77    1.10
   2  -2   9   15.06    1.34
   2   2   9   19.08    1.36
   2  -2   9   15.52    1.29
   2  -2  10    1.43    0.26
   2  -2  10    1.49    0.38
  -2  -2 -10    1.75    0.62
   2   2  10    1.35    0.36
   2  -2  10    1.60    0.42
  -2  -2 -11  161.22    9.02
   2  -2  11  140.99    8.05
   2  -2  11  139.19    8.29
   2   2  11  151.48    8.05
   2   2  12    0.20    0.25
   2  -2  12    0.14    0.24
  -2  -2 -12    0.31    0.48
  -2  -2 -13   -0.16    0.43
   2   2  13   -0.07    0.30
   2  -2  13    0.07    0.25
   2   2  14    6.40    0.83
   2  -2  14    6.10    0.84
  -2  -2 -14    7.44    1.32
  -2  -2 -15  222.16   12.61
   2   2  15  216.75   11.63
   2  -2  15  208.96   11.65
  -2  -2 -16   19.27    2.25
   2  -2  16   20.02    1.76
   2   2  16   20.44    1.72
   2   2  17  148.69    7.86
   2  -2  17  137.68    7.85
  -2  -2 -17  138.67    8.73
  -2  -2 -18    1.69    0.73
  -2  -2 -18    0.68    0.78
   2   2  18    2.25    0.55
   2  -2  18    1.32    0.46
  -2  -2 -19   12.83    2.44
   2  -2  19   12.24    1.39
   2   2  19   14.45    1.47
  -2  -2 -19   15.96    2.04
  -2  -2 -20    0.40    0.64
  -2  -2 -20    0.36    0.74
  -2  -2 -21   29.82    3.00
  -2  -2 -21   23.54    3.59
  -2  -2 -22    3.33    1.12
  -2  -2 -22    1.51    1.03
  -2  -2 -23   10.44    1.76
  -2  -2 -24   -0.22    0.67
  -2  -2 -25   25.80    2.94
   2  -3 -22   11.64    1.84
   2  -3 -21    1.61    0.78
   2  -3 -20    0.17    0.52
   2  -3 -19    5.15    1.12
   2  -3 -19    2.17    1.28
  -2   3  18   44.38    2.83
   2  -3 -18   34.08    4.63
  -2  -3  18   38.81    2.72
   2  -3 -18   40.00    3.30
  -2  -3  18   40.65    3.89
   2  -3 -17  138.89   11.51
  -2   3  17  173.63    9.05
  -2  -3  17  164.09   10.49
  -2  -3  17  155.86    8.93
   2  -3 -17  175.08    9.78
  -2   3  16   22.66    1.71
  -2  -3  16   20.81    2.55
  -2  -3  16   21.37    1.67
   2  -3 -16   23.61    3.61
   2  -3 -16   22.26    2.18
  -2  -3  15   10.41    1.00
   2  -3 -15    7.20    2.09
  -2   3  15   11.90    1.06
  -2  -3  15    9.60    1.60
   2  -3 -15    9.66    1.34
   2  -3 -14    0.49    0.43
  -2  -3  14    0.97    0.29
   2  -3 -14    0.36    0.75
  -2  -3  14    0.52    0.56
  -2   3  14    1.25    0.34
  -2  -3  13   19.26    2.27
  -2  -3  13   23.84    1.65
  -2   3  13   25.29    1.69
   2  -3 -13   18.41    3.02
   2  -3 -13   22.15    2.08
  -2  -3  12   27.22    1.80
   2  -3 -12   22.16    3.23
  -2  -3  12   23.63    2.45
   2  -3 -12   27.05    2.28
  -2   3  12   27.50    1.82
  -2  -3  11   16.65    1.98
  -2   3  11   23.92    1.50
   2  -3 -11   16.36    2.71
  -2  -3  11   19.33    1.42
  -2  -3  10    1.31    0.28
  -2   3  10    1.44    0.28
  -2  -3  10    1.86    1.33
   2  -3 -10    1.20    0.87
  -2  -3  10    0.86    0.49
  -2  -3   9  125.13    6.65
  -2   3   9  124.81    6.65
   2  -3  -9  108.15    8.64
  -2  -3   8   13.45    2.40
  -2   3   8   17.11    1.15
  -2  -3   8   17.78    1.17
   2  -3  -8   17.62    2.51
   2  -3  -8   14.52    1.55
  -2   3   7    0.94    0.26
  -2  -3   7    1.40    0.27
   2  -3  -7    0.77    0.44
   2  -3  -7    0.25    0.58
   2  -3  -6   19.10    1.64
  -2  -3   6   13.97    2.16
   2  -3  -6   15.25    2.25
  -2  -3   6   15.33    1.03
  -2   3   6   16.14    1.04
   2  -3  -5   58.53    3.72
   2  -3  -5   47.04    4.43
  -2  -3   5   60.52    4.63
  -2   3   5   55.57    3.14
  -2  -3   5   56.10    3.18
   2  -3  -4   12.34    1.26
  -2  -3   4   11.05    0.85
  -2  -3   4   12.98    1.82
   2  -3  -4    8.12    1.60
  -2  -3   3  300.11   17.49
   2  -3  -3  318.54   16.65
  -2  -3   2   82.70    6.22
   2  -3  -2  101.65    5.68
  -2  -3   1   45.78    3.75
   2  -3  -1   45.04    3.07
  -2  -3   0    0.85    0.64
   2  -3   0    0.99    0.37
   2  -3   1    0.57    0.34
  -2  -3  -1    1.02    0.58
  -2  -3  -2    7.50    1.37
   2  -3   2    9.04    1.02
   2  -3   3  103.16    5.25
   2  -3   3   98.76    5.24
  -2  -3  -3  114.65    6.95
   2  -3   3  111.78    6.00
   2   3   4   30.39    1.85
   2  -3   4   32.64    1.78
   2  -3   4   29.51    1.89
   2  -3   4   35.41    2.37
  -2  -3  -4   38.44    3.18
  -2  -3  -5    0.18    0.45
   2  -3   5    0.13    0.15
   2   3   5    0.11    0.14
   2  -3   5    0.07    0.12
   2  -3   5   -0.15    0.29
   2  -3   6    2.85    0.59
  -2  -3  -6    1.79    0.70
   2  -3   6    1.29    0.27
   2   3   6    3.27    0.36
   2  -3   7   22.23    1.73
   2  -3   7   20.17    1.35
  -2  -3  -7   21.15    2.37
   2   3   7   22.05    1.38
   2  -3   7   17.94    1.46
   2  -3   8   22.12    1.75
   2  -3   8   19.64    1.53
   2  -3   8   21.91    1.44
   2   3   8   20.56    1.42
   2   3   9  254.32   12.81
   2  -3   9  238.05   12.92
   2  -3   9  238.73   12.77
   2  -3   9  250.68   13.15
   2   3  10   38.30    2.31
   2  -3  10   36.06    2.53
   2  -3  10   34.27    2.28
   2  -3  10   36.29    2.41
   2  -3  11   20.04    1.52
   2  -3  11   20.21    1.75
  -2  -3 -11   25.29    2.66
   2  -3  11   18.79    1.56
   2   3  11   22.92    1.57
   2  -3  12    7.67    0.84
  -2  -3 -12    9.47    1.61
   2  -3  12    7.43    0.85
   2   3  12    7.19    0.80
   2  -3  12    7.12    1.06
  -2  -3 -13    6.77    1.46
   2  -3  13    3.52    0.64
   2  -3  13    5.74    0.72
   2   3  13    5.61    0.72
  -2  -3 -14    2.83    1.06
   2  -3  14    2.21    0.52
   2   3  14    3.33    0.59
   2  -3  15   39.45    2.67
  -2  -3 -15   41.62    3.84
   2   3  15   42.16    2.68
   2   3  16    0.07    0.33
  -2  -3 -16    0.37    0.86
  -2  -3 -16    0.23    0.72
   2  -3  16   -0.08    0.32
   2  -3  17   20.54    1.67
   2   3  17   19.82    1.66
   2  -3  18   19.26    1.68
   2   3  18   18.87    1.66
  -2  -3 -18   17.23    2.48
  -2  -3 -19   16.73    2.48
  -2  -3 -20   -0.26    0.81
  -2  -3 -21    5.19    1.46
  -2  -3 -22    3.95    1.44
  -2   4  16   77.07    4.40
   2  -4 -16   74.82    5.49
   2  -4 -15   11.64    1.79
  -2   4  15   12.57    1.14
   2  -4 -15    9.57    2.57
   2  -4 -14    0.34    0.74
  -2   4  14    0.41    0.35
   2  -4 -14    0.41    1.02
  -2   4  13    7.68    0.77
  -2  -4  13    4.59    1.06
   2  -4 -13    7.00    1.99
  -2  -4  12   -1.15    3.33
   2  -4 -12    0.37    0.86
  -2  -4  12    0.76    0.54
  -2   4  12    0.09    0.22
   2  -4 -11    5.38    1.68
  -2  -4  11    8.60    0.79
  -2   4  11    5.12    0.58
  -2  -4  11    3.80    1.01
  -2  -4  11    9.59    3.32
  -2  -4  10  245.89   16.55
   2  -4 -10  157.03   13.74
   2  -4 -10  196.19   12.69
  -2   4  10  211.97   11.63
  -2  -4  10  266.97   11.83
   2  -4  -9   28.85    2.64
  -2  -4   9   33.11    4.35
  -2  -4   9   31.10    2.04
  -2   4   9   27.50    1.86
   2  -4  -8   16.50    1.89
   2  -4  -8   12.32    2.40
  -2  -4   8   20.22    1.40
  -2  -4   8   15.18    2.73
   2  -4  -7    0.60    0.81
  -2  -4   7    0.41    0.20
   2  -4  -7    0.28    0.44
  -2   4   7    0.22    0.14
   2  -4  -6   10.30    1.38
   2  -4  -6    9.10    1.95
  -2  -4   6    6.24    1.68
  -2  -4   5    4.30    1.46
   2  -4  -5    6.72    1.14
   2  -4  -5    2.99    1.14
   2  -4  -4   51.70    4.96
   2  -4  -4   69.05    4.46
  -2  -4   4   58.06    5.15
  -2  -4   3    0.25    0.64
   2  -4  -3    0.25    0.62
   2  -4  -3    0.13    0.41
   2  -4  -2   13.37    1.61
  -2  -4   2   12.77    2.16
  -2  -4   1    5.20    1.42
   2  -4  -1    5.89    1.07
  -2  -4   0    6.93    1.60
   2  -4   0    6.44    1.18
   2  -4   1   29.27    2.58
  -2  -4  -1   27.70    3.17
  -2  -4  -2  120.99    8.06
   2  -4   2  108.00    6.94
   2  -4   3    1.36    0.72
  -2  -4  -3    1.71    0.87
   2  -4   4   69.10    4.72
  -2  -4  -4   63.33    5.35
  -2  -4  -5   31.15    3.41
   2  -4   5   32.83    2.81
   2  -4   6   24.36    2.31
  -2  -4  -6   19.75    2.66
   2   4   7    0.82    0.15
   2  -4   7    0.45    0.16
   2  -4   7    0.60    0.22
  -2  -4  -7    0.73    0.75
   2   4   7    0.38    0.15
   2  -4   7    0.29    0.53
   2  -4   8    6.57    0.73
   2   4   8    4.53    0.53
  -2  -4  -8    7.87    1.65
   2  -4   8    7.62    1.24
   2  -4   8    8.29    0.57
   2  -4   8    4.97    0.66
   2  -4   9    0.73    0.54
   2  -4   9    0.74    0.43
  -2  -4  -9    1.74    0.85
   2  -4   9    0.89    0.23
   2   4   9    1.18    0.25
   2   4   9    0.74    0.27
   2  -4   9    0.65    0.26
   2   4  10   67.12    3.42
  -2  -4 -10   59.38    5.19
   2  -4  10   70.52    4.65
   2  -4  10   67.40    3.42
   2  -4  11    7.55    1.41
   2  -4  11    6.65    0.64
   2   4  11    5.75    0.62
   2  -4  12   10.21    1.93
   2   4  12   13.29    1.05
  -2  -4 -13    1.31    0.90
   2   4  13    0.83    0.31
   2   4  14    2.36    0.49
  -2  -4 -14    2.95    1.24
   2   4  15   15.87    1.31
  -2  -4 -15   17.61    2.63
  -2  -4 -16  127.17    8.81
   2   4  16  119.81    6.74
   2  -5 -11    0.43    0.98
   2  -5 -10    3.28    1.53
   2  -5  -9    0.40    1.00
   2  -5  -8   15.76    2.94
  -2  -5   8   18.00    3.57
   2  -5  -7    0.64    0.88
  -2  -5   7    0.45    1.46
   2  -5  -7    0.73    1.00
   2  -5  -6   36.45    3.50
  -2  -5   6   44.23    5.02
   2  -5  -5    0.42    0.68
  -2  -5   5   -0.40    1.01
   2  -5  -5   -0.33    0.84
   2  -5  -4   15.84    2.22
   2  -5  -4   11.63    2.25
   2  -5  -3   13.50    2.06
  -2  -5   3   12.60    2.71
   2  -5  -3   12.16    2.25
   2  -5  -2   90.51    6.12
  -2  -5   2   85.04    7.32
   2  -5  -1    0.42    0.84
   2  -5  -1   -0.52    0.76
  -2  -5   1   -0.37    1.14
   2  -5   0    0.24    0.75
   2  -5   0   -0.21    0.62
  -2  -5   0    0.37    1.06
  -2  -5  -1    1.44    1.22
   2  -5   1    0.65    0.67
   2  -5   1    0.22    0.65
  -2  -5  -2   29.97    3.72
   2  -5   2   26.51    2.86
  -2  -5  -3   14.49    2.72
   2  -5   3   13.62    2.16
  -2  -5  -4   20.72    3.21
   2  -5   4   23.99    2.77
   2  -5   5    0.92    0.92
  -2  -5  -5    0.33    0.97
  -2  -5  -6    1.97    1.18
   2  -5   6    4.65    1.36
   2  -5   7   -0.48    1.07
  -2  -5  -7    0.33    1.11
   2  -5   8   87.68    6.71
   3   0 -24   -0.07    0.30
   3   0 -24   -0.36    0.92
   3   0 -23    4.31    1.61
   3   0 -23    1.93    0.50
   3   0 -22   -0.35    0.80
   3   0 -22    0.19    0.26
   3   0 -21    7.13    1.89
   3   0 -21    7.79    0.85
  -3   0  20    0.35    0.89
   3   0 -20    0.11    0.22
   3   0 -20   -0.33    0.67
  -3   0  19   98.56    7.79
   3   0 -19   86.14    7.27
  -3   0  19   89.30    5.60
   3   0 -19   99.33    5.37
   3   0 -18    0.29    0.67
  -3   0  18   -0.31    0.79
   3   0 -18   -0.11    0.29
  -3   0  18   -0.17    0.29
  -3   0  17   10.83    1.13
   3   0 -17    9.93    1.22
  -3   0  17   13.12    2.29
   3   0 -17    9.00    1.87
  -3   0  16   -0.28    0.65
   3   0 -16    0.10    0.30
  -3   0  16   -0.07    0.26
   3   0 -16    0.25    0.52
   3   0 -15   75.13    4.54
  -3   0  15   71.29    5.91
  -3   0  15   71.96    4.31
   3   0 -15   64.06    5.49
   3   0 -14    0.22    0.63
  -3   0  14   -0.51    0.64
  -3   0  14   -0.07    0.20
   3   0 -14   -0.08    0.24
  -3   0  13  159.72   10.30
   3   0 -13  170.36    8.77
  -3   0  13  148.96    8.56
  -3   0  12    0.11    0.19
   3   0 -12    0.27    0.23
  -3   0  12   -0.45    0.61
  -3   0  11  317.87   16.49
   3   0 -11  307.54   16.59
  -3   0  11  351.24   18.37
  -3   0  10    0.20    0.54
   3   0 -10   -0.05    0.19
  -3   0  10    0.14    0.18
   3   0  -9    5.78    0.66
  -3   0   9    6.41    1.25
  -3   0   9    6.40    0.66
  -3   0   8    0.04    0.14
   3   0  -8    0.20    0.14
  -3   0   8    0.16    0.40
   3   0  -8    0.13    0.36
  -3   0   7  212.97   10.56
   3   0  -7  180.52   11.31
   3   0  -7  196.22   10.57
  -3   0   7  208.32   11.61
  -3   0   6   -0.12    0.36
  -3   0   6   -0.03    0.11
   3   0  -6   -0.12    0.31
   3   0  -6    0.18    0.14
  -3   0   5  122.72    7.59
  -3   0   5  135.12    6.85
   3   0  -5  125.73    7.55
   3   0  -5  127.32    6.87
  -3   0   4    1.21    0.22
  -3   0   4    0.66    0.35
   3   0  -3   15.09    1.01
  -3   0   3   14.98    1.01
   3   0  -2    0.13    0.10
  -3   0   2    0.12    0.17
   3   0  -1  309.37   15.71
  -3   0   1  288.68   15.73
   3   0  -1  308.93   15.55
   3   0   0   -0.11    0.18
  -3   0   0   -0.17    0.21
   3   0   1 1719.59   82.64
  -3   0  -1 1526.89   82.75
   3   0   2    0.19    0.65
   3   0   2   -0.07    0.23
   3   0   3    1.43    0.87
   3   0   4   -0.97    0.83
   3   0   5   61.86    4.53
  -3   0  -6    0.70    0.62
   3   0   6    0.12    0.40
  -3   0  -7 1053.21   51.10
   3   0   7  939.29   50.21
  -3   0  -8    0.64    0.57
   3   0   8    0.80    0.36
  -3   0  -9    0.78    0.53
   3   0   9    0.41    0.26
   3   0  10    0.18    0.18
  -3   0 -10   -0.46    0.50
  -3   0 -11   52.30    4.09
   3   0  11   56.95    3.30
  -3   0 -11   51.81    4.09
   3   0  12    0.05    0.16
  -3   0 -12    0.15    0.42
  -3   0 -12   -0.33    0.46
   3   0  13    0.65    0.23
  -3   0 -13    0.63    0.54
  -3   0 -14   -0.16    0.52
  -3   0 -14   -0.19    0.48
   3   0  14   -0.09    0.31
  -3   0 -15  435.34   23.04
   3   0  15  405.39   21.78
  -3   0 -15  411.46   22.50
   3   0  16    0.20    0.30
  -3   0 -16   -0.43    0.66
  -3   0 -16   -0.17    0.57
  -3   0 -17   54.17    4.38
  -3   0 -17   61.99    4.94
   3   0  17   60.11    3.95
  -3   0 -18    0.18    0.65
  -3   0 -18   -0.47    0.59
   3   0  18   -0.10    0.40
  -3   0 -19    6.91    1.39
   3   0  19    7.61    1.11
  -3   0 -19   10.92    1.90
  -3   0 -20    0.94    0.81
  -3   0 -21  256.42   15.28
  -3   0 -22    0.46    0.79
  -3   0 -23   23.09    2.78
  -3   0 -24    0.23    0.52
  -3   0 -25    5.75    1.32
  -3   0 -26   -0.22    0.55
   3  -1 -25   -0.25    0.44
   3  -1 -24    4.65    0.93
   3  -1 -23    3.88    0.83
   3  -1 -23    6.37    2.05
   3  -1 -22    5.36    0.90
   3  -1 -22    3.68    1.66
   3  -1 -21   36.67    4.81
   3  -1 -21   39.97    2.85
   3   1 -20    4.37    0.66
   3   1 -20    3.26    0.35
   3  -1 -20    4.60    0.73
  -3  -1  20    2.29    1.13
   3  -1 -20    3.85    1.60
  -3  -1  19   31.63    2.47
  -3   1  19   31.99    2.48
   3   1 -19   34.46    1.96
  -3  -1  19   35.62    4.07
   3  -1 -19   37.19    2.55
   3   1 -19   39.04    2.76
  -3   1  18   84.86    5.24
   3  -1 -18   90.94    5.26
  -3  -1  18   90.64    7.11
  -3  -1  18   88.65    5.27
  -3  -1  17   80.88    4.88
   3   1 -17   82.92    5.08
  -3   1  17   79.92    4.88
  -3  -1  17   90.72    6.81
   3  -1 -17   81.47    5.09
   3   1 -16    0.32    0.58
   3   1 -16    1.08    0.43
  -3  -1  16    0.27    0.73
  -3  -1  16    0.22    0.34
   3  -1 -16    0.47    0.35
  -3   1  16    0.51    0.32
  -3   1  15   19.29    1.60
   3  -1 -15   22.19    1.81
  -3  -1  15   19.91    1.62
   3  -1 -15   22.08    3.11
   3   1 -15   20.23    1.74
  -3  -1  15   24.52    2.93
   3   1 -15   21.48    2.37
   3   1 -14    2.84    0.91
  -3  -1  14    4.05    0.59
   3  -1 -14    3.35    0.59
   3   1 -14    2.71    0.56
  -3  -1  14    2.87    1.17
   3  -1 -14    2.14    1.14
  -3   1  14    2.99    0.51
   3  -1 -13   29.86    3.45
  -3  -1  13   28.54    1.96
   3  -1 -13   27.17    2.03
  -3   1  13   29.32    3.25
   3   1 -13   27.27    2.03
   3   1 -13   29.49    2.85
  -3  -1  13   33.32    3.22
  -3   1  13   24.56    1.88
   3   1 -12   65.79    5.22
   3  -1 -12   85.98    6.20
  -3   1  12   67.50    4.18
  -3  -1  12   81.96    5.63
   3   1 -12   72.35    4.30
   3  -1 -12   74.85    4.34
  -3   1  12   78.85    5.87
  -3  -1  12   73.60    4.23
  -3   1  11   27.86    3.02
  -3   1  11   27.29    1.86
  -3  -1  11   25.43    2.64
   3   1 -11   28.81    1.95
   3  -1 -11   27.45    1.95
   3  -1 -11   30.26    3.26
   3   1 -11   28.46    2.85
  -3  -1  11   27.05    1.86
   3   1 -10   -0.19    0.47
   3   1 -10    0.42    0.20
   3  -1 -10    0.22    0.17
  -3  -1  10    0.37    0.18
  -3   1  10    0.61    0.22
   3  -1 -10    0.22    0.39
  -3  -1  10    0.16    0.39
  -3   1   9    1.53    0.30
   3  -1  -9    1.02    0.27
   3   1  -9    1.30    0.69
   3   1  -9    1.56    0.33
   3  -1  -9    0.81    0.59
  -3  -1   9    1.03    0.48
  -3  -1   9    1.44    0.30
  -3   1   8   36.74    2.31
   3  -1  -8   41.06    2.41
  -3  -1   8   35.60    3.01
  -3  -1   8   36.53    2.30
   3  -1  -8   42.56    3.51
   3   1  -8   39.21    2.37
   3   1  -8   39.10    3.46
  -3  -1   7  476.05   25.93
  -3   1   7  471.10   25.02
  -3  -1   7  485.63   25.03
   3  -1  -7  491.93   26.36
   3   1  -7  467.06   26.51
   3   1  -7  512.09   25.10
   3  -1  -7  506.61   25.10
  -3  -1   6  323.13   16.22
   3  -1  -6  320.64   16.25
   3  -1  -6  326.56   17.41
  -3   1   6  312.70   16.21
   3   1  -6  309.18   17.75
   3   1  -6  304.22   16.22
   3  -1  -5   33.01    2.00
   3   1  -5   32.41    3.07
   3   1  -5   33.82    2.00
   3  -1  -5   32.80    2.72
  -3  -1   5   33.09    1.98
  -3   1   5   34.36    2.00
   3  -1  -4   28.15    1.81
  -3  -1   4   31.86    1.82
   3  -1  -4   29.09    2.41
  -3   1   4   31.07    1.81
  -3   1   4   30.22    2.48
   3   1  -4   31.78    2.94
   3   1  -4   30.59    1.82
   3  -1  -3  111.56    5.73
  -3   1   3  104.29    5.69
   3  -1  -3   91.16    6.21
   3   1  -3  103.79    5.70
  -3   1   3  100.74    6.36
  -3  -1   3  106.72    7.76
  -3  -1   3  121.89    5.73
   3   1  -3  108.29    7.06
  -3  -1   2   10.11    1.82
   3  -1  -2    9.20    1.03
  -3   1   2   10.46    0.87
  -3   1   2   10.74    1.14
  -3  -1   2    9.31    0.83
   3  -1  -2   11.03    0.76
   3   1  -2   10.27    0.74
  -3   1   1  304.95   15.46
   3   1  -1  295.99   15.19
  -3   1   1  288.89   15.66
   3  -1  -1  278.32   15.59
   3  -1  -1  307.01   15.22
  -3  -1   1  298.02   15.48
  -3  -1   1  287.47   17.07
  -3   1   0  317.90   16.04
  -3   1   0  296.37   15.92
   3   1   0  316.84   15.84
   3  -1   0  292.87   15.88
  -3  -1   0  303.40   16.09
   3  -1   0  311.30   15.87
  -3  -1   0  287.59   17.25
   3   1   1  112.52    6.36
  -3   1  -1  113.95    6.21
   3   1   1  117.06    7.05
  -3  -1  -1  116.03    7.47
   3  -1   1  118.89    6.41
   3   1   2    7.87    1.12
  -3   1  -2    7.02    0.58
   3   1   2    7.32    0.80
   3  -1   2    6.46    0.79
  -3  -1  -2    9.44    1.39
  -3  -1  -3   98.36    6.55
   3   1   3  104.90    6.24
   3   1   4   38.20    2.81
   3   1   5    0.84    0.40
   3   1   6   24.29    1.99
  -3  -1  -7  314.58   16.54
   3   1   7  290.12   15.89
   3   1   8  344.15   18.74
  -3  -1  -8  335.61   19.32
  -3   1  -8  364.96   18.55
   3  -1   8  388.09   19.84
  -3  -1  -9  332.82   17.53
   3   1   9  297.18   16.74
  -3   1  -9  328.34   16.76
   3  -1   9  324.21   17.28
   3   1  10   29.32    2.17
   3  -1  10   27.26    2.09
  -3   1 -10   32.88    2.32
   3   1  11    1.10    0.36
  -3   1 -11    1.11    0.45
  -3  -1 -11    1.30    0.62
   3  -1  11    1.47    0.30
   3   1  12   20.57    1.64
  -3   1 -12   19.62    1.85
   3  -1  12   20.86    1.24
  -3  -1 -12   22.31    2.20
  -3  -1 -13  237.31   13.05
  -3   1 -13  219.73   12.53
   3   1  14  191.35   10.15
  -3  -1 -14  196.30   10.86
   3  -1  14  175.04   10.08
  -3   1 -14  193.51   10.49
   3  -1  15  208.04   10.83
  -3   1 -15  193.04   11.12
   3   1  15  209.39   10.83
  -3  -1 -15  181.21   11.29
   3   1  16   13.45    1.38
   3  -1  16   12.93    1.33
  -3  -1 -16    8.63    1.74
  -3   1 -16    8.52    1.33
  -3  -1 -16   11.28    1.58
  -3  -1 -17   21.17    2.31
  -3   1 -17   19.57    2.15
  -3  -1 -17   17.58    2.67
   3  -1  17   24.80    2.03
   3   1  17   25.86    2.07
   3   1  18    4.43    0.81
  -3  -1 -18    3.21    0.94
   3  -1  18    4.48    0.79
  -3  -1 -18    2.20    1.08
  -3   1 -18    4.89    1.03
  -3   1 -19    0.33    0.52
  -3  -1 -19    0.69    0.59
   3   1  19   -0.10    0.30
   3  -1  19   -0.11    0.39
  -3  -1 -19    0.29    0.59
  -3  -1 -20   -0.18    0.61
  -3   1 -20    0.17    0.40
  -3  -1 -20   -0.29    0.74
  -3   1 -21    6.36    1.26
  -3  -1 -21    6.45    1.31
  -3  -1 -21    6.94    1.68
  -3  -1 -22   35.02    3.24
  -3  -1 -22   29.10    3.64
  -3   1 -22   30.69    3.02
  -3   1 -23   42.04    3.68
  -3  -1 -23   45.02    4.65
  -3  -1 -23   40.60    3.80
  -3  -1 -24    6.57    1.40
  -3  -1 -24    7.82    1.82
  -3   1 -24    6.31    1.33
  -3  -1 -25   -0.31    0.63
  -3   1 -25   -0.20    0.57
  -3   1 -26    0.60    0.72
   3  -2 -25    2.90    0.96
   3  -2 -24   52.71    4.10
   3  -2 -23   -0.14    0.51
   3  -2 -22    0.68    0.51
   3  -2 -21   -0.44    1.11
   3  -2 -21   -0.13    0.36
   3  -2 -20   57.47    4.01
  -3  -2  20   57.61    5.39
   3  -2 -20   59.12    6.14
   3  -2 -19    4.46    0.82
  -3  -2  19    1.46    0.96
   3  -2 -19    4.22    1.69
  -3  -2  18   11.17    1.15
  -3   2  18   12.82    1.24
   3  -2 -18    9.92    1.25
  -3  -2  18   11.14    2.16
   3  -2 -18   10.56    2.48
  -3   2  17    1.50    0.44
   3  -2 -17    0.98    0.41
  -3  -2  17    1.17    0.44
  -3  -2  17    0.81    0.83
   3  -2 -17    1.23    1.04
  -3   2  16    3.59    0.61
  -3  -2  16    2.47    0.54
   3  -2 -16    3.30    0.72
  -3  -2  16    3.45    1.17
   3  -2 -16    3.55    1.53
   3   2 -15    5.36    0.47
  -3   2  15    6.07    0.76
  -3  -2  15    5.03    0.71
   3  -2 -15    6.42    1.88
  -3  -2  15    5.86    1.40
   3  -2 -15    5.02    0.79
   3  -2 -14  186.20   10.43
  -3  -2  14  185.84   10.26
   3   2 -14  196.47   10.42
  -3   2  14  196.01   10.30
  -3  -2  14  190.99   11.65
   3  -2 -14  209.53   13.44
  -3  -2  13    4.87    0.65
  -3   2  13    6.39    0.70
   3   2 -13    4.18    0.56
   3  -2 -13    5.07    0.74
   3   2 -13    6.33    0.77
   3  -2 -13    5.97    1.75
  -3  -2  13    4.78    1.13
  -3  -2  12    2.12    0.40
   3   2 -12    1.71    0.39
   3   2 -12    1.83    0.40
  -3   2  12    2.81    0.46
   3  -2 -12    3.33    0.54
   3  -2 -12    1.67    0.92
  -3  -2  12    1.94    0.73
   3   2 -11   13.06    1.18
  -3   2  11   14.64    1.13
   3  -2 -11   13.82    2.41
  -3  -2  11   11.84    1.68
   3  -2 -11   13.77    1.19
  -3  -2  11   14.14    1.11
   3   2 -11   12.87    1.14
  -3   2  10  148.81    7.84
   3   2 -10  153.65    8.11
  -3  -2  10  140.40    8.87
   3   2 -10  147.30    7.89
   3  -2 -10  144.95    7.91
  -3  -2  10  139.80    7.81
   3  -2 -10  159.40   10.33
  -3  -2   9    2.08    0.76
   3   2  -9    3.07    0.57
  -3   2   9    2.82    0.43
  -3  -2   9    2.44    0.38
   3  -2  -9    2.69    0.44
   3  -2  -9    1.88    0.97
   3   2  -9    2.78    0.43
   3  -2  -8  147.37    9.19
   3   2  -8  131.17    7.37
  -3   2   8  132.92    6.95
  -3  -2   8  128.47    6.93
   3   2  -8  131.85    6.99
   3  -2  -8  125.38    6.99
  -3  -2   7    9.11    0.75
  -3   2   7   10.17    0.78
   3   2  -7    8.83    0.77
   3  -2  -7    8.91    0.78
   3  -2  -7    9.11    1.69
  -3  -2   7   11.89    2.17
   3   2  -7   10.13    1.09
  -3  -2   6    0.57    0.65
  -3   2   6    0.06    0.12
  -3  -2   6    0.45    0.15
   3  -2  -6    0.04    0.11
   3   2  -6    0.25    0.31
   3  -2  -6    0.21    0.48
   3   2  -6    0.43    0.19
   3   2  -5    0.50    0.17
  -3  -2   5    0.30    0.15
   3   2  -5    0.18    0.26
  -3  -2   5    0.79    0.66
   3  -2  -5    0.85    0.21
   3  -2  -5    1.13    0.64
  -3   2   5    0.28    0.13
  -3  -2   4  152.66    9.65
   3  -2  -4  137.09    7.43
   3  -2  -4  155.63    8.99
  -3   2   4  145.60    7.44
   3   2  -4  138.77    7.41
   3   2  -4  150.88    8.14
  -3  -2   3    1.07    0.70
   3  -2  -3    0.64    0.15
  -3  -2   3    0.55    0.22
   3   2  -3    0.64    0.38
  -3   2   3    0.86    0.24
   3   2  -3    0.69    0.16
   3  -2  -3    0.61    0.54
  -3   2   2    1.85    0.33
   3  -2  -2    1.41    0.22
   3   2  -2    2.18    0.25
   3   2  -2    1.02    0.45
  -3  -2   2    2.35    0.88
   3  -2  -2    0.93    0.51
  -3  -2   2    0.91    0.27
   3   2  -1   15.39    1.50
   3   2  -1   14.95    0.97
  -3   2   1   15.40    1.24
  -3  -2   1   15.24    1.96
   3  -2  -1   15.07    1.61
  -3  -2   1   14.39    1.25
   3  -2  -1   16.48    1.01
   3  -2   0  597.77   30.16
   3   2   0  552.82   30.86
   3   2   0  596.21   30.14
  -3  -2   0  580.32   31.74
   3  -2   0  637.03   31.02
  -3  -2  -1   23.86    2.52
   3  -2   1   27.01    1.95
   3  -2   1   23.20    1.60
   3   2   1   24.77    1.58
   3  -2   2  295.20   16.34
   3  -2   2  327.60   16.46
   3   2   2  323.40   16.33
  -3  -2  -2  321.96   17.58
   3   2   3    1.53    0.50
  -3  -2  -3    2.28    0.79
   3   2   3    1.51    0.33
   3  -2   3    1.38    0.33
   3  -2   3    1.33    0.27
   3   2   4   13.11    1.15
   3   2   4   13.74    1.36
   3  -2   4   12.48    1.17
  -3  -2  -4   14.29    1.80
   3   2   5    1.52    0.52
  -3  -2  -5    2.29    0.78
   3   2   6  351.22   18.60
   3   2   7   29.02    2.23
   3   2   8  208.91   11.42
  -3  -2  -9   -0.53    0.51
   3   2   9    0.44    0.32
   3   2  10   54.08    3.69
  -3  -2 -10   63.89    4.60
   3  -2  11    4.62    1.00
  -3  -2 -11    4.04    1.08
   3   2  11    2.92    0.56
   3  -2  11    2.97    0.32
  -3  -2 -12    1.31    0.70
   3  -2  12    0.72    0.35
   3   2  12    1.36    0.41
  -3  -2 -13    0.57    0.59
   3  -2  13    0.34    0.23
   3   2  13    0.65    0.34
   3   2  14  118.21    6.68
   3  -2  14  109.47    6.67
  -3  -2 -14  119.08    7.71
  -3  -2 -15    2.19    0.86
   3   2  15    3.61    0.73
   3  -2  15    4.36    0.78
  -3  -2 -16  175.23   10.91
   3  -2  16  182.70    9.92
   3   2  16  194.91    9.90
   3   2  17   -0.09    0.34
  -3  -2 -17    0.21    0.67
   3  -2  17    0.29    0.36
  -3  -2 -17   -0.32    0.57
   3   2  18    2.24    0.60
   3  -2  18    2.24    0.60
  -3  -2 -18    2.52    0.92
  -3  -2 -18    0.99    0.84
  -3  -2 -19    0.85    0.88
  -3  -2 -19    0.69    0.71
  -3  -2 -20   64.15    6.31
  -3  -2 -20   80.84    5.78
  -3  -2 -21   11.83    1.98
  -3  -2 -21    8.68    2.10
  -3  -2 -22   87.57    7.90
  -3  -2 -22  109.11    7.26
  -3  -2 -23   -0.22    0.89
  -3  -2 -24    0.45    0.70
  -3  -2 -25   -0.23    0.58
   3  -3 -22    7.40    1.34
   3  -3 -21    6.47    1.26
   3  -3 -20    4.90    1.07
   3  -3 -19    6.95    1.21
   3  -3 -19    4.37    1.83
  -3  -3  19    6.80    1.67
   3  -3 -18   68.10    7.03
  -3   3  18   87.64    4.92
  -3  -3  18   75.78    6.23
   3  -3 -18   84.06    5.43
  -3  -3  18   77.54    4.80
  -3   3  17    9.91    1.09
   3  -3 -17    9.13    1.38
  -3  -3  17   11.03    1.11
   3  -3 -17    7.16    2.18
  -3  -3  17   11.18    1.94
   3  -3 -16    2.46    1.28
  -3   3  16    3.15    0.61
  -3  -3  16    4.35    0.65
   3  -3 -16    3.41    0.87
  -3  -3  16    3.82    1.17
   3  -3 -15    2.77    1.35
   3  -3 -15    2.06    0.66
  -3   3  15    1.58    0.42
  -3  -3  15    1.57    0.76
  -3  -3  15    1.33    0.38
   3  -3 -14    2.35    0.65
  -3  -3  14    1.76    0.38
  -3   3  14    1.93    0.42
   3  -3 -14    2.66    1.41
  -3  -3  14    0.93    0.55
   3  -3 -13   13.86    1.54
  -3   3  13   16.64    1.24
  -3  -3  13   13.94    1.17
   3  -3 -13   13.65    2.58
  -3  -3  13    9.81    1.64
   3  -3 -12   73.88    4.60
  -3  -3  12   57.04    4.80
  -3   3  12   72.74    3.99
   3  -3 -12   64.84    6.08
  -3  -3  12   67.46    3.96
  -3  -3  11   17.65    1.31
  -3   3  11   18.02    1.32
   3   3 -11   19.28    1.36
  -3  -3  11   14.61    1.96
   3  -3 -11   14.01    2.55
  -3  -3  10    0.17    0.15
   3   3 -10   -0.05    0.19
   3  -3 -10   -0.31    0.63
   3  -3 -10    0.06    0.22
  -3   3  10    0.04    0.16
  -3  -3  10   -0.17    0.46
   3   3  -9    1.48    0.41
  -3  -3   9    2.08    0.35
   3  -3  -9    2.63    1.13
  -3  -3   9    1.63    1.39
   3   3  -9    2.25    0.41
   3  -3  -9    1.61    0.38
  -3   3   9    2.02    0.34
   3   3  -8   66.50    4.08
   3   3  -8   70.03    3.92
  -3   3   8   69.24    3.83
   3  -3  -8   65.71    3.92
   3  -3  -8   71.13    5.83
  -3  -3   8   71.36    3.84
  -3  -3   8   65.20    6.39
   3  -3  -7   62.85    3.65
  -3   3   7   65.79    3.59
  -3  -3   7   66.96    3.60
   3   3  -7   67.07    3.65
   3   3  -7   61.91    3.90
  -3  -3   7   66.85    6.06
  -3  -3   6  261.05   13.33
   3  -3  -6  244.88   13.14
  -3  -3   6  258.80   15.89
   3   3  -6  246.21   13.53
   3  -3  -6  236.45   15.06
   3   3  -6  264.75   13.15
  -3   3   6  255.46   13.28
  -3  -3   5    8.99    1.86
   3   3  -5   10.97    1.10
  -3  -3   5    9.65    0.90
   3   3  -5    9.97    0.75
   3  -3  -5   10.13    0.77
   3  -3  -5    7.28    1.59
  -3   3   5   10.15    0.89
  -3  -3   4   33.17    3.54
  -3  -3   4   34.86    2.23
  -3   3   4   37.95    2.22
   3  -3  -4   28.67    3.19
   3   3  -4   35.16    2.01
   3  -3  -4   34.76    2.03
   3   3  -4   36.46    2.53
   3   3  -3    4.95    0.77
  -3  -3   3    4.49    1.29
   3  -3  -3    4.49    1.10
  -3   3   3    5.28    0.59
   3  -3  -3    4.66    0.44
  -3  -3   3    5.49    0.63
   3   3  -3    5.84    0.45
  -3  -3   2    4.07    1.15
   3   3  -2    3.10    0.64
   3  -3  -2    2.20    0.84
   3   3  -2    1.88    0.25
   3  -3  -2    3.27    0.33
   3   3  -1   73.05    4.36
   3  -3  -1   65.56    4.82
  -3  -3   1   69.92    5.39
   3   3  -1   68.86    3.60
   3  -3  -1   67.76    3.63
   3   3   0  217.00   12.21
   3  -3   0  225.68   11.48
   3  -3   0  208.65   12.63
   3   3   0  226.57   11.45
  -3  -3   0  233.77   13.55
   3   3   1    1.18    0.46
  -3  -3  -1    1.28    0.82
   3  -3   1    0.12    0.34
   3  -3   1    1.11    0.18
   3   3   1    1.26    0.17
   3   3   2   30.60    2.30
   3  -3   2   29.37    2.33
  -3  -3  -2   30.68    3.08
   3  -3   2   28.43    1.63
   3   3   2   28.29    1.60
   3  -3   3   30.66    2.40
   3  -3   3   35.12    2.07
   3   3   3   34.19    2.01
  -3  -3  -3   37.74    3.47
   3   3   4   13.15    0.97
   3  -3   4   11.37    0.98
   3  -3   4   12.53    1.16
  -3  -3  -5    0.87    0.67
   3  -3   5    1.17    0.30
   3   3   5    0.63    0.23
   3  -3   5    0.41    0.21
  -3  -3  -6   43.99    3.76
   3   3   6   37.73    2.19
   3  -3   6   29.91    2.33
   3   3   6   37.42    2.74
   3  -3   6   43.46    2.58
   3   3   6   29.66    2.23
   3  -3   7   82.12    4.70
   3   3   7   79.19    4.42
  -3  -3  -7   81.44    6.07
   3  -3   7   75.25    4.43
   3  -3   8  343.05   17.61
   3  -3   8  325.10   17.43
   3   3   8  341.02   17.42
   3   3   9   69.77    3.97
   3  -3   9   69.56    4.09
   3  -3   9   64.93    3.98
   3  -3  10   10.66    1.08
   3   3  10   14.25    1.15
   3  -3  10   12.24    1.13
   3  -3  11    0.07    0.28
   3  -3  11    0.06    0.25
   3   3  11    0.30    0.22
  -3  -3 -11   -0.24    0.61
   3  -3  12   12.48    1.16
  -3  -3 -12   13.49    2.20
   3  -3  12   13.93    1.24
   3   3  12   12.33    1.16
  -3  -3 -13   31.81    3.43
   3  -3  13   29.93    2.15
   3   3  13   32.75    2.17
   3  -3  13   25.19    2.04
   3  -3  14  246.57   14.04
   3   3  14  275.91   14.08
  -3  -3 -14  285.97   16.10
   3  -3  15   41.07    2.85
   3   3  15   41.52    2.80
  -3  -3 -15   39.31    4.05
   3  -3  16    3.42    0.65
   3   3  16    3.15    0.63
  -3  -3 -16    2.97    1.15
  -3  -3 -16    0.77    0.98
   3   3  17    1.26    0.46
   3  -3  17    1.77    0.47
  -3  -3 -17    1.65    1.06
  -3  -3 -18   11.28    2.09
   3   3  18    7.74    1.03
   3  -3  18    8.33    1.09
  -3  -3 -19   -0.58    1.15
  -3  -3 -20    0.29    0.85
  -3  -3 -21    0.30    0.87
  -3  -3 -22   29.87    3.64
  -3   4  16   -0.25    0.30
   3  -4 -16    0.44    1.00
  -3   4  15   17.59    1.42
   3  -4 -15   18.96    2.27
   3  -4 -15   15.68    2.99
   3  -4 -14   12.60    1.83
  -3   4  14   13.95    1.15
   3  -4 -13   35.30    4.65
  -3  -4  13   38.97    3.72
  -3   4  12   -0.14    0.29
   3  -4 -12    0.37    0.77
  -3  -4  12    0.19    0.47
  -3  -4  11   39.53    3.73
  -3   4  11   45.06    2.61
  -3  -4  10   23.39    4.74
  -3  -4  10   23.46    1.82
   3  -4 -10   16.81    2.85
  -3   4  10   18.88    1.54
   3  -4 -10   18.91    2.11
  -3  -4   9    1.06    1.81
  -3  -4   9   -0.15    0.48
   3  -4  -9    0.43    0.56
  -3   4   9   -0.06    0.42
   3  -4  -9    0.97    0.94
  -3  -4   8    6.97    0.89
  -3  -4   8    7.64    2.24
  -3   4   8    7.50    0.78
   3  -4  -8    5.80    1.12
   3  -4  -8    7.67    1.76
  -3  -4   7   30.69    2.07
   3  -4  -7   32.97    3.66
   3  -4  -7   30.28    2.69
  -3  -4   7   32.68    4.24
  -3  -4   6    0.35    0.88
   3  -4  -6   -0.27    0.46
   3  -4  -6    0.27    0.69
  -3  -4   5   93.26    7.33
   3  -4  -5   95.40    5.73
  -3  -4   4    1.25    1.07
   3  -4  -4    0.72    0.65
   3  -4  -4    1.54    0.61
  -3  -4   3    4.84    1.45
   3  -4  -3    5.91    1.04
   3  -4  -3    4.64    1.21
  -3  -4   2    0.59    1.01
   3  -4  -2    0.37    0.42
   3  -4  -2    1.42    0.75
   3  -4  -1   31.35    3.06
   3  -4  -1   34.55    2.73
  -3  -4   1   28.56    3.53
   3  -4   0   50.05    3.49
   3  -4   0   40.34    3.61
  -3  -4   0   49.65    4.72
   3  -4   1  270.95   13.70
  -3  -4  -1  284.13   15.61
   3  -4   2    7.45    1.19
  -3  -4  -2    7.52    1.82
   3  -4   2    6.89    1.10
   3  -4   3    0.36    0.43
   3  -4   3   -0.11    0.36
  -3  -4  -3    0.29    0.78
   3  -4   4   11.35    1.37
  -3  -4  -4   13.02    2.25
   3  -4   5    9.64    1.30
  -3  -4  -5    8.11    1.87
   3  -4   5    6.00    0.83
   3  -4   6   42.74    3.03
   3  -4   6   39.39    1.99
   3  -4   6   35.33    1.96
   3   4   6   35.57    1.95
  -3  -4  -6   40.99    4.15
   3   4   7  172.05    7.57
   3  -4   7  206.40    7.56
   3  -4   7  225.18    9.07
   3  -4   7  183.05    7.77
  -3  -4  -7  201.65   10.82
  -3  -4  -8    5.89    1.62
   3   4   8    6.96    0.70
   3  -4   8    8.12    0.89
   3  -4   8    8.99    0.71
   3   4   8    8.34    0.69
   3  -4   8    7.65    1.17
   3  -4   9    1.94    0.35
  -3  -4  -9    1.48    1.02
   3  -4   9    1.36    0.49
   3  -4   9    1.90    0.69
   3   4   9    1.69    0.39
   3   4   9    2.94    0.42
   3  -4  10    8.13    1.23
   3  -4  10    5.79    0.65
   3   4  10    5.27    0.77
   3   4  10    8.35    0.76
   3  -4  10    7.98    1.35
   3  -4  11    9.95    1.43
   3   4  11    9.93    0.91
   3   4  11    7.16    1.02
   3   4  12   -0.06    0.32
  -3  -4 -13    3.71    1.43
   3   4  13    2.96    0.54
  -3  -4 -14    4.40    1.53
   3   4  14    5.12    0.72
   3   4  15  118.33    6.37
  -3  -4 -15   88.69    8.03
   3   4  16    9.03    1.02
   3  -5 -12    8.09    2.18
   3  -5 -11   13.93    2.85
   3  -5 -10    0.78    0.90
   3  -5  -9    0.37    0.94
  -3  -5   8    0.62    1.68
   3  -5  -8    0.71    1.04
   3  -5  -7   88.58    6.23
   3  -5  -7   75.86    6.91
  -3  -5   7   95.28    8.89
   3  -5  -6    4.96    1.28
  -3  -5   6    5.29    2.00
   3  -5  -6    5.96    1.67
  -3  -5   5   14.42    3.02
   3  -5  -5   16.66    2.67
   3  -5  -5   18.83    2.26
   3  -5  -4   -0.38    0.71
  -3  -5   4    0.44    1.27
   3  -5  -4    0.54    0.84
  -3  -5   3   22.34    3.71
   3  -5  -3   23.62    2.63
   3  -5  -3   21.72    2.82
   3  -5  -2    2.23    1.06
   3  -5  -2    0.91    0.74
  -3  -5   2    0.42    1.15
   3  -5  -1   63.19    4.56
  -3  -5   1   61.30    6.17
   3  -5   0    0.93    0.79
  -3  -5   0    4.15    1.76
  -3  -5  -1    3.28    1.65
   3  -5   1    5.11    1.24
  -3  -5  -2    3.24    1.63
   3  -5   2    4.95    1.21
   3  -5   3   35.63    3.37
  -3  -5  -3   36.62    4.60
  -3  -5  -4    4.71    1.85
   3  -5   4    2.76    1.01
  -3  -5  -5    1.55    1.26
   3  -5   5    2.40    0.88
  -3  -5  -6    0.38    0.96
   3  -5   6    0.82    0.70
   3  -5   7   81.87    6.02
   4   0 -24    5.33    1.79
   4   0 -24    7.92    0.93
   4   0 -23   -0.07    0.28
   4   0 -23   -0.75    1.02
   4   0 -22   18.40    1.50
   4   0 -22   16.43    2.90
   4   0 -21   -0.35    0.96
   4   0 -21    0.19    0.27
   4   0 -20   44.19    3.30
   4   0 -20   38.68    4.43
  -4   0  19   -0.34    1.16
   4   0 -19   -0.12    0.37
  -4   0  18    3.42    0.65
  -4   0  18    3.28    1.40
   4   0 -18    2.68    1.20
   4   0 -18    4.20    0.79
  -4   0  17    0.08    0.29
   4   0 -17   -0.11    0.33
  -4   0  17    0.63    0.79
   4   0 -17    0.83    0.64
   4   0 -16   37.70    2.69
  -4   0  16   39.19    4.10
   4   0 -16   33.09    3.56
  -4   0  16   32.32    2.42
   4   0 -15    0.26    0.33
  -4   0  15    0.65    0.27
  -4   0  15   -0.28    0.77
  -4   0  14  459.89   25.04
   4   0 -14  446.10   23.00
  -4   0  14  429.51   22.80
  -4   0  13   -0.06    0.23
   4   0 -13   -0.15    0.19
   4   0 -12    1.74    0.40
  -4   0  12    2.05    0.39
  -4   0  12    1.21    0.75
  -4   0  11    0.06    0.15
   4   0 -11   -0.06    0.17
  -4   0  11   -0.23    0.52
  -4   0  10  151.36    8.26
  -4   0  10  166.90    9.90
   4   0 -10  163.02    8.44
  -4   0   9    0.14    0.20
   4   0  -9    0.17    0.16
  -4   0   9   -0.37    0.54
   4   0  -9    0.16    0.36
  -4   0   8 1168.92   60.95
   4   0  -8 1258.40   61.03
  -4   0   8 1254.47   62.31
   4   0  -8 1122.01   61.99
   4   0  -7    0.05    0.13
  -4   0   7   -0.15    0.37
  -4   0   7    0.21    0.12
   4   0  -6    1.78    0.32
  -4   0   6    2.17    0.69
  -4   0   6    1.64    0.31
   4   0  -5    0.08    0.07
  -4   0   5    0.04    0.12
  -4   0   4    0.45    0.17
   4   0  -4    0.04    0.09
   4   0  -3    0.32    0.16
  -4   0   3    0.16    0.19
  -4   0   2    4.87    0.62
   4   0  -2    6.39    0.57
   4   0  -1    0.52    0.26
  -4   0   1    0.52    0.23
   4   0   0 1022.18   54.79
  -4   0   0 1139.24   54.93
   4   0   1    0.08    0.22
  -4   0  -1    0.30    0.26
   4   0   2   49.34    3.29
   4   0   3   -0.25    0.85
   4   0   3    0.18    0.28
   4   0   4  199.45   12.61
   4   0   5    0.74    0.80
   4   0   6 1715.13   88.48
   4   0   7    1.19    0.66
   4   0   8  183.80   10.68
   4   0   9   -0.11    0.33
   4   0  10    1.26    0.44
  -4   0 -10    1.18    0.64
  -4   0 -11    0.19    0.53
   4   0  11    0.08    0.23
   4   0  12   67.27    4.11
  -4   0 -12   70.33    4.88
  -4   0 -12   63.11    5.02
  -4   0 -13   -0.19    0.44
   4   0  13    0.06    0.22
  -4   0 -13    0.17    0.38
   4   0  14   31.50    2.10
  -4   0 -14   27.89    2.84
  -4   0 -14   32.11    3.10
  -4   0 -15   -0.19    0.60
   4   0  15    0.05    0.19
  -4   0 -15   -0.19    0.52
  -4   0 -16   21.03    2.46
  -4   0 -17    0.63    0.61
   4   0  17   -0.22    0.39
  -4   0 -18    2.61    0.93
   4   0  18    3.69    0.81
  -4   0 -19   -0.22    0.46
  -4   0 -20  187.95   11.76
  -4   0 -21    0.23    0.58
  -4   0 -22   35.47    3.55
  -4   0 -23   -0.23    0.47
  -4   0 -24    2.44    0.92
  -4   0 -25   -0.43    0.67
  -4   0 -26   29.24    3.15
   4  -1 -25    0.12    0.38
   4  -1 -24   -0.22    0.39
   4  -1 -23    9.25    1.20
   4  -1 -23    9.81    2.51
   4  -1 -22   97.17    8.16
   4  -1 -22   81.88    4.67
   4   1 -22   90.75    4.77
   4   1 -21   49.46    2.84
   4  -1 -21   55.00    3.49
   4   1 -20   14.19    2.00
   4   1 -19    3.67    1.10
  -4  -1  19    1.28    1.20
   4   1 -19    2.69    0.66
   4  -1 -19    2.77    0.70
  -4   1  18    4.44    0.72
  -4  -1  18    2.85    0.60
   4   1 -18    2.35    1.07
  -4  -1  18    3.08    1.28
   4   1 -18    3.97    0.79
   4  -1 -18    3.98    0.78
  -4   1  17   17.53    1.53
  -4  -1  17   14.73    1.44
   4   1 -17   17.88    1.67
   4  -1 -17   17.77    1.68
  -4  -1  17   16.20    2.55
   4  -1 -17   21.92    3.43
   4   1 -17   19.09    2.60
  -4  -1  16  152.52    9.81
  -4   1  16  139.51    9.91
   4  -1 -16  158.40   10.56
   4   1 -16  140.66    7.89
   4  -1 -16  140.14    7.91
  -4   1  16  131.09    7.66
  -4  -1  16  130.22    7.65
   4   1 -16  140.96    9.38
  -4   1  15   92.54    5.43
  -4  -1  15   92.13    5.43
   4  -1 -15   91.88    5.59
  -4  -1  15  106.96    7.38
  -4   1  15   95.54    7.44
   4  -1 -15   97.03    7.63
   4   1 -15  103.33    7.26
   4   1 -15   91.69    5.58
  -4   1  14   24.39    3.03
  -4   1  14   19.85    1.62
   4  -1 -14   21.48    2.98
  -4  -1  14   18.33    2.53
   4   1 -14   23.16    2.91
   4   1 -14   20.43    1.71
   4  -1 -14   22.02    1.77
  -4  -1  14   21.64    1.65
  -4   1  13    9.22    0.91
   4   1 -13    8.98    1.88
  -4   1  13    6.94    1.68
   4  -1 -13    8.33    0.95
  -4  -1  13   10.48    1.76
   4  -1 -13   10.50    1.95
   4   1 -13    8.64    0.96
  -4  -1  13    7.16    0.84
  -4   1  12   23.01    1.63
  -4  -1  12   22.02    2.49
   4  -1 -12   23.76    2.81
   4   1 -12   20.35    1.64
   4  -1 -12   20.08    1.63
   4   1 -12   25.12    3.09
  -4  -1  12   19.89    1.56
  -4  -1  11    2.99    0.46
   4   1 -11    2.81    0.48
   4  -1 -11    2.63    0.47
  -4   1  11    2.73    0.45
   4   1 -11    2.18    1.09
  -4  -1  11    1.81    0.80
   4  -1 -11    2.06    0.95
  -4   1  10   10.06    0.97
   4   1 -10   13.46    1.10
   4  -1 -10   13.70    1.13
   4  -1 -10   10.60    1.77
  -4  -1  10   10.33    1.56
   4   1 -10   10.83    2.05
  -4  -1  10   11.14    0.99
  -4   1   9    8.19    0.80
   4   1  -9    8.59    1.87
  -4  -1   9    9.26    0.84
   4   1  -9   10.55    0.95
   4  -1  -9    9.06    0.90
   4  -1  -9    8.57    1.43
  -4  -1   9    9.12    1.39
  -4  -1   8  181.59   10.86
  -4   1   8  181.55    9.79
  -4  -1   8  183.45    9.81
   4  -1  -8  177.11   11.00
   4   1  -8  189.58    9.87
   4  -1  -8  195.21    9.89
   4   1  -8  181.15   11.91
   4  -1  -7  290.21   16.87
   4   1  -7  304.80   18.04
   4   1  -7  306.11   15.82
  -4   1   7  304.54   15.78
  -4  -1   7  303.16   15.77
  -4   1   7  311.47   17.22
   4  -1  -7  320.83   15.86
  -4  -1   7  277.74   16.74
   4  -1  -6  231.07   12.34
  -4   1   6  259.65   13.72
  -4   1   6  241.05   12.32
  -4  -1   6  245.14   12.32
   4  -1  -6  210.44   13.21
   4   1  -6  239.40   14.59
   4   1  -6  232.19   12.34
   4  -1  -5   20.20    1.33
   4   1  -5   18.32    1.29
   4  -1  -5   16.06    1.82
   4   1  -5   13.59    2.32
  -4   1   5   20.30    1.30
  -4   1   5   20.44    2.09
  -4  -1   5   17.69    1.26
   4   1  -4   -0.26    0.80
   4  -1  -4    0.52    0.18
   4   1  -4    0.72    0.22
  -4   1   4    0.95    0.21
  -4   1   4    0.26    0.45
   4  -1  -4    0.57    0.42
  -4  -1   4    0.77    0.19
  -4  -1   3   94.83    5.61
   4   1  -3  102.78    5.43
   4   1  -3  106.98    7.48
  -4   1   3  108.22    6.32
   4  -1  -3   92.40    6.01
  -4   1   3  100.45    5.63
   4  -1  -3  103.65    5.45
  -4  -1   2  981.55   50.59
  -4   1   2  975.78   50.56
   4   1  -2  968.88   50.28
  -4   1   2 1007.49   51.09
   4  -1  -2  953.35   50.90
   4  -1  -2 1052.89   50.33
  -4  -1   1  836.83   41.31
  -4   1   1  815.23   41.24
   4  -1  -1  816.98   40.92
  -4  -1   1  884.18   44.06
   4   1  -1  784.28   40.89
   4  -1  -1  769.90   41.32
  -4   1   1  818.61   41.49
  -4  -1   0  712.31   37.85
  -4   1   0  737.43   37.69
  -4   1   0  717.38   37.77
  -4  -1   0  701.38   39.87
   4   1   0  740.57   37.56
   4  -1   0  764.91   37.62
   4  -1   1   50.92    3.17
  -4   1  -1   46.66    2.97
   4   1   1   45.25    4.02
  -4  -1  -1   49.29    4.55
   4   1   1   50.14    3.14
   4  -1   2    7.64    0.89
   4   1   2    7.58    0.89
   4   1   2    6.44    1.27
  -4  -1  -2    5.69    1.44
  -4   1  -2    7.93    0.74
  -4  -1  -3    3.02    0.99
   4  -1   3    1.26    0.42
   4   1   3    1.29    0.40
   4   1   3    3.67    0.94
  -4   1  -3    1.71    0.30
   4   1   4   43.25    3.49
   4   1   5   30.14    2.64
   4   1   6   26.33    2.36
  -4  -1  -6   27.29    2.86
   4   1   7  126.79    7.69
  -4  -1  -7  135.32    8.50
   4   1   8  119.13    7.69
   4  -1   8  135.32    8.90
  -4   1  -8  139.16    7.33
  -4  -1  -8  136.49    8.63
   4   1   9   30.04    2.49
  -4   1  -9   34.71    2.35
  -4  -1  -9   28.60    2.99
   4   1  10    0.29    0.33
  -4   1 -10    0.67    0.32
  -4  -1 -10    0.96    0.62
   4  -1  10    1.45    0.67
   4   1  11    7.55    0.96
   4  -1  11    4.69    0.87
  -4  -1 -11    6.34    1.27
  -4   1 -11    5.99    0.91
   4  -1  12  197.96   11.20
   4   1  12  198.23   11.34
  -4  -1 -12  209.65   12.43
   4   1  13  297.72   15.44
  -4   1 -13  319.93   15.86
   4  -1  13  272.77   15.02
  -4  -1 -13  297.06   16.63
   4  -1  14  246.10   13.00
   4   1  14  257.88   13.54
  -4  -1 -14  244.14   14.68
  -4   1 -14  279.53   14.11
   4   1  15   48.31    3.17
  -4  -1 -15   41.09    4.14
  -4   1 -15   49.11    3.59
  -4  -1 -15   50.92    4.18
  -4  -1 -16    0.20    0.42
  -4  -1 -16   -0.25    0.62
  -4   1 -16   -0.13    0.34
   4  -1  16    0.32    0.33
   4   1  16    0.42    0.30
  -4  -1 -17    0.51    0.64
  -4   1 -17    1.11    0.54
   4  -1  17    1.34    0.53
   4   1  17    1.99    0.55
  -4  -1 -17    0.83    0.61
  -4  -1 -18   10.21    1.75
   4  -1  18    9.95    1.33
  -4   1 -18   12.42    1.58
  -4  -1 -18    8.26    1.77
   4   1  18   11.17    1.33
  -4  -1 -19   20.87    2.93
  -4  -1 -19   24.90    2.80
  -4   1 -19   27.15    2.51
  -4  -1 -20   20.95    2.86
  -4   1 -20   22.07    2.33
  -4  -1 -20   20.08    2.57
  -4  -1 -21    0.59    0.90
  -4   1 -21    0.85    0.61
  -4  -1 -21    0.46    0.62
  -4  -1 -22    3.30    1.21
  -4  -1 -22    6.54    1.69
  -4   1 -22    5.69    1.19
  -4  -1 -23    3.41    1.21
  -4  -1 -23    4.24    1.40
  -4   1 -23    2.80    0.84
  -4  -1 -24   -0.25    0.69
  -4  -1 -24   -0.31    0.78
  -4   1 -24   -0.36    0.52
  -4   1 -25    0.93    0.66
   4  -2 -25    8.23    1.44
   4  -2 -24    1.02    0.75
   4  -2 -23   42.10    3.34
   4  -2 -22    0.88    0.58
   4  -2 -21    3.24    1.73
   4  -2 -21    3.63    0.82
   4  -2 -20    0.22    0.43
   4  -2 -20    1.36    1.14
   4  -2 -19   14.71    1.54
  -4  -2  19   15.72    2.57
   4  -2 -19   11.02    2.70
   4   2 -18    0.13    0.11
  -4   2  18    0.16    0.29
  -4  -2  18    0.16    0.31
  -4  -2  18    0.58    0.67
   4  -2 -18   -0.43    0.98
  -4   2  17    2.56    0.53
  -4  -2  17    2.63    0.54
  -4  -2  17    1.33    0.83
   4  -2 -17    1.24    1.04
   4   2 -17    2.41    0.55
   4  -2 -17    1.64    0.50
  -4  -2  16   -0.50    0.88
  -4  -2  16    0.50    0.29
  -4   2  16    1.39    0.39
   4  -2 -16    0.79    1.00
   4   2 -16    1.06    0.45
   4  -2 -16    1.20    0.44
   4  -2 -15  206.70   11.52
  -4   2  15  210.35   11.35
  -4  -2  15  201.78   11.31
   4   2 -15  225.14   11.37
  -4  -2  15  206.49   12.91
   4  -2 -15  216.98   14.35
   4   2 -15  213.54   11.51
  -4   2  14    7.62    0.89
   4   2 -14    7.51    0.96
   4   2 -14    9.38    1.05
   4  -2 -14    9.25    1.03
  -4  -2  14   10.61    0.99
   4  -2 -14    9.37    2.08
  -4  -2  14    6.63    1.48
   4   2 -13  108.49    6.12
  -4   2  13  102.96    5.99
  -4  -2  13  108.39    6.00
   4  -2 -13  113.70    8.57
  -4  -2  13   95.83    7.13
   4  -2 -13  113.27    6.17
   4   2 -13  107.66    6.29
   4   2 -12   -0.06    0.25
   4   2 -12   -0.10    0.30
   4  -2 -12    0.13    0.24
  -4   2  12   -0.05    0.23
  -4  -2  12   -0.11    0.28
   4  -2 -12    0.65    0.82
  -4  -2  12    0.19    0.52
   4  -2 -11    0.31    0.24
  -4  -2  11    0.35    0.23
   4   2 -11    1.02    0.47
   4   2 -11    1.76    0.39
  -4   2  11    1.31    0.34
   4  -2 -11    0.61    0.63
  -4  -2  11   -0.18    0.56
   4  -2 -10    2.66    0.49
   4   2 -10    1.40    0.60
  -4  -2  10    3.22    0.98
   4  -2 -10    3.13    1.25
  -4   2  10    2.19    0.44
   4   2 -10    3.19    0.51
  -4  -2  10    2.16    0.43
  -4  -2   9  516.19   27.64
  -4  -2   9  492.15   26.23
   4  -2  -9  580.99   28.90
   4   2  -9  513.59   26.31
   4  -2  -9  519.18   26.34
  -4   2   9  515.54   26.26
   4   2  -9  520.90   27.01
   4   2  -8   44.31    3.33
  -4  -2   8   44.72    2.70
  -4   2   8   45.22    2.70
   4  -2  -8   54.64    4.53
   4   2  -8   46.94    2.78
   4  -2  -8   45.21    2.79
   4  -2  -7  226.46   13.51
  -4   2   7  222.44   11.57
  -4  -2   7  216.67   11.56
   4   2  -7  235.13   11.65
   4  -2  -7  217.45   11.65
   4   2  -7  215.43   12.40
   4   2  -6    0.50    0.38
  -4  -2   6    0.35    0.81
  -4   2   6    0.21    0.16
  -4  -2   6    0.25    0.16
   4  -2  -6    0.32    0.18
   4   2  -6    0.56    0.19
   4  -2  -6    0.20    0.42
   4   2  -5    9.75    1.33
  -4   2   5   10.82    0.98
  -4  -2   5    8.12    1.98
   4  -2  -5   10.70    0.85
   4   2  -5    9.64    0.81
   4  -2  -5   10.42    1.64
  -4   2   5   11.45    0.85
   4   2  -4    3.23    0.38
  -4  -2   4    2.59    1.25
   4  -2  -4    2.80    0.37
   4  -2  -4    3.13    0.89
  -4   2   4    3.40    0.51
  -4  -2   4    2.73    0.46
   4   2  -4    2.04    0.65
   4   2  -3   34.11    2.85
  -4  -2   3   35.91    2.34
   4   2  -3   35.19    2.07
   4  -2  -3   35.81    2.10
  -4   2   3   32.91    2.28
   4  -2  -3   36.98    3.01
  -4  -2   3   29.78    3.70
  -4  -2   2   -0.57    0.71
   4   2  -2   -0.13    0.32
  -4  -2   2   -0.07    0.21
  -4   2   2    0.18    0.22
   4  -2  -2   -0.03    0.11
   4  -2  -2    0.12    0.29
   4   2  -2    0.23    0.14
   4   2  -1  150.62    8.90
  -4   2   1  147.33    8.32
   4  -2  -1  156.76    7.93
   4   2  -1  154.98    7.90
   4  -2  -1  137.74    8.55
  -4  -2   1  142.95    8.38
  -4  -2   1  150.23   10.07
  -4  -2   0   12.12    2.00
   4  -2   0   15.39    1.40
   4  -2   0   15.09    1.01
   4   2   0   13.25    0.96
   4  -2   1  380.86   19.74
   4  -2   1  392.01   19.89
  -4  -2  -1  375.39   21.51
   4   2   1  375.16   19.68
   4   2   2    7.11    0.77
   4  -2   2    6.49    0.77
   4  -2   2    7.62    0.73
  -4  -2  -2    6.44    1.43
   4   2   3    0.24    0.39
   4  -2   3    0.46    0.26
   4   2   3    0.60    0.29
  -4  -2  -3    0.65    0.67
   4  -2   4    7.11    0.88
   4   2   4    8.57    1.18
   4   2   4    7.89    0.90
  -4  -2  -4    7.46    1.47
   4  -2   5  577.62   31.36
   4   2   5  657.59   31.79
   4   2   5  573.43   31.29
  -4  -2  -5  680.78   32.84
   4   2   6   63.90    4.27
   4   2   7  676.37   35.17
   4   2   8    0.74    0.41
  -4  -2  -9    0.22    0.71
   4   2   9    2.29    0.58
   4   2  10    0.41    0.35
  -4  -2 -10   -0.22    0.68
   4   2  11   35.85    2.70
  -4  -2 -11   35.91    3.53
   4  -2  12    4.65    1.14
   4   2  12    2.72    0.65
  -4  -2 -12    2.90    1.01
  -4  -2 -13   13.36    2.10
   4  -2  13   15.65    1.27
   4   2  13   17.55    1.66
  -4  -2 -14    0.69    0.62
   4  -2  14    0.69    0.42
   4   2  14    0.92    0.42
  -4  -2 -15   68.63    5.70
   4  -2  15   69.56    4.76
   4   2  15   85.10    4.87
  -4  -2 -16    0.23    0.71
   4  -2  16    0.43    0.44
   4   2  16    0.41    0.31
  -4  -2 -17   -0.23    0.58
   4   2  17    0.10    0.37
  -4  -2 -17   -0.33    0.59
   4  -2  17   -0.11    0.39
   4  -2  18    0.11    0.41
  -4  -2 -18    0.23    0.54
   4   2  18    0.11    0.46
  -4  -2 -18    0.34    0.60
  -4  -2 -19   28.54    3.78
  -4  -2 -19   39.40    3.70
  -4  -2 -20    1.78    1.04
  -4  -2 -20    1.64    0.91
  -4  -2 -21   97.06    8.43
  -4  -2 -21  122.38    7.97
  -4  -2 -22    0.24    0.64
  -4  -2 -22    0.74    0.94
  -4  -2 -23   -0.24    0.65
  -4  -2 -24    0.73    0.80
   4  -3 -21   58.22    4.34
   4  -3 -20    2.93    0.89
   4  -3 -19    5.18    1.03
   4  -3 -19    3.89    1.62
   4  -3 -18    0.54    0.55
   4  -3 -18    2.13    1.38
  -4  -3  17   14.45    1.36
  -4   3  17   17.00    1.44
   4  -3 -17   14.66    2.93
  -4  -3  17   12.39    2.13
   4  -3 -17   18.74    1.87
  -4   3  16   34.49    2.39
   4  -3 -16   28.58    4.11
  -4  -3  16   28.53    3.24
  -4  -3  16   37.03    2.41
   4  -3 -16   35.90    2.90
  -4   3  15   90.07    5.02
  -4  -3  15   84.10    4.99
   4  -3 -15   79.23    7.39
  -4  -3  15   71.58    6.04
   4  -3 -15  100.89    5.79
   4   3 -14    0.22    0.20
  -4  -3  14   -0.06    0.25
   4  -3 -14    0.25    0.43
  -4   3  14    0.06    0.31
   4  -3 -14    0.38    0.96
   4  -3 -14   -0.41    0.40
  -4  -3  14    0.21    0.57
   4   3 -13   10.69    0.97
  -4   3  13   10.99    1.02
  -4  -3  13   11.12    1.01
   4   3 -13   10.13    1.09
   4  -3 -13   11.67    1.16
   4  -3 -13    8.64    2.13
  -4  -3  13   10.00    1.71
  -4   3  12    0.57    0.25
  -4  -3  12    1.20    0.35
   4   3 -12    0.59    0.29
   4   3 -12    1.58    0.40
  -4  -3  12    0.40    0.58
   4  -3 -12    1.15    0.39
  -4  -3  11    0.20    0.46
   4  -3 -11   -0.07    0.24
   4   3 -11    0.07    0.23
  -4   3  11    0.29    0.18
   4   3 -11    0.24    0.28
  -4  -3  11    0.05    0.18
   4  -3 -11    1.02    1.04
   4  -3 -10    3.51    0.55
   4   3 -10    3.27    0.60
   4   3 -10    3.80    0.54
  -4  -3  10    4.15    0.52
   4  -3 -10    3.51    1.28
  -4   3  10    3.06    0.45
   4   3  -9    7.96    0.95
   4   3  -9    7.78    0.79
   4  -3  -9    6.98    1.73
   4  -3  -9    7.87    0.80
  -4   3   9    8.93    0.78
  -4  -3   9    7.93    0.76
   4   3  -8   50.35    3.31
   4  -3  -8   53.77    4.88
   4   3  -8   48.41    2.93
   4  -3  -8   49.34    2.99
  -4   3   8   48.39    2.89
  -4  -3   8   52.61    2.95
  -4  -3   8   45.60    5.57
   4   3  -7  246.22   13.31
   4  -3  -7  257.46   15.15
  -4  -3   7  268.76   16.84
  -4   3   7  249.90   13.00
   4   3  -7  245.52   12.78
   4  -3  -7  234.69   12.82
  -4  -3   7  252.36   13.05
  -4  -3   6   74.00    4.21
   4   3  -6   69.63    4.45
   4  -3  -6   64.88    5.55
  -4   3   6   72.63    4.15
   4   3  -6   72.07    3.91
   4  -3  -6   65.87    3.92
  -4  -3   6   74.21    6.75
  -4  -3   5    2.57    1.27
  -4  -3   5    4.66    0.66
  -4   3   5    4.62    0.63
   4   3  -5    4.13    0.77
   4   3  -5    4.43    0.47
   4  -3  -5    4.69    1.19
   4  -3  -5    4.66    0.52
  -4  -3   4    1.09    0.38
  -4   3   4    1.42    0.40
   4   3  -4    1.29    0.53
   4   3  -4    1.93    0.29
  -4  -3   4    3.38    1.39
   4  -3  -4    1.94    0.33
   4  -3  -4    3.06    1.01
   4   3  -3   68.79    4.31
  -4   3   3   62.26    3.86
  -4  -3   3   70.51    5.96
   4  -3  -3   68.73    5.04
  -4  -3   3   57.08    3.88
   4   3  -3   66.66    3.56
   4  -3  -3   67.74    3.61
   4  -3  -2   82.98    4.40
   4   3  -2   78.71    5.10
   4  -3  -2   79.74    5.62
  -4  -3   2   91.67    6.85
   4   3  -2   80.27    4.35
   4   3  -1  592.66   32.20
   4   3  -1  621.53   31.34
   4  -3  -1  625.66   32.67
   4  -3  -1  620.62   31.38
  -4  -3   1  616.11   34.02
   4   3   0   72.32    4.90
   4  -3   0   80.69    4.21
   4   3   0   77.89    4.17
   4  -3   0   74.91    5.10
  -4  -3   0   73.04    6.14
   4   3   1   21.96    2.09
   4  -3   1   27.46    1.56
   4   3   1   24.50    1.49
   4  -3   1   25.80    2.16
   4   3   2    0.33    0.16
   4  -3   2    0.25    0.16
   4   3   2   -0.11    0.32
  -4  -3  -2    0.26    0.60
   4  -3   2    0.32    0.31
  -4  -3  -3    0.52    0.81
   4  -3   3    1.32    0.31
   4  -3   3    1.62    0.36
   4   3   3    1.26    0.29
   4   3   4   10.17    0.88
  -4  -3  -4    9.19    1.86
   4  -3   4    9.44    0.91
   4   3   5   20.60    1.51
   4  -3   5   19.76    1.56
  -4  -3  -6   -0.27    0.73
   4  -3   6    0.15    0.26
   4   3   6    0.06    0.20
   4   3   6    0.11    0.31
   4   3   7   87.47    5.21
   4   3   7   81.63    4.79
   4  -3   7   71.31    4.86
  -4  -3  -7   85.47    6.51
   4   3   8   41.91    3.08
   4  -3   8   46.86    3.40
   4   3   8   48.59    3.38
   4   3   9   16.46    1.77
   4  -3   9   19.14    1.49
   4  -3  10    0.65    0.30
   4   3  10    1.14    0.38
  -4  -3 -11   10.72    2.16
   4  -3  11   13.90    1.29
   4   3  11   12.25    1.21
   4  -3  11   12.14    1.09
   4  -3  12   40.74    2.56
   4  -3  12   39.28    2.81
   4   3  12   40.72    2.78
  -4  -3 -12   45.18    4.44
   4  -3  13  281.79   15.17
   4  -3  13  285.49   15.58
   4   3  13  314.47   15.57
  -4  -3 -13  297.18   17.76
  -4  -3 -14   77.05    6.29
   4  -3  14   69.61    4.50
   4   3  14   73.74    4.48
   4  -3  15   34.45    2.62
   4   3  15   38.00    2.61
  -4  -3 -15   30.83    3.76
  -4  -3 -16    0.92    0.90
   4  -3  16   -0.09    0.40
   4   3  16   -0.18    0.43
  -4  -3 -17    0.31    0.84
   4   3  17    1.39    0.52
   4  -3  17    0.68    0.44
  -4  -3 -18    4.08    1.46
  -4  -3 -19   25.05    3.98
  -4  -3 -19   48.54    4.60
  -4  -3 -20    3.80    1.64
  -4  -3 -21    0.32    1.09
   4  -4 -16   11.85    2.64
  -4   4  15   17.57    1.42
   4  -4 -15   13.95    2.80
   4  -4 -14  133.51    7.94
   4  -4 -14   91.13    8.88
  -4  -4  14   98.63    7.85
  -4   4  14  130.10    6.71
   4  -4 -13    0.77    1.12
  -4  -4  13    0.88    0.68
  -4   4  13    1.62    0.44
  -4   4  12    0.08    0.46
  -4   4  12   -0.15    0.30
   4  -4 -12    0.37    0.86
  -4  -4  12    0.23    0.72
   4  -4 -11    1.78    0.76
  -4  -4  11    1.46    0.94
   4  -4 -11    0.36    0.91
  -4   4  11    0.60    0.47
  -4  -4  10   38.21    6.33
   4  -4 -10   27.49    3.82
  -4   4  10   35.38    2.45
   4  -4 -10   35.81    3.09
  -4  -4   9   31.60    5.41
   4  -4  -9   38.17    3.18
   4  -4  -9   30.13    3.87
  -4   4   9   34.12    2.47
  -4  -4   9   42.35    2.88
  -4  -4   8  222.98   10.87
  -4   4   8  191.23   10.45
   4  -4  -8  193.69   11.32
   4  -4  -8  154.77   12.15
  -4  -4   8  169.63   14.19
  -4  -4   7   18.40    1.58
  -4   4   7   15.73    1.34
  -4  -4   7   16.96    3.41
   4  -4  -7   17.25    1.95
   4  -4  -7   16.63    2.58
  -4  -4   6   -0.44    1.01
   4  -4  -6    0.28    0.44
  -4   4   6    0.94    0.29
  -4  -4   6   -0.07    0.30
   4  -4  -6   -0.26    0.76
   4  -4  -5    5.32    1.33
  -4  -4   5    4.06    1.59
   4  -4  -5    8.01    1.24
  -4  -4   4    1.88    1.16
   4  -4  -4    1.87    0.69
   4   4  -4    0.99    0.48
   4  -4  -4    0.89    0.73
   4  -4  -3    0.52    0.42
  -4  -4   3    1.07    1.04
   4   4  -3    0.10    0.36
   4  -4  -3   -0.20    0.51
  -4  -4   2    0.69    0.95
   4  -4  -2    1.38    0.58
   4   4  -2    1.05    0.46
   4  -4  -2    2.01    0.82
  -4  -4   1    4.43    1.50
   4   4  -1    4.57    0.86
   4  -4  -1    5.59    0.99
   4  -4  -1    3.07    0.91
  -4  -4   0  153.34   10.91
   4  -4   0  134.70    9.04
   4  -4   1    3.78    0.83
  -4  -4  -1    4.71    1.56
   4  -4   1    5.22    0.96
   4  -4   2   30.74    2.36
   4  -4   2   21.85    2.04
  -4  -4  -2   26.58    3.52
  -4  -4  -3   -0.34    0.92
   4  -4   3   -0.11    0.45
   4  -4   3   -0.07    0.31
   4   4   3   -0.10    0.08
   4  -4   3   -0.07    0.14
   4   4   3    0.02    0.07
   4  -4   3    0.03    0.12
   4  -4   4   32.31    1.55
  -4  -4  -4   27.10    3.53
   4  -4   4   26.80    2.26
   4   4   4   26.27    1.44
   4  -4   4   18.15    1.61
   4  -4   4   22.89    1.46
   4   4   4   26.29    1.45
   4  -4   5   38.32    2.89
   4  -4   5   44.17    2.19
  -4  -4  -5   40.50    4.50
   4   4   5   37.36    2.10
   4  -4   5   33.48    2.12
   4  -4   6  344.83   17.57
  -4  -4  -6  334.72   19.90
   4  -4   6  304.54   16.63
   4   4   6  331.27   16.65
   4  -4   6  336.66   16.66
   4   4   7   31.04    2.11
   4  -4   7   33.00    2.26
   4  -4   7   43.09    2.88
   4  -4   7   32.68    2.07
   4   4   7   40.21    2.13
  -4  -4  -7   34.30    4.17
   4  -4   8   30.14    2.14
   4  -4   8   28.61    2.38
   4   4   8   24.38    1.84
   4  -4   8   28.85    1.81
   4   4   8   31.57    1.85
  -4  -4  -8   30.43    3.92
   4  -4   9    2.07    0.39
  -4  -4  -9    3.17    1.50
   4   4   9    1.50    0.38
   4  -4   9    2.62    0.67
   4   4   9    1.98    0.38
   4  -4   9    2.00    0.61
   4   4  10    0.37    0.27
   4  -4  10    0.78    0.53
   4  -4  10   -0.28    0.68
   4   4  10   -0.07    0.32
   4  -4  11    3.10    0.78
   4   4  11    2.70    0.50
   4   4  11    2.16    0.60
   4   4  12   49.35    3.60
  -4  -4 -12   47.50    5.23
  -4  -4 -13    1.10    1.13
   4   4  13    0.24    0.34
  -4  -4 -14    6.63    2.01
   4   4  14    9.04    0.98
  -4  -4 -15   -0.75    1.22
   4   4  15    1.30    0.42
   4  -5 -11    1.16    1.19
   4  -5 -10    1.49    1.01
   4  -5  -9    0.35    0.95
   4  -5  -8   47.58    5.02
  -4  -5   8   65.27    8.02
  -4  -5   7   18.99    4.00
   4  -5  -7   12.71    2.40
  -4  -5   6   40.18    5.63
   4  -5  -6   37.63    4.01
   4  -5  -5    3.43    1.07
  -4  -5   5    3.14    1.95
   4  -5  -5    4.08    1.30
  -4  -5   4    1.98    1.69
   4  -5  -4    0.23    0.67
   4  -5  -4    1.11    0.71
   4  -5  -3    1.61    0.94
   4  -5  -3    0.62    0.64
  -4  -5   2  118.96   10.01
   4  -5  -2  117.12    7.62
   4  -5  -1   13.37    1.84
  -4  -5   1   13.00    3.02
   4  -5   0   83.65    5.82
  -4  -5   0   86.46    8.06
  -4  -5  -1    0.46    1.49
   4  -5   1    0.33    0.69
  -4  -5  -2    4.56    1.95
   4  -5   2    5.85    1.21
   4  -5   3    1.33    0.81
  -4  -5  -3    3.17    1.68
   4  -5   4   13.56    1.81
  -4  -5  -4   11.20    2.76
  -4  -5  -5    5.74    2.09
   4  -5   5    2.59    0.88
   4  -5   6    0.70    0.68
   4  -5   7    7.41    1.43
   5   0 -23  225.80   12.13
   5   0 -22   -0.37    0.99
   5   0 -22   -0.15    0.50
   5   0 -21    3.15    0.77
   5   0 -21    1.75    1.25
   5   0 -20   -0.13    0.47
   5   0 -20   -0.33    0.69
   5   0 -19   19.53    1.91
   5   0 -19   15.43    2.57
  -5   0  18   -0.09    0.32
   5   0 -18   -0.35    0.41
  -5   0  18   -0.34    1.10
  -5   0  17    8.51    1.03
   5   0 -17    8.16    1.11
  -5   0  17    8.41    1.98
   5   0 -16   -0.10    0.32
  -5   0  16    0.31    0.64
  -5   0  16    0.08    0.28
  -5   0  15  138.38    7.88
  -5   0  15  149.69   10.04
   5   0 -15  141.81    8.07
   5   0 -14    0.09    0.29
  -5   0  14    0.21    0.19
  -5   0  14   -0.28    0.71
   5   0 -13    1.27    0.35
  -5   0  13    1.34    0.37
  -5   0  13    0.27    0.56
   5   0 -12    0.40    0.41
   5   0 -12   -0.08    0.25
  -5   0  12    0.44    0.20
  -5   0  12    0.50    0.68
  -5   0  11  135.86    7.85
  -5   0  11  136.20    9.41
   5   0 -11  161.19    8.15
   5   0 -10    0.26    0.26
  -5   0  10    0.43    0.58
  -5   0  10    0.49    0.25
  -5   0   9 1469.49   74.80
  -5   0   9 1484.93   76.32
   5   0  -9 1483.81   74.90
  -5   0   8    0.34    0.20
   5   0  -8    0.50    0.22
   5   0  -7  194.94   10.51
  -5   0   7  200.87   10.47
  -5   0   6    0.18    0.17
   5   0  -6   -0.10    0.12
   5   0  -5   57.48    3.39
  -5   0   5   58.55    3.37
   5   0  -4   -0.05    0.14
  -5   0   4    0.21    0.19
  -5   0   3  391.14   19.49
   5   0  -3  361.32   19.18
  -5   0   2    0.08    0.19
   5   0  -2    0.04    0.14
  -5   0   1   -0.08    0.24
   5   0  -1    0.07    0.20
   5   0   0    0.08    0.19
  -5   0   0   -0.10    0.31
   5   0   1    0.09    0.22
  -5   0  -1   -0.12    0.35
   5   0   2   -0.10    0.28
   5   0   2   -0.29    0.74
   5   0   3   22.42    1.93
   5   0   3   18.58    2.77
   5   0   4    0.30    0.70
   5   0   4    0.11    0.25
   5   0   5 1214.34   64.37
   5   0   6    0.29    0.73
   5   0   7  142.79    9.58
   5   0   8    0.43    0.62
   5   0   9   46.55    3.85
   5   0  10   -0.15    0.38
   5   0  11  272.10   15.00
   5   0  12   -0.11    0.28
   5   0  13   64.61    4.19
   5   0  14    0.08    0.28
  -5   0 -14   -0.34    0.46
   5   0  15    0.07    0.22
  -5   0 -15   -0.18    0.45
   5   0  16   -0.07    0.19
  -5   0 -16   -0.19    0.47
   5   0  17   39.55    2.62
  -5   0 -17   43.63    3.72
  -5   0 -18    0.21    0.52
   5   0  18   -0.13    0.43
  -5   0 -19   23.22    2.69
  -5   0 -20    1.10    0.75
  -5   0 -21    3.42    1.09
  -5   0 -22    0.23    0.61
  -5   0 -23   23.39    2.77
  -5   0 -24    0.22    0.60
  -5   0 -25   13.72    2.00
  -5   0 -26   -0.21    0.56
   5  -1 -24    0.53    0.47
   5  -1 -23   31.38    2.47
   5   1 -21   13.05    1.61
   5  -1 -21   14.70    1.71
   5   1 -21   17.97    2.57
   5   1 -20   -0.28    0.77
   5   1 -20    0.75    0.45
   5  -1 -20    0.90    0.42
   5   1 -19    0.83    0.42
   5   1 -19    0.30    0.94
   5  -1 -19    0.61    0.43
  -5  -1  18   36.31    2.66
  -5  -1  18   37.20    4.22
   5   1 -18   37.34    2.86
   5  -1 -18   35.40    2.83
   5  -1 -18   40.81    4.83
   5   1 -18   41.31    4.36
  -5   1  17  274.03   14.75
  -5  -1  17  282.48   14.78
  -5   1  17  271.38   17.37
  -5  -1  17  288.84   17.08
   5  -1 -17  290.30   17.73
   5   1 -17  273.74   14.96
   5  -1 -17  265.28   14.97
   5   1 -17  278.69   17.15
  -5   1  16  266.85   14.91
  -5  -1  16  286.65   14.96
  -5   1  16  286.46   17.57
  -5  -1  16  300.11   17.22
   5   1 -16  271.32   17.31
   5  -1 -16  288.76   17.65
   5   1 -16  278.26   15.11
   5  -1 -16  286.76   15.16
  -5   1  15  203.18   11.09
  -5  -1  15  205.11   11.09
   5   1 -15  192.67   13.46
  -5   1  15  212.69   13.50
  -5  -1  15  198.41   12.95
   5  -1 -15  225.14   13.68
   5   1 -15  201.03   11.24
   5  -1 -15  210.44   11.30
   5   1 -14   10.85    2.48
  -5   1  14   15.35    1.34
  -5  -1  14   14.42    1.31
   5   1 -14   16.70    1.47
   5  -1 -14   15.87    1.46
  -5  -1  14   13.63    2.14
   5  -1 -14   14.30    2.41
   5   1 -13    1.98    0.46
   5  -1 -13    1.79    0.45
   5   1 -13    1.41    1.09
  -5   1  13    1.43    0.37
  -5  -1  13    2.14    0.44
  -5  -1  13    2.02    0.90
   5  -1 -13    2.72    1.05
   5   1 -12   15.62    2.87
  -5   1  12   14.98    1.24
  -5  -1  12   13.75    1.21
  -5  -1  12   13.79    1.98
   5  -1 -12   16.44    2.34
   5   1 -12   14.18    1.29
   5  -1 -12   13.69    1.29
  -5   1  11   88.04    5.03
  -5  -1  11   79.49    6.17
   5  -1 -11   79.62    6.37
  -5  -1  11   84.60    5.02
   5   1 -11   96.68    5.25
   5  -1 -11   93.34    5.24
   5   1 -11   90.86    7.51
  -5  -1  10   58.75    3.44
  -5   1  10   57.04    3.42
  -5  -1  10   47.39    4.32
   5  -1 -10   47.60    4.44
   5   1 -10   60.00    3.55
   5  -1 -10   60.68    3.57
   5   1 -10   62.17    5.80
  -5   1   9    0.70    0.24
  -5  -1   9    1.16    0.29
   5  -1  -9    2.00    0.39
   5   1  -9    0.52    0.22
  -5   1   9    0.23    0.57
   5  -1  -9   -0.19    0.39
  -5  -1   9    0.54    0.56
   5   1  -9    0.35    0.80
   5  -1  -8   43.73    2.77
  -5   1   8   56.09    4.28
  -5   1   8   46.41    2.73
  -5  -1   8   41.87    2.70
   5  -1  -8   43.50    3.66
  -5  -1   8   41.74    3.64
   5   1  -8   42.07    4.70
   5   1  -8   45.82    2.78
   5  -1  -7   31.70    2.10
   5   1  -7   35.09    2.14
   5   1  -7   29.05    3.79
  -5   1   7   34.68    3.21
  -5   1   7   31.82    2.06
  -5  -1   7   32.04    2.06
   5  -1  -7   28.83    2.84
  -5  -1   7   31.27    2.94
   5   1  -6    0.14    0.17
   5  -1  -6    0.34    0.16
   5   1  -6    0.34    0.85
  -5   1   6    0.31    0.19
  -5  -1   6    0.30    0.15
  -5   1   6    0.36    0.53
   5  -1  -6    0.15    0.41
   5  -1  -5    1.67    0.60
   5   1  -5    1.33    1.08
   5  -1  -5    1.76    0.34
   5   1  -5    1.15    0.29
  -5   1   5    2.01    0.34
  -5   1   5    1.00    0.57
  -5  -1   5    1.01    0.26
   5  -1  -4   15.77    1.24
   5   1  -4   16.18    1.23
  -5   1   4   18.97    2.02
   5  -1  -4   16.05    1.75
   5   1  -4   20.04    2.95
  -5  -1   4   18.63    1.47
  -5   1   4   17.41    1.44
  -5  -1   3  496.59   27.59
  -5   1   3  521.40   27.60
   5  -1  -3  543.13   27.34
   5   1  -3  540.80   27.31
  -5   1   3  585.39   28.42
   5   1  -3  549.80   30.36
  -5  -1   2  832.85   43.87
  -5   1   2  816.19   43.82
   5  -1  -2  883.33   43.51
  -5   1   2  924.46   44.34
   5   1  -2  843.02   43.46
  -5   1   1  699.56   36.67
  -5  -1   1  705.06   36.75
  -5   1   1  755.35   36.86
   5  -1  -1  683.72   36.26
   5   1  -1  732.20   36.26
  -5   1   0  121.29    7.15
  -5  -1   0  116.61    7.20
  -5   1   0  113.65    6.96
   5   1   0  127.21    6.92
   5  -1   0  131.16    6.98
   5   1   1    4.01    0.67
   5  -1   1    2.49    0.56
  -5  -1  -1    3.84    1.40
  -5   1  -1    2.83    0.72
  -5  -1  -1    3.30    0.75
   5   1   1    3.57    1.17
  -5   1  -1    2.77    0.54
  -5  -1  -2    0.33    0.90
   5   1   2    0.77    0.79
   5   1   2    0.78    0.40
   5  -1   2    0.63    0.38
  -5   1  -2    0.25    0.24
   5  -1   3   78.88    4.98
   5   1   3   75.26    4.92
  -5   1  -3   85.50    4.64
   5   1   3   83.13    6.19
   5   1   4  169.06    9.67
   5   1   4  177.62   10.83
   5  -1   4  172.01    9.72
   5  -1   5  220.15   12.29
   5   1   5  214.86   12.17
   5   1   5  235.34   13.22
  -5  -1  -6   16.99    2.52
   5   1   6   14.61    1.92
   5   1   7    1.29    0.62
  -5  -1  -7    1.08    0.79
   5   1   8   -0.15    0.33
   5  -1   8    0.55    0.81
  -5  -1  -8    0.26    0.54
   5   1   9   15.86    1.79
  -5   1  -9   15.58    1.37
  -5  -1  -9   16.46    2.43
   5  -1   9   15.55    2.47
  -5  -1 -10    3.87    1.24
   5  -1  10    7.44    1.68
   5   1  10    5.83    0.98
  -5   1 -10    4.32    0.70
   5   1  11   28.78    2.48
   5  -1  11   33.11    3.14
  -5   1 -11   30.51    2.34
  -5  -1 -11   30.03    3.33
  -5   1 -12  119.70    6.74
   5   1  12  105.63    6.69
   5  -1  12  106.52    7.00
  -5  -1 -12  125.00    8.23
   5   1  13  151.22    8.98
  -5   1 -13  177.52    9.23
  -5  -1 -13  168.14   10.57
   5  -1  13  147.23    8.96
   5  -1  14   12.12    1.22
   5   1  14   14.33    1.45
  -5  -1 -14   14.57    2.29
  -5   1 -14   15.37    1.64
   5  -1  15   16.20    1.35
  -5   1 -15   23.21    2.07
  -5  -1 -15   18.45    2.56
   5   1  15   20.08    1.73
   5   1  16    9.44    1.17
  -5  -1 -16   14.15    2.24
   5  -1  16   11.94    0.91
  -5   1 -16   12.87    1.57
  -5  -1 -17    1.04    0.84
  -5  -1 -17    0.26    0.70
  -5   1 -17    1.53    0.57
  -5  -1 -18   21.94    2.94
  -5   1 -18   31.45    2.62
  -5  -1 -18   27.20    3.31
  -5  -1 -19   57.65    5.22
  -5   1 -19   64.59    4.45
  -5  -1 -19   57.09    5.18
  -5  -1 -20   10.18    2.01
  -5   1 -20   13.66    1.72
  -5  -1 -20   13.43    2.24
  -5  -1 -21    0.29    0.66
  -5  -1 -21    0.27    0.69
  -5   1 -21    0.47    0.43
  -5  -1 -22   -0.28    0.70
  -5  -1 -22    0.88    0.85
  -5   1 -22   -0.50    0.54
  -5  -1 -23    5.35    1.51
  -5  -1 -23    8.95    1.90
  -5   1 -23    6.39    1.23
  -5  -1 -24   11.76    2.20
  -5   1 -24   11.32    1.67
   5  -2 -25    1.88    0.77
   5  -2 -24  129.38    7.89
   5  -2 -23    7.02    1.18
   5  -2 -22   47.01    3.48
   5  -2 -21   -0.12    0.36
   5  -2 -21    0.52    1.19
   5   2 -20    0.21    0.17
   5  -2 -20   -0.50    1.02
   5  -2 -19    0.48    0.98
   5   2 -19    0.11    0.42
   5  -2 -19   -0.11    0.48
   5   2 -18   48.74    3.08
   5   2 -18   43.80    3.25
   5  -2 -18   45.46    3.33
   5  -2 -18   51.02    5.65
   5   2 -17    0.28    0.36
  -5   2  17    0.31    0.29
  -5  -2  17   -0.07    0.27
  -5  -2  17   -0.28    0.76
   5  -2 -17   -0.42    1.07
   5   2 -17    0.20    0.32
   5  -2 -17    0.10    0.33
  -5   2  16   29.23    2.11
  -5  -2  16   29.50    2.12
  -5  -2  16   27.38    3.27
   5  -2 -16   27.61    3.91
   5   2 -16   29.81    2.26
   5  -2 -16   26.40    2.21
   5   2 -16   28.27    2.36
   5   2 -15    4.12    0.73
   5  -2 -15    5.29    0.80
   5   2 -15    5.10    0.94
  -5   2  15    5.76    0.77
  -5  -2  15    5.33    0.71
  -5  -2  15    4.22    1.25
   5  -2 -15    4.20    1.64
   5  -2 -14   45.32    3.18
  -5   2  14   49.38    3.09
  -5  -2  14   49.78    3.09
   5  -2 -14   48.50    5.12
  -5  -2  14   47.45    4.27
   5   2 -14   49.76    3.21
   5   2 -14   51.44    3.66
   5   2 -13    1.67    0.44
   5   2 -13    1.36    0.60
   5  -2 -13    0.34    0.78
  -5  -2  13    2.48    1.01
   5  -2 -13    1.74    0.48
  -5   2  13    0.91    0.32
  -5  -2  13    1.78    0.39
  -5   2  12    1.75    0.39
   5   2 -12    2.82    0.51
   5   2 -12    2.00    0.70
   5  -2 -12    2.65    0.50
   5  -2 -12    1.24    0.86
  -5  -2  12    2.97    0.98
  -5  -2  11    3.59    0.55
   5   2 -11    4.00    0.94
   5   2 -11    3.40    0.56
   5  -2 -11    3.16    0.55
  -5   2  11    3.35    0.53
   5  -2 -11    4.36    1.32
  -5  -2  11    4.58    1.19
  -5   2  10  548.73   27.85
  -5  -2  10  524.69   27.83
   5  -2 -10  563.36   30.24
  -5  -2  10  559.03   29.56
   5   2 -10  556.30   27.96
   5  -2 -10  550.36   27.99
   5   2 -10  513.00   28.87
   5  -2  -9   31.79    3.45
  -5   2   9   33.63    2.14
  -5  -2   9   30.89    2.11
  -5  -2   9   34.69    3.27
   5   2  -9   33.64    2.25
   5  -2  -9   35.64    2.30
   5   2  -9   31.54    2.92
   5  -2  -8  666.72   35.49
  -5   2   8  663.89   33.51
  -5  -2   8  644.85   33.50
   5   2  -8  664.86   33.57
   5  -2  -8  662.33   33.60
   5   2  -8  629.23   34.70
   5   2  -7    1.17    0.69
  -5   2   7    0.64    0.27
   5   2  -7    1.21    0.31
   5  -2  -7    1.51    0.34
  -5  -2   7    1.36    0.34
   5  -2  -7    2.30    0.86
  -5  -2   6    0.13    0.27
  -5   2   6   -0.07    0.27
   5   2  -6    1.02    0.60
   5  -2  -6    0.19    0.47
   5   2  -6    0.13    0.17
   5  -2  -6    0.14    0.18
   5   2  -5    0.54    0.21
  -5  -2   5    0.27    0.25
   5   2  -5    0.34    0.53
  -5   2   5    0.27    0.23
   5  -2  -5    1.02    0.65
   5  -2  -5   -0.04    0.15
  -5  -2   4  172.90    9.72
  -5   2   4  174.00    9.71
  -5  -2   4  176.45   12.60
   5   2  -4  187.53    9.42
   5   2  -4  185.52   10.80
   5  -2  -4  170.36   10.47
   5  -2  -4  176.44    9.43
  -5  -2   3   14.90    1.43
  -5   2   3   15.97    1.43
   5  -2  -3   18.26    1.24
   5   2  -3   17.10    1.20
   5  -2  -3   15.90    1.79
  -5  -2   3   16.77    2.92
   5   2  -3   15.62    1.97
   5   2  -2   77.55    5.58
  -5  -2   2   75.73    4.82
  -5   2   2   74.84    4.74
   5  -2  -2   82.24    4.44
   5   2  -2   82.90    4.41
   5  -2  -2   79.39    5.19
  -5  -2   2   80.34    7.01
  -5  -2   1    2.08    1.29
   5   2  -1    0.69    0.51
  -5   2   1    0.95    0.39
  -5  -2   1    0.59    0.41
   5  -2  -1    1.17    0.25
   5  -2  -1    1.26    0.42
   5   2  -1    1.31    0.25
   5  -2   0   27.77    2.16
   5  -2   0   28.90    1.77
   5   2   0   25.56    1.71
  -5  -2   0   30.23    3.63
  -5  -2  -1    1.87    1.07
   5   2   1    2.54    0.46
   5  -2   1    2.67    0.49
   5   2   2   21.67    1.68
   5  -2   2   21.49    1.71
  -5  -2  -2   19.68    2.81
  -5  -2  -3    1.99    0.98
   5   2   3    2.51    0.53
   5  -2   3    2.26    0.51
   5   2   3    3.29    0.85
   5   2   4  249.28   13.21
   5  -2   4  214.26   12.32
   5   2   4  227.15   12.30
  -5  -2  -4  258.53   14.56
   5   2   5   19.62    2.04
   5   2   5   19.24    1.66
   5  -2   5   15.78    1.63
  -5  -2  -5   18.78    2.61
   5   2   6  561.49   29.49
   5  -2   6  545.72   29.14
   5   2   6  562.75   29.08
   5   2   7    0.96    0.55
   5   2   8   11.19    1.48
  -5  -2  -8   14.08    2.18
  -5  -2  -9    5.22    1.44
   5   2   9    4.38    0.91
   5   2  10   28.10    2.44
  -5  -2 -10   29.71    3.35
   5   2  11    9.91    1.26
  -5  -2 -11    7.87    1.73
   5   2  12  172.41   10.40
  -5  -2 -12  171.92   11.72
  -5  -2 -13    1.31    0.90
   5  -2  13    2.19    0.85
   5   2  13    2.02    0.59
  -5  -2 -14    0.52    0.71
   5  -2  14    1.03    0.43
   5   2  14    0.11    0.32
  -5  -2 -15    0.26    0.66
   5   2  15    0.56    0.43
  -5  -2 -16   16.87    2.50
   5  -2  16   19.11    1.91
   5   2  16   19.47    1.86
   5  -2  17    1.72    0.65
   5   2  17    2.29    0.65
  -5  -2 -17    2.85    1.07
  -5  -2 -18    4.15    1.22
  -5  -2 -18    1.06    0.82
  -5  -2 -19    2.85    1.01
  -5  -2 -19    1.78    1.11
  -5  -2 -20   29.21    3.35
  -5  -2 -20   27.83    3.73
  -5  -2 -21    0.26    0.76
  -5  -2 -21   -0.37    0.77
  -5  -2 -22    8.18    1.76
  -5  -2 -23    2.11    0.98
  -5  -2 -24    0.80    0.72
   5  -3 -20    0.15    0.47
   5  -3 -19    1.86    0.71
   5  -3 -18   38.40    3.04
   5  -3 -18   25.65    4.03
   5   3 -17   39.58    2.30
  -5  -3  17   34.60    2.58
   5  -3 -17   32.78    4.48
  -5   3  16  239.50   12.75
  -5  -3  16  240.37   12.73
   5   3 -16  236.29   12.95
   5  -3 -16  244.35   13.06
   5  -3 -16  235.47   15.83
   5   3 -16  235.82   12.48
   5   3 -15   38.85    2.54
  -5   3  15   43.24    2.65
  -5  -3  15   35.89    2.56
   5   3 -15   39.11    2.77
   5  -3 -15   42.82    2.90
   5  -3 -15   34.99    4.49
  -5  -3  15   34.57    3.75
   5   3 -14   12.08    1.17
  -5   3  14   11.68    1.09
   5   3 -14   12.74    1.26
  -5  -3  14   11.39    1.10
   5  -3 -14   13.26    1.34
   5  -3 -14    7.73    2.06
  -5  -3  14   12.80    2.01
   5   3 -13   -0.08    0.34
  -5   3  13    0.28    0.25
   5  -3 -13   -0.36    0.82
  -5  -3  13    0.29    0.27
  -5  -3  13    0.69    0.63
   5   3 -13    0.15    0.32
   5  -3 -13   -0.16    0.44
   5   3 -12    7.79    1.03
  -5  -3  12    8.93    1.73
   5   3 -12    8.60    0.95
  -5   3  12    8.78    0.86
  -5  -3  12    8.89    0.89
   5  -3 -12    6.51    1.81
   5  -3 -12    8.12    0.98
   5   3 -11   16.15    1.59
   5   3 -11   18.24    1.42
  -5  -3  11   18.68    2.47
   5  -3 -11   17.36    1.44
  -5   3  11   16.13    1.31
  -5  -3  11   17.45    1.35
   5  -3 -11   16.67    2.76
   5   3 -10   52.40    3.57
   5  -3 -10   52.93    5.12
   5   3 -10   54.77    3.21
   5  -3 -10   48.76    3.21
  -5   3  10   52.38    3.10
  -5  -3  10   51.28    3.12
  -5  -3   9    0.08    0.26
   5   3  -9    0.26    0.21
   5  -3  -9    0.12    0.19
  -5   3   9   -0.15    0.31
   5   3  -9   -0.11    0.36
  -5   3   9    0.09    0.19
   5  -3  -9    0.89    0.74
   5   3  -8   32.55    2.63
  -5  -3   8   33.87    2.42
   5  -3  -8   32.07    3.65
   5   3  -8   32.16    2.14
   5  -3  -8   33.90    2.21
  -5   3   8   36.55    2.41
  -5  -3   7    7.65    0.94
  -5   3   7    9.35    0.97
   5   3  -7    7.73    1.11
   5   3  -7    7.07    0.72
   5  -3  -7    6.38    0.74
   5  -3  -7    9.13    1.81
  -5  -3   7    9.30    2.54
  -5  -3   6    0.08    0.29
  -5   3   6    0.37    0.29
   5   3  -6    0.12    0.37
   5   3  -6    0.27    0.19
   5  -3  -6    1.35    0.31
   5  -3  -6    0.70    0.64
  -5  -3   6    0.94    1.19
  -5  -3   5    2.84    0.58
  -5   3   5    2.49    0.53
   5   3  -5    2.68    0.71
   5  -3  -5    2.75    0.45
   5  -3  -5    1.29    0.78
   5   3  -5    3.28    0.43
  -5  -3   5    2.70    1.54
   5   3  -4   20.68    2.00
  -5  -3   4   19.10    1.69
   5  -3  -4   19.20    1.37
   5  -3  -4   24.57    2.57
  -5  -3   4   17.84    3.25
   5   3  -4   19.94    1.34
  -5   3   4   20.55    1.66
   5   3  -3   82.74    4.36
   5   3  -3   77.08    5.19
   5  -3  -3   81.99    5.61
  -5   3   3   76.92    4.75
  -5  -3   3   72.54    4.81
   5  -3  -3   81.09    4.41
  -5  -3   3   78.66    7.20
   5   3  -2  547.36   30.24
   5   3  -2  586.39   29.27
   5  -3  -2  574.76   29.31
   5  -3  -2  560.20   30.43
  -5  -3   2  575.12   32.78
   5   3  -1  154.92    9.45
   5  -3  -1  165.39    8.57
   5   3  -1  167.25    8.52
  -5  -3   1  150.62   11.28
   5  -3  -1  147.67    9.33
   5   3   0   47.36    3.58
  -5  -3   0   48.03    4.95
   5  -3   0   48.23    2.76
   5   3   0   47.64    2.71
   5  -3   0   45.06    3.28
  -5  -3  -1    0.65    0.88
   5   3   1    0.26    0.47
   5  -3   1    0.56    0.18
   5   3   1    0.61    0.21
   5  -3   1    0.08    0.30
  -5  -3  -2   -0.32    0.80
   5   3   2    0.53    0.51
   5   3   2    0.06    0.20
   5  -3   2    0.04    0.18
   5  -3   2    0.34    0.23
  -5  -3  -3   24.83    3.34
   5  -3   3   25.25    1.86
   5   3   3   28.09    1.84
   5   3   4  182.66    9.55
   5  -3   4  168.32    9.59
   5   3   5   13.46    1.19
   5  -3   5   13.47    1.28
   5   3   6    7.21    0.83
   5  -3   6    6.72    0.88
  -5  -3  -6    7.94    1.88
   5   3   6    6.62    1.10
   5   3   7    0.52    0.40
   5  -3   7    0.57    0.37
   5   3   7    0.31    0.29
  -5  -3  -7    0.96    0.81
   5   3   8    0.77    0.44
   5  -3   8    0.61    0.45
   5   3   8    0.39    0.33
   5   3   9    8.13    1.17
   5   3   9    6.63    1.10
   5  -3   9    9.01    1.39
  -5  -3 -10    8.96    2.07
   5   3  10   12.00    1.47
  -5  -3 -11    1.34    1.09
   5   3  11    1.54    0.55
   5  -3  12  111.09    5.88
   5   3  12   95.77    6.46
  -5  -3 -12   97.25    8.12
   5  -3  13   34.29    2.20
   5  -3  13   31.10    2.53
   5   3  13   38.65    2.60
  -5  -3 -13   32.93    4.03
   5  -3  14   10.56    0.93
  -5  -3 -14   11.23    2.31
   5  -3  14    9.94    1.26
   5   3  14   14.79    1.42
   5  -3  15    0.63    0.46
  -5  -3 -15   -0.34    1.06
   5   3  15    0.97    0.46
   5  -3  16   18.29    1.79
   5   3  16   17.89    1.73
  -5  -3 -16   14.98    2.72
  -5  -3 -17    1.02    1.05
  -5  -3 -18   49.53    5.05
  -5  -3 -19   14.83    2.74
  -5  -3 -20   15.74    2.74
  -5  -3 -21    1.33    1.09
   5  -4 -15   30.22    4.05
  -5   4  14    3.01    0.67
   5  -4 -14    2.29    1.25
  -5   4  14    2.11    0.48
  -5   4  13    0.64    0.44
   5  -4 -13    1.10    1.19
  -5   4  12    0.36    0.42
   5  -4 -12   -0.35    0.81
  -5   4  11   22.74    1.96
   5  -4 -11   19.02    3.09
  -5   4  10   34.79    2.53
   5   4 -10   31.28    2.43
   5  -4 -10   32.89    2.39
   5  -4 -10   26.46    3.64
  -5   4   9  369.76   18.46
   5   4  -9  320.60   18.38
   5  -4  -9  373.77   18.26
  -5  -4   9  360.74   24.22
  -5  -4   8   24.38    2.13
  -5   4   8   19.95    1.73
   5   4  -8   21.29    1.51
   5  -4  -8   24.22    1.69
   5   4  -8   17.90    1.78
  -5  -4   8   25.34    4.70
   5   4  -7   27.95    2.35
  -5  -4   7   32.57    2.56
   5  -4  -7   22.92    3.12
   5   4  -7   30.75    1.95
   5  -4  -7   34.39    2.13
  -5   4   7   28.29    2.20
  -5  -4   7   31.26    4.92
   5   4  -6    0.10    0.35
  -5   4   6    1.18    0.37
  -5  -4   6    0.19    0.51
   5   4  -6    0.22    0.25
   5  -4  -6    0.24    0.61
   5  -4  -6    0.29    0.27
   5  -4  -5    3.42    0.49
  -5  -4   5    2.92    1.74
   5   4  -5    4.03    0.81
   5   4  -5    4.00    0.46
   5  -4  -5    2.87    0.98
   5   4  -4    9.07    1.22
  -5  -4   4    6.41    2.15
   5   4  -4    8.26    0.69
   5  -4  -4   10.89    0.83
   5  -4  -4    7.52    1.47
   5   4  -3   91.74    5.87
  -5  -4   3   93.35    8.34
   5  -4  -3   80.78    6.23
   5   4  -3   91.55    5.02
   5  -4  -3  105.75    5.18
  -5  -4   2    7.06    2.12
   5   4  -2    6.96    1.07
   5   4  -2    6.49    0.53
   5  -4  -2    7.78    0.63
   5  -4  -2    5.01    1.06
  -5  -4   1    6.39    1.90
   5   4  -1    5.82    0.98
   5   4  -1    4.92    0.44
   5  -4  -1    7.22    0.59
   5   4   0    1.71    0.59
   5   4   0    1.50    0.23
   5  -4   0    2.14    0.32
   5  -4   0    1.33    0.47
  -5  -4  -1    1.16    1.19
   5   4   1    1.50    0.58
   5   4   1    0.84    0.18
   5  -4   1    1.24    0.41
   5  -4   1    0.63    0.23
   5  -4   2    2.73    0.35
   5   4   2    2.36    0.29
   5   4   2    2.29    0.67
   5  -4   2    1.49    0.38
  -5  -4  -3    0.77    1.12
   5  -4   3    1.07    0.26
   5   4   3    0.61    0.22
   5  -4   3    0.88    0.24
  -5  -4  -4   19.18    3.22
   5  -4   4   23.50    1.43
   5   4   4   19.96    1.31
   5  -4   5  220.76   11.89
  -5  -4  -5  222.21   14.68
   5  -4   5  225.69   11.16
   5   4   5  204.57   11.04
   5  -4   6   17.53    1.68
  -5  -4  -6   14.74    2.98
   5   4   6   16.31    1.24
   5  -4   6   16.30    1.19
   5  -4   7   34.88    2.48
   5  -4   7   26.76    1.92
   5   4   7   37.58    2.06
  -5  -4  -7   29.77    4.08
   5   4   7   27.42    1.94
   5  -4   7   27.36    2.09
   5   4   8    4.03    0.58
  -5  -4  -8    4.07    1.74
   5  -4   8    5.20    0.80
   5  -4   8    4.98    0.86
   5  -4   8    3.52    0.56
   5   4   8    4.22    0.60
  -5  -4  -9    1.23    1.19
   5   4   9    0.56    0.30
   5  -4   9    0.62    0.40
   5  -4   9    0.87    0.45
   5   4   9    0.65    0.30
   5   4  10    3.16    0.56
   5   4  10    2.25    0.50
   5  -4  10    4.37    0.97
   5  -4  10    3.34    0.70
   5  -4  11   90.43    5.43
   5   4  11   76.13    5.19
   5   4  11   86.30    5.02
  -5  -4 -12   18.45    3.33
   5   4  12   15.19    1.37
  -5  -4 -13    9.30    2.46
   5   4  13   11.31    1.57
   5   4  13   14.07    1.27
   5   4  14   -0.17    0.54
   5   4  14   -0.15    0.34
   5   4  15   -0.19    0.97
   5  -5 -11   17.20    2.87
   5  -5 -10    2.27    1.06
   5  -5  -9    0.30    0.75
  -5  -5   8    5.46    2.54
   5  -5  -8    2.21    1.07
  -5  -5   7   17.78    4.08
  -5  -5   6   -1.25    1.92
  -5  -5   5    5.24    2.41
  -5  -5   4   -1.12    1.72
   5  -5  -4    0.18    0.63
   5  -5  -3   90.22    6.16
  -5  -5   3   85.63    8.68
   5  -5  -2   21.86    2.38
  -5  -5   2   15.87    3.59
   5  -5  -1  134.78    8.17
  -5  -5   1  112.90   10.47
  -5  -5   0    5.62    2.31
   5  -5   0    7.28    1.33
  -5  -5  -1    0.51    1.28
   5  -5   1    1.39    0.69
  -5  -5  -2    1.01    1.47
   5  -5   2    0.61    0.64
   5  -5   3   31.46    2.81
  -5  -5  -3   27.17    4.44
   5  -5   4    5.38    1.09
   5  -5   5   40.26    3.35
   5  -5   6   -0.15    0.47
   6   0 -22    9.55    1.44
   6   0 -21    0.14    0.55
   6   0 -20   32.91    2.80
   6   0 -19   -0.13    0.45
   6   0 -18  281.09   15.36
  -6   0  17    1.46    0.45
  -6   0  17    0.34    0.78
   6   0 -16    2.27    0.59
  -6   0  16    1.62    1.11
  -6   0  16    2.20    0.52
   6   0 -15   -0.10    0.35
  -6   0  15   -0.62    0.78
  -6   0  15    0.08    0.22
  -6   0  14   11.91    1.17
   6   0 -14   12.98    1.31
  -6   0  14   13.16    2.32
   6   0 -13    0.09    0.29
  -6   0  13    0.07    0.22
  -6   0  13   -0.28    0.50
   6   0 -12    0.51    0.29
  -6   0  12    0.07    0.22
  -6   0  12   -0.26    0.59
  -6   0  11    1.25    0.32
   6   0 -11    0.52    0.26
  -6   0  11    0.24    0.55
   6   0 -10  672.36   33.74
  -6   0  10  654.86   33.61
  -6   0  10  611.01   35.20
  -6   0   9    0.78    0.28
   6   0  -9    0.52    0.24
   6   0  -8   30.17    2.02
  -6   0   8   26.41    1.91
   6   0  -7    0.12    0.17
  -6   0   7    0.37    0.18
   6   0  -6   42.86    2.65
  -6   0   6   38.98    2.55
  -6   0   5    0.08    0.21
   6   0  -5    0.50    0.21
   6   0  -4  883.26   43.13
  -6   0   4  812.68   44.07
  -6   0   4  809.32   43.45
  -6   0   3    0.18    0.21
   6   0  -3    0.16    0.17
  -6   0   2  155.41    8.83
   6   0  -2  154.61    8.36
   6   0  -1    0.09    0.16
  -6   0   1    0.10    0.18
   6   0  -1    0.06    0.16
   6   0   0    0.19    0.28
  -6   0   0    0.24    0.25
   6   0   1   -0.11    0.31
  -6   0  -1    0.56    0.35
   6   0   2   83.47    5.08
   6   0   2   64.82    6.40
   6   0   3    0.34    0.79
   6   0   3   -0.11    0.26
   6   0   4   54.20    3.83
   6   0   4   52.10    5.27
   6   0   5   -0.35    0.80
   6   0   5   -0.13    0.33
   6   0   6   27.07    2.46
   6   0   6   30.07    3.73
   6   0   8  242.04   15.01
   6   0   9   -0.49    0.72
   6   0  10  171.40   10.71
   6   0  11    0.18    0.49
   6   0  12   55.17    4.15
   6   0  13    0.40    0.39
   6   0  14   17.83    1.81
   6   0  15    0.41    0.30
  -6   0 -15   -0.17    0.44
   6   0  16   31.29    2.40
  -6   0 -16   32.66    3.04
   6   0  17    0.08    0.25
  -6   0 -17    0.19    0.48
   6   0  18   23.75    1.89
  -6   0 -18   28.44    2.83
  -6   0 -19    0.82    0.76
  -6   0 -20   16.10    2.18
  -6   0 -21   -0.22    0.63
  -6   0 -22  106.85    7.47
  -6   0 -23   -0.22    0.56
  -6   0 -24    0.22    0.71
  -6   0 -25   -0.21    0.58
  -6   0 -26    3.77    1.05
   6  -1 -24    3.56    0.77
   6   1 -22    1.54    0.67
   6  -1 -22    1.30    0.65
   6   1 -21    3.23    1.29
   6   1 -21    1.23    0.62
   6  -1 -21    2.24    0.70
   6   1 -20    3.45    1.44
   6   1 -20    5.19    0.99
   6  -1 -20    6.87    2.12
   6  -1 -20    5.97    1.06
   6   1 -19    8.35    2.20
   6   1 -19    8.11    1.19
   6  -1 -19   10.63    1.34
   6  -1 -19   13.74    2.76
   6  -1 -18  124.56    9.53
   6   1 -18  114.51    6.99
   6  -1 -18  119.62    7.07
   6   1 -18  109.76    9.08
  -6   1  17  130.37    7.51
  -6  -1  17  129.22    7.49
  -6  -1  17  141.43    9.82
   6  -1 -17  143.56   10.19
   6   1 -17  141.39    7.79
   6  -1 -17  125.45    7.69
   6   1 -17  123.37    9.92
  -6   1  16  135.35    7.68
  -6  -1  16  128.94    7.65
  -6  -1  16  129.64    9.54
   6  -1 -16  140.59   10.03
   6   1 -16  140.72    7.93
   6  -1 -16  149.97    8.02
   6   1 -16  126.53   10.22
  -6   1  15    8.56    1.00
  -6  -1  15    8.62    1.00
   6   1 -15   10.50    1.14
   6  -1 -15    9.83    1.14
  -6  -1  15   11.61    2.10
   6  -1 -15    9.45    2.08
   6   1 -15   10.19    2.52
  -6   1  14    5.93    0.78
  -6  -1  14    5.62    0.76
   6   1 -14    6.64    1.93
   6   1 -14    6.00    0.83
   6  -1 -14    5.42    0.81
  -6  -1  14    3.33    1.15
   6  -1 -14    5.23    1.46
   6   1 -13    9.27    2.33
  -6   1  13    8.72    0.95
  -6  -1  13    8.20    0.93
   6   1 -13   10.67    1.10
   6  -1 -13    9.47    1.06
  -6  -1  13    8.07    1.64
   6  -1 -13    6.96    1.62
   6   1 -12  114.41    9.67
  -6   1  12  119.89    6.84
  -6  -1  12  117.19    6.84
  -6   1  12  131.38    8.99
  -6  -1  12  101.45    8.03
   6  -1 -12  114.30    8.38
   6   1 -12  140.93    7.21
   6  -1 -12  136.17    7.20
  -6   1  11  207.02   12.07
  -6   1  11  176.70    9.70
  -6  -1  11  170.64    9.68
  -6  -1  11  188.96   11.40
   6  -1 -11  165.71   11.17
   6   1 -11  195.19    9.91
   6  -1 -11  178.20    9.86
   6   1 -11  193.54   13.29
  -6   1  10  231.27   13.62
  -6   1  10  207.69   11.47
  -6  -1  10  213.30   11.48
  -6  -1  10  212.29   12.99
   6  -1 -10  215.12   13.05
   6   1 -10  213.21   15.01
   6   1 -10  224.99   11.62
   6  -1 -10  221.78   11.63
  -6   1   9   15.75    2.29
  -6   1   9   13.61    1.14
  -6  -1   9   13.18    1.13
  -6  -1   9   13.35    1.92
   6   1  -9   13.59    2.91
   6  -1  -9    9.20    1.67
   6   1  -9   13.41    1.18
   6  -1  -9   14.24    1.22
  -6  -1   8    0.20    0.46
  -6   1   8    0.16    0.13
  -6  -1   8   -0.05    0.15
   6  -1  -8    0.19    0.38
  -6   1   8   -0.23    0.52
   6   1  -8    0.06    0.14
   6  -1  -8    0.12    0.14
   6  -1  -7   14.94    1.26
   6   1  -7   14.71    1.23
   6   1  -7   16.62    3.03
  -6   1   7   13.75    2.05
   6  -1  -7   13.27    1.82
  -6  -1   7   17.88    2.13
  -6   1   7   15.52    1.22
  -6  -1   7   15.64    1.22
   6  -1  -6   50.54    3.28
  -6  -1   6   57.88    3.58
   6   1  -6   58.63    3.33
  -6   1   6   50.58    4.34
   6  -1  -6   51.70    4.13
  -6   1   6   57.24    3.29
   6   1  -6   59.06    5.91
  -6   1   6   51.07    3.49
   6   1  -5    2.00    1.24
  -6  -1   5    1.23    0.43
  -6   1   5    1.88    0.50
   6  -1  -5    2.16    0.39
   6   1  -5    2.22    0.40
  -6   1   5    2.68    0.81
  -6   1   4   42.30    2.98
   6  -1  -4   43.75    2.74
  -6   1   4   47.91    3.69
  -6  -1   4   43.45    3.00
   6   1  -4   45.60    2.73
   6   1  -4   34.92    4.58
  -6  -1   3  152.48    8.92
  -6   1   3  153.59    8.89
   6  -1  -3  172.17    8.58
   6   1  -3  155.95    8.51
  -6   1   3  156.51    9.43
   6   1  -3  146.07   11.28
  -6   1   2  189.55   10.67
  -6  -1   2  183.15   10.69
  -6   1   2  183.51   10.97
   6  -1  -2  199.10   10.30
   6   1  -2  200.16   10.28
   6  -1  -1    1.67    0.37
   6   1  -1    1.19    0.30
  -6   1   1    1.19    0.47
  -6  -1   1    2.16    0.58
  -6   1   1    2.02    0.61
  -6  -1   0  123.37    7.61
   6  -1   0  135.31    7.34
  -6   1   0  127.23    7.41
   6   1   0  106.87    9.13
  -6   1   0  125.88    7.55
   6   1   0  125.09    7.24
   6  -1   1   62.65    3.98
  -6   1  -1   56.41    4.13
   6   1   1   61.68    3.95
  -6   1  -1   60.10    3.90
   6   1   1   55.34    5.50
   6   1   2   35.63    2.66
   6  -1   2   38.04    2.73
  -6   1  -2   32.24    2.46
   6   1   2   35.32    3.99
   6   1   3  263.26   14.26
   6  -1   3  256.58   14.26
  -6   1  -3  263.48   13.96
   6   1   3  269.19   16.23
   6   1   4  327.04   17.48
   6  -1   4  325.88   17.52
   6   1   4  318.09   19.12
   6  -1   5   37.29    2.98
   6   1   5   40.64    3.01
   6   1   5   35.48    3.80
  -6  -1  -6    1.72    1.12
   6   1   6    2.33    0.97
   6  -1   6    3.19    0.80
   6   1   6    2.47    0.67
  -6  -1  -7    2.01    1.15
   6   1   7    2.75    0.93
  -6  -1  -8    6.90    1.83
   6   1   8    8.11    1.44
   6  -1   8    7.40    1.88
   6   1   9   38.89    3.34
  -6  -1  -9   32.97    4.04
   6  -1   9   42.72    4.52
   6   1  10   23.39    2.41
  -6  -1 -10   21.65    3.07
  -6  -1 -11    1.57    0.97
   6  -1  11    0.29    0.79
   6   1  11    0.75    0.51
  -6   1 -11    0.70    0.34
   6  -1  12    2.04    0.96
   6   1  12    0.55    0.45
  -6   1 -12    0.49    0.41
  -6  -1 -12    1.56    1.01
  -6  -1 -13    8.97    2.01
   6  -1  13    9.60    1.51
   6   1  13    7.85    1.25
  -6   1 -13    9.83    1.20
   6  -1  14   92.65    6.05
   6   1  14   93.15    5.97
  -6   1 -14  107.45    6.10
  -6  -1 -14   87.51    7.41
   6  -1  15   79.09    5.09
  -6  -1 -15   81.09    6.81
   6   1  15   85.81    5.31
  -6   1 -15   87.28    5.47
   6  -1  16   18.25    1.58
   6   1  16   17.33    1.75
  -6   1 -16   24.12    2.17
  -6  -1 -16   22.39    3.03
   6  -1  17    6.04    0.70
  -6  -1 -17    5.81    1.66
   6   1  17    5.57    0.87
  -6   1 -17    6.58    1.11
   6  -1  18   37.77    2.22
   6   1  18   33.19    2.66
  -6  -1 -18   34.10    3.98
  -6  -1 -18   32.21    3.65
  -6   1 -18   35.80    2.99
  -6  -1 -19    4.89    1.42
  -6   1 -19    6.25    1.11
  -6  -1 -19    4.57    1.46
  -6  -1 -20    0.92    0.84
  -6  -1 -20    1.12    0.82
  -6   1 -20    1.58    0.65
  -6  -1 -21    5.60    1.79
  -6  -1 -21    6.03    1.57
  -6   1 -21    8.16    1.27
  -6  -1 -22    1.46    0.90
  -6   1 -22    0.93    0.60
  -6  -1 -23    4.19    1.47
  -6   1 -23    7.38    1.31
  -6  -1 -24   22.30    3.10
   6  -2 -24    1.83    0.73
   6  -2 -23   69.69    4.73
   6  -2 -22    0.37    0.49
   6   2 -21    1.49    0.63
   6  -2 -21    1.55    0.63
   6  -2 -20    1.01    1.27
   6   2 -20    0.36    0.48
   6  -2 -20   -0.13    0.50
   6   2 -19  125.43    7.29
   6   2 -19  118.43    7.24
   6  -2 -19  119.03    7.29
   6  -2 -19  131.49   10.58
   6   2 -18    4.30    0.95
   6  -2 -18    4.00    0.84
   6  -2 -18    3.26    1.81
   6   2 -18    4.72    0.87
   6   2 -17   49.70    3.49
   6  -2 -17   49.85    3.53
   6   2 -17   51.56    3.98
  -6   2  16    1.93    0.47
   6   2 -16    1.66    0.49
  -6  -2  16    1.45    0.40
   6  -2 -16    2.01    0.57
   6   2 -16    1.14    0.61
  -6  -2  16    1.61    0.96
   6  -2 -16    2.94    1.43
   6   2 -15    0.96    0.37
  -6   2  15    0.07    0.23
  -6  -2  15    0.21    0.27
   6   2 -15    0.35    0.54
   6  -2 -15    0.09    0.28
  -6  -2  15   -0.25    0.69
   6  -2 -15    0.40    0.82
  -6   2  14    0.07    0.25
  -6  -2  14    0.45    0.28
   6  -2 -14    0.17    0.33
   6   2 -14    0.25    0.28
  -6  -2  14   -0.25    0.73
   6  -2 -14   -0.37    0.85
  -6   2  13   28.82    2.08
  -6  -2  13   30.06    2.10
   6  -2 -13   29.72    3.86
  -6  -2  13   28.81    3.26
   6   2 -13   29.78    2.19
   6  -2 -13   31.08    2.24
   6   2 -13   30.99    3.01
   6   2 -12    0.20    0.64
   6   2 -12    0.14    0.27
   6  -2 -12   -0.07    0.30
  -6   2  12   -0.24    0.24
  -6  -2  12    0.17    0.24
   6  -2 -12    0.32    0.75
  -6  -2  12   -0.24    0.74
   6   2 -11  149.39    9.42
   6  -2 -11  157.61   10.45
  -6   2  11  138.30    7.99
  -6  -2  11  148.63    9.74
  -6  -2  11  147.81    8.03
   6   2 -11  154.18    8.20
   6  -2 -11  151.60    8.22
  -6   2  10   19.61    2.79
  -6  -2  10   17.75    2.48
  -6   2  10   19.99    1.50
  -6  -2  10   16.64    1.44
   6   2 -10   23.68    1.69
   6  -2 -10   21.00    1.63
   6   2 -10   19.93    2.42
  -6   2   9  215.80   12.58
   6  -2  -9  192.68   12.39
  -6   2   9  198.99   10.42
  -6  -2   9  190.26   10.41
   6   2  -9  204.06   10.52
   6  -2  -9  188.21   10.51
   6   2  -9  198.69   12.00
   6   2  -8    0.43    0.70
  -6   2   8    0.36    0.23
  -6   2   8    0.70    0.71
   6   2  -8    0.33    0.26
   6  -2  -8    0.12    0.23
   6  -2  -8    0.23    0.63
  -6  -2   8    0.71    0.29
   6   2  -7   32.91    2.15
   6  -2  -7   32.59    2.17
   6   2  -7   29.70    3.23
  -6   2   7   37.48    3.44
   6  -2  -7   31.98    3.23
  -6  -2   7   32.40    2.38
  -6   2   7   30.40    2.34
   6  -2  -6    0.69    0.28
   6   2  -6    0.91    0.30
  -6  -2   6    0.40    0.34
  -6   2   6    0.48    0.34
   6   2  -6    0.67    0.65
  -6   2   6    0.99    0.73
   6  -2  -6    1.36    0.69
  -6  -2   5  138.41    8.09
   6  -2  -5  145.68    7.76
   6   2  -5  143.83    7.71
  -6   2   5  137.86    8.06
  -6   2   5  145.04    9.00
   6  -2  -5  149.99    9.02
   6   2  -5  146.13    9.39
  -6  -2   4   25.83    1.85
  -6   2   4   26.35    1.83
   6  -2  -4   15.28    1.28
   6   2  -4   15.08    1.25
  -6   2   4   14.16    1.88
   6  -2  -4   15.36    1.90
   6   2  -4   15.84    2.23
  -6  -2   3  369.79   21.17
  -6   2   3  387.24   21.15
   6  -2  -3  399.99   20.78
   6   2  -3  425.38   20.77
  -6   2   3  399.84   21.82
   6   2  -3  405.20   22.62
   6  -2  -3  430.97   21.91
  -6  -2   3  396.20   24.75
   6  -2  -2    0.13    0.35
  -6  -2   2   -0.43    0.89
   6  -2  -2    0.34    0.24
   6   2  -2    0.18    0.16
   6   2  -2    0.89    0.80
  -6   2   2    0.09    0.35
  -6  -2   2    0.10    0.43
  -6   2   2    0.13    0.41
   6   2  -1   -0.04    0.17
   6   2  -1   -0.22    0.64
  -6   2   1    0.11    0.40
  -6  -2   1    0.12    0.38
  -6   2   1    0.12    0.27
  -6  -2   1   -0.84    1.14
   6  -2  -1    0.05    0.20
   6  -2   0    0.90    0.25
  -6   2   0    0.70    0.41
   6   2   0    0.39    0.20
  -6  -2  -1   56.74    5.97
   6   2   1   65.32    3.95
   6  -2   1   63.43    3.98
   6   2   2    9.22    1.02
   6  -2   2    9.83    1.08
  -6  -2  -2    7.85    2.05
   6   2   3    0.98    0.40
   6  -2   3    0.71    0.39
   6   2   3    1.18    0.61
  -6  -2  -3    0.72    0.91
   6   2   4    5.56    0.82
  -6  -2  -4    5.93    1.71
   6   2   4    5.64    1.20
   6  -2   4    5.83    0.86
   6   2   5   40.60    3.49
   6  -2   5   34.44    2.75
   6   2   5   40.75    2.82
   6   2   6    4.55    1.08
   6  -2   6    4.92    0.90
   6   2   6    5.76    0.95
   6   2   7  207.56   12.13
   6  -2   7  202.58   11.77
   6   2   7  209.22   11.67
   6   2   8    3.06    0.87
  -6  -2  -8    1.29    1.01
   6  -2   8    2.84    0.85
   6   2   8    2.96    0.82
  -6  -2  -9    0.64    0.74
   6   2   9    2.31    0.76
  -6  -2 -10    5.38    1.62
   6   2  10    5.26    1.06
   6   2  11  173.76   10.40
   6  -2  11  191.21   12.00
  -6  -2 -11  179.91   12.11
   6  -2  12    1.66    0.96
  -6  -2 -12    0.31    0.64
   6   2  12    0.80    0.63
   6  -2  13    6.87    1.77
  -6  -2 -13    5.57    1.57
   6   2  13    2.71    0.75
   6  -2  14    0.42    0.74
  -6  -2 -14    0.92    0.84
   6   2  14    0.99    0.53
  -6  -2 -15    1.22    1.09
   6  -2  15    1.20    0.57
   6   2  15    1.21    0.52
   6  -2  16    1.09    0.31
   6   2  16    0.60    0.51
  -6  -2 -16    0.61    0.76
  -6  -2 -17   42.57    4.41
  -6  -2 -18    0.89    0.81
  -6  -2 -19    1.47    1.05
  -6  -2 -19    2.27    1.29
  -6  -2 -20    0.58    0.74
  -6  -2 -20    1.52    1.10
  -6  -2 -21   43.58    4.92
  -6  -2 -21   40.41    4.32
  -6  -2 -22    2.02    1.03
  -6  -2 -23   20.93    2.96
   6  -3 -19    1.08    0.62
   6   3 -18   23.18    2.04
   6  -3 -18   22.09    2.09
   6  -3 -18   20.81    3.65
   6   3 -17  155.46    8.84
   6  -3 -17  159.56    9.00
   6  -3 -17  139.51   11.31
   6   3 -16   29.74    2.21
   6   3 -16   30.91    2.36
   6  -3 -16   31.16    2.45
  -6  -3  16   28.89    2.14
   6  -3 -16   24.99    3.87
  -6   3  15    3.53    0.59
  -6  -3  15    4.51    0.66
   6   3 -15    4.65    0.81
   6  -3 -15    3.08    1.39
   6   3 -15    4.45    0.81
   6  -3 -15    3.52    0.79
   6  -3 -14    0.18    0.44
  -6   3  14    0.19    0.29
   6   3 -14    0.10    0.36
  -6  -3  14    0.20    0.28
   6  -3 -14   -0.37    0.93
   6   3 -13    4.22    0.70
   6  -3 -13    3.42    0.67
  -6  -3  13    3.32    0.57
   6   3 -13    4.15    0.84
  -6   3  13    3.65    0.57
   6  -3 -13    2.82    1.21
  -6  -3  13    5.66    1.53
   6   3 -12   34.03    2.84
   6  -3 -12   31.27    4.02
  -6  -3  12   43.83    4.18
   6   3 -12   38.05    2.54
   6  -3 -12   39.45    2.63
  -6   3  12   34.72    2.37
  -6  -3  12   36.65    2.43
   6   3 -11  191.95   10.51
   6  -3 -11  167.19   11.98
  -6  -3  11  208.92   12.21
   6   3 -11  180.65    9.88
   6  -3 -11  184.79    9.97
  -6   3  11  176.91    9.76
   6   3 -10   41.43    3.13
  -6  -3  10   38.30    2.80
   6  -3 -10   29.47    3.78
   6   3 -10   37.68    2.51
   6  -3 -10   40.49    2.61
  -6   3  10   38.31    2.74
   6   3  -9   13.36    1.67
   6   3  -9   16.56    1.27
   6  -3  -9   13.44    1.24
   6  -3  -9   14.58    2.33
  -6  -3   9   13.17    1.41
  -6   3   9   15.45    1.45
  -6  -3   8    0.19    0.34
  -6   3   8    0.35    0.33
   6   3  -8    1.52    0.64
   6   3  -8    0.46    0.25
   6  -3  -8    0.59    0.28
   6  -3  -8    1.54    0.91
  -6  -3   7    4.73    0.81
  -6   3   7    5.65    0.84
   6   3  -7    5.70    1.07
   6  -3  -7    3.92    0.60
   6  -3  -7    5.64    1.39
   6   3  -7    5.48    0.64
  -6  -3   6    7.35    1.03
  -6   3   6    7.02    0.97
   6   3  -6    5.56    1.13
  -6  -3   6    6.94    2.49
   6  -3  -6    7.52    1.52
   6   3  -6   10.45    0.85
   6  -3  -6    7.41    0.79
  -6  -3   5   16.49    3.44
   6   3  -5   21.01    2.14
  -6  -3   5   20.53    1.82
  -6   3   5   17.09    1.63
   6  -3  -5   15.72    2.12
   6   3  -5   18.56    1.35
   6  -3  -5   19.35    1.41
  -6  -3   4    1.49    1.36
   6   3  -4    2.92    0.83
  -6   3   4    2.05    0.56
  -6  -3   4    2.97    0.71
   6  -3  -4    1.42    0.66
   6   3  -4    1.87    0.36
   6  -3  -4    1.81    0.38
   6   3  -3  112.98    7.31
   6  -3  -3  115.64    6.30
  -6   3   3  108.46    6.70
  -6  -3   3  104.31    6.81
   6   3  -3  123.90    6.27
   6  -3  -3  112.50    7.35
  -6  -3   3  127.70   10.20
   6   3  -2   19.45    2.22
   6   3  -2   23.94    1.57
   6  -3  -2   23.49    1.62
  -6  -3   2   19.62    3.58
   6  -3  -2   24.07    2.30
  -6  -3   1    0.87    1.09
   6   3  -1    2.08    0.80
   6  -3  -1    0.58    0.23
   6   3  -1    0.44    0.24
   6  -3  -1    0.11    0.43
  -6  -3   0    8.33    2.29
   6  -3   0    9.68    0.88
   6   3   0   10.48    0.87
   6  -3   0    9.95    1.19
   6   3   1   39.68    3.38
  -6  -3  -1   40.64    4.79
   6  -3   1   38.63    2.41
   6   3   1   39.70    2.36
   6   3   2    0.96    0.61
   6   3   2    0.04    0.21
  -6  -3  -2    0.78    0.99
   6  -3   2    0.26    0.21
  -6  -3  -3  162.10   11.46
   6   3   3  159.22    8.46
   6  -3   3  149.64    8.51
  -6  -3  -4   79.62    6.94
   6   3   4   71.67    4.29
   6  -3   4   72.56    4.40
   6  -3   5   38.10    2.73
   6   3   5   38.72    3.28
   6   3   5   41.13    2.68
  -6  -3  -5   43.14    4.81
  -6  -3  -6    0.37    0.85
   6   3   6    0.61    0.30
   6  -3   6    0.27    0.32
   6   3   6    1.07    0.57
  -6  -3  -7    1.86    1.15
   6   3   7    1.67    0.47
   6  -3   7    1.31    0.45
   6   3   7    1.65    0.62
   6   3   8    3.53    0.85
   6  -3   8    2.42    0.70
   6   3   8    3.10    0.68
   6  -3   9   66.13    4.47
   6   3   9   57.07    4.04
   6   3   9   54.01    4.20
   6   3  10    9.78    1.45
   6   3  10   13.60    1.65
  -6  -3 -10   12.03    2.46
   6  -3  10   16.39    2.05
  -6  -3 -11   -0.38    0.78
   6  -3  11    0.76    0.83
   6   3  11    0.87    0.65
  -6  -3 -12    0.38    0.87
  -6  -3 -13   14.36    2.76
  -6  -3 -14   12.40    2.61
   6  -3  15   80.20    5.51
   6   3  15   98.63    5.59
  -6  -3 -15   83.41    7.48
  -6  -3 -16    7.45    1.99
  -6  -3 -17   10.30    2.36
  -6  -3 -18    5.11    1.74
  -6  -3 -19    7.98    2.01
   6  -4 -15    0.75    0.95
   6  -4 -14    3.24    1.34
  -6   4  13    4.16    0.79
   6  -4 -13    1.03    0.88
  -6   4  12    2.32    0.64
   6   4 -12    0.88    0.39
   6  -4 -12    0.66    0.96
   6   4 -12    2.18    0.50
   6  -4 -12    3.07    0.69
  -6   4  11    4.10    0.86
   6   4 -11    4.21    0.78
   6  -4 -11    4.18    0.87
   6  -4 -11    2.45    1.24
   6   4 -11    4.55    0.71
  -6   4  10  117.54    6.92
   6   4 -10  102.59    6.75
   6   4 -10  118.02    6.52
   6  -4 -10   90.02    7.97
   6  -4 -10  141.14    6.94
   6   4  -9   16.99    1.71
  -6   4   9   14.69    1.64
   6   4  -9   17.92    1.41
   6  -4  -9   20.99    1.67
   6  -4  -9   13.51    2.30
   6   4  -8    3.43    0.53
   6  -4  -8    2.35    0.55
  -6   4   8    0.78    0.53
   6   4  -8    1.41    0.60
   6  -4  -8    2.25    1.09
   6  -4  -7    6.57    0.84
  -6  -4   7    5.68    2.69
   6   4  -7    5.90    1.00
  -6   4   7    5.68    0.89
   6   4  -7    6.23    0.70
   6  -4  -7    4.94    1.28
  -6  -4   6    1.77    1.92
   6  -4  -6    0.06    0.34
   6   4  -6    0.83    0.50
   6   4  -6    0.21    0.24
  -6   4   6   -0.72    0.58
  -6  -4   6    0.25    0.61
   6  -4  -6    0.21    0.56
  -6  -4   5    2.25    1.55
   6  -4  -5    4.63    0.66
   6   4  -5    4.13    0.89
   6   4  -5    5.63    0.59
   6  -4  -5    3.61    1.04
   6   4  -4  159.82    9.75
   6  -4  -4  123.40    9.74
   6   4  -4  168.08    8.91
   6  -4  -4  202.58    9.19
  -6  -4   4  162.07   13.08
   6   4  -3   21.58    2.10
   6  -4  -3   11.45    1.74
   6   4  -3   23.68    1.47
   6  -4  -3   25.88    1.63
  -6  -4   3   11.15    3.04
   6   4  -2   30.33    2.66
  -6  -4   2   21.44    4.07
   6  -4  -2   21.62    2.32
   6   4  -2   31.70    1.91
   6  -4  -2   39.84    2.14
  -6  -4   1   -0.47    1.29
   6   4  -1   -0.40    0.44
   6   4  -1    0.03    0.14
   6  -4  -1    0.13    0.25
   6  -4  -1    0.20    0.30
  -6  -4   0    0.46    1.06
   6  -4   0    0.22    0.22
   6   4   0    0.30    0.17
   6  -4   0    0.30    0.23
  -6  -4  -1    3.17    1.48
   6   4   1    2.30    0.33
   6  -4   1    2.33    0.40
   6  -4   1    1.92    0.42
   6  -4   2   49.98    2.89
   6   4   2   47.45    2.76
  -6  -4  -2   44.25    5.40
  -6  -4  -3    0.89    1.02
   6  -4   3    2.21    0.41
   6   4   3    1.56    0.31
  -6  -4  -4    9.35    2.44
   6  -4   4   12.07    0.95
   6   4   4    9.53    0.80
   6  -4   5    2.02    0.39
  -6  -4  -5    0.90    1.13
   6   4   5    1.86    0.34
   6  -4   6    1.84    0.39
  -6  -4  -6    3.17    1.92
  -6  -4  -7   14.23    2.97
   6   4   7   10.82    1.07
   6  -4   7   13.96    1.30
   6   4   8   57.46    3.71
   6  -4   8   63.40    4.03
   6  -4   8   68.16    4.09
  -6  -4  -8   57.79    6.49
  -6  -4  -9    0.47    1.08
   6   4   9   -0.07    0.29
   6  -4   9   -0.22    0.55
   6  -4   9    0.18    0.35
   6   4   9    0.13    0.30
   6  -4  10   46.62    3.38
   6  -4  10   39.92    2.80
   6   4  10   42.81    2.72
   6   4  11    9.90    1.21
   6  -4  11   13.62    1.94
   6   4  11   11.11    1.17
   6   4  12   25.66    2.28
  -6  -4 -12   27.20    4.30
   6   4  12   28.64    2.12
   6   4  13    0.08    0.37
   6   4  13   -0.40    0.50
   6   4  14    4.53    1.08
   6   4  15    0.58    0.91
   6   4  16   45.08    4.17
   6   4  17    3.21    1.28
  -6  -5   7   -0.74    1.85
  -6  -5   6   12.84    3.80
  -6  -5   5    0.64    1.74
  -6  -5   4    0.61   91.35
  -6  -5   3    4.74    2.13
   6  -5  -2   23.45    2.56
  -6  -5   2   26.17    4.52
  -6  -5   1    0.57    1.32
   6  -5  -1    1.80    0.94
   6  -5   0   29.19    2.74
  -6  -5   0   28.51    4.81
   6  -5   1    0.44    0.57
   6  -5   2    7.18    1.23
   6  -5   3    6.52    1.18
   6  -5   4   69.59    4.79
   6  -5   5    2.42    0.79
   6  -5   6    0.40    0.57
   7   0 -21    1.89    0.66
   7   0 -20    0.27    0.54
   7   0 -19  185.63   10.65
   7   0 -18    0.12    0.41
   7   0 -17   15.14    1.60
  -7   0  16   -0.42    0.39
   7   0 -16   -0.21    0.34
  -7   0  15   13.01    1.31
  -7   0  15   14.98    2.57
   7   0 -15   13.72    1.43
  -7   0  14   -0.08    0.22
   7   0 -14   -0.10    0.29
  -7   0  14   -0.31    0.78
  -7   0  13   77.15    6.42
  -7   0  13   78.96    4.71
   7   0 -13   79.11    4.92
   7   0 -12    0.08    0.19
  -7   0  12    0.14    0.19
   7   0 -11   36.74    2.70
  -7   0  11   42.60    2.66
  -7   0  10   -0.06    0.23
   7   0 -10    0.30    0.19
   7   0  -9  110.68    6.68
  -7   0   9  127.19    6.68
   7   0  -8    0.07    0.18
  -7   0   8    0.43    0.24
   7   0  -7  225.42   12.04
  -7   0   7  224.51   12.34
   7   0  -6    0.07    0.18
  -7   0   6    0.10    0.30
  -7   0   6    0.18    0.54
  -7   0   5  264.95   13.98
   7   0  -5  252.10   13.57
  -7   0   5  252.63   14.70
   7   0  -4   -0.06    0.20
  -7   0   4    0.21    0.29
  -7   0   4    0.17    0.42
  -7   0   3   14.99    1.55
   7   0  -3   12.34    1.14
  -7   0   3   11.91    1.62
  -7   0   2   -0.12    0.24
   7   0  -2    0.13    0.16
  -7   0   1  139.26    9.03
   7   0  -1  165.71    8.56
   7   0   0    0.11    0.32
  -7   0   0    0.14    0.33
   7   0   1  205.56   11.00
  -7   0  -1  179.05   11.27
   7   0   2   -0.41    1.03
   7   0   2   -0.12    0.31
   7   0   3   24.73    2.13
   7   0   3   13.79    2.83
   7   0   4    0.39    0.90
   7   0   4    0.13    0.22
   7   0   5   93.77    5.95
   7   0   5   85.76    7.66
   7   0   6    0.38    0.96
   7   0   6    0.15    0.37
   7   0   7  718.78   37.03
   7   0   7  664.45   38.92
   7   0   8    3.74    1.31
   7   0   8   -0.17    0.49
   7   0   9    4.95    1.51
   7   0  10    1.09    0.74
   7   0  11    3.10    1.13
   7   0  12    0.21    0.60
   7   0  13  234.74   13.63
   7   0  14    0.31    0.48
   7   0  15   13.62    1.66
   7   0  16    0.12    0.33
  -7   0 -16   -0.37    0.56
   7   0  17   31.48    2.51
  -7   0 -17   32.13    3.08
   7   0  18   -0.28    0.34
  -7   0 -18   -0.20    0.45
  -7   0 -19    2.02    0.81
  -7   0 -20    0.21    0.53
  -7   0 -21   75.79    5.74
  -7   0 -22    0.22    0.60
  -7   0 -23   19.87    2.58
  -7   0 -24   -0.22    0.60
   7   1 -21   34.64    2.92
   7  -1 -21   33.57    2.91
   7   1 -20   18.48    3.17
   7   1 -20   20.60    2.06
   7  -1 -20   20.84    2.07
   7  -1 -20   16.63    3.18
   7   1 -19    2.54    0.73
   7  -1 -19    1.98    0.69
   7   1 -19    1.99    1.23
   7  -1 -19    2.46    1.40
   7   1 -18   19.79    3.48
   7  -1 -18   27.66    3.78
   7   1 -18   27.66    2.31
   7  -1 -18   25.42    2.27
   7   1 -17    8.52    2.32
   7   1 -17   13.18    1.43
   7  -1 -17   13.38    1.47
   7  -1 -17   10.73    2.35
   7   1 -16    3.97    1.76
  -7  -1  16    2.92    0.61
   7   1 -16    3.55    0.68
   7  -1 -16    3.53    0.73
   7  -1 -16    2.66    1.24
  -7   1  15   63.05    3.84
  -7  -1  15   60.01    3.81
  -7  -1  15   53.82    5.29
   7  -1 -15   55.86    5.40
   7   1 -15   62.35    4.00
   7  -1 -15   62.28    4.02
   7   1 -15   57.63    6.31
   7   1 -14   14.89    3.13
  -7   1  14   22.03    3.09
  -7   1  14   16.08    1.42
  -7  -1  14   13.20    1.33
  -7  -1  14   18.45    2.57
   7   1 -14   16.46    1.54
   7  -1 -14   17.67    1.62
   7  -1 -14   15.50    2.46
   7   1 -13   27.08    4.41
  -7   1  13   37.69    4.12
  -7   1  13   33.87    2.36
  -7  -1  13   37.08    3.79
  -7  -1  13   32.29    2.36
   7  -1 -13   28.80    3.43
   7   1 -13   37.31    2.66
   7  -1 -13   37.60    2.69
  -7   1  12  105.82    7.57
  -7  -1  12  100.77    7.03
  -7   1  12   89.94    5.26
  -7  -1  12   90.01    5.26
   7  -1 -12   77.64    6.56
   7   1 -12   95.86    5.46
   7  -1 -12   88.88    5.44
   7   1 -12   87.46    8.36
  -7   1  11  136.95    9.03
  -7  -1  11  129.23    8.54
  -7   1  11  117.50    6.74
   7  -1 -11  104.38    8.03
  -7  -1  11  117.92    6.74
   7   1 -11  115.30    6.85
   7  -1 -11  139.01    7.02
   7   1 -11  115.83   10.12
   7   1 -10   18.69    3.65
   7  -1 -10   19.03    1.63
  -7   1  10   27.71    3.19
  -7  -1  10   22.47    2.73
   7  -1 -10   22.32    2.67
  -7   1  10   19.83    1.56
  -7  -1  10   19.78    1.56
   7   1 -10   20.59    1.65
   7   1  -9    8.49    0.93
   7  -1  -9    9.07    0.95
  -7   1   9    8.01    0.86
  -7  -1   9    7.42    0.83
  -7   1   9    8.55    1.74
  -7  -1   9    9.28    1.69
   7  -1  -8   10.93    1.05
   7   1  -8   10.65    1.02
   7   1  -8   11.27    2.85
  -7   1   8   10.75    1.89
  -7   1   8    8.86    0.91
  -7  -1   8    9.45    0.94
  -7  -1   8    6.83    1.50
   7  -1  -7   22.18    1.68
   7   1  -7   21.24    1.64
   7   1  -7   23.28    3.92
  -7   1   7   24.78    2.75
  -7   1   7   20.45    1.83
  -7  -1   7   25.46    2.74
  -7  -1   7   19.06    1.81
  -7  -1   6   57.93    4.10
   7  -1  -6   63.38    3.91
   7   1  -6   67.93    3.91
  -7   1   6   68.11    5.14
   7   1  -6   60.31    6.63
  -7   1   6   67.20    4.21
  -7  -1   5   24.74    2.12
  -7   1   5   25.71    2.15
   7  -1  -5   26.31    1.90
   7   1  -5   26.28    1.87
  -7   1   5   25.89    2.72
   7   1  -5   28.93    4.19
   7  -1  -4    1.52    0.37
   7   1  -4    1.62    0.38
   7   1  -4    1.36    1.32
  -7  -1   4    1.68    0.56
  -7   1   4    1.45    0.49
   7   1  -3    0.44    1.02
  -7  -1   3    0.33    0.34
  -7   1   3    0.21    0.27
   7  -1  -3    0.44    0.22
   7   1  -3    0.36    0.23
  -7   1   3   -0.15    0.42
  -7   1   2   48.98    3.44
  -7  -1   2   45.01    3.42
  -7   1   2   40.87    3.51
   7  -1  -2   53.80    3.08
   7   1  -2   47.18    2.98
  -7   1   1  335.10   19.07
  -7  -1   1  327.32   19.14
  -7   1   1  363.80   19.27
   7  -1  -1  377.94   18.50
   7   1  -1  351.19   18.47
  -7   1   0  173.64   10.39
  -7  -1   0  192.42   10.66
  -7   1   0  175.91   10.25
   7   1   0  161.61   12.48
   7   1   0  187.14   10.11
   7  -1   0  176.91   10.09
   7   1   1   75.19    4.55
   7  -1   1   64.63    4.44
  -7   1  -1   69.77    4.53
   7   1   1   62.31    6.31
   7   1   2    3.65    1.46
   7   1   2    2.40    0.61
   7  -1   2    2.04    0.57
  -7   1  -2    2.92    0.67
   7   1   3   70.42    4.80
   7  -1   3   73.30    4.86
  -7   1  -3   79.45    4.68
   7   1   3   70.67    6.47
   7   1   4    0.99    0.83
   7   1   4    1.39    0.51
   7  -1   4    0.49    0.36
   7  -1   5  103.73    6.35
   7   1   5   94.56    6.19
   7   1   5  108.28    7.94
   7  -1   6   88.48    5.64
   7   1   6   83.41    5.51
   7   1   6   72.92    6.40
   7   1   7   20.81    2.17
   7  -1   7   20.42    2.19
   7   1   7   17.38    2.56
  -7  -1  -8   17.97    3.11
   7  -1   8   18.16    3.01
   7  -1   8   20.12    2.25
   7   1   8   22.47    2.28
   7   1   8   18.30    2.50
   7   1   9   94.83    6.57
  -7  -1  -9   77.07    7.26
   7  -1   9   89.63    7.67
   7   1  10   17.98    2.26
  -7  -1 -10   20.21    3.15
   7  -1  10   21.88    3.35
  -7  -1 -11    3.98    1.49
   7  -1  11    3.62    1.49
   7   1  11    1.82    0.78
   7   1  12   15.97    1.98
  -7  -1 -12   13.21    2.64
  -7   1 -12   15.47    1.52
   7  -1  12   21.33    2.90
   7   1  13   82.83    5.82
  -7   1 -13   86.79    5.39
  -7  -1 -13   89.76    7.45
   7  -1  13   93.17    6.67
  -7  -1 -14   74.03    6.97
   7   1  14   80.21    5.62
  -7   1 -14   92.11    5.45
   7  -1  14   87.29    6.11
   7  -1  15   88.24    6.00
   7   1  15   81.76    5.77
  -7   1 -15  104.62    5.91
  -7  -1 -15   92.03    7.57
   7  -1  16   12.62    1.49
   7   1  16   12.25    1.50
  -7  -1 -16    9.36    2.10
  -7   1 -16   12.19    1.50
  -7  -1 -17   -0.35    0.79
   7  -1  17    0.19    0.35
   7   1  17   -0.35    0.38
  -7   1 -17   -0.14    0.49
   7   1  18    2.11    0.64
  -7   1 -18    3.34    0.84
   7   1  19   39.78    3.05
  -7  -1 -19   36.42    4.04
  -7   1 -19   45.93    3.42
  -7  -1 -20   35.27    3.98
  -7   1 -20   42.97    3.34
  -7  -1 -21   25.68    3.30
  -7   1 -21   28.35    2.60
  -7  -1 -22   -0.30    0.80
  -7   1 -22   -0.30    0.53
  -7  -1 -23    6.61    1.67
   7   2 -20   47.00    3.56
   7  -2 -20   50.62    3.68
   7  -2 -19    6.82    2.17
   7   2 -19    8.63    1.22
   7  -2 -19    8.37    1.22
   7   2 -18  101.43    7.20
   7  -2 -18  117.62    9.50
   7   2 -18  109.33    6.52
   7  -2 -18  106.49    6.52
   7   2 -17   -0.10    0.43
   7  -2 -17   -0.42    0.50
   7   2 -17   -0.43    0.66
   7  -2 -17   -0.44    0.90
   7  -2 -16    0.40    0.33
   7   2 -16   -0.23    0.74
   7   2 -16    0.29    0.27
   7  -2 -16   -0.41    1.04
   7   2 -15   -0.09    0.31
   7  -2 -15   -0.09    0.31
   7   2 -15   -0.24    0.77
  -7   2  15    0.07    0.29
  -7  -2  15    0.35    0.26
   7  -2 -15    0.39    0.79
  -7  -2  14   53.70    4.91
   7  -2 -14   54.82    5.44
  -7   2  14   48.57    3.17
  -7  -2  14   43.97    3.11
   7   2 -14   51.77    3.36
   7  -2 -14   56.20    3.46
   7   2 -14   55.31    4.68
   7   2 -13    0.50    0.73
  -7   2  13    0.92    0.33
   7   2 -13    0.81    0.39
   7  -2 -13    0.85    0.42
  -7  -2  13    0.79    0.30
  -7   2  13    1.01    1.04
  -7  -2  13    0.28    0.70
   7  -2 -13    0.67    0.85
   7   2 -12   10.10    1.99
  -7   2  12   12.65    2.35
  -7   2  12   11.20    1.09
  -7  -2  12   10.04    1.04
   7   2 -12   14.06    1.29
   7  -2 -12   12.36    1.25
  -7  -2  12   10.11    1.97
   7  -2 -12   12.55    2.24
   7   2 -11   -0.26    0.67
  -7   2  11    0.06    0.21
   7   2 -11   -0.08    0.25
   7  -2 -11   -0.08    0.18
  -7   2  11   -0.59    0.97
  -7  -2  11    0.12    0.22
   7  -2 -11   -0.29    0.80
  -7  -2  11   -0.27    0.79
   7   2 -10   12.91    2.23
  -7  -2  10   16.95    2.44
  -7   2  10   13.73    2.26
  -7   2  10   11.45    1.08
  -7  -2  10   12.78    1.12
   7   2 -10   10.99    1.12
   7  -2 -10   12.23    1.19
   7  -2 -10   12.24    2.14
  -7  -2   9    1.89    0.59
  -7   2   9    2.04    0.57
   7   2  -9    1.90    1.05
  -7   2   9    3.40    1.27
   7   2  -9    2.14    0.48
   7  -2  -9    1.98    0.50
   7  -2  -9    0.76    1.01
  -7  -2   9    3.61    1.33
  -7   2   8  223.83   13.24
   7  -2  -8  222.54   13.10
   7   2  -8  217.13   13.38
  -7  -2   8  208.11   11.61
  -7   2   8  205.61   11.59
   7   2  -8  206.19   11.27
   7  -2  -8  216.07   11.34
  -7  -2   7    9.61    1.17
  -7   2   7    9.54    1.15
   7   2  -7   10.21    0.97
   7  -2  -7   10.98    1.02
   7   2  -7    8.61    1.83
  -7   2   7    7.99    1.60
   7  -2  -7   11.37    1.85
   7  -2  -6    3.14    0.55
   7   2  -6    3.91    0.57
   7   2  -6    3.34    1.23
  -7  -2   6    3.40    0.73
  -7   2   6    4.41    0.78
  -7   2   6    2.76    0.97
   7  -2  -6    3.44    0.99
   7  -2  -5    4.68    0.67
   7   2  -5    4.99    0.64
   7   2  -5    5.61    1.52
  -7  -2   5    4.75    0.84
  -7   2   5    5.10    0.86
  -7   2   5    5.13    1.19
   7  -2  -5    3.88    1.07
  -7  -2   4  158.15    9.35
  -7   2   4  158.93    9.30
   7  -2  -4  167.92    8.93
   7   2  -4  173.28    8.90
  -7   2   4  154.78    9.99
   7  -2  -4  160.99    9.93
   7   2  -4  162.91   10.92
   7   2  -3    5.30    1.42
  -7   2   3    3.21    0.73
  -7  -2   3    2.57    0.67
   7  -2  -3    5.26    0.66
   7   2  -3    5.30    0.62
  -7   2   3    4.44    1.05
  -7   2   2   38.61    3.20
  -7  -2   2   45.47    3.45
  -7   2   2   47.50    3.64
   7  -2  -2   43.85    2.83
   7   2  -2   50.27    2.86
   7   2  -2   44.13    4.36
   7  -2  -1    1.00    0.31
   7   2  -1    1.14    0.29
   7   2  -1    0.82    0.79
  -7   2   1    0.74    0.38
  -7  -2   1    1.10    0.57
  -7   2   1    0.92    0.52
  -7  -2   0    0.47    1.19
   7  -2   0    0.33    0.23
   7   2   0    0.26    0.18
  -7   2   0    0.80    0.46
  -7  -2  -1    0.45    0.81
   7   2   1    0.67    0.30
   7  -2   1    0.36    0.26
  -7   2  -1    0.29    0.31
  -7   2  -2  118.38    6.62
  -7  -2  -2  105.09    9.32
   7   2   2  123.48    6.74
   7  -2   2  106.20    6.68
  -7  -2  -3    2.14    1.46
   7   2   3    1.92    0.54
   7  -2   3    1.77    0.55
   7   2   3    3.64    1.09
  -7   2  -3    3.03    0.51
   7   2   4   10.42    1.20
   7  -2   4    9.97    1.22
  -7  -2  -4    7.90    2.20
   7   2   4   11.33    1.88
   7   2   5    0.44    0.60
   7   2   5    0.91    0.43
   7  -2   5    0.66    0.41
   7   2   6  254.84   15.38
   7  -2   6  262.79   14.54
   7   2   6  270.74   14.45
   7   2   7   16.15    2.19
   7   2   7   21.03    2.01
   7  -2   7   19.76    2.03
   7   2   8  149.17   10.04
   7  -2   8  179.80   10.06
   7   2   8  180.00    9.89
  -7  -2  -8  136.53   11.31
  -7  -2  -9    1.13    1.16
   7   2   9    0.37    0.46
   7  -2   9    0.37    0.61
   7   2   9   -0.17    0.62
  -7  -2 -10    4.45    1.54
   7   2  10    5.08    1.13
   7  -2  10    4.94    1.25
   7   2  10    3.94    1.06
   7  -2  11    1.99    1.23
  -7  -2 -11    1.10    0.99
   7   2  11    0.66    0.59
   7  -2  12   92.03    7.48
   7   2  12   84.36    5.73
  -7  -2 -12   79.36    7.16
  -7  -2 -13    4.63    1.58
   7   2  13    5.06    1.04
   7   2  14   28.39    2.69
  -7  -2 -14   27.01    3.75
  -7  -2 -15    0.35    0.87
   7  -2  15    0.64    0.76
   7   2  15    0.68    0.51
   7   2  16   34.53    2.93
  -7  -2 -16   38.48    4.37
  -7  -2 -17    1.01    1.04
  -7  -2 -18    3.63    1.45
  -7  -2 -19   -0.32    0.82
  -7  -2 -20   18.86    2.91
  -7  -2 -20   21.48    3.43
  -7  -2 -21    4.74    1.54
  -7  -2 -22   39.17    4.32
  -7  -2 -23    0.31    0.95
   7   3 -19    0.34    0.44
   7  -3 -19    0.26    0.49
   7   3 -18   19.99    1.88
   7  -3 -18   16.60    1.83
   7  -3 -17    2.65    0.74
   7   3 -17    1.89    0.67
   7  -3 -17    1.75    1.36
   7  -3 -16    3.90    0.88
   7   3 -16    3.80    0.86
   7  -3 -16    4.65    1.96
   7   3 -16    6.28    0.98
   7   3 -15   11.01    1.41
   7   3 -15    9.44    1.19
   7  -3 -15   11.74    1.32
   7  -3 -15   10.45    2.47
   7   3 -14   19.89    2.02
   7   3 -14   19.64    1.67
   7  -3 -14   17.59    1.69
  -7   3  14   17.19    1.50
  -7  -3  14   18.62    1.57
   7  -3 -14   18.13    3.11
   7   3 -13    5.01    0.79
   7  -3 -13    4.20    0.77
  -7  -3  13    3.38    0.83
  -7   3  13    3.91    0.83
   7   3 -13    5.46    1.03
  -7   3  13    3.94    0.66
   7  -3 -13    4.38    1.47
   7   3 -12  104.07    6.65
   7  -3 -12  113.80    8.49
   7   3 -12  109.72    6.03
   7  -3 -12  102.07    6.04
  -7  -3  12  102.02    6.31
  -7   3  12   97.19    6.19
   7   3 -11   15.11    1.87
   7   3 -11   16.21    1.41
   7  -3 -11   17.02    1.48
   7  -3 -11   20.04    2.95
  -7  -3  11   16.34    1.64
  -7   3  11   14.85    1.55
  -7  -3  10    5.93    0.97
  -7   3  10    5.66    0.92
   7   3 -10    6.62    1.24
   7  -3 -10    5.56    0.83
   7   3 -10    6.73    0.82
   7  -3 -10    7.27    1.76
  -7  -3   9    2.34    0.61
  -7   3   9    2.55    0.63
   7   3  -9    2.75    0.83
   7   3  -9    2.95    0.56
   7  -3  -9    2.47    0.53
   7  -3  -9    4.19    1.38
  -7  -3   8    0.34    0.37
  -7   3   8    0.41    0.34
   7   3  -8    0.50    0.49
   7   3  -8    0.61    0.28
   7  -3  -8    1.20    0.40
   7  -3  -8    0.51    0.70
   7   3  -7   18.77    2.23
  -7  -3   7   23.34    2.06
  -7   3   7   22.41    1.96
   7  -3  -7   19.36    2.61
   7   3  -7   22.75    1.62
   7  -3  -7   20.07    1.62
   7   3  -6   68.36    4.94
  -7  -3   6   65.87    4.41
  -7   3   6   69.17    4.34
   7  -3  -6   59.05    4.99
   7  -3  -6   61.70    3.85
   7   3  -6   67.15    3.85
   7   3  -5   15.23    1.20
   7  -3  -5   14.48    1.22
  -7   3   5   13.40    1.49
  -7  -3   5   15.21    1.63
   7  -3  -5   16.06    2.05
   7   3  -5   12.39    1.81
   7  -3  -4    0.28    0.19
   7   3  -4    0.10    0.20
  -7  -3   4    0.56    1.52
   7   3  -4    0.37    0.60
  -7   3   4    0.22    0.36
  -7  -3   4   -0.13    0.47
   7  -3  -4   -0.17    0.50
   7  -3  -3    1.11    0.34
   7   3  -3    1.81    0.37
   7   3  -3    1.48    0.79
  -7   3   3    1.15    0.54
  -7  -3   3    0.79    0.53
   7  -3  -3    0.90    0.52
   7   3  -2   43.71    3.71
   7  -3  -2   44.21    2.67
   7   3  -2   42.01    2.59
   7  -3  -2   35.67    3.10
  -7  -3   2   37.65    5.35
   7   3  -1   58.62    4.84
   7  -3  -1   65.96    3.83
   7   3  -1   66.75    3.77
  -7  -3   1   60.42    6.77
   7   3   0  224.90   13.34
   7  -3   0  219.95   11.93
   7   3   0  232.70   11.89
  -7  -3   0  228.81   16.03
  -7  -3  -1    3.78    1.71
   7   3   1    6.68    1.36
   7  -3   1    5.46    0.64
   7   3   1    6.47    0.66
   7   3   2   19.15    2.28
  -7  -3  -2   15.61    3.10
   7  -3   2   19.02    1.42
   7   3   2   19.66    1.38
   7  -3   3    7.08    0.93
  -7  -3  -3    7.62    2.15
   7  -3   3    7.70    0.79
   7   3   3    8.13    0.93
  -7  -3  -4   -0.44    1.11
   7   3   4    0.07    0.30
   7  -3   4    0.17    0.27
   7   3   5   22.42    1.81
   7  -3   5   20.87    1.85
   7   3   5   25.95    2.64
  -7  -3  -5   27.13    3.88
   7   3   6   60.18    3.90
   7  -3   6   58.12    4.00
   7   3   6   69.91    4.87
  -7  -3  -6   72.13    6.85
   7   3   7    0.46    0.34
   7  -3   7    0.44    0.39
   7   3   7    0.86    0.61
   7   3   8   21.48    2.38
   7   3   8   23.68    2.04
   7  -3   8   24.81    2.23
   7  -3   9   28.64    2.59
   7   3   9   25.46    2.28
   7  -3  10   35.17    3.30
   7   3  10   36.34    2.99
  -7  -3 -10   30.70    4.39
  -7  -3 -11    0.86    0.99
   7  -3  11    2.17    0.96
   7   3  11    0.68    0.59
  -7  -3 -12    9.44    2.43
   7   3  12   13.85    2.02
   7   3  13   23.67    2.91
  -7  -3 -13   15.77    3.20
   7   3  14  197.43   11.85
  -7  -3 -14  114.79   11.79
  -7  -3 -15   28.38    4.12
  -7  -3 -16    7.80    2.27
  -7  -3 -17   -0.40    0.93
  -7  -3 -18    0.40    0.91
   7  -4 -14    5.77    1.79
   7   4 -14    4.85    0.83
   7   4 -13   44.61    2.95
   7  -4 -13   32.54    4.23
  -7   4  12   -0.97    0.72
   7   4 -12    0.42    0.38
   7  -4 -12    0.96    0.93
   7   4 -12   -0.08    0.45
  -7   4  11    5.36    0.96
   7   4 -11    4.17    0.85
   7  -4 -11    2.69    1.21
   7   4 -11    4.47    0.74
   7   4 -10    0.13    0.35
   7  -4 -10    0.19    0.56
  -7   4  10   -0.12    0.51
   7   4 -10   -0.12    0.38
   7  -4 -10    0.27    0.69
  -7   4   9    8.71    1.29
   7   4  -9    7.78    1.22
   7   4  -9   10.93    1.05
   7  -4  -9   10.83    1.24
   7  -4  -9    9.87    1.89
   7   4  -8   20.91    2.17
  -7   4   8   28.78    2.36
   7  -4  -8   16.84    2.52
   7   4  -8   24.33    1.77
   7  -4  -8   27.49    2.02
   7   4  -7   66.10    4.85
  -7   4   7   76.00    4.87
   7  -4  -7   59.87    5.28
   7   4  -7   68.99    4.21
  -7  -4   6    0.65    1.34
   7   4  -6    0.15    0.28
   7  -4  -6    0.21    0.40
   7   4  -6    0.14    0.42
   7  -4  -6    0.18    0.56
  -7  -4   5   39.04    6.01
   7   4  -5   48.73    2.92
   7   4  -4   16.31    1.19
   7  -4  -4   18.78    1.38
  -7  -4   3    1.72    1.67
   7   4  -3    0.64    0.30
   7  -4  -3    1.12    0.39
   7  -4  -3    0.35    0.52
  -7  -4   2    7.18    2.49
   7  -4  -2    3.68    0.78
   7   4  -2    6.85    0.67
   7  -4  -2    7.75    0.81
   7   4  -1   12.17    0.94
   7  -4  -1   14.14    1.08
  -7  -4   1   12.34    3.02
   7  -4   0    2.12    0.42
   7   4   0    2.17    0.37
   7  -4   1   80.39    4.24
   7   4   1   68.33    4.04
  -7  -4  -2    4.09    1.83
   7  -4   2    2.95    0.51
   7   4   2    3.21    0.45
  -7  -4  -3   11.73    2.73
   7  -4   3   10.93    0.99
   7   4   3   10.75    0.89
  -7  -4  -4   -0.51    1.05
   7  -4   4    0.05    0.23
   7   4   4   -0.15    0.21
  -7  -4  -5   24.25    4.10
   7  -4   5   21.57    1.51
   7   4   5   19.21    1.37
  -7  -4  -6   22.35    4.04
   7  -4   6   25.83    1.81
   7   4   6   26.60    1.70
  -7  -4  -7  129.99   11.06
   7   4   7  126.16    7.27
   7  -4   7  140.07    7.60
   7   4   8    6.63    0.85
   7  -4   8    7.95    1.09
  -7  -4  -9    0.53    1.22
   7   4   9    0.31    0.37
   7  -4   9    0.12    0.56
   7   4  10    3.88    0.74
   7   4  11    1.56    0.55
   7   4  11    2.46    0.62
   7   4  12    8.27    1.18
   7   4  13   47.46    3.59
   7   4  14    1.22    0.67
   7   4  15    3.13    1.05
  -7  -5   6    1.44    2.46
  -7  -5   5   22.41    4.66
  -7  -5   4    1.96    1.91
   7  -5   0    4.19    1.03
   7  -5   1   12.65    1.68
   7  -5   2   -0.14    0.46
   7  -5   3   12.99    1.65
   7  -5   4   -0.13    0.58
   7  -5   5   18.56    1.94
   8   0 -20   40.67    3.25
   8   0 -19    0.39    0.49
   8   0 -18    2.34    0.67
   8   0 -17   -0.12    0.46
   8   0 -16   49.60    3.52
   8   0 -15    0.22    0.41
  -8   0  14   40.81    2.90
   8   0 -14   48.39    3.28
  -8   0  13   -0.08    0.25
   8   0 -13    0.09    0.32
  -8   0  12   19.03    1.59
   8   0 -12   19.63    1.72
  -8   0  11    0.07    0.19
   8   0 -11    0.26    0.25
   8   0 -10   50.51    3.33
  -8   0  10   50.38    3.23
   8   0  -9    0.40    0.25
  -8   0   9    0.22    0.34
  -8   0   9    0.92    0.67
  -8   0   9    0.42    0.27
   8   0  -8  467.79   23.75
  -8   0   8  438.93   25.20
  -8   0   8  445.89   24.05
  -8   0   7    0.68    0.45
   8   0  -7    0.16    0.27
  -8   0   7    0.22    0.59
  -8   0   6    0.24    0.42
   8   0  -6    0.46    0.35
  -8   0   6    0.21    0.52
  -8   0   5   -0.12    0.34
   8   0  -5   -0.08    0.24
  -8   0   5   -0.20    0.50
  -8   0   4  106.32    6.83
   8   0  -4  116.70    6.42
  -8   0   4  107.35    7.39
  -8   0   3    1.18    0.49
   8   0  -3    0.51    0.25
  -8   0   2  732.58   39.07
   8   0  -2  758.17   38.46
  -8   0   1    0.30    0.22
   8   0  -1    5.87    0.72
   8   0   0    6.60    1.03
  -8   0   0    5.73    1.08
   8   0   1    0.50    0.89
   8   0   1    0.12    0.34
   8   0   2   29.68    2.54
   8   0   2   23.05    3.88
   8   0   3   -0.45    1.04
   8   0   3    0.27    0.28
   8   0   4   20.32    2.04
   8   0   4   16.23    3.08
   8   0   5   -0.43    0.88
   8   0   5   -0.28    0.44
   8   0   6  385.80   20.23
   8   0   6  329.39   22.27
   8   0   7   -0.17    0.42
   8   0   7    1.22    1.19
   8   0   8   27.50    2.80
   8   0   8   27.62    3.75
   8   0   9   -0.36    0.82
   8   0   9   -0.40    0.62
   8   0  10   85.99    5.82
   8   0  10   61.49    6.09
   8   0  11   -0.29    0.74
   8   0  12  387.62   22.15
   8   0  13    0.45    0.65
   8   0  14   38.96    3.57
   8   0  15    0.35    0.53
   8   0  16    1.70    0.68
   8   0  17   -0.14    0.35
  -8   0 -17   -0.38    0.48
   8   0  18   14.08    1.61
  -8   0 -18   14.26    1.98
  -8   0 -19   -0.20    0.59
  -8   0 -20   18.94    2.42
  -8   0 -21    0.21    0.58
  -8   0 -22   10.06    1.77
  -8   0 -23    0.45    0.61
   8   1 -20   12.98    2.69
   8   1 -20   11.09    1.47
   8  -1 -20   12.16    1.55
   8   1 -19   -0.12    0.51
   8  -1 -19   -0.38    0.59
   8   1 -19    0.42    0.96
   8   1 -18   -0.44    1.01
   8   1 -18    0.12    0.42
   8  -1 -18    0.12    0.50
   8   1 -17   21.82    3.83
   8   1 -17   25.47    2.23
   8  -1 -17   29.09    2.36
   8   1 -16  109.93    6.42
   8  -1 -16  107.61    6.43
   8   1 -15   76.72    4.88
   8  -1 -15   75.47    4.88
   8   1 -15   83.23    7.90
   8   1 -14   22.11    3.85
  -8   1  14   22.91    1.79
  -8  -1  14   18.58    1.69
  -8   1  14   21.13    3.17
   8   1 -14   22.54    2.01
  -8  -1  14   18.67    2.84
   8  -1 -14   27.54    2.18
   8   1 -13   16.01    3.47
  -8   1  13   15.20    1.33
  -8  -1  13   12.84    1.27
  -8   1  13   13.51    2.50
  -8  -1  13   10.41    2.06
   8   1 -13   14.27    1.42
   8  -1 -13   14.88    1.47
   8   1 -12   14.27    3.19
  -8   1  12   14.39    1.28
  -8  -1  12   11.20    1.17
  -8   1  12   15.33    2.61
  -8  -1  12   14.93    2.42
   8   1 -12   13.17    1.33
   8  -1 -12   11.98    1.30
   8   1 -11   25.33    4.35
  -8   1  11   24.55    3.19
  -8  -1  11   23.71    3.04
  -8   1  11   23.76    1.80
  -8  -1  11   21.98    1.76
   8   1 -11   25.03    1.93
   8  -1 -11   22.87    1.89
  -8   1  10  150.52   10.09
  -8  -1  10  153.35    9.86
  -8   1  10  144.41    7.95
  -8  -1  10  142.74    7.95
   8   1 -10  156.29   12.17
   8   1 -10  143.13    8.05
   8  -1 -10  137.90    8.05
   8   1  -9  108.67    6.29
   8  -1  -9  113.91    6.37
  -8   1   9  127.29    8.35
  -8  -1   9  112.63    7.95
  -8  -1   9  107.29    6.60
   8   1  -9   99.43    9.67
  -8   1   9  103.50    6.56
   8  -1  -8   36.96    2.56
   8   1  -8   37.70    2.53
   8   1  -8   35.45    5.19
  -8   1   8   36.31    3.77
  -8  -1   8   36.00    3.72
  -8  -1   8   32.19    2.69
  -8   1   8   35.61    2.77
  -8  -1   7   12.84    1.48
  -8   1   7   14.29    1.54
   8   1  -7   12.73    3.19
   8  -1  -7   13.41    1.29
   8   1  -7   15.05    1.32
  -8   1   7   12.30    2.06
  -8  -1   6   46.59    3.55
  -8   1   6   47.31    3.55
   8  -1  -6   57.05    3.37
   8   1  -6   50.70    3.25
  -8   1   6   50.56    4.35
   8   1  -6   41.91    5.77
  -8  -1   5    8.11    1.18
   8   1  -5    6.91    2.35
  -8   1   5    7.19    1.08
   8  -1  -5    7.75    0.92
   8   1  -5    8.25    0.92
  -8   1   5    8.68    1.50
   8  -1  -4    2.80    0.56
   8   1  -4    3.15    0.55
   8   1  -4    4.65    1.92
  -8  -1   4    2.63    0.71
  -8   1   4    2.83    0.70
  -8   1   4    2.92    0.91
   8   1  -3   10.48    2.70
  -8  -1   3    7.66    1.18
  -8   1   3    7.66    1.15
   8  -1  -3    8.79    0.94
   8   1  -3    7.98    0.90
  -8   1   3    7.04    1.30
  -8   1   2  194.39   11.61
  -8  -1   2  201.67   11.73
  -8   1   2  198.73   11.86
   8  -1  -2  205.25   11.08
   8   1  -2  215.88   11.08
  -8   1   1  282.36   15.70
  -8  -1   1  280.39   15.80
  -8   1   1  284.79   15.76
   8  -1  -1  295.69   14.98
   8   1  -1  269.45   14.89
  -8   1   0  118.74    7.71
  -8  -1   0  115.25    7.79
  -8   1   0  125.51    7.61
   8   1   0  119.56    9.98
   8   1   0  131.57    7.41
   8  -1   0  125.28    7.39
   8   1   1    5.97    1.99
  -8   1  -1    6.79    1.12
   8   1   1    7.27    1.05
   8  -1   1    7.65    1.07
   8   1   2    0.40    0.93
   8   1   2    0.35    0.27
   8  -1   2    0.24    0.28
  -8   1  -2   -0.12    0.37
   8   1   3   29.46    2.53
   8  -1   3   29.44    2.57
  -8   1  -3   31.98    2.53
   8   1   3   30.10    4.02
   8   1   4  336.78   17.86
   8  -1   4  329.23   17.89
   8   1   4  299.52   19.88
   8   1   5  361.12   19.08
   8  -1   5  354.26   19.13
   8   1   5  320.34   20.92
   8  -1   6  219.19   12.39
   8   1   6  219.39   12.30
   8   1   6  199.42   13.88
   8  -1   7   13.80    2.73
   8  -1   7   13.98    1.85
   8   1   7   14.85    1.85
   8   1   7   14.22    2.44
   8  -1   8    6.45    2.00
   8   1   8    3.15    1.17
   8  -1   8    5.84    1.14
   8   1   8    5.47    1.11
   8  -1   9   12.38    2.67
   8  -1   9   14.93    2.03
   8   1   9   15.68    1.99
   8   1   9   11.34    2.07
   8  -1  10   -0.42    1.13
   8   1  10    0.73    0.71
   8  -1  10    0.22    0.60
   8   1  10    0.62    0.64
   8  -1  11    6.09    1.98
   8   1  11    5.52    1.37
   8  -1  12   17.05    2.97
   8   1  12   12.75    1.92
   8   1  13   41.70    3.70
  -8   1 -13   40.53    3.01
   8  -1  13   49.40    4.73
   8   1  14   49.70    4.13
  -8   1 -14   52.90    3.70
   8  -1  14   61.66    5.08
   8   1  15   14.69    1.90
  -8   1 -15   15.80    1.71
   8  -1  15   19.07    2.38
   8  -1  16    0.33    0.60
   8   1  16    1.48    0.59
  -8   1 -16    1.62    0.59
   8   1  17    0.83    0.52
  -8   1 -17    1.32    0.61
   8   1  18   29.26    2.66
  -8   1 -18   35.43    2.88
   8   1  19   38.06    3.17
  -8  -1 -19   40.91    4.37
  -8   1 -19   49.83    3.55
  -8  -1 -20   60.28    5.64
  -8   1 -20   68.10    4.67
  -8  -1 -21   13.74    2.44
  -8  -1 -22    0.91    0.83
  -8  -1 -23    0.31    0.77
   8   2 -19   14.75    1.68
   8  -2 -19   18.85    1.88
   8   2 -18   -0.11    0.49
   8  -2 -18    0.23    0.49
   8   2 -18   -0.26    0.85
   8  -2 -18   -0.45    1.04
   8  -2 -17   61.97    6.19
   8   2 -17   51.93    3.72
   8  -2 -17   56.97    3.86
   8   2 -17   53.90    5.06
   8   2 -16    1.11    0.50
   8  -2 -16    0.73    0.45
   8   2 -16    0.87    0.99
   8  -2 -16   -0.41    0.93
   8   2 -15    2.11    1.25
   8   2 -15    2.18    0.57
   8  -2 -15    2.18    0.59
   8  -2 -15    2.68    1.42
   8   2 -14    2.81    1.21
   8   2 -14    3.09    0.65
   8  -2 -14    2.29    0.59
  -8  -2  14    2.71    0.56
   8  -2 -14    4.30    1.53
  -8   2  13   34.10    4.19
   8  -2 -13   35.89    4.10
  -8   2  13   32.77    2.33
  -8  -2  13   29.64    2.29
   8   2 -13   37.30    2.59
   8  -2 -13   35.82    2.62
   8   2 -13   39.26    4.20
  -8   2  12    0.75    0.29
   8   2 -12    0.33    0.95
   8   2 -12    0.53    0.31
   8  -2 -12    0.09    0.26
  -8   2  12    0.33    0.89
  -8  -2  12    0.34    0.25
   8  -2 -12    0.31    0.65
  -8  -2  12    0.92    0.84
  -8  -2  11    0.87    0.45
  -8   2  11    1.17    0.43
   8   2 -11    1.66    1.18
   8   2 -11    1.34    0.43
   8  -2 -11    1.82    0.50
  -8   2  11    1.24    0.96
  -8  -2  11    0.92    1.05
   8  -2 -11    0.88    0.80
  -8  -2  10    2.26    0.62
  -8   2  10    1.59    0.57
   8   2 -10    2.68    1.38
  -8   2  10    2.64    1.09
   8   2 -10    2.67    0.56
   8  -2 -10    2.27    0.50
  -8  -2  10    2.72    1.21
   8  -2 -10    2.46    1.09
  -8   2   9  310.54   16.47
   8  -2  -9  271.79   15.92
  -8  -2   9  312.47   16.63
   8   2  -9  252.06   16.41
   8   2  -9  269.56   13.99
   8  -2  -9  254.79   13.98
  -8  -2   9  242.97   14.29
  -8   2   9  253.74   14.30
  -8  -2   8   12.35    1.45
  -8   2   8   13.01    1.45
   8   2  -8   12.63    1.19
   8  -2  -8   11.79    1.20
   8   2  -8   12.51    2.44
  -8   2   8   12.87    2.17
   8  -2  -8   13.17    2.08
  -8  -2   7  101.73    6.24
  -8   2   7   98.65    6.17
   8  -2  -7  103.42    5.83
   8   2  -7  102.01    5.77
  -8   2   7  111.34    7.56
   8   2  -7   80.89    7.55
   8   2  -6    1.69    1.10
   8  -2  -6    1.69    0.44
   8   2  -6    2.55    0.50
  -8  -2   6    1.77    0.64
  -8   2   6    1.38    0.57
  -8   2   6    2.78    1.04
   8  -2  -5    8.46    0.92
   8   2  -5    6.19    0.78
   8   2  -5    8.07    2.02
  -8  -2   5    7.67    1.12
  -8   2   5    6.36    1.03
  -8   2   5    6.04    1.41
   8   2  -4    0.67    0.84
  -8  -2   4    1.24    0.60
  -8   2   4    2.24    0.70
  -8   2   4    2.18    0.89
   8  -2  -4    1.03    0.41
   8   2  -4    1.77    0.45
  -8   2   3  350.73   20.04
  -8  -2   3  356.54   20.18
   8  -2  -3  371.11   19.49
   8   2  -3  386.23   19.47
  -8   2   3  399.63   20.83
   8   2  -3  381.39   22.21
  -8   2   2   48.50    3.67
  -8  -2   2   48.64    3.79
  -8   2   2   46.12    3.84
   8  -2  -2   47.93    3.10
   8   2  -2   51.03    3.09
   8   2  -2   56.33    5.25
  -8   2   1  162.42    9.75
  -8  -2   1  144.57    9.75
   8  -2  -1  157.02    8.99
   8   2  -1  175.30    9.00
   8   2  -1  167.46   11.35
   8   2   0    2.47    0.46
  -8   2   0    2.39    0.69
   8  -2   0    2.77    0.48
  -8   2  -1   62.96    3.98
   8  -2   1   52.96    3.40
   8   2   1   54.56    3.38
  -8  -2  -2    0.50    0.89
   8   2   2    0.19    0.31
   8  -2   2    1.02    0.43
  -8   2  -2    0.10    0.27
  -8  -2  -3   -0.49    1.00
   8   2   3    0.40    0.34
   8  -2   3    0.85    0.39
   8   2   3    0.28    0.58
  -8   2  -3    0.80    0.36
  -8  -2  -4    1.88    1.37
   8   2   4    2.42    0.61
   8  -2   4    2.60    0.65
   8   2   4    3.54    1.16
  -8   2  -4    1.64    0.41
   8   2   5   86.66    6.76
   8   2   5   95.82    5.64
   8  -2   5   82.85    5.59
   8   2   6    7.15    1.61
   8   2   6    7.06    1.08
   8  -2   6    8.32    1.21
   8   2   7  201.47   12.89
   8  -2   7  216.89   12.15
   8   2   7  212.64   11.99
  -8  -2  -8    0.87    1.09
   8   2   8    0.22    0.65
   8  -2   8    0.16    0.46
   8   2   8    0.14    0.44
  -8  -2  -9    1.28    1.08
   8   2   9    0.21    0.54
   8  -2   9    1.13    0.78
   8   2   9    1.85    0.73
  -8  -2 -10   -0.42    0.96
   8   2  10    0.20    0.55
   8  -2  10    0.22    0.59
   8   2  10   -0.19    0.68
   8   2  11  143.55   10.30
   8  -2  11  239.90   11.89
   8   2  11  222.04   11.37
   8  -2  11  139.06   11.43
  -8  -2 -11  141.32   11.91
   8   2  12   16.27    2.15
  -8  -2 -12   13.45    2.85
   8  -2  12   20.24    3.29
   8  -2  12   26.24    3.20
   8   2  12   25.26    2.88
   8   2  13  194.78   13.33
   8  -2  13  357.55   16.19
   8   2  13  292.52   15.06
  -8  -2 -13  176.14   14.85
   8  -2  13  254.84   15.83
  -8  -2 -14    0.79    1.14
   8  -2  14    0.36    1.17
  -8  -2 -15    1.54    1.31
  -8  -2 -16    0.38    1.22
  -8  -2 -17    3.67    1.65
  -8  -2 -18   -0.36    0.97
  -8  -2 -19    0.35    0.88
  -8  -2 -20    0.69    0.94
  -8  -2 -21   18.62    3.00
  -8  -2 -22    1.00    1.14
   8   3 -18    0.57    0.50
   8  -3 -18    1.13    0.62
   8   3 -17   27.48    2.32
   8  -3 -17   27.14    2.38
   8   3 -16   20.63    1.91
   8  -3 -16   22.94    2.04
   8  -3 -16   17.66    3.24
   8   3 -15   88.54    5.87
   8  -3 -15   91.14    7.74
   8   3 -15   82.97    5.24
   8  -3 -15   85.35    5.36
   8   3 -14    6.25    0.89
   8  -3 -14    3.87    0.81
   8   3 -14    3.96    1.07
   8  -3 -14    5.72    1.81
   8   3 -13    4.83    0.77
  -8  -3  13    4.55    0.94
  -8   3  13    3.89    0.85
   8  -3 -13    4.27    0.79
   8   3 -13    4.46    1.10
  -8  -3  12    0.61    0.50
  -8   3  12    1.36    0.59
   8   3 -12    0.40    0.41
   8  -3 -12    0.53    0.42
   8   3 -12    0.53    0.55
   8  -3 -12    0.34    0.99
  -8  -3  11    6.36    1.12
  -8   3  11    6.06    1.07
   8   3 -11    5.16    1.24
   8  -3 -11    6.50    0.93
   8   3 -11    7.57    0.95
   8  -3 -11    4.12    1.42
   8   3 -10   15.74    2.15
  -8  -3  10   17.75    1.93
  -8   3  10   19.35    1.91
   8   3 -10   20.21    1.68
   8  -3 -10   21.48    1.77
   8  -3 -10   15.59    2.56
   8   3  -9   95.19    6.99
  -8  -3   9  113.60    6.67
  -8   3   9  104.86    6.47
   8  -3  -9  102.00    7.67
   8   3  -9  103.03    5.99
   8  -3  -9  107.68    6.09
   8   3  -8    4.98    1.22
  -8  -3   8    4.08    0.95
  -8   3   8    4.51    0.90
   8  -3  -8    4.88    0.71
   8   3  -8    4.77    0.69
   8  -3  -8    6.74    1.47
  -8  -3   7   13.05    1.61
  -8   3   7   11.58    1.44
   8   3  -7   10.78    1.78
   8  -3  -7   15.76    2.21
   8   3  -7   11.90    1.14
   8  -3  -7   14.43    1.26
   8  -3  -6    5.37    0.72
   8   3  -6    5.34    0.68
   8   3  -6    5.59    1.29
  -8   3   6    5.18    0.96
  -8  -3   6    5.41    1.03
   8  -3  -6    4.51    1.20
   8  -3  -5    6.94    0.80
   8   3  -5    6.26    0.75
   8   3  -5    4.00    1.15
  -8   3   5    6.16    1.06
  -8  -3   5    6.96    1.17
   8  -3  -5    6.00    1.27
   8  -3  -4    2.04    0.44
   8   3  -4    1.32    0.35
   8   3  -4    1.49    0.73
  -8   3   4    1.45    0.60
  -8  -3   4    1.65    0.66
   8   3  -3   21.14    2.68
  -8   3   3   23.44    2.28
  -8  -3   3   23.22    2.38
   8  -3  -3   26.25    1.88
   8   3  -3   27.35    1.83
   8   3  -2   20.52    2.61
  -8  -3   2   22.22    4.37
   8  -3  -2   22.90    1.74
   8   3  -2   24.44    1.70
   8   3  -1  172.55   10.99
   8  -3  -1  171.98    9.47
   8   3  -1  180.91    9.44
  -8  -3   1  171.60   13.65
   8   3   0   43.34    4.07
  -8  -3   0   39.90    5.68
   8  -3   0   46.56    2.93
   8   3   0   48.00    2.87
  -8  -3  -1    8.50    2.53
   8   3   1    7.27    1.47
   8  -3   1    6.50    0.75
   8   3   1    7.43    0.75
  -8  -3  -2    4.68    2.15
   8   3   2    6.80    1.43
   8  -3   2    4.32    0.59
   8   3   2    4.76    0.61
  -8  -3  -3   18.33    3.57
   8  -3   3   15.78    1.33
   8   3   3   17.43    1.30
  -8  -3  -4   29.95    4.49
   8   3   4   29.75    2.24
   8  -3   4   30.09    2.35
  -8  -3  -5  272.43   17.86
   8   3   5  256.67   13.82
   8  -3   5  255.11   13.95
   8   3   6   24.49    2.01
   8  -3   6   24.96    2.13
  -8  -3  -6   19.01    3.71
   8   3   7    3.49    0.70
   8  -3   7    5.22    0.92
   8   3   8    0.44    0.43
   8  -3   8    1.34    0.59
   8   3   9    4.29    0.89
   8  -3   9    3.54    0.93
  -8  -3 -10    0.95    1.09
   8  -3  10    0.18    0.68
   8   3  10    1.82    0.66
  -8  -3 -11    1.42    1.29
   8  -3  11    0.91    0.91
   8   3  11    1.65    0.74
  -8  -3 -12    1.40    1.18
   8  -3  12    2.36    1.18
   8   3  12    3.78    1.15
   8   3  13   62.17    5.07
  -8  -3 -13   38.76    5.58
   8  -3  14   48.71    5.59
   8   3  14   33.61    3.73
  -8  -3 -15    7.58    2.31
   8   3  15   16.80    2.68
  -8  -3 -16    0.87    1.35
   8  -3  16   -0.73    2.26
   8   3  16   -0.67    1.09
   8  -3  17    5.02    3.75
   8   3  17    2.13    1.37
   8  -3  18   40.65    7.08
   8   3  18   11.54    2.62
   8   4 -14   24.22    2.06
   8  -4 -13    1.91    1.10
   8   4 -13    2.95    0.65
   8   4 -12    1.57    0.50
   8  -4 -12    0.59    0.75
   8   4 -11    0.15    0.36
   8  -4 -11    0.27    0.79
  -8   4  10   26.52    2.46
   8  -4 -10   20.71    2.82
   8   4 -10   25.83    1.95
  -8   4   9   12.96    1.64
   8   4  -9   12.58    1.20
   8  -4  -9    8.37    1.67
  -8   4   8  128.26    7.64
   8   4  -8  119.68    6.82
   8  -4  -8  145.58    7.23
   8   4  -7    3.65    0.64
   8  -4  -7    4.95    0.85
  -8   4   7    3.75    0.97
   8  -4  -7    3.07    1.05
   8   4  -6    2.11    0.54
   8  -4  -6    2.13    0.66
   8  -4  -6    2.07    0.74
   8   4  -5    0.11    0.28
   8  -4  -5    0.60    0.42
   8  -4  -5    0.14    0.47
  -8  -4   4    9.12    3.10
   8   4  -4   10.62    0.96
   8  -4  -4   11.16    1.11
   8  -4  -4    5.01    1.02
  -8  -4   3   16.29    3.73
   8   4  -3   15.56    1.26
   8  -4  -3   16.75    1.43
   8   4  -2  134.59    7.42
   8  -4  -2  143.97    7.62
  -8  -4   2  116.97   11.35
   8  -4  -1   13.26    1.19
   8   4  -1   12.26    1.05
  -8  -4   1    9.48    2.86
  -8  -4   0    1.17    1.99
   8  -4   0    0.38    0.34
   8   4   0    0.49    0.25
  -8  -4  -1    0.57    1.18
   8  -4   1    1.35    0.43
   8   4   1    2.07    0.40
  -8  -4  -2    3.40    1.85
   8  -4   2    4.83    0.69
   8   4   2    3.50    0.52
   8  -4   3    0.65    0.34
   8   4   3    0.55    0.24
  -8  -4  -3    0.56    1.16
  -8  -4  -4    0.57    1.16
   8  -4   4    0.23    0.26
   8   4   4    0.31    0.19
  -8  -4  -5    6.80    2.50
   8  -4   5    6.82    0.80
   8   4   5    7.03    0.71
   8  -4   6   84.47    4.61
   8   4   6   74.48    4.40
  -8  -4  -6   82.19    8.49
  -8  -4  -7    3.46    1.97
   8  -4   7    2.56    0.53
   8   4   7    2.91    0.59
   8  -4   7    4.42    0.79
  -8  -4  -8   13.99    3.38
   8   4   8   16.24    1.47
   8   4   9    0.58    0.36
   8   4  10    4.18    0.80
   8   4  11   15.70    1.64
   8   4  12  137.83    8.15
   8   4  13   13.39    1.69
   8   4  14    7.99    1.39
   8  -5   4   59.24    4.21
   9   0 -19   60.66    4.31
   9   0 -18    0.13    0.50
   9   0 -17  247.63   13.73
   9   0 -16    0.12    0.40
   9   0 -15    0.49    0.47
   9   0 -14    0.32    0.27
  -9   0  13    9.78    1.11
   9   0 -13   10.09    1.21
   9   0 -12    0.10    0.28
  -9   0  12   -0.30    0.82
  -9   0  12    0.24    0.27
  -9   0  11    5.03    0.94
  -9   0  11    7.82    1.68
   9   0 -11    6.06    0.88
  -9   0  10    0.25    0.41
  -9   0  10    0.26    0.66
   9   0 -10    0.18    0.28
   9   0  -9  188.14   10.53
  -9   0   9  196.60   12.17
  -9   0   9  191.72   10.91
   9   0  -8   -0.09    0.27
  -9   0   8    0.13    0.38
  -9   0   8    0.25    0.63
  -9   0   7   33.15    2.77
   9   0  -7   33.33    2.43
  -9   0   7   26.88    3.18
  -9   0   6    0.14    0.32
   9   0  -6    0.09    0.26
  -9   0   6    0.23    0.62
  -9   0   5   87.32    5.77
   9   0  -5   85.88    5.24
  -9   0   5   89.36    6.44
   9   0  -4    0.43    0.32
  -9   0   4    0.86    0.70
  -9   0   3  970.38   51.52
   9   0  -3  995.80   50.82
  -9   0   3 1016.90   52.16
   9   0  -2    0.51    0.29
  -9   0   2    0.81    0.50
  -9   0   1   64.67    4.82
   9   0  -1   64.52    4.07
   9   0   0    0.60    1.08
   9   0   0    0.27    0.36
  -9   0   0    0.19    0.38
   9   0   1    0.57    1.01
   9   0   1    0.41    0.31
   9   0   2    0.54    1.23
   9   0   2    0.41    0.38
   9   0   3  207.83   11.57
   9   0   3  174.04   14.27
   9   0   4    0.49    1.00
   9   0   4    0.15    0.34
   9   0   5    1.41    1.28
   9   0   5    1.98    0.69
   9   0   6   -0.45    1.14
   9   0   6   -0.16    0.40
   9   0   7   36.08    3.16
   9   0   7   32.58    4.53
   9   0   8   -0.83    1.21
   9   0   8    0.37    0.43
   9   0   9    0.39    0.91
   9   0   9   -0.20    0.59
   9   0  10    0.37    0.93
   9   0  10    0.22    0.60
   9   0  11  411.29   21.52
   9   0  11  329.55   21.83
   9   0  12    0.62    0.95
   9   0  12   -0.25    0.73
   9   0  13   46.11    4.46
   9   0  14   -0.24    0.66
   9   0  15    7.59    1.58
   9   0  16    0.19    0.47
   9   0  17   44.97    3.82
  -9   0 -17   50.71    4.18
  -9   0 -18    0.40    0.55
  -9   0 -19   13.15    1.98
  -9   0 -20   -0.21    0.61
  -9   0 -21    0.21    0.58
  -9   0 -22   -0.22    0.55
   9   1 -19    0.85    1.32
   9   1 -18    0.45    0.80
   9   1 -18    0.85    0.50
   9  -1 -18    0.62    0.50
   9   1 -17   53.67    3.57
   9  -1 -17   47.46    3.49
   9   1 -16   43.02    3.17
   9  -1 -16   43.64    3.19
   9   1 -15   38.86    3.00
   9  -1 -15   40.82    3.09
   9   1 -15   34.95    5.12
   9   1 -14    7.44    2.44
   9   1 -14   11.21    1.29
   9  -1 -14   10.52    1.27
   9   1 -13   -0.55    1.50
   9   1 -13    1.07    0.44
   9  -1 -13    0.81    0.40
   9   1 -12   30.56    4.94
  -9   1  12   34.42    4.06
  -9  -1  12   34.67    3.93
  -9   1  12   33.06    2.37
   9   1 -12   33.93    2.52
   9  -1 -12   31.86    2.50
  -9  -1  12   30.99    2.66
  -9   1  12   32.78    2.69
  -9  -1  11  216.91   13.14
  -9   1  11  273.50   15.52
  -9  -1  11  258.22   15.21
   9   1 -11  251.28   17.57
  -9   1  11  225.32   13.19
   9   1 -11  241.78   12.92
   9  -1 -11  244.70   12.98
   9  -1 -10  200.37   11.09
   9   1 -10  197.23   11.03
  -9   1  10  235.11   13.57
  -9  -1  10  227.17   13.33
   9   1 -10  189.76   15.27
  -9  -1  10  201.03   11.42
  -9   1  10  193.65   11.37
   9  -1  -9  158.25    8.65
   9   1  -9  160.68    8.62
  -9   1   9  163.46   10.56
   9   1  -9  154.63   12.91
  -9  -1   9  138.90    8.85
  -9   1   9  145.58    8.88
  -9   1   8    9.53    1.31
   9  -1  -8    8.34    1.03
   9   1  -8    8.58    1.02
   9   1  -8    8.58    2.85
  -9  -1   8    6.80    1.15
  -9   1   8   10.28    1.89
  -9  -1   7    1.34    0.54
  -9   1   7    0.80    0.55
   9  -1  -7    1.67    0.46
   9   1  -7    1.34    0.38
  -9   1   7    0.25    0.51
   9   1  -6    5.44    2.43
   9  -1  -6    6.55    0.89
   9   1  -6    6.14    0.85
  -9  -1   6    8.13    1.24
  -9   1   6    6.41    1.14
  -9   1   6    6.61    1.45
  -9  -1   5   40.62    3.41
  -9   1   5   42.89    3.44
   9  -1  -5   45.29    3.06
   9   1  -5   47.60    3.05
  -9   1   5   43.18    3.92
   9   1  -5   47.52    6.18
  -9  -1   4   14.97    1.79
  -9   1   4   13.37    1.70
   9   1  -4   14.44    3.35
   9  -1  -4   18.20    1.54
   9   1  -4   17.13    1.49
  -9   1   4   15.53    2.06
   9   1  -3   -0.56    1.40
  -9   1   3    0.58    0.47
  -9  -1   3    1.35    0.62
   9  -1  -3    0.58    0.27
   9   1  -3    2.05    0.48
  -9   1   3    0.91    0.62
  -9   1   2   26.34    2.65
  -9  -1   2   26.12    2.71
  -9   1   2   33.49    2.99
   9  -1  -2   30.40    2.24
   9   1  -2   31.63    2.24
  -9   1   1   72.49    5.27
  -9  -1   1   75.55    5.41
  -9   1   1   82.19    5.46
   9  -1  -1   74.95    4.59
   9   1  -1   73.37    4.54
   9   1   0    6.86    2.30
  -9   1   0    7.70    1.35
  -9  -1   0    8.62    1.47
   9  -1   0    9.53    1.06
   9   1   0   10.32    1.06
  -9   1   0    9.74    1.47
   9   1   1    1.86    1.44
   9   1   1    1.86    0.60
   9  -1   1    1.41    0.56
  -9   1  -1    1.63    0.69
   9   1   2   21.61    3.65
  -9   1  -2   23.03    2.24
   9   1   2   21.79    2.09
   9  -1   2   21.23    2.10
   9   1   3  200.00   11.20
   9  -1   3  182.56   11.14
  -9   1  -3  205.83   11.25
   9   1   3  188.26   13.59
   9   1   4  262.10   15.18
   9  -1   4  287.46   15.35
   9   1   4  274.96   17.70
   9   1   5  308.13   16.68
   9  -1   5  306.61   16.74
   9   1   5  272.96   18.64
   9   1   6   17.80    1.97
   9  -1   6   22.49    2.21
   9  -1   6   12.75    3.02
   9   1   6   16.80    2.91
   9  -1   7    4.97    1.99
   9   1   7    5.90    1.66
   9  -1   7    6.29    1.19
   9   1   7    6.55    1.17
   9  -1   8    1.78    1.21
   9   1   8    1.30    1.06
   9  -1   8    2.36    0.82
   9   1   8    2.56    0.83
   9  -1   9   21.58    2.42
   9   1   9   18.68    2.23
   9  -1   9   11.97    2.80
   9   1   9   15.13    2.52
   9  -1  10   56.30    4.55
   9   1  10   55.92    4.43
   9  -1  10   39.66    5.17
   9   1  10   45.63    4.61
   9   1  11   57.12    5.48
   9  -1  11   86.26    6.08
   9   1  11   81.78    5.87
   9  -1  11   63.02    6.71
   9  -1  12    0.40    1.16
   9   1  12   -0.24    0.60
   9  -1  12    0.54    0.62
   9   1  12    1.53    0.83
   9  -1  13    4.31    1.67
   9   1  13    4.40    1.19
   9  -1  13    5.31    1.53
   9   1  13    3.74    1.25
   9  -1  14    1.25    0.97
   9   1  14    0.20    0.56
  -9   1 -14    0.66    0.42
   9  -1  15    4.48    1.23
   9   1  15    3.79    1.09
  -9   1 -15    4.46    0.85
   9   1  16    3.49    0.97
  -9   1 -16    3.94    0.85
   9   1  17    3.50    0.94
  -9   1 -17    2.86    0.75
  -9   1 -18   34.76    2.94
  -9   1 -19   41.04    3.30
  -9  -1 -20    3.74    1.37
  -9  -1 -21    1.23    0.90
  -9  -1 -22    1.56    1.06
   9   2 -18  144.98    8.25
   9  -2 -18  134.10    8.24
   9   2 -17    5.63    0.97
   9  -2 -17    4.51    0.92
   9   2 -17    6.36    1.96
   9   2 -16   54.08    3.57
   9  -2 -16   45.19    3.46
   9   2 -16   54.75    5.44
   9   2 -15    1.81    1.24
   9   2 -15    1.70    0.57
   9  -2 -15    1.48    0.54
   9   2 -14    1.50    1.23
   9   2 -14    2.95    0.67
   9  -2 -14    3.43    0.77
   9   2 -13    0.39    1.05
   9   2 -13   -0.10    0.38
   9  -2 -13   -0.11    0.36
   9   2 -12   18.35    3.16
  -9   2  12   18.88    2.95
   9   2 -12   18.78    1.65
   9  -2 -12   18.78    1.68
  -9  -2  12   15.37    1.75
  -9   2  12   16.96    1.81
   9   2 -11    0.40    1.15
  -9  -2  11    0.36    0.40
  -9   2  11    0.36    0.35
   9   2 -11    1.10    0.39
   9  -2 -11    1.07    0.40
  -9   2  11   -0.32    1.05
  -9  -2  10   23.69    2.22
  -9   2  10   21.77    2.14
   9   2 -10   23.87    3.59
  -9   2  10   21.00    3.06
   9   2 -10   28.08    2.01
   9  -2 -10   24.13    1.96
   9   2  -9    1.20    1.31
  -9  -2   9    2.40    0.77
  -9   2   9    1.11    0.55
  -9   2   9    1.76    0.96
   9   2  -9    2.73    0.56
   9  -2  -9    3.09    0.64
  -9  -2   9    4.48    1.58
  -9  -2   8   86.39    5.71
  -9   2   8   87.23    5.70
   9  -2  -8   89.02    5.30
   9   2  -8   88.10    5.24
  -9   2   8  100.46    7.18
   9   2  -8   92.74    7.84
   9  -2  -7    0.08    0.31
   9   2  -7   -0.07    0.25
   9   2  -7    0.40    1.08
  -9  -2   7    0.80    0.60
  -9   2   7    0.13    0.44
  -9   2   7   -0.53    0.85
   9  -2  -6    6.52    0.84
   9   2  -6    4.74    1.79
   9   2  -6    4.12    0.67
  -9  -2   6    5.10    1.00
  -9   2   6    3.78    0.89
  -9   2   6    5.17    1.34
   9   2  -5    8.95    2.26
   9  -2  -5    8.44    1.00
   9   2  -5    9.36    0.98
  -9  -2   5    7.18    1.22
  -9   2   5    5.31    1.07
  -9   2   5    6.92    1.49
  -9   2   4  349.46   19.93
  -9  -2   4  353.20   20.03
   9  -2  -4  373.83   19.36
   9   2  -4  375.22   19.30
  -9   2   4  398.99   20.94
   9   2  -4  349.98   22.19
  -9   2   3   10.00    1.45
  -9  -2   3   11.23    1.60
   9   2  -3   12.82    2.58
   9  -2  -3   12.88    1.23
   9   2  -3   11.28    1.13
  -9   2   3   12.82    1.88
  -9   2   2  296.22   17.02
  -9  -2   2  289.96   17.15
  -9   2   2  347.74   17.60
   9  -2  -2  294.78   16.21
   9   2  -2  321.83   16.22
   9   2  -2  295.03   18.96
   9   2  -1    1.45    1.12
  -9   2   1    1.53    0.74
   9  -2  -1    1.50    0.44
   9   2  -1    2.35    0.51
   9  -2   0    0.36    0.27
  -9   2   0    0.15    0.50
   9   2   0    0.87    0.32
   9  -2   1    1.25    0.39
   9   2   1    1.46    0.37
  -9   2  -1    1.91    0.68
  -9   2  -2   68.76    4.41
   9   2   2   64.60    4.25
   9  -2   2   59.63    4.23
   9   2   3    5.68    0.91
   9  -2   3    4.00    0.82
   9   2   3    2.88    1.21
  -9   2  -3    5.94    0.93
   9   2   4   19.18    1.82
   9  -2   4   14.87    1.72
   9   2   4   13.48    2.44
  -9   2  -4   20.97    1.67
   9   2   5    0.36    0.35
   9  -2   5    0.26    0.42
   9   2   5   -0.29    0.74
  -9   2  -5   -0.06    0.23
   9   2   6   25.06    3.21
   9   2   6   28.21    2.43
   9  -2   6   30.99    2.60
  -9   2  -6   25.95    1.66
  -9  -2  -7    0.98    1.23
   9   2   7   -0.27    0.48
   9   2   7    0.54    0.46
   9  -2   7    0.59    0.48
  -9  -2  -8    2.40    1.57
   9   2   8    2.02    1.08
   9   2   8    3.72    0.92
   9  -2   8    3.78    0.94
  -9  -2  -9   -0.47    1.08
   9   2   9    0.73    0.66
   9  -2   9    1.64    0.80
   9   2   9    1.80    0.69
   9   2  10   78.89    6.27
   9  -2  10  110.88    6.73
   9   2  10   98.77    6.30
   9  -2  10   69.18    7.07
  -9  -2 -10   64.73    7.32
  -9  -2 -11   10.44    2.58
   9  -2  11    8.99    2.39
   9  -2  11   21.30    2.60
   9   2  11   18.80    2.35
   9  -2  12  262.17   13.00
   9   2  12  231.88   12.25
   9  -2  12  148.92   12.40
  -9  -2 -13   -0.44    1.27
   9  -2  13   -0.80    1.30
   9  -2  13   -0.32    1.22
   9   2  13    0.28    0.90
  -9  -2 -14    1.71    1.17
   9  -2  14    3.87    1.54
   9   2  14    3.66    1.37
  -9  -2 -15    1.25    1.06
   9  -2  15    2.31    1.53
   9   2  15    3.98    1.64
   9  -2  16   20.95    3.32
   9   2  16   16.88    2.80
  -9  -2 -17    3.59    1.55
  -9  -2 -18   29.23    4.07
   9   3 -17    8.16    1.16
   9   3 -16   71.20    4.64
   9  -3 -16   72.19    4.73
   9   3 -15   17.01    1.69
   9  -3 -15   17.37    1.79
   9  -3 -15   18.46    3.09
   9   3 -14    0.47    0.46
   9  -3 -14    0.21    0.53
   9   3 -14    0.60    0.71
   9  -3 -14    0.37    0.94
   9   3 -13    0.54    0.41
   9   3 -13    0.62    0.61
   9  -3 -13    0.29    0.48
   9  -3 -13    1.40    1.19
   9   3 -12   28.87    3.26
   9  -3 -12   36.72    4.16
   9   3 -12   35.21    2.56
   9  -3 -12   36.22    2.66
   9   3 -11   51.92    4.63
  -9  -3  11   49.71    4.08
  -9   3  11   54.41    4.04
   9  -3 -11   55.93    5.31
   9   3 -11   60.82    3.79
   9  -3 -11   62.02    3.88
   9   3 -10  214.56   13.19
  -9  -3  10  229.93   12.55
  -9   3  10  215.36   12.29
   9  -3 -10  222.98   13.75
   9   3 -10  223.66   11.79
   9  -3 -10  203.53   11.81
   9   3  -9   23.05    2.97
  -9  -3   9   29.35    2.73
  -9   3   9   28.04    2.56
   9  -3  -9   32.51    3.46
   9   3  -9   30.26    2.17
   9  -3  -9   30.00    2.25
   9   3  -8    6.40    1.47
  -9  -3   8    5.72    1.17
  -9   3   8    4.84    1.02
   9   3  -8    5.06    0.76
   9  -3  -8    5.88    0.82
   9   3  -7    1.69    0.83
  -9   3   7    2.16    0.74
  -9  -3   7    2.12    0.79
   9   3  -7    1.81    0.45
   9  -3  -7    2.30    0.54
   9   3  -6   -0.97    0.61
  -9   3   6   -0.14    0.59
  -9  -3   6   -0.48    0.58
   9   3  -6    0.20    0.25
   9  -3  -6    0.45    0.23
   9  -3  -5   16.71    1.44
   9   3  -5   16.54    1.39
  -9   3   5   15.11    1.84
  -9  -3   5   15.07    1.99
   9   3  -5   15.77    2.35
   9   3  -4   31.54    3.44
   9  -3  -4   32.77    2.29
   9   3  -4   32.74    2.24
  -9   3   4   29.08    2.80
  -9  -3   4   30.23    2.97
   9   3  -3   -0.25    0.73
   9  -3  -3    0.07    0.30
   9   3  -3   -0.19    0.26
   9   3  -2   32.48    3.62
   9  -3  -2   36.18    2.52
   9   3  -2   39.62    2.50
   9  -3  -1   30.33    2.17
   9   3  -1   31.26    2.13
   9  -3   0    3.18    0.55
   9   3   0    3.04    0.50
  -9  -3  -1    0.59    1.48
   9  -3   1    0.83    0.34
   9   3   1    0.68    0.24
  -9  -3  -2   11.99    3.06
   9  -3   2   12.21    1.15
   9   3   2   13.60    1.14
  -9  -3  -3   16.13    3.59
   9  -3   3   18.18    1.45
   9   3   3   17.02    1.37
   9  -3   4  210.57   11.19
  -9  -3  -4  220.78   15.74
   9   3   4  214.42   11.48
   9  -3   4  198.99   11.52
  -9  -3  -5   53.04    6.50
   9   3   5   59.57    3.84
   9  -3   5   57.63    3.93
   9   3   6   20.84    1.88
   9  -3   6   22.15    2.03
  -9  -3  -6   22.80    4.11
   9   3   7    1.82    0.57
   9  -3   7    1.52    0.64
   9   3   8    3.52    0.78
   9  -3   8    3.25    0.84
  -9  -3  -9    3.12    1.79
   9   3   9    5.24    0.99
   9  -3   9    3.41    1.01
   9   3  10   70.36    4.98
   9  -3  10   83.36    5.58
  -9  -3 -10   61.25    7.25
   9   3  11   13.63    1.78
  -9  -3 -11    8.65    2.59
   9  -3  11   15.46    2.15
  -9  -3 -12    0.50    1.03
   9  -3  12    1.08    1.11
   9   3  12    1.88    0.91
  -9  -3 -13    0.99    1.14
   9  -3  13    3.09    1.58
   9   3  13    3.33    1.15
  -9  -3 -14    1.93    1.49
   9  -3  14    0.89    1.58
   9   3  14    0.26    0.80
   9  -3  15    1.69    1.93
   9   3  15    0.30    1.01
   9  -3  16    5.61    3.47
   9   3  16    5.61    1.94
   9   3  17    0.36    1.57
   9  -4 -13    0.30    0.75
   9   4 -12    1.06    0.54
   9  -4 -12    2.21    1.14
   9   4 -11    5.36    0.82
   9  -4 -11    2.53    1.09
   9   4 -10    3.76    0.68
   9  -4 -10    2.74    1.04
   9  -4  -9   40.21    4.21
   9   4  -9   63.35    3.61
   9   4  -8    3.73    0.65
   9  -4  -8    3.45    1.04
   9   4  -7    4.80    0.75
  -9   4   7    2.04    0.96
   9   4  -6    1.71    0.50
   9   4  -5   16.25    1.39
   9   4  -4   26.01    1.89
   9   4  -3  206.41   11.29
   9  -4  -3  220.88   11.51
   9  -4  -2   27.49    2.03
   9   4  -2   25.42    1.85
   9  -4  -1   16.58    1.42
   9   4  -1   14.89    1.26
  -9  -4   0    3.13    2.15
   9  -4   0    4.90    0.74
   9   4   0    4.86    0.66
  -9  -4  -1   -0.62    1.10
   9  -4   1   -0.07    0.39
   9   4   1    0.60    0.30
   9  -4   2    2.67    0.55
   9   4   2    2.21    0.45
  -9  -4  -3   28.59    5.11
   9   4   3   42.18    2.58
  -9  -4  -4    4.28    2.10
   9   4   4    4.49    0.59
   9   4   5    5.32    0.66
   9   4   6    0.34    0.23
   9   4   7    0.82    0.31
   9   4   8   -0.17    0.37
   9   4  10    2.15    0.65
   9   4  11   51.72    3.67
   9   4  12    9.48    1.34
  10   0 -17    0.13    0.47
  10   0 -16   27.63    2.50
  10   0 -15    0.12    0.36
  10   0 -14   11.18    1.35
  10   0 -13   -0.11    0.33
  10   0 -12  140.47    8.15
 -10   0  11   -0.30    0.88
  10   0 -11    0.20    0.30
 -10   0  10    1.29    0.61
 -10   0  10    0.29    0.83
  10   0 -10    1.40    0.47
  10   0  -9    0.20    0.29
 -10   0   9   -0.15    0.53
 -10   0   9    0.82    0.93
 -10   0   8   13.24    1.71
  10   0  -8   14.39    1.46
 -10   0   8   14.53    2.31
 -10   0   7   -0.16    0.46
  10   0  -7   -0.20    0.34
 -10   0   7   -0.26    0.76
 -10   0   6    0.33    0.47
  10   0  -6   -0.20    0.42
 -10   0   6    0.25    0.82
 -10   0   5    0.66    0.57
 -10   0   5    1.23    1.01
  10   0  -5    0.58    0.32
 -10   0   4  405.15   23.10
  10   0  -4  428.31   22.43
 -10   0   4  445.78   23.95
 -10   0   3    0.54    0.49
  10   0  -3    0.28    0.28
 -10   0   3    1.14    0.70
 -10   0   2   32.39    3.09
  10   0  -2   29.51    2.34
 -10   0   2   33.39    3.27
  10   0  -1    0.55    0.36
  10   0  -1   -0.71    1.93
 -10   0   1   -0.40    0.71
  10   0   0    5.44    2.43
 -10   0   0    2.79    0.91
  10   0   0    3.72    0.67
  10   0   1    0.64    1.32
  10   0   1    0.58    0.40
  10   0   2  290.02   20.12
  10   0   2  283.78   15.84
  10   0   3   -0.57    1.67
  10   0   3    0.45    0.41
  10   0   4   27.40    2.53
  10   0   4   17.33    3.69
  10   0   5   -0.51    1.18
  10   0   5    0.16    0.37
  10   0   6    8.33    2.51
  10   0   6    8.76    1.41
  10   0   7   -0.47    0.97
  10   0   7   -0.53    0.54
  10   0   8   55.49    4.29
  10   0   8   46.96    5.60
  10   0   9    0.42    0.96
  10   0   9    0.40    0.50
  10   0  10   31.19    3.12
  10   0  10   21.57    3.56
  10   0  11    2.99    1.54
  10   0  11    0.24    0.61
  10   0  12    2.41    1.28
  10   0  12   -0.51    1.02
  10   0  13    0.31    0.85
  10   0  13   -0.55    0.80
  10   0  14  117.59    7.81
  10   0  14   78.42    6.87
  10   0  15    0.75    0.85
  10   0  15    0.31    0.90
  10   0  16   36.42    3.79
  10   0  16   58.04    5.07
 -10   0 -18   24.12    2.73
 -10   0 -19   -0.21    0.61
 -10   0 -20    0.86    0.70
  10  -1 -17    8.69    1.29
  10   1 -17    8.30    1.20
  10   1 -16    3.58    1.98
  10   1 -16    5.56    0.99
  10  -1 -16    4.10    0.89
  10   1 -15   -0.53    1.23
  10   1 -15    0.36    0.41
  10  -1 -15    1.77    0.62
  10   1 -14    2.79    1.91
  10   1 -14    4.46    0.83
  10  -1 -14    2.84    0.74
  10   1 -13    3.47    1.98
  10   1 -13    1.97    0.57
  10  -1 -13    2.17    0.64
  10   1 -12   98.25    9.98
  10   1 -12  111.05    6.65
  10  -1 -12  115.63    6.73
 -10   1  11  157.90   10.67
  10   1 -11  127.31   12.09
  10   1 -11  150.49    8.42
  10  -1 -11  143.73    8.42
 -10  -1  10  156.06    9.40
 -10   1  10  146.99    9.31
  10   1 -10  162.28    8.99
  10  -1 -10  161.22    9.03
  10   1 -10  133.97   12.73
 -10  -1   9   29.82    2.62
 -10   1   9   26.98    2.50
  10  -1  -9   24.93    2.16
  10   1  -9   25.95    2.14
  10   1  -9   22.71    4.52
 -10   1   9   27.78    3.44
  10   1  -8    2.63    2.03
  10  -1  -8    2.33    0.57
  10   1  -8    1.57    0.45
 -10  -1   8    0.90    0.54
 -10   1   8    0.89    0.59
 -10   1   8    0.28    0.65
  10   1  -7    0.66    1.67
 -10  -1   7    0.31    0.53
 -10   1   7   -0.15    0.45
  10  -1  -7    0.50    0.37
  10   1  -7    0.76    0.34
 -10   1   7   -0.26    0.86
 -10  -1   7    0.29    0.85
 -10  -1   6   67.29    4.86
 -10   1   6   67.79    4.86
  10  -1  -6   68.67    4.39
  10   1  -6   66.90    4.32
 -10   1   6   64.45    5.43
 -10  -1   6   79.18    6.05
  10   1  -6   71.38    8.14
 -10  -1   5  114.83    7.27
 -10   1   5  109.16    7.18
  10  -1  -5  111.55    6.63
  10   1  -5  112.72    6.59
 -10   1   5  112.20    7.76
  10   1  -5  129.29   11.35
 -10   1   4   71.30    5.05
 -10  -1   4   68.39    5.04
  10  -1  -4   73.73    4.51
  10   1  -4   68.88    4.41
 -10   1   4   66.27    5.34
  10   1  -4   78.31    8.44
  10   1  -3    5.53    2.20
  10   1  -3    4.58    0.75
 -10   1   3    5.06    1.12
 -10  -1   3    8.10    1.35
  10  -1  -3    5.40    0.82
 -10   1   3    4.63    1.16
 -10   1   2    0.18    0.56
 -10  -1   2   -0.19    0.64
 -10   1   2   -0.20    0.57
  10  -1  -2    0.53    0.29
  10   1  -2    0.87    0.35
 -10   1   1    0.19    0.48
 -10  -1   1    0.20    0.62
  10  -1  -1    0.71    0.30
  10   1  -1    1.55    0.42
 -10   1   1    0.94    0.61
  10   1   0   32.21    4.92
 -10   1   0   39.66    3.45
  10  -1   0   38.18    2.74
  10   1   0   40.23    2.75
  10   1   1   13.67    3.05
 -10   1  -1   10.12    1.59
  10   1   1   11.98    1.49
  10  -1   1   11.81    1.51
 -10   1  -2   15.06    1.89
  10   1   2   15.52    1.75
  10  -1   2   18.25    1.88
  10   1   3   45.17    3.65
  10  -1   3   50.33    3.79
 -10   1  -3   56.50    4.04
  10   1   3   50.56    5.71
  10   1   4   79.15    5.22
  10  -1   4   72.28    5.18
 -10   1  -4   79.82    5.27
  10   1   4   64.50    6.82
  10   1   5   15.72    1.81
  10  -1   5   16.75    1.90
  10   1   6   31.22    2.80
  10  -1   6   28.84    2.76
  10   1   6   35.84    4.36
  10   1   7   25.15    2.52
  10  -1   7   24.33    2.56
  10  -1   7   24.87    4.16
  10   1   7   26.61    3.73
  10  -1   8    4.84    1.91
  10   1   8    7.85    2.02
  10  -1   8    9.35    1.51
  10   1   8    9.15    1.46
  10  -1   9   48.91    3.91
  10   1   9   47.80    3.79
  10  -1   9   26.89    4.44
  10   1   9   33.21    4.20
  10  -1  10  113.18    7.20
  10   1  10  112.02    7.05
  10  -1  10   74.29    7.93
  10   1  10   78.82    7.22
  10  -1  11   28.80    3.22
  10   1  11   30.54    3.17
  10  -1  11   23.71    3.83
  10   1  11   17.63    2.86
  10  -1  12    0.42    1.05
  10   1  12    0.54    0.84
  10  -1  12   -0.27    0.87
  10   1  12    0.51    0.69
  10  -1  13    1.16    1.13
  10   1  13    0.25    0.81
  10  -1  13    0.87    0.94
  10   1  13    0.83    0.90
  10  -1  14    6.59    1.95
  10   1  14    6.52    1.76
 -10   1 -14    5.88    1.02
  10  -1  15   18.20    2.78
  10   1  15   19.30    2.83
  10  -1  16   25.20    3.47
  10   1  16   21.58    3.17
  10  -1  17    1.03    1.36
  10   1  17    0.35    1.23
 -10   1 -17    1.94    0.64
 -10  -1 -20   17.98    2.86
 -10  -1 -21   14.11    2.50
  10   2 -16    0.40    1.15
  10   2 -16    0.11    0.46
  10  -2 -16    0.12    0.56
  10   2 -15    0.41    1.27
  10   2 -15    0.11    0.46
  10  -2 -15    0.12    0.46
  10   2 -14   -0.43    1.24
  10   2 -14    0.12    0.49
  10  -2 -14    0.12    0.52
  10   2 -13   76.46    4.92
  10  -2 -13   79.62    5.01
  10   2 -13   82.16    7.69
  10   2 -12    4.91    1.91
  10   2 -12    6.34    0.94
  10  -2 -12    4.96    0.85
  10   2 -11   25.78    4.08
  10   2 -11   32.08    2.38
  10  -2 -11   30.51    2.41
  10   2 -10    0.45    1.15
 -10   2  10    0.32    1.00
  10   2 -10    0.44    0.34
  10  -2 -10    0.09    0.31
  10   2  -9    6.72    0.89
  10  -2  -9    6.88    0.94
  10   2  -9    7.27    2.21
 -10  -2   9    5.48    1.14
 -10   2   9    5.21    1.07
 -10   2   9    4.94    1.52
  10  -2  -8   -0.09    0.33
  10   2  -8    0.08    0.26
  10   2  -8    0.45    1.23
 -10  -2   8    0.15    0.43
 -10   2   8   -0.14    0.44
 -10   2   8   -0.29    0.67
 -10  -2   7   16.82    2.05
 -10   2   7   23.19    2.28
  10  -2  -7   23.57    1.90
  10   2  -7   22.36    1.82
  10   2  -7   18.47    3.48
 -10   2   7   27.15    3.21
  10   2  -6   -0.44    1.29
  10  -2  -6    0.81    0.41
  10   2  -6    1.25    0.40
 -10   2   6    0.15    0.57
 -10  -2   6    0.15    0.52
 -10   2   6    0.26    0.89
 -10   2   5   63.66    4.60
 -10  -2   5   61.92    4.62
  10  -2  -5   63.02    4.04
  10   2  -5   64.64    3.99
 -10   2   5   62.10    5.32
  10   2  -5   56.84    6.29
 -10   2   4   21.94    2.26
 -10  -2   4   16.08    2.06
  10   2  -4   15.04    3.01
  10  -2  -4   19.22    1.66
  10   2  -4   18.04    1.58
 -10   2   4   19.33    2.52
 -10   2   3  217.57   12.76
 -10  -2   3  210.21   12.81
  10  -2  -3  207.24   11.88
  10   2  -3  224.40   11.88
 -10   2   3  264.04   13.65
  10   2  -3  213.74   14.92
  10   2  -2   -0.41    0.94
  10  -2  -2    0.66    0.36
  10   2  -2    0.38    0.28
 -10   2   2    1.04    0.64
 -10  -2   2    0.37    0.66
 -10   2   2    0.20    0.72
  10   2  -1   10.72    2.43
  10  -2  -1    9.80    1.08
  10   2  -1   10.04    1.05
 -10   2   1    7.30    1.44
  10  -2   0    0.47    0.32
  10   2   0    0.22    0.25
 -10   2   0   -0.17    0.50
 -10   2  -1   27.77    2.62
  10  -2   1   25.45    1.99
  10   2   1   26.90    1.99
  10   2   2    5.43    1.73
 -10   2  -2    6.82    1.19
  10  -2   2    5.71    0.81
  10   2   2    6.57    0.81
  10   2   3  149.68    8.95
  10  -2   3  145.34    8.98
  10   2   3  135.75   10.64
  10   2   4    2.51    0.71
  10  -2   4    0.76    0.46
  10   2   4    3.36    1.30
 -10   2  -4    2.30    0.65
  10   2   5    1.01    0.49
  10  -2   5    0.40    0.46
 -10   2  -5    0.85    0.40
  10   2   6    0.13    0.37
  10  -2   6    0.73    0.54
 -10   2  -6    0.55    0.28
  10   2   7   28.37    2.40
  10  -2   7   26.00    2.41
  10   2   8    1.25    0.62
  10  -2   8    0.17    0.53
  10   2   9    8.00    1.43
  10  -2   9    8.68    1.47
  10  -2  10   -0.43    1.08
  10  -2  10    0.21    0.72
  10   2  10   -0.19    0.72
  10  -2  11   25.87    2.93
  10   2  11   28.88    2.93
  10  -2  12    2.49    1.42
  10  -2  12    2.72    1.19
  10   2  12    3.09    1.21
  10  -2  13   42.83    4.51
  10   2  13   42.57    4.31
  10  -2  14    0.35    1.24
  10   2  14    0.60    0.93
  10  -2  15    5.74    1.94
  10   2  15    2.96    1.49
  10  -2  16    1.24    1.59
  10   2  16    0.71    1.27
  10   3 -15    0.62    0.45
  10  -3 -15    0.56    0.52
  10   3 -14    0.49    0.47
  10  -3 -14    0.64    0.44
  10   3 -13    3.15    0.74
  10  -3 -13    1.69    0.64
  10   3 -12   12.28    1.46
  10  -3 -12   19.72    1.79
  10   3 -11  159.22    9.18
  10  -3 -11  169.00    9.31
  10   3 -10   25.88    2.08
  10  -3 -10   27.49    2.18
  10   3  -9    8.53    1.06
  10  -3  -9    8.46    1.07
 -10   3   8    2.11    0.84
 -10  -3   8    1.19    0.77
  10   3  -8    1.72    0.52
  10  -3  -8    1.38    0.48
 -10   3   7    0.80    0.68
 -10  -3   7    0.18    0.64
  10  -3  -7    1.09    0.41
  10   3  -7    1.36    0.43
  10  -3  -6   16.31    1.52
  10   3  -6   17.12    1.47
 -10   3   6   15.69    1.97
 -10  -3   6   15.77    2.18
  10  -3  -5   85.03    5.05
  10   3  -5   81.69    4.93
 -10   3   5   88.84    5.87
 -10  -3   5   80.57    5.97
  10  -3  -4    6.97    0.95
  10   3  -4    9.40    1.01
 -10   3   4    7.81    1.43
 -10  -3   4    7.27    1.49
  10  -3  -3    7.75    0.94
  10   3  -3    6.79    0.85
  10  -3  -2    0.31    0.24
  10   3  -2    0.07    0.31
  10  -3  -1    1.71    0.44
  10   3  -1    1.93    0.46
  10  -3   0    7.38    0.90
  10   3   0    7.24    0.85
  10  -3   1   13.93    1.29
  10   3   1   14.68    1.27
  10  -3   2    0.70    0.33
  10   3   2    1.31    0.38
  10  -3   3   48.28    3.14
  10   3   3   50.30    3.10
  10  -3   4   22.99    1.77
  10   3   4   22.17    1.69
 -10  -3  -5   -1.16    1.98
  10   3   5   -0.20    0.41
  10  -3   5    0.23    0.41
 -10  -3  -6    2.29    1.77
  10   3   6    3.50    0.75
  10  -3   6    2.70    0.75
  10   3   7   12.97    1.49
  10  -3   7   14.42    1.67
  10   3   8    0.62    0.56
  10  -3   8   -0.15    0.59
  10   3   9   59.04    4.17
  10  -3   9   61.41    4.50
  10   3  10   16.69    1.99
  10  -3  10   19.37    2.32
  10   3  11   26.50    2.67
  10  -3  11   30.20    3.19
  10   3  12   -0.38    0.56
  10  -3  12    0.27    0.67
  10   3  13   -0.22    0.64
  10  -3  13    0.33    1.11
  10  -3  14   20.73    3.45
  10   3  14   14.05    2.27
  10  -3  15   66.47    7.03
  10   3  15   54.38    5.16
  10   4 -10    2.58    0.61
  10   4  -9   -0.08    0.38
  10   4  -8    0.79    0.49
  10   4  -7    0.68    0.37
  10   4  -6    1.36    0.47
  10   4  -5    8.98    1.01
  10   4  -4   84.80    4.96
  10   4  -3    3.78    0.65
  10   4  -2    6.67    0.83
  10   4  -1    3.36    0.62
  10   4   0    0.37    0.41
  10   4   1    4.90    0.69
  10   4   2   57.93    3.50
  10   4   3    9.58    0.96
  10   4   4   11.49    1.05
  10   4   5    0.11    0.22
  10   4   6    1.05    0.35
  10   4   7    2.68    0.49
  10   4   9   -0.29    0.47
  10   4  10    6.50    1.03
  11   0 -15   -0.26    0.51
  11   0 -14   -0.12    0.41
  11   0 -13  170.63    9.81
  11   0 -12    0.11    0.39
  11   0 -11   39.07    2.98
  11   0 -10   -0.11    0.44
  11   0  -9    1.32    0.47
  11   0  -8    0.78    0.43
 -11   0   8    0.30    0.68
 -11   0   7   53.44    4.13
  11   0  -7   46.80    3.49
 -11   0   7   50.99    4.82
 -11   0   6    0.37    0.57
  11   0  -6    0.22    0.32
 -11   0   6   -0.55    0.75
 -11   0   5   14.23    2.00
  11   0  -5   16.77    1.71
 -11   0   5   20.86    2.71
  11   0  -4    0.11    0.33
 -11   0   4   -0.20    0.71
 -11   0   4   -0.26    0.85
  11   0  -3   34.88    6.11
 -11   0   3   32.90    3.28
  11   0  -3   32.41    2.58
 -11   0   3   35.67    3.67
  11   0  -2    1.59    2.01
 -11   0   2    0.22    0.63
  11   0  -2    0.40    0.28
 -11   0   2   -0.24    0.65
 -11   0   1  170.47   10.74
  11   0  -1  168.59    9.57
  11   0  -1  174.26   15.08
  11   0   0   -0.75    1.73
  11   0   0    0.10    0.26
  11   0   1   64.30    4.21
  11   0   1   70.50    8.38
  11   0   2   -0.68    1.21
  11   0   2   -0.15    0.28
  11   0   3   40.56    6.24
  11   0   3   59.35    4.24
  11   0   4   -0.59    1.22
  11   0   4   -0.16    0.47
  11   0   5   22.80    2.38
  11   0   5   19.46    3.82
  11   0   6   -0.53    1.21
  11   0   6   -0.18    0.54
  11   0   7   50.96    4.02
  11   0   7   38.72    5.34
  11   0   8    0.93    1.44
  11   0   8    0.19    0.49
  11   0   9   23.37    2.62
  11   0   9   18.55    3.39
  11   0  10    0.42    1.14
  11   0  10   -0.22    0.50
  11   0  11   55.83    4.57
  11   0  11   41.18    5.11
  11   0  12    0.74    1.14
  11   0  12    0.25    0.87
  11   0  13  212.42   12.02
  11   0  13  145.53   11.61
  11   0  14    0.62    1.05
  11   0  14    0.29    1.05
  11   0  15    0.62    0.96
 -11   0 -18   -0.22    0.60
 -11   0 -19   29.64    3.18
  11   1 -15   19.51    1.98
  11  -1 -15   19.55    2.00
  11   1 -14    6.82    1.10
  11  -1 -14    9.33    1.28
  11   1 -13    4.23    0.82
  11  -1 -13    3.39    0.76
  11   1 -12   24.95    2.22
  11  -1 -12   28.83    2.36
  11   1 -11   13.34    1.46
  11  -1 -11   14.14    1.55
  11  -1 -10    1.97    0.64
  11   1 -10    3.43    0.74
  11  -1  -9   47.69    3.36
  11   1  -9   45.68    3.29
  11   1  -9   35.34    5.89
 -11   1   9   49.30    4.89
  11   1  -8    9.74    3.42
  11  -1  -8   13.14    1.46
  11   1  -8   13.16    1.44
 -11   1   8   15.81    2.50
  11   1  -7    8.47    2.93
  11  -1  -7    7.71    1.12
  11   1  -7    8.09    1.10
 -11   1   7    7.41    1.78
 -11  -1   6   66.05    4.96
 -11   1   6   62.45    4.88
  11  -1  -6   64.79    4.39
  11   1  -6   69.78    4.40
 -11   1   6   74.83    5.80
 -11  -1   6   72.41    6.03
  11   1  -6   57.51    7.80
 -11   1   5  124.01    8.05
 -11  -1   5  116.00    7.99
  11  -1  -5  128.67    7.42
  11   1  -5  130.28    7.39
 -11   1   5  127.31    8.65
  11   1  -5  118.96   11.72
 -11   1   4   17.17    2.21
 -11  -1   4   15.36    2.07
  11   1  -4   16.56    3.91
  11  -1  -4   15.97    1.61
  11   1  -4   16.61    1.61
 -11   1   4   18.31    2.46
  11   1  -3   -0.67    1.69
  11  -1  -3    0.30    0.29
  11   1  -3    0.29    0.26
 -11   1   3    0.40    0.70
 -11  -1   3   -0.20    0.69
 -11   1   3    1.11    0.76
 -11   1   2   -0.41    0.87
 -11  -1   2    0.42    0.62
  11  -1  -2   -0.10    0.31
  11   1  -2    0.09    0.26
 -11   1   2    0.21    0.62
 -11   1   1    5.66    1.30
 -11  -1   1    5.50    1.32
  11  -1  -1    7.15    0.98
  11   1  -1    8.87    1.05
 -11   1   1    6.96    1.45
  11   1   0   29.73    4.88
 -11   1   0   39.09    3.39
  11  -1   0   30.60    2.42
  11   1   0   31.01    2.41
  11   1   1   14.23    3.30
 -11   1  -1   18.59    2.25
  11  -1   1   19.56    1.70
  11   1   1   16.25    1.58
  11   1   2   -0.51    1.39
  11   1   2    0.72    0.47
  11  -1   2   -0.15    0.51
 -11   1  -2    0.55    0.67
  11   1   3    0.48    1.11
  11   1   3    0.15    0.47
  11  -1   3   -0.45    0.58
 -11   1  -3    0.17    0.51
  11   1   4   21.68    2.27
  11  -1   4   25.28    2.43
  11   1   4   24.45    3.95
 -11   1  -4   24.16    2.49
  11   1   5  117.03    7.43
  11  -1   5  120.43    7.54
 -11   1  -5  131.08    7.62
  11  -1   5  100.80   10.39
  11   1   5   95.14    9.07
  11   1   6  106.16    6.68
  11  -1   6  109.22    6.81
  11  -1   6   84.72    9.02
  11   1   6   80.12    7.99
  11   1   7   34.08    3.08
  11  -1   7   34.08    3.14
  11  -1   7   24.59    4.35
  11   1   7   28.01    4.01
  11  -1   8    2.59    1.54
  11   1   8    6.78    1.35
  11  -1   8    6.99    1.41
  11   1   9   41.27    3.59
  11  -1   9   43.81    3.73
  11  -1  10   10.89    1.78
  11   1  10    9.83    1.64
  11  -1  11   18.04    2.41
  11  -1  11   15.08    3.01
  11   1  11    9.83    1.83
  11  -1  12   28.10    3.23
  11   1  12   23.57    2.96
  11  -1  12   22.64    3.73
  11  -1  13   -0.40    1.30
  11  -1  13    0.57    0.88
  11   1  13    2.45    1.22
  11  -1  14   17.61    2.80
  11   1  14   13.02    2.38
  11  -1  15   39.71    4.16
  11   1  15   38.79    4.07
  11   2 -14   38.02    2.99
  11  -2 -14   40.91    3.13
  11   2 -13    5.88    0.97
  11  -2 -13    5.65    0.97
  11   2 -12   89.84    5.70
  11  -2 -12   98.77    5.86
  11   2 -11    0.20    0.35
  11  -2 -11   -0.21    0.47
  11   2 -10    0.10    0.31
  11  -2 -10    0.72    0.41
 -11   2   9    0.32    0.73
  11   2  -9   -0.37    0.44
  11  -2  -9   -0.10    0.33
  11  -2  -8   37.70    2.83
  11   2  -8   38.75    2.80
 -11   2   8   40.04    4.32
  11  -2  -7   -0.10    0.39
  11   2  -7   -0.09    0.29
 -11   2   7    0.29    0.79
  11  -2  -6    2.18    0.60
  11   2  -6    2.12    0.53
 -11   2   6    1.66    0.91
 -11   2   5   -0.54    0.71
 -11  -2   5   -0.19    0.74
  11  -2  -5   -0.10    0.43
  11   2  -5    0.27    0.34
 -11   2   5    0.79    0.86
  11   2  -4    7.26    0.95
 -11   2   4    6.61    1.31
 -11  -2   4    5.00    1.22
 -11   2   4    9.52    1.81
  11  -2  -4    5.93    0.93
 -11   2   3    2.28    0.98
 -11  -2   3    1.41    0.81
 -11   2   3    2.80    1.06
  11  -2  -3    2.75    0.63
  11   2  -3    3.27    0.65
  11  -2  -2  134.60    7.90
  11   2  -2  137.95    7.86
 -11   2   2  155.24    9.32
  11  -2  -1    6.91    0.93
  11   2  -1    7.55    0.93
 -11   2   1    6.95    1.45
  11  -2   0    2.35    0.55
  11   2   0    2.72    0.56
 -11   2   0    2.46    0.86
  11  -2   1    5.09    0.76
  11   2   1    3.89    0.67
  11  -2   2   95.57    6.21
  11   2   2  112.73    6.30
  11   2   3    0.12    0.41
  11  -2   3    0.26    0.43
  11  -2   3    0.08    0.24
 -11   2  -3    0.14    0.58
  11   2   4    4.49    0.93
  11  -2   4    5.60    1.05
 -11   2  -4    7.02    1.12
  11   2   5    0.40    0.45
  11  -2   5    0.28    0.49
  11   2   6    2.53    0.74
  11  -2   6    3.63    0.93
 -11   2  -6    3.42    0.65
  11   2   7    4.58    1.04
  11  -2   7    4.47    1.07
 -11   2  -7    4.21    0.62
  11   2   8   57.64    4.31
  11  -2   8   53.69    4.34
  11  -2   9    0.49    1.43
  11   2   9    0.72    0.66
  11  -2   9   -0.20    0.64
  11  -2  10    4.16    1.85
  11   2  10    3.87    1.08
  11  -2  10    5.59    1.36
  11  -2  11   -0.44    1.12
  11   2  11    0.21    0.62
  11  -2  11    0.24    0.77
  11  -2  12  162.38   10.50
  11   2  12  151.83   10.09
  11  -2  13   11.38    2.27
  11   2  13    8.16    1.84
  11  -2  14  105.66    8.10
  11   2  14   94.82    7.51
  11   3 -13    2.08    0.64
  11  -3 -13   -0.12    0.55
  11   3 -12   16.64    1.76
  11  -3 -12   21.27    1.94
  11  -3 -11    6.32    1.02
  11   3 -11    9.33    1.13
  11   3 -10    3.43    0.71
  11  -3 -10    3.47    0.77
  11   3  -9    5.91    0.88
  11  -3  -9    5.37    0.91
  11   3  -8   21.17    1.86
  11  -3  -8   24.13    1.98
  11   3  -7    0.08    0.40
  11  -3  -7   -0.09    0.38
  11  -3  -6   76.36    4.78
  11   3  -6   77.90    4.72
  11  -3  -5   20.99    1.82
  11   3  -5   21.28    1.76
  11  -3  -4   14.45    1.41
  11   3  -4   12.59    1.30
  11  -3  -3    0.09    0.37
  11   3  -3   -0.08    0.37
  11  -3  -2   -0.17    0.42
  11   3  -2    0.15    0.29
  11   3  -1    5.74    0.77
  11  -3  -1    5.52    0.82
  11  -3   0   29.54    2.22
  11   3   0   29.18    2.11
  11  -3   1    4.27    0.70
  11   3   1    4.70    0.67
  11   3   2    1.15    0.39
  11  -3   2    1.06    0.38
  11  -3   3    0.46    0.35
  11   3   3    0.61    0.32
  11  -3   4   14.37    1.39
  11   3   4   16.47    1.38
  11  -3   5   14.95    1.44
  11   3   5   15.99    1.39
  11   3   6   84.17    5.37
  11  -3   6   83.57    5.51
  11   3   7    6.43    1.11
  11  -3   7    6.20    1.12
  11   3   8    7.62    1.21
  11  -3   8    7.06    1.29
  11   3   9    5.70    1.07
  11  -3   9    5.19    1.16
  11   3  10    2.70    0.84
  11  -3  10    6.94    1.42
  11   3  11    0.18    0.65
  11  -3  11    0.23    0.74
  11   3  12   16.26    2.15
  11  -3  12   14.23    2.40
  11   3  13    0.22    0.99
  11   4  -6    0.61    0.40
  11   4  -5    2.65    0.58
  11   4  -4    0.29    0.34
  11   4  -3    4.52    0.72
  11   4  -2   10.77    1.12
  11   4  -1   39.20    2.64
  11   4   0   -0.33    0.42
  11   4   1   22.26    1.74
  11   4   2    3.20    0.59
  11   4   3    6.13    0.78
  11   4   4    0.12    0.29
  11   4   5    0.60    0.34
  11   4   6   -0.18    0.31
  12   0 -13    0.51    0.49
  12   0 -12    0.12    0.34
  12   0 -11   -0.24    0.49
  12   0 -10   25.16    2.28
  12   0  -9   -0.24    0.56
  12   0  -8   54.89    3.92
  12   0  -7    0.12    0.38
  12   0  -6   14.89    1.68
 -12   0   6   17.73    2.63
  12   0  -5    0.12    0.36
 -12   0   5   -0.87    0.89
  12   0  -4   58.39    4.12
 -12   0   4   67.48    5.62
  12   0  -3    0.79    0.38
 -12   0   3   -0.55    0.94
  12   0  -2  236.08   13.67
 -12   0   2  291.14   15.62
  12   0  -1    0.43    0.33
 -12   0   1    0.25    0.63
  12   0   0    0.84    0.38
  12   0   1    0.31    0.28
  12   0   2   16.89    1.96
  12   0   3    0.66    0.48
  12   0   4  207.73   12.15
  12   0   5    0.35    0.53
  12   0   6    0.91    0.62
  12   0   7   -0.19    0.48
  12   0   8   38.73    3.55
  12   0   9    0.64    0.62
  12   0  10    8.90    1.66
  12   0  11   -0.71    0.81
  12   0  12  122.93    8.54
  12   0  13   -0.26    0.86
  12   1 -13    1.44    0.57
  12  -1 -13    1.01    0.55
  12   1 -12   -0.12    0.42
  12  -1 -12   -0.12    0.49
  12  -1 -11   12.98    1.53
  12   1 -11   12.92    1.51
  12  -1 -10   94.24    5.80
  12   1 -10   87.96    5.68
  12  -1  -9   64.44    4.47
  12   1  -9   69.51    4.51
  12  -1  -8   10.04    1.38
  12   1  -8   14.57    1.56
  12  -1  -7    2.65    0.69
  12   1  -7    3.34    0.78
 -12   1   7    3.95    1.47
  12  -1  -6   15.39    1.69
  12   1  -6   16.93    1.70
 -12   1   6   15.78    2.51
  12  -1  -5    2.16    0.67
  12   1  -5    1.76    0.57
 -12   1   5    1.60    0.99
  12  -1  -4   65.47    4.52
  12   1  -4   71.63    4.57
 -12   1   4   72.87    5.78
  12  -1  -3   37.55    2.96
  12   1  -3   41.52    3.02
 -12   1   3   43.71    4.04
  12  -1  -2    8.47    1.12
  12   1  -2    7.91    1.08
 -12   1   2   10.74    1.85
 -12   1   1    5.94    1.38
  12  -1  -1    6.35    0.94
  12   1  -1    5.92    0.89
 -12   1   0   39.70    3.74
  12  -1   0   36.96    2.81
  12   1   0   38.21    2.81
 -12   1  -1   18.34    2.32
  12  -1   1   14.29    1.49
  12   1   1   13.67    1.43
  12  -1   2    5.73    0.90
  12   1   2    6.10    0.90
 -12   1  -2    6.41    1.34
 -12   1  -3   13.67    1.93
  12   1   3   11.11    1.57
  12  -1   3   13.24    1.72
 -12   1  -4   91.88    6.16
  12   1   4   81.83    5.78
  12  -1   4   86.36    5.88
 -12   1  -5   87.64    5.81
  12   1   5   75.20    5.46
  12  -1   5   78.95    5.57
  12   1   6   50.01    4.07
  12  -1   6   48.96    4.10
 -12   1  -6   57.52    4.23
  12   1   7    3.96    1.04
 -12   1  -7    4.24    1.02
  12   1   8   -0.19    0.65
  12  -1   8   -1.20    0.85
  12   1   9    8.15    1.56
  12  -1   9    5.39    1.39
  12   1  10   69.36    5.58
  12  -1  10   79.59    5.86
  12   1  11   81.37    6.02
  12  -1  11   71.66    5.90
  12  -1  12   68.25    5.69
  12   1  12   69.50    5.62
  12   2 -12   -0.11    0.41
  12   2 -11   18.97    1.78
  12  -2 -11   17.25    1.78
  12   2 -10    2.06    0.62
  12  -2 -10    1.89    0.58
  12   2  -9    1.61    0.50
  12  -2  -9    1.30    0.49
  12  -2  -8    3.48    0.79
  12   2  -8    3.93    0.76
  12  -2  -7   39.02    2.99
  12   2  -7   41.60    2.97
 -12   2   7   43.32    4.49
  12  -2  -6    0.75    0.38
  12   2  -6    1.30    0.47
 -12   2   6    0.58    0.90
  12  -2  -5    4.28    0.81
  12   2  -5    5.08    0.85
 -12   2   5    3.90    1.30
  12  -2  -4    2.03    0.64
 -12   2   4    2.37    1.16
  12   2  -4    4.38    0.75
  12  -2  -3  134.61    8.09
  12   2  -3  141.10    8.07
 -12   2   3  162.51    9.79
  12  -2  -2    4.25    0.76
  12   2  -2    4.95    0.80
 -12   2   2    6.34    1.45
  12  -2  -1   51.81    3.66
  12   2  -1   56.19    3.67
 -12   2   0    0.20    0.66
  12  -2   0    0.73    0.35
  12   2   0    0.61    0.35
  12  -2   1    2.88    0.61
  12   2   1    3.27    0.64
  12  -2   2    2.04    0.52
  12   2   2    0.68    0.35
 -12   2  -2    0.86    0.62
  12  -2   3   80.83    5.22
  12   2   3   83.21    5.20
  12   2   4    5.33    1.04
  12  -2   4    5.51    1.11
 -12   2  -4    6.53    1.14
 -12   2  -5   49.47    3.38
  12   2   5   39.41    3.33
  12  -2   5   39.78    3.38
  12   2   6    0.15    0.50
  12  -2   6   -0.16    0.58
 -12   2  -6    0.40    0.48
  12   2   7   35.78    3.07
  12  -2   7   32.55    3.05
 -12   2  -7   33.13    2.40
  12   2   8    0.17    0.58
  12  -2   8   -0.18    0.60
  12   2   9    2.39    0.91
  12  -2   9    2.01    0.83
  12   2  10    0.60    0.74
  12  -2  10    1.76    1.06
  12   2  11   47.60    4.20
  12  -2  11   45.49    4.32
  12   2  12    3.30    1.27
  12   3 -10   20.66    1.85
  12  -3 -10   19.30    1.88
  12   3  -9   62.28    3.93
  12  -3  -9   56.87    3.95
  12   3  -8    4.49    0.82
  12  -3  -8    5.36    0.92
  12   3  -7    2.53    0.61
  12  -3  -7    3.77    0.76
  12  -3  -6    1.64    0.61
  12   3  -6    1.13    0.48
  12  -3  -5    1.31    0.55
  12   3  -5    0.51    0.37
  12  -3  -4    3.21    0.79
  12   3  -4    4.25    0.74
  12  -3  -3   41.45    3.02
  12   3  -3   44.28    2.97
  12  -3  -2    0.91    0.50
  12   3  -2    0.80    0.44
  12  -3  -1   10.12    1.20
  12   3  -1   11.36    1.20
  12  -3   0    9.01    1.09
  12   3   0    8.63    1.03
  12  -3   1   10.79    1.18
  12   3   1    9.01    1.06
  12  -3   2   -0.17    0.56
  12   3   2   -0.15    0.43
  12  -3   3    9.84    1.16
  12   3   3   12.10    1.19
  12  -3   4   11.35    1.25
  12   3   4   11.56    1.19
  12  -3   5   72.55    4.51
  12   3   5   72.58    4.42
  12  -3   6   21.61    1.83
  12   3   6   19.26    1.68
  12   3   7    2.20    0.80
  12  -3   7    2.12    0.75
  12   3   8   -0.41    0.60
  12  -3   8   -0.49    0.55
  12   3   9    2.94    0.88
  12  -3   9    2.13    0.87
  12   3  10   11.65    1.71
  13   0 -10    0.13    0.44
  13   0  -9   -0.13    0.45
  13   0  -8   -0.26    0.51
  13   0  -7    2.66    0.77
  13   0  -6   -0.39    0.52
  13   0  -5   -0.25    0.49
  13   0  -4    0.12    0.31
  13   0  -3  102.09    6.37
  13   0  -2    0.12    0.36
 -13   0   2   -0.29    0.83
  13   0  -1   15.89    1.69
 -13   0   1   21.60    2.86
  13   0   0    0.67    0.40
 -13   0   0    0.26    0.72
  13   0   1   30.98    2.51
  13   0   2    0.76    0.36
  13   0   3  335.85   18.68
  13   0   4    0.35    0.60
  13   0   5   20.47    2.34
  13   0   6   -0.37    0.76
  13   0   7    3.31    1.09
  13   0   8    0.82    0.70
  13   0   9   36.85    3.58
  13   0  10    0.23    0.67
  13   1 -10   48.52    3.57
  13  -1  -9   34.03    2.89
  13   1  -9   37.66    2.93
  13  -1  -8    1.65    0.63
  13   1  -8    2.92    0.78
  13  -1  -7    0.39    0.50
  13   1  -7   -0.12    0.46
  13  -1  -6   13.08    1.60
  13   1  -6   17.01    1.75
  13  -1  -5  109.58    6.70
  13   1  -5  107.35    6.63
  13  -1  -4  115.91    7.13
  13   1  -4  115.23    7.06
 -13   1   4  127.89    8.67
  13  -1  -3   82.41    5.35
  13   1  -3   84.82    5.36
 -13   1   3   87.01    6.63
  13  -1  -2    2.72    0.70
  13   1  -2    3.42    0.74
 -13   1   2    3.27    1.25
  13  -1  -1    4.23    0.85
  13   1  -1    5.32    0.87
 -13   1   1    5.10    1.41
  13  -1   0    0.32    0.44
  13   1   0    0.53    0.39
 -13   1   0    0.48    0.65
  13  -1   1    2.97    0.72
  13   1   1    2.92    0.68
 -13   1  -1    2.53    1.04
  13  -1   2    4.16    0.80
  13   1   2    2.24    0.63
 -13   1  -2    2.19    0.91
  13   1   3   -0.10    0.38
  13  -1   3    0.11    0.43
 -13   1  -3    0.21    0.57
 -13   1  -4   20.06    2.42
  13   1   4   16.99    2.09
  13  -1   4   20.19    2.25
 -13   1  -5   34.77    3.26
  13   1   5   31.44    3.00
  13  -1   5   32.72    3.09
  13   1   6    5.37    1.22
  13  -1   6    6.70    1.33
 -13   1  -6    5.07    1.18
  13   1   7    0.73    0.59
  13  -1   7   -0.19    0.79
 -13   1  -7   -0.17    0.50
  13   1   8    3.31    1.05
  13  -1   8    2.87    1.02
 -13   1  -8    2.77    0.87
  13   1   9   58.10    4.83
  13  -1   9   65.15    5.08
  13   2  -9    0.11    0.38
  13  -2  -8    6.97    1.10
  13   2  -8    5.41    0.95
  13  -2  -7   -0.23    0.47
  13   2  -7    0.11    0.50
  13  -2  -6    1.03    0.50
  13   2  -6    0.54    0.43
  13  -2  -5   -0.45    0.46
  13   2  -5   -0.10    0.47
 -13   2   5   -0.29    0.79
  13  -2  -4   25.25    2.24
  13   2  -4   27.40    2.24
 -13   2   4   29.04    3.40
 -13   2   3    1.31    1.05
  13  -2  -3    2.95    0.65
  13   2  -3    1.99    0.55
  13  -2  -2   53.54    3.82
  13   2  -2   58.34    3.85
  13  -2  -1    0.60    0.33
  13   2  -1    0.48    0.34
 -13   2   1    0.23    0.63
  13  -2   0    0.78    0.42
  13   2   0    0.74    0.43
 -13   2   0    1.30    0.83
  13   2   1    1.01    0.39
 -13   2  -1    0.20    0.62
  13  -2   1    0.58    0.34
  13  -2   2  103.19    6.65
  13   2   2  115.62    6.70
  13  -2   3   10.46    1.19
  13   2   3    9.93    1.17
  13  -2   4  103.51    6.34
  13   2   4  110.08    6.33
  13   2   5    0.15    0.55
  13  -2   5    0.16    0.57
  13   2   6    0.78    0.60
  13  -2   6    0.83    0.67
  13   2   7    1.14    0.73
  13  -2   7    0.18    0.75
  13   2   8    7.24    1.33
  13  -2   8    6.16    1.34
  13   3  -6   10.04    1.23
  13  -3  -5   24.65    2.13
  13   3  -5   24.62    2.04
  13  -3  -4  108.99    6.47
  13   3  -4  107.08    6.36
  13  -3  -3   14.74    1.54
  13   3  -3   16.73    1.54
  13  -3  -2    1.93    0.58
  13   3  -2    1.30    0.49
  13  -3  -1   -0.19    0.48
  13   3  -1   -0.08    0.38
  13  -3   0    0.28    0.42
  13   3   0    0.33    0.37
  13  -3   1    0.55    0.40
  13   3   1    0.25    0.39
  13  -3   2    2.79    0.69
  13   3   2    3.62    0.68
  13  -3   3    0.45    0.46
  13   3   3    0.16    0.38
  13  -3   4   14.35    1.48
  13   3   4   15.75    1.46
  13   3   5    6.68    0.88
  13  -3   5    5.24    0.93
  13   3   6    2.34    0.57
  14   0  -5   -0.13    0.54
  14   0  -4    0.92    0.52
  14   0  -3    0.13    0.48
  14   0  -2    0.12    0.48
  14   0  -1    0.12    0.43
  14   0   0    0.83    0.44
  14   0   1    0.23    0.42
  14   0   2  128.49    7.63
  14   0   3    0.46    0.44
  14   0   4    4.73    1.11
  14   0   4    6.36    1.02
  14   0   5    0.19    0.61
  14  -1  -4   66.38    4.72
  14   1  -4   76.04    4.83
  14   1  -3    8.67    1.19
  14  -1  -3    6.67    1.10
  14  -1  -2    1.45    0.56
  14   1  -2    1.53    0.55
  14  -1  -1    0.12    0.55
  14   1  -1    0.23    0.42
 -14   1   1   -0.78    0.92
 -14   1   0   26.88    3.08
  14  -1   0   21.15    2.02
  14   1   0   20.86    1.98
 -14   1  -1   33.68    3.56
  14  -1   1   33.79    2.66
  14   1   1   30.48    2.55
  14  -1   2   22.31    2.13
  14   1   2   25.65    2.20
  14  -1   3    4.20    0.82
  14   1   3    3.34    0.70
 -14   1  -3    3.78    1.13
  14  -1   4    0.45    0.46
  14   1   4    0.11    0.41
 -14   1  -4    0.42    0.65
   0   0   0    0.00    0.00
;
_shelx_hkl_checksum              66203
loop_
_space_group_symop_operation_xyz
'x, y, z'
'-x+1/2, y+1/2, -z+1/2'
'-x, -y, -z'
'x-1/2, -y-1/2, z-1/2'
loop_
_atom_site_label
_atom_site_type_symbol
_atom_site_fract_x
_atom_site_fract_y
_atom_site_fract_z
_atom_site_U_iso_or_equiv
_atom_site_adp_type
_atom_site_occupancy
_atom_site_site_symmetry_order
_atom_site_calc_flag
_atom_site_refinement_flags_posn
_atom_site_refinement_flags_adp
_atom_site_refinement_flags_occupancy
_atom_site_disorder_assembly
_atom_site_disorder_group
Cu1 Cu 0.67426(8) 0.13874(18) 0.20856(4) 0.0315(3) Uani 1 1 d . . . . .
Cu2 Cu 0.54561(7) -0.34984(16) 0.13941(4) 0.0269(2) Uani 1 1 d . . . . .
I1 I 0.63766(4) 0.14082(8) 0.07812(2) 0.02088(17) Uani 1 1 d . . . . .
I2 I 0.59166(3) -0.36152(8) 0.27618(2) 0.01959(17) Uani 1 1 d . . . . .
C3 C 0.1800(5) -0.3740(12) 0.1473(3) 0.0212(13) Uani 1 1 d . . . . .
H3A H 0.1073 -0.3237 0.1647 0.025 Uiso 1 1 calc R U . . .
C2 C 0.2850(5) -0.2710(14) 0.1709(3) 0.0215(12) Uani 1 1 d . . . . .
H2A H 0.2963 -0.1334 0.2074 0.026 Uiso 1 1 calc R U . . .
C1 C 0.3200(5) -0.5806(13) 0.0860(3) 0.0208(12) Uani 1 1 d . . . . .
H1A H 0.3576 -0.7005 0.0530 0.025 Uiso 1 1 calc R U . . .
C4 C 0.1172(5) -0.7382(14) 0.0510(3) 0.0219(12) Uani 1 1 d . . . . .
H4A H 0.0599 -0.8330 0.0808 0.026 Uiso 1 1 calc R U . . .
H4B H 0.1560 -0.9074 0.0267 0.026 Uiso 1 1 calc R U . . .
C5 C 0.0559(5) -0.5276(14) 0.0000(3) 0.0211(12) Uani 1 1 d . . . . .
H5A H 0.1005 -0.4310 -0.0336 0.025 Uiso 1 1 calc R U . . .
N1 N 0.3740(4) -0.4057(11) 0.1312(3) 0.0210(11) Uani 1 1 d . . . . .
N2 N 0.2030(4) -0.5673(11) 0.0927(2) 0.0180(10) Uani 1 1 d . . . . .
loop_
_atom_site_aniso_label
_atom_site_aniso_U_11
_atom_site_aniso_U_22
_atom_site_aniso_U_33
_atom_site_aniso_U_23
_atom_site_aniso_U_13
_atom_site_aniso_U_12
Cu1 0.0325(5) 0.0347(5) 0.0273(5) -0.0010(3) 0.0069(4) -0.0010(3)
Cu2 0.0187(4) 0.0278(5) 0.0341(5) -0.0031(3) 0.0029(4) -0.0048(3)
I1 0.0232(3) 0.0177(3) 0.0219(3) -0.00198(13) 0.00521(18) -0.00188(13)
I2 0.0189(3) 0.0188(3) 0.0212(3) -0.00050(12) 0.00479(18) -0.00073(12)
C3 0.016(3) 0.025(3) 0.023(3) 0.001(2) 0.006(3) 0.003(2)
C2 0.023(3) 0.017(3) 0.024(3) -0.005(2) 0.007(3) 0.001(2)
C1 0.021(3) 0.021(3) 0.020(3) -0.004(2) 0.002(2) -0.004(2)
C4 0.013(3) 0.020(3) 0.032(3) 0.000(3) -0.004(2) -0.001(2)
C5 0.023(3) 0.018(3) 0.022(3) 0.000(2) 0.000(3) -0.006(2)
N1 0.014(3) 0.025(3) 0.024(3) 0.005(2) 0.002(2) -0.0006(19)
N2 0.016(2) 0.015(2) 0.023(2) 0.0021(19) -0.006(2) 0.0010(18)
loop_
_atom_type_symbol
_atom_type_description
_atom_type_scat_dispersion_real
_atom_type_scat_dispersion_imag
_atom_type_scat_source
C C 0.0033 0.0016 'International Tables Vol C Tables 4.2.6.8 and 6.1.1.4'
H H 0.0000 0.0000 'International Tables Vol C Tables 4.2.6.8 and 6.1.1.4'
N N 0.0061 0.0033 'International Tables Vol C Tables 4.2.6.8 and 6.1.1.4'
Cu Cu 0.3201 1.2651 'International Tables Vol C Tables 4.2.6.8 and 6.1.1.4'
I I -0.4742 1.8119 'International Tables Vol C Tables 4.2.6.8 and 6.1.1.4'
loop_
_geom_angle_atom_site_label_1
_geom_angle_atom_site_label_2
_geom_angle_atom_site_label_3
_geom_angle
_geom_angle_site_symmetry_1
_geom_angle_site_symmetry_3
_geom_angle_publ_flag
I1 Cu1 I2 115.49(3) . 1_565 ?
I1 Cu1 I2 115.82(3) . . ?
I2 Cu1 I2 104.65(3) 1_565 . ?
I1 Cu1 I2 105.26(3) . 2_655 ?
I2 Cu1 I2 107.61(3) 1_565 2_655 ?
I2 Cu1 I2 107.56(3) . 2_655 ?
I1 Cu1 Cu2 57.20(3) . . ?
I2 Cu1 Cu2 128.23(4) 1_565 . ?
I2 Cu1 Cu2 58.65(2) . . ?
I2 Cu1 Cu2 124.01(3) 2_655 . ?
I1 Cu1 Cu2 57.75(3) . 1_565 ?
I2 Cu1 Cu2 57.75(2) 1_565 1_565 ?
I2 Cu1 Cu2 129.07(4) . 1_565 ?
I2 Cu1 Cu2 123.13(3) 2_655 1_565 ?
Cu2 Cu1 Cu2 93.34(4) . 1_565 ?
N1 Cu2 I1 117.36(14) . . ?
N1 Cu2 I1 105.18(14) . 1_545 ?
I1 Cu2 I1 105.63(3) . 1_545 ?
N1 Cu2 I2 105.16(14) . . ?
I1 Cu2 I2 112.77(3) . . ?
I1 Cu2 I2 110.45(3) 1_545 . ?
N1 Cu2 Cu1 128.96(15) . . ?
I1 Cu2 Cu1 55.80(2) . . ?
I1 Cu2 Cu1 125.74(4) 1_545 . ?
I2 Cu2 Cu1 57.01(3) . . ?
N1 Cu2 Cu1 116.30(14) . 1_545 ?
I1 Cu2 Cu1 126.07(4) . 1_545 ?
I1 Cu2 Cu1 54.35(2) 1_545 1_545 ?
I2 Cu2 Cu1 56.11(2) . 1_545 ?
Cu1 Cu2 Cu1 93.34(4) . 1_545 ?
Cu1 I1 Cu2 67.00(3) . . ?
Cu1 I1 Cu2 67.90(3) . 1_565 ?
Cu2 I1 Cu2 105.63(3) . 1_565 ?
Cu1 I2 Cu1 104.65(3) 1_545 . ?
Cu1 I2 Cu1 72.42(3) 1_545 2_645 ?
Cu1 I2 Cu1 72.40(3) . 2_645 ?
Cu1 I2 Cu2 66.13(3) 1_545 . ?
Cu1 I2 Cu2 64.33(3) . . ?
Cu1 I2 Cu2 107.09(3) 2_645 . ?
C2 C3 N2 106.2(5) . . ?
C2 C3 H3A 126.9 . . ?
N2 C3 H3A 126.9 . . ?
C3 C2 N1 109.2(5) . . ?
C3 C2 H2A 125.4 . . ?
N1 C2 H2A 125.4 . . ?
N1 C1 N2 112.2(5) . . ?
N1 C1 H1A 123.9 . . ?
N2 C1 H1A 123.9 . . ?
N2 C4 C5 112.6(5) . . ?
N2 C4 H4A 109.1 . . ?
C5 C4 H4A 109.1 . . ?
N2 C4 H4B 109.1 . . ?
C5 C4 H4B 109.1 . . ?
H4A C4 H4B 107.8 . . ?
C5 C5 C4 124.0(7) 3_545 . ?
C5 C5 H5A 118.0 3_545 . ?
C4 C5 H5A 118.0 . . ?
C1 N1 C2 105.0(5) . . ?
C1 N1 Cu2 125.9(4) . . ?
C2 N1 Cu2 129.1(4) . . ?
C1 N2 C3 107.3(5) . . ?
C1 N2 C4 126.2(5) . . ?
C3 N2 C4 126.5(5) . . ?
loop_
_geom_bond_atom_site_label_1
_geom_bond_atom_site_label_2
_geom_bond_distance
_geom_bond_site_symmetry_2
_geom_bond_publ_flag
Cu1 I1 2.5821(9) . ?
Cu1 I2 2.6725(8) 1_565 ?
Cu1 I2 2.6743(8) . ?
Cu1 I2 2.7042(11) 2_655 ?
Cu1 Cu2 2.8737(12) . ?
Cu1 Cu2 2.9440(12) 1_565 ?
Cu2 N1 1.992(5) . ?
Cu2 I1 2.6244(8) . ?
Cu2 I1 2.6874(8) 1_545 ?
Cu2 I2 2.7229(9) . ?
Cu2 Cu1 2.9440(12) 1_545 ?
I1 Cu2 2.6874(8) 1_565 ?
I2 Cu1 2.6726(8) 1_545 ?
I2 Cu1 2.7042(11) 2_645 ?
C3 C2 1.360(9) . ?
C3 N2 1.373(7) . ?
C3 H3A 0.9300 . ?
C2 N1 1.409(7) . ?
C2 H2A 0.9300 . ?
C1 N1 1.307(8) . ?
C1 N2 1.353(7) . ?
C1 H1A 0.9300 . ?
C4 N2 1.465(8) . ?
C4 C5 1.508(9) . ?
C4 H4A 0.9700 . ?
C4 H4B 0.9700 . ?
C5 C5 1.306(12) 3_545 ?
C5 H5A 0.9300 . ?
