#------------------------------------------------------------------------------
#$Date: 2021-07-05 19:13:21 +0300 (Mon, 05 Jul 2021) $
#$Revision: 267002 $
#$URL: file:///home/coder/svn-repositories/cod/cif/7/12/83/7128398.cif $
#------------------------------------------------------------------------------
#
# This file is available in the Crystallography Open Database (COD),
# http://www.crystallography.net/
#
# All data on this site have been placed in the public domain by the
# contributors.
#
data_7128398
loop_
_publ_author_name
'Hung, Ling-I'
'Hsieh, Tsung-Hsiu'
'Syu, Jhao-Yang'
'Chen, Pei-Lin'
'Lin, Chia-Her'
'Wang, Sue-Lein'
_publ_section_title
;
 A titanium(iii) phosphite exhibits polymorph-distinct redox activity
 involving proton-coupled electron transfer.
;
_journal_issue                   53
_journal_name_full
'Chemical communications (Cambridge, England)'
_journal_page_first              6542
_journal_page_last               6545
_journal_paper_doi               10.1039/d1cc01190a
_journal_volume                  57
_journal_year                    2021
_chemical_formula_sum            'H4 O7 P2 Ti'
_chemical_formula_weight         225.87
_space_group_crystal_system      monoclinic
_space_group_IT_number           14
_space_group_name_Hall           '-P 2yn'
_space_group_name_H-M_alt        'P 1 21/n 1'
_atom_sites_solution_hydrogens   difmap
_audit_creation_method           SHELXL-2014/6
_audit_update_record
;
2021-02-17 deposited with the CCDC.	2021-05-31 downloaded from the CCDC.
;
_cell_angle_alpha                90
_cell_angle_beta                 102.341(4)
_cell_angle_gamma                90
_cell_formula_units_Z            4
_cell_length_a                   7.0671(10)
_cell_length_b                   7.3832(10)
_cell_length_c                   12.0992(16)
_cell_measurement_reflns_used    2602
_cell_measurement_temperature    296(2)
_cell_measurement_theta_max      28.2641
_cell_measurement_theta_min      3.0827
_cell_volume                     616.72(15)
_computing_cell_refinement       'SAINT V8.34A (Bruker AXS Inc., 2013)'
_computing_data_collection       'APEX2 (Bruker AXS, 2010)'
_computing_data_reduction        'SAINT V8.34A (Bruker AXS Inc., 2013)'
_computing_molecular_graphics    'SHELXTL (Sheldrick, 2008)'
_computing_publication_material  SHELXTL
_computing_structure_refinement  'SHELXL-2014/6 (Sheldrick, 2014)'
_diffrn_ambient_temperature      296(2)
_diffrn_detector_area_resol_mean 8.3333
_diffrn_measured_fraction_theta_full 0.994
_diffrn_measured_fraction_theta_max 0.990
_diffrn_measurement_device_type  'Bruker APEX-II CCD'
_diffrn_measurement_method       '\f and \w scans'
_diffrn_radiation_type           MoK\a
_diffrn_radiation_wavelength     0.71073
_diffrn_reflns_av_R_equivalents  0.0243
_diffrn_reflns_av_unetI/netI     0.0244
_diffrn_reflns_Laue_measured_fraction_full 0.994
_diffrn_reflns_Laue_measured_fraction_max 0.990
_diffrn_reflns_limit_h_max       9
_diffrn_reflns_limit_h_min       -9
_diffrn_reflns_limit_k_max       9
_diffrn_reflns_limit_k_min       -9
_diffrn_reflns_limit_l_max       16
_diffrn_reflns_limit_l_min       -16
_diffrn_reflns_number            5412
_diffrn_reflns_point_group_measured_fraction_full 0.994
_diffrn_reflns_point_group_measured_fraction_max 0.990
_diffrn_reflns_theta_full        25.242
_diffrn_reflns_theta_max         28.328
_diffrn_reflns_theta_min         3.083
_exptl_absorpt_coefficient_mu    1.887
_exptl_absorpt_correction_T_max  0.7457
_exptl_absorpt_correction_T_min  0.6813
_exptl_absorpt_correction_type   multi-scan
_exptl_absorpt_process_details   'SADABS V2014/4 (Bruker AXS Inc.)'
_exptl_crystal_colour            white
_exptl_crystal_density_diffrn    2.433
_exptl_crystal_density_meas      ?
_exptl_crystal_density_method    'not measured'
_exptl_crystal_description       columnar
_exptl_crystal_F_000             448
_exptl_crystal_size_max          0.18
_exptl_crystal_size_mid          0.10
_exptl_crystal_size_min          0.10
_refine_diff_density_max         1.112
_refine_diff_density_min         -0.484
_refine_diff_density_rms         0.131
_refine_ls_extinction_method     none
_refine_ls_goodness_of_fit_ref   1.154
_refine_ls_hydrogen_treatment    noref
_refine_ls_matrix_type           full
_refine_ls_number_parameters     91
_refine_ls_number_reflns         1518
_refine_ls_number_restraints     0
_refine_ls_restrained_S_all      1.154
_refine_ls_R_factor_all          0.0422
_refine_ls_R_factor_gt           0.0362
_refine_ls_shift/su_max          0.000
_refine_ls_shift/su_mean         0.000
_refine_ls_structure_factor_coef Fsqd
_refine_ls_weighting_details
'w=1/[\s^2^(Fo^2^)+(0.0405P)^2^+1.9371P] where P=(Fo^2^+2Fc^2^)/3'
_refine_ls_weighting_scheme      calc
_refine_ls_wR_factor_gt          0.0965
_refine_ls_wR_factor_ref         0.0995
_reflns_Friedel_coverage         0.000
_reflns_number_gt                1351
_reflns_number_total             1518
_reflns_threshold_expression     'I > 2\s(I)'
_cod_data_source_file            d1cc01190a2.cif
_cod_data_source_block           beta-IV
_cod_depositor_comments
;
The following automatic conversions were performed:

data item '_exptl_crystal_density_meas' value 'not measured' was
changed to '?' -- the value is perceived as not measured.

Automatic conversion script
Id: cif_fix_values 7556 2019-12-06 15:28:31Z antanas 

 Adding full bibliography for 7128397--7128400.cif.
;
_cod_original_sg_symbol_H-M      'P 21/n'
_cod_database_code               7128398
_shelx_space_group_comment
;
The symmetry employed for this shelxl refinement is uniquely defined
by the following loop, which should always be used as a source of
symmetry information in preference to the above space-group names.
They are only intended as comments.
;
_shelxl_version_number           2014/6
_shelx_res_file
;
TITL B4 in P2(1)/n
CELL 0.71073 7.0671 7.3832 12.0992 90.000 102.341 90.000
ZERR 4.00 0.0010 0.0010 0.0016 0.000 0.004 0.000
LATT 1
SYMM -x+1/2, y+1/2, -z+1/2
SFAC O  H  P  Ti
UNIT 28  16  8  4
L.S. 4
ACTA
BOND $H
FMAP 2
PLAN 5
EQIV $1 -x+1, -y+1, -z+1
HTAB O7 O6_$1
HTAB O7 O3_$1
TEMP 23
WGHT    0.040500    1.937100
FVAR       0.51118
TI1   4    0.487025    0.232522    0.338022    11.00000    0.01247    0.00788 =
         0.00556    0.00075    0.00064   -0.00105
P1    3    0.750695    0.138020    0.591172    11.00000    0.01279    0.00895 =
         0.00587   -0.00102    0.00054   -0.00135
P2    3    0.690622    0.637179    0.304052    11.00000    0.01947    0.01199 =
         0.01548   -0.00162    0.00739   -0.00448
O1    1    0.639868    0.240785    0.489164    11.00000    0.02593    0.01492 =
         0.00901   -0.00006   -0.00251   -0.00562
O2    1    0.631817   -0.013056    0.627310    11.00000    0.02345    0.01097 =
         0.01608    0.00279    0.00138   -0.00476
O3    1    0.812971    0.274916    0.685917    11.00000    0.01661    0.01072 =
         0.00609   -0.00186   -0.00287   -0.00179
O4    1    0.573691    0.461714    0.302957    11.00000    0.02264    0.01398 =
         0.01962    0.00388    0.00469   -0.00679
O5    1    0.821520    0.609725    0.218077    11.00000    0.01923    0.02306 =
         0.01549   -0.00301    0.00714   -0.00803
O6    1    0.798971    0.692233    0.416959    11.00000    0.04823    0.04923 =
         0.01862   -0.01499    0.01580   -0.03033
O7    1    0.267883    0.365016    0.390107    11.00000    0.02468    0.01732 =
         0.01456    0.00081    0.00945    0.00467
AFIX   1
H1    2    0.911368    0.061061    0.564402    11.00000   10.05000
H2    2    0.557915    0.760593    0.252397    11.00000   10.05000
H7A   2    0.254300    0.350700    0.457900    11.00000   10.05000
H7B   2    0.228600    0.490300    0.364200    11.00000   10.05000
AFIX   0
HKLF 4

REM  B4 in P2(1)/n
REM R1 =  0.0362 for    1351 Fo > 4sig(Fo)  and  0.0422 for all    1518 data
REM     91 parameters refined using      0 restraints

END

WGHT      0.0405      1.9371

REM Highest difference peak  1.112,  deepest hole -0.484,  1-sigma level  0.131
Q1    1   0.5714  0.2673  0.4360  11.00000  0.05    1.11
Q2    1   0.8918  0.2365  0.7431  11.00000  0.05    1.07
Q3    1   0.7811  0.2594  0.6302  11.00000  0.05    0.76
Q4    1   0.8309  0.3537  0.6856  11.00000  0.05    0.68
Q5    1   0.6934  0.2280  0.5524  11.00000  0.05    0.65
;
_shelx_res_checksum              32820
_shelx_hkl_file
;
  -1   0   0 -2.7682 0.55291   1
  -1   0   0 -2.3502 0.59803   1
   1   0   0 -3.0417 0.46786   1
   1   0   0 -2.7265 0.62167   1
  -2   0   0 1749.64 30.2581   1
  -2   0   0 1672.29 30.3902   1
   2   0   0 1685.67 30.2448   1
   2   0   0 1749.81 30.5761   1
   3   0   0 -0.4497 1.33144   1
  -3   0   0 0.17937 1.25182   1
  -4   0   0 1040.41 21.1870   1
  -4   0   0 1037.06 21.6085   1
   4   0   0 1057.41 22.3714   1
   5   0   0 -1.7231 2.11874   1
  -5   0   0 0.36625 1.78468   1
  -6   0   0 183.247 7.84886   1
   6   0   0 178.128 9.36812   1
  -7   0   0 -2.2683 2.32428   1
   7   0   0 2.16683 3.61094   1
   8   0   0 63.0482 8.50178   1
  -8   0   0 79.2584 6.96828   1
   9   0   0 -3.8129 5.23309   1
  -9   0   0 6.45821 4.08144   1
   0  -1   0 -5.0943 0.37680   3
   0  -1   0 -5.4643 0.40468   2
   0   1   0 -5.1200 0.42210   3
   0   1   0 -5.2651 0.43656   2
   1  -1   0 1.57636 0.59222   1
   1  -1   0 2.09601 0.68272   1
   1  -1   0 1.93095 0.78937   1
  -1  -1   0 2.09625 0.69941   1
  -1  -1   0 2.49097 0.84478   1
  -1   1   0 1.93681 0.72095   1
  -1   1   0 2.43598 0.71386   3
  -1   1   0 1.62868 0.60384   1
   1   1   0 2.98942 0.68390   1
   1   1   0 1.36637 0.81566   1
  -2  -1   0 9.05659 1.66435   1
   2  -1   0 7.61350 1.44632   1
  -2  -1   0 9.76502 1.67728   1
   2  -1   0 9.32860 1.74290   1
   2   1   0 9.38198 1.80767   1
  -2   1   0 10.1739 1.49368   1
   2   1   0 8.01883 1.41185   1
  -2   1   0 10.1716 1.63817   1
  -3  -1   0 32.4987 2.74331   1
   3  -1   0 37.1770 3.18103   1
   3   1   0 33.4144 3.26974   1
  -3   1   0 30.1319 2.50064   1
  -4  -1   0 4.99717 1.95173   1
   4  -1   0 2.05486 2.09937   1
   4   1   0 3.78792 2.21851   1
  -4   1   0 3.97100 1.76164   1
  -5  -1   0 1.53581 2.08628   1
  -5  -1   0 1.34620 1.95571   1
   5  -1   0 -1.5027 2.62604   1
   5   1   0 1.05402 2.46089   1
  -5   1   0 1.64569 1.79985   1
  -6  -1   0 350.981 11.4537   1
   6  -1   0 334.673 12.7659   1
   6   1   0 355.181 13.1166   1
  -6   1   0 344.078 11.1641   1
   7  -1   0 133.288 9.49049   1
  -7  -1   0 119.391 7.50998   1
  -7   1   0 123.264 7.26481   1
   7   1   0 131.738 9.46187   1
  -8  -1   0 18.2973 4.86353   1
   8  -1   0 17.7234 6.27234   1
  -8   1   0 21.9079 4.51729   1
   8   1   0 17.0860 5.55041   1
  -9  -1   0 3.43114 3.86822   1
   9  -1   0 -2.3790 5.18832   1
   0  -2   0 3442.95 57.9570   3
   0   2   0 3473.58 58.5465   2
   0   2   0 3479.04 58.0201   3
   1  -2   0 4945.71 82.3497   3
  -1   2   0 5051.60 82.3478   3
  -1   2   0 4848.82 82.8176   2
   2  -2   0 24.2754 2.32306   1
  -2  -2   0 21.5839 2.19597   1
   2  -2   0 20.6230 1.84263   1
  -2   2   0 22.7242 1.60540   1
   2   2   0 19.4676 2.08387   1
  -2   2   0 22.7003 2.11888   3
  -3  -2   0 1721.01 33.1282   1
  -3  -2   0 1831.76 32.9391   1
   3  -2   0 1784.05 32.9616   1
   3  -2   0 1800.60 33.2410   1
  -3   2   0 1831.09 32.0973   1
   3   2   0 1777.05 33.1430   1
  -4  -2   0 868.642 18.7860   1
   4  -2   0 828.347 19.3212   1
   4   2   0 856.376 19.3765   1
  -4   2   0 889.493 18.0524   1
   5  -2   0 82.6730 6.07902   1
  -5  -2   0 69.3565 5.39935   1
  -5  -2   0 87.6061 5.37091   1
   5   2   0 86.7669 6.16330   1
  -5   2   0 92.3443 4.96588   1
  -6  -2   0 361.800 12.0022   1
   6  -2   0 360.253 13.4504   1
   6   2   0 386.899 13.6409   1
  -6   2   0 374.239 11.5175   1
  -7  -2   0 5.27737 3.25136   1
   7  -2   0 6.77717 4.23245   1
   7   2   0 6.87255 4.26562   1
  -7   2   0 5.79035 2.98863   1
   8  -2   0 67.9099 8.89186   1
  -8  -2   0 58.9828 7.02267   1
  -9  -2   0 5.81584 4.06799   1
   0  -3   0 -0.7969 0.59645   3
   0   3   0 -0.2920 0.87446   3
   0   3   0 -1.0058 0.92420   2
   1  -3   0 115.442 4.00931   3
  -1  -3   0 124.718 4.31997   3
  -1   3   0 127.623 4.27405   3
  -1   3   0 125.400 4.67407   2
   2  -3   0 2.69221 1.05091   1
  -2  -3   0 3.27302 1.30379   1
  -2  -3   0 4.47547 1.21734   1
   2  -3   0 5.21261 1.48301   1
  -2   3   0 3.81517 1.58755   2
  -2   3   0 4.27802 1.38376   3
  -3  -3   0 259.393 7.96782   1
  -3  -3   0 280.019 7.78922   1
   3  -3   0 259.881 7.63147   1
   3  -3   0 281.213 8.08358   1
  -3   3   0 274.562 7.71994   3
   3   3   0 281.042 7.69595   1
  -3   3   0 264.033 6.70735   1
  -3   3   0 276.753 8.64519   2
   4  -3   0 168.066 7.26607   1
  -4  -3   0 175.072 6.75448   1
  -4   3   0 180.715 6.02831   1
   4   3   0 174.199 7.15956   1
  -4   3   0 174.622 6.44126   3
   5  -3   0 5.41087 2.65270   1
  -5  -3   0 3.52764 2.22628   1
  -5  -3   0 0.04897 2.24991   1
   5   3   0 2.45557 2.75407   1
  -5   3   0 4.59305 1.83531   1
  -6  -3   0 60.3219 5.25080   1
   6  -3   0 50.8217 6.17757   1
  -6  -3   0 55.6227 5.77044   1
   6   3   0 54.2337 6.33818   1
  -6   3   0 54.9026 4.60598   1
  -7  -3   0 12.3221 3.74110   1
   7  -3   0 9.88041 4.82491   1
  -8  -3   0 62.3457 7.40071   1
   8  -3   0 60.3176 8.51219   1
   0   4   0 44.6652 3.47770   2
   0   4   0 47.4301 3.13406   3
  -1   4   0 296.840 8.77647   2
  -1   4   0 299.532 7.98154   3
   2  -4   0 3043.50 53.7546   1
   2  -4   0 3140.51 53.9729   1
  -2  -4   0 3359.62 54.0232   1
  -2   4   0 3111.73 55.2194   3
  -2   4   0 3133.18 56.5841   2
  -3  -4   0 26.9593 3.11273   1
  -3  -4   0 27.4505 2.96137   1
   3  -4   0 29.2255 3.20411   1
   3  -4   0 29.2297 2.95610   1
  -3   4   0 29.8738 3.68141   2
  -3   4   0 32.6459 3.30731   3
  -4  -4   0 77.1128 4.88901   1
   4  -4   0 68.0977 5.34899   1
  -4   4   0 76.5695 4.62544   3
  -4   4   0 80.5034 5.35115   2
  -5  -4   0 8.97948 2.96742   1
  -5  -4   0 10.9495 2.68783   1
   5  -4   0 6.40659 2.96576   1
  -5   4   0 3.83330 2.53043   2
  -5   4   0 6.72069 2.35921   3
   6  -4   0 313.228 12.6584   1
  -6  -4   0 308.670 11.8522   1
  -6  -4   0 297.702 11.0079   1
  -6   4   0 317.809 10.8701   3
   7  -4   0 34.5255 6.12468   1
  -7  -4   0 27.6526 4.78260   1
  -7   4   0 37.9326 5.04949   3
  -8  -4   0 50.9801 6.99375   1
   8  -4   0 45.1129 8.05419   1
  -8   4   0 43.5949 5.94692   3
   0   5   0 -0.4583 1.54413   2
   0   5   0 2.01140 1.48258   3
  -1   5   0 330.096 9.41152   3
  -1   5   0 332.411 10.1650   2
  -2   5   0 62.2598 4.00465   3
  -2   5   0 62.6002 4.59900   2
   3  -5   0 5.41371 1.80927   1
   3  -5   0 5.44474 2.32204   1
  -3  -5   0 3.46099 2.00845   1
  -3  -5   0 8.32999 2.15622   1
  -3   5   0 8.60688 2.66003   2
  -3   5   0 5.50312 2.06860   3
   4  -5   0 86.0079 5.84679   1
  -4  -5   0 93.5154 5.51481   1
  -4   5   0 87.0339 5.28322   3
  -4   5   0 89.5024 6.10936   2
   5  -5   0 187.149 9.30888   1
  -5  -5   0 187.187 8.11937   1
  -5  -5   0 193.159 8.73802   1
  -5   5   0 187.842 8.04488   3
  -5   5   0 193.207 9.43338   2
  -6  -5   0 -1.9451 2.43401   1
   6  -5   0 2.47388 3.38302   1
  -6   5   0 -1.9837 2.47884   3
  -6   5   0 -3.2544 2.70476   2
  -7  -5   0 11.6387 3.69460   1
   7  -5   0 2.02379 4.00028   1
  -7   5   0 15.8801 4.84950   2
  -7   5   0 4.05041 3.14901   3
   0   6   0 35.0933 4.38838   2
  -1   6   0 1226.92 27.1434   2
  -1   6   0 1240.81 25.8155   3
  -2   6   0 554.288 14.3400   3
  -2   6   0 546.412 15.5940   2
   3  -6   0 169.016 6.72752   1
  -3  -6   0 165.653 6.31836   1
  -3   6   0 167.091 8.18180   2
  -3   6   0 163.077 7.18464   3
   4  -6   0 19.5495 3.94003   1
  -4  -6   0 28.7808 3.79646   1
  -4  -6   0 19.7215 3.23073   1
  -4   6   0 18.0045 4.13228   2
  -4   6   0 25.0355 3.79547   3
   5  -6   0 135.068 8.37285   1
  -5  -6   0 120.346 6.82313   1
  -5   6   0 121.772 8.14072   2
  -5   6   0 132.702 7.27398   3
   6  -6   0 164.164 10.1259   1
  -6  -6   0 174.677 8.69220   1
  -6   6   0 170.724 10.0475   2
  -6   6   0 167.729 8.82975   3
   7  -6   0 8.57257 5.52883   1
  -7  -6   0 9.31973 4.05574   1
  -7   6   0 12.6452 4.64909   2
  -7   6   0 8.60449 4.24023   3
   0   7   0 -2.1888 2.26578   2
  -1   7   0 258.086 10.7099   2
  -1   7   0 259.021 9.90635   3
  -2   7   0 2.38270 2.33704   3
  -2   7   0 1.43387 2.56603   2
  -3   7   0 2.22634 2.39151   3
  -3   7   0 3.74271 2.92189   2
   4  -7   0 21.5408 4.19957   1
  -4  -7   0 14.9172 3.16412   1
  -4   7   0 16.5456 4.41912   2
  -4   7   0 20.1256 3.80495   3
  -5  -7   0 468.611 13.5633   1
   5  -7   0 457.250 15.1001   1
  -5   7   0 464.736 15.0380   3
  -5   7   0 445.817 16.2794   2
   6  -7   0 138.688 10.2848   1
  -6  -7   0 121.352 8.34771   1
  -6   7   0 131.830 10.1518   2
  -6   7   0 143.127 8.59894   3
   0   8   0 1394.56 32.9795   2
  -1   8   0 115.171 8.17152   2
  -2   8   0 84.8729 7.36589   2
  -2   8   0 74.4575 6.03758   3
  -3   8   0 111.131 7.50037   3
  -3   8   0 119.307 8.43874   2
  -4  -8   0 181.391 7.37862   1
   4  -8   0 193.832 8.70224   1
  -4   8   0 174.677 9.31780   3
  -4   8   0 184.289 11.0613   2
   5  -8   0 57.7993 6.51899   1
  -5  -8   0 55.3600 5.03983   1
  -5   8   0 41.9456 6.91214   3
  -5   8   0 55.2763 7.37887   2
  -1   9   0 257.391 12.9860   2
  -2   9   0 52.8041 7.41102   2
  -2   9   0 45.1191 6.29344   3
  -3   9   0 27.3340 6.06843   2
  -3   9   0 22.5501 4.67100   3
  -9   0   1 532.585 17.9810   1
   9   0  -1 549.005 21.5773   1
   8   0  -1 0.62203 4.22606   1
  -8   0   1 1.98750 3.23848   1
  -7   0   1 2.87519 2.84767   1
   7   0  -1 0.48668 3.44394   1
  -6   0   1 2.39297 2.17740   1
  -6   0   1 1.77719 2.43404   1
   6   0  -1 3.90857 3.25301   1
  -5   0   1 518.045 13.7974   1
   5   0  -1 519.474 14.5108   1
   4   0  -1 -0.8838 1.64007   1
  -4   0   1 -1.9812 1.32844   1
   3   0  -1 39.6128 3.21292   1
  -3   0   1 41.3334 3.02914   1
   2   0  -1 0.13744 1.24787   1
  -2   0   1 -0.8822 1.01790   1
   2   0  -1 -0.5571 0.81549   1
  -2   0   1 -0.5640 0.98224   1
   1   0  -1 1630.85 27.8427   1
   1   0  -1 1640.19 27.8898   1
  -1   0   1 1635.28 27.8588   1
  -1   0   1 1638.37 27.8574   1
   0   0  -1 -2.5944 0.36550   1
   0   0   1 -2.6244 0.25472   1
   0   0  -1 -2.3410 0.29780   1
   0   0   1 -1.9593 0.38173   1
   1   0   1 1815.14 31.3264   1
   1   0   1 1804.52 30.7867   1
  -1   0  -1 1787.48 31.1909   1
  -1   0  -1 1842.54 30.7697   1
  -2   0  -1 -0.7419 1.14444   1
  -2   0  -1 -0.3825 0.92455   1
   2   0   1 -0.5994 0.82205   1
   2   0   1 1.32097 1.40903   1
  -3   0  -1 86.9805 3.89515   1
   3   0   1 87.7914 4.63629   1
   4   0   1 2.30908 1.96529   1
  -4   0  -1 0.64753 1.32772   1
   5   0   1 74.2454 5.96969   1
  -5   0  -1 72.2118 4.80450   1
  -6   0  -1 1.46850 2.21643   1
   6   0   1 -2.2160 2.84031   1
   7   0   1 322.612 14.1976   1
  -7   0  -1 331.026 12.0491   1
  -8   0  -1 -2.1159 2.66086   1
   8   0   1 0.22157 4.55791   1
   9   0   1 186.942 13.8195   1
  -9   0  -1 173.436 10.6861   1
  -9  -1   1 91.0098 8.83981   1
   9  -1  -1 83.7361 10.2759   1
   8  -1  -1 59.1213 8.18811   1
  -8  -1   1 58.6633 6.71320   1
  -8   1   1 45.4472 5.88359   1
   8   1  -1 58.4075 8.08367   1
  -7  -1   1 -0.2402 2.36332   1
   7  -1  -1 7.47568 4.37131   1
  -7   1   1 0.83460 2.48956   1
   7   1  -1 1.91545 3.68565   1
   6  -1  -1 1.75683 2.91636   1
  -6  -1   1 1.55578 2.61885   1
  -6  -1   1 6.62872 2.63802   1
   6   1  -1 2.53841 3.19522   1
  -6   1   1 0.58313 2.27595   1
  -5  -1   1 201.024 7.87393   1
   5  -1  -1 191.962 8.34440   1
  -5   1   1 206.395 7.43118   1
  -5   1   1 214.693 7.97078   1
   5   1  -1 212.507 8.61687   1
  -4  -1   1 16.5935 2.62840   1
   4  -1  -1 12.4185 2.51553   1
  -4   1   1 17.0332 2.62453   1
   4   1  -1 16.2375 2.89497   1
  -3  -1   1 235.330 7.80131   1
  -3  -1   1 237.674 6.91227   1
   3  -1  -1 238.913 7.18466   1
  -3   1   1 249.102 6.84523   1
   3   1  -1 236.618 7.18197   1
   2  -1  -1 333.873 7.74009   1
  -2  -1   1 340.869 7.81903   1
  -2  -1   1 332.725 7.74823   1
   2  -1  -1 336.232 7.84400   1
   2   1  -1 339.408 7.67830   1
   2   1  -1 334.461 7.78320   1
  -2   1   1 335.615 7.66181   1
  -2   1   1 347.011 7.71482   1
   1  -1  -1 2537.65 43.3624   1
  -1  -1   1 2546.08 43.2840   1
  -1  -1   1 2572.90 43.2953   1
   1  -1  -1 2639.66 43.3599   1
   1   1  -1 2514.77 43.1735   1
  -1   1   1 2644.70 43.2213   3
  -1   1   1 2615.72 43.2253   1
  -1   1   1 2582.26 43.2517   1
   1   1  -1 2673.83 43.2496   1
   0  -1   1 40.0173 1.64216   2
   0  -1  -1 42.3721 1.30510   1
   0  -1  -1 41.9001 1.48157   3
   0  -1  -1 43.9491 1.45979   1
   0  -1   1 41.4022 1.43346   3
   0  -1  -1 43.3423 1.51280   2
   0   1  -1 41.6652 1.70620   2
   0   1   1 42.5880 1.56704   2
   0   1  -1 43.4402 1.47553   3
  -1  -1  -1 1169.56 20.9095   1
   1  -1   1 1170.99 20.5399   1
  -1  -1  -1 1186.83 20.2792   1
   1  -1   1 1139.43 20.1933   1
   1   1   1 1170.94 20.8324   1
  -1   1  -1 1150.32 20.3310   1
   1   1   1 1151.65 20.2970   1
  -1   1  -1 1164.49 20.0979   1
   2  -1   1 319.985 7.90681   1
  -2  -1  -1 322.900 7.45404   1
  -2  -1  -1 314.096 8.01602   1
   2  -1   1 314.281 7.36048   1
   2  -1   1 308.560 7.54340   1
   2   1   1 317.937 8.11080   1
  -2   1  -1 319.792 7.22101   1
   3  -1   1 229.475 7.43895   1
  -3  -1  -1 234.533 6.76673   1
   3   1   1 230.574 7.54199   1
  -3   1  -1 228.973 6.55473   1
  -4  -1  -1 9.88678 2.06430   1
   5  -1   1 353.276 12.0841   1
  -5  -1  -1 350.519 10.6005   1
  -5   1  -1 353.241 10.4028   1
   5   1   1 350.585 12.1069   1
  -6  -1  -1 39.0104 4.58839   1
   6  -1   1 40.5362 5.68641   1
  -6   1  -1 39.7833 4.50545   1
   6   1   1 39.0453 5.56269   1
  -7  -1  -1 475.633 14.8272   1
   7  -1   1 471.266 17.3766   1
   7   1   1 449.026 16.7800   1
  -7   1  -1 468.071 14.4677   1
  -8  -1  -1 78.0091 7.60070   1
   8  -1   1 74.7009 9.31527   1
   8   1   1 60.8223 8.35178   1
  -8   1  -1 84.0262 7.16452   1
  -9  -1  -1 24.0027 5.48558   1
   9  -2  -1 48.2915 8.57232   1
  -9  -2   1 52.4649 7.44268   1
  -8  -2   1 194.790 10.3173   1
   8  -2  -1 218.631 12.6014   1
  -7  -2   1 284.888 11.0728   1
  -7  -2   1 277.166 11.6312   1
   7  -2  -1 295.698 13.0068   1
   7   2  -1 288.024 12.6771   1
  -7   2   1 263.936 10.3392   1
   6  -2  -1 720.035 19.8212   1
  -6  -2   1 742.675 19.2020   1
  -6   2   1 748.174 18.0550   1
   6   2  -1 726.658 19.8108   1
   5  -2  -1 373.227 12.0396   1
  -5  -2   1 368.394 11.2704   1
   5   2  -1 372.516 11.8874   1
  -5   2   1 369.476 10.4017   1
  -4  -2   1 247.115 8.04334   1
   4  -2  -1 223.426 8.12931   1
   4   2  -1 246.128 8.19969   1
  -4   2   1 240.789 7.30822   1
   3  -2  -1 465.226 11.2808   1
  -3  -2   1 475.162 11.4485   1
   3  -2  -1 487.144 11.5809   1
  -3  -2   1 492.612 11.3629   1
   3   2  -1 497.847 11.4320   1
  -3   2   1 497.408 10.7037   1
  -3   2   1 486.347 10.9568   1
  -2  -2   1 11.0662 1.71793   1
   2  -2  -1 10.0631 1.53786   1
  -2  -2   1 9.57500 1.58226   1
   2  -2  -1 9.43580 1.66764   1
  -2   2   1 10.8909 1.48364   1
   2   2  -1 10.9375 1.62774   1
  -2   2   1 7.97133 1.41914   3
  -2   2   1 10.7510 1.43484   1
   1  -2  -1 491.832 9.04182   1
   1  -2  -1 480.184 9.12024   1
   1  -2  -1 473.904 9.58794   3
  -1   2   1 490.702 9.63605   3
  -1   2   1 464.388 9.93784   2
   0  -2  -1 530.867 10.2623   3
   0  -2   1 519.697 10.1969   3
   0   2   1 528.599 10.6541   2
   0   2  -1 516.936 10.2657   3
   0   2   1 526.855 10.4060   3
   0   2  -1 516.248 10.7670   2
  -1  -2  -1 50.2518 2.04642   1
   1  -2   1 53.5895 2.25255   1
  -1  -2  -1 49.4686 2.18306   1
   1  -2   1 49.5999 2.28003   3
  -1  -2  -1 49.3940 2.52113   1
   1  -2   1 50.6571 1.87621   1
  -1   2  -1 48.6600 2.37297   3
  -1   2  -1 50.6451 2.74373   2
  -2  -2  -1 43.7339 2.71023   1
  -2  -2  -1 45.5598 2.56106   1
   2  -2   1 44.7277 2.87225   1
   2  -2   1 45.3628 2.37560   1
  -2  -2  -1 44.2597 2.94528   1
  -2   2  -1 46.2820 2.58291   3
  -2   2  -1 40.7720 2.17521   1
   2   2   1 48.3051 2.98426   1
  -3  -2  -1 110.566 4.94213   1
   3  -2   1 108.943 4.58080   1
  -3  -2  -1 110.049 4.72106   1
  -3  -2  -1 113.753 4.52154   1
   3  -2   1 110.529 4.99886   1
   3   2   1 115.734 5.22927   1
  -3   2  -1 112.264 4.24709   1
   5  -2   1 20.0825 4.05281   1
  -5  -2  -1 24.7817 3.40167   1
   5   2   1 23.6541 4.29194   1
  -5   2  -1 23.2126 3.29648   1
  -6  -2  -1 399.939 12.7215   1
   6  -2   1 400.842 14.4004   1
  -6   2  -1 396.954 12.0532   1
   6   2   1 398.850 14.0764   1
  -7  -2  -1 -0.4347 2.94494   1
   7  -2   1 -5.8584 3.41999   1
   7   2   1 -0.7076 4.00394   1
  -7   2  -1 -0.8870 2.40631   1
  -8  -2  -1 103.016 8.28225   1
   8  -2   1 123.612 11.2666   1
  -8  -3   1 100.214 8.09327   1
   8  -3  -1 128.193 10.5772   1
   7  -3  -1 68.1747 7.66369   1
  -7  -3   1 81.8287 6.61532   1
  -7  -3   1 72.6523 7.23195   1
  -6  -3   1 2.75165 2.85311   1
   6  -3  -1 2.48759 2.94489   1
   6   3  -1 5.73009 3.18271   1
  -6   3   1 0.77401 1.96944   1
   5  -3  -1 63.5992 5.58895   1
  -5  -3   1 77.6706 5.33510   1
  -5   3   1 62.3778 4.19190   1
  -5   3   1 73.0545 4.59432   3
   5   3  -1 65.4615 5.47090   1
   4  -3  -1 9.65400 2.69623   1
  -4  -3   1 10.4390 2.43879   1
   4   3  -1 12.0194 2.61770   1
  -4   3   1 12.6510 2.15320   1
  -4   3   1 11.2884 2.31583   3
  -3  -3   1 292.287 7.81484   1
   3  -3  -1 246.783 7.43656   1
   3  -3  -1 273.660 7.95239   1
  -3  -3   1 280.276 7.92994   1
   3   3  -1 269.953 7.37040   1
  -3   3   1 266.285 6.66240   1
  -3   3   1 257.217 7.47951   3
  -2  -3   1 12.9466 1.79555   1
  -2  -3   1 15.6857 1.86766   1
   2  -3  -1 10.9939 1.59945   1
   2  -3  -1 13.1209 1.82958   1
  -2   3   1 11.1211 1.72697   3
  -2   3   1 12.6642 2.03118   2
  -1  -3   1 607.353 12.7509   3
   1  -3  -1 616.664 12.6138   3
  -1   3   1 631.057 12.6812   3
  -1   3   1 620.723 13.1845   2
   0  -3   1 19.4599 1.65104   3
   0  -3  -1 23.1260 1.84282   3
   0   3  -1 24.0066 2.53775   2
   0   3  -1 21.6233 2.10527   3
   0   3   1 22.9545 2.42959   2
   0   3   1 22.5659 2.24639   3
  -1  -3  -1 204.888 6.09600   3
   1  -3   1 210.694 5.81426   3
  -1   3  -1 214.511 6.52020   2
  -1   3  -1 223.215 5.93347   3
   2  -3   1 137.771 4.75215   1
  -2  -3  -1 132.803 4.95032   1
  -2  -3  -1 145.469 4.70389   1
   2  -3   1 144.531 4.33901   1
  -2   3  -1 135.704 5.47837   2
  -2   3  -1 141.901 4.83911   3
  -3  -3  -1 96.6513 4.82143   1
   3  -3   1 100.180 4.94906   1
  -3  -3  -1 95.5503 4.49736   1
   3  -3   1 92.7191 4.36206   1
  -3  -3  -1 110.543 4.48156   1
  -3   3  -1 102.688 3.75161   1
  -3   3  -1 99.3073 4.39661   3
   3   3   1 102.038 4.72996   1
  -3   3  -1 97.9386 5.13889   2
  -4  -3  -1 461.805 12.0021   1
   4  -3   1 460.038 13.0439   1
  -4  -3  -1 454.669 12.4086   1
  -4   3  -1 480.162 11.3442   1
   4   3   1 481.983 12.9202   1
  -4   3  -1 476.824 12.0464   3
   5  -3   1 1318.27 28.8764   1
  -5  -3  -1 1279.85 27.1518   1
   5   3   1 1288.04 28.4672   1
  -5   3  -1 1297.88 26.1871   1
  -6  -3  -1 223.404 9.32978   1
   6  -3   1 227.711 10.8671   1
  -6   3  -1 228.583 9.13940   1
   6   3   1 215.478 11.1181   1
  -7  -3  -1 29.2821 4.91020   1
   7  -3   1 34.2046 6.20213   1
  -8  -3  -1 34.3335 5.57305   1
   8  -3   1 20.4492 6.39535   1
   8  -4  -1 14.3927 5.68479   1
  -8  -4   1 16.8251 4.57361   1
  -8   4   1 12.5409 3.89147   3
  -7  -4   1 1084.97 26.7035   1
  -7  -4   1 1024.76 25.3918   1
   7  -4  -1 1006.96 27.5356   1
  -7   4   1 1071.84 24.9865   3
  -6  -4   1 39.7793 5.31670   1
   6  -4  -1 26.8045 5.07004   1
  -6   4   1 26.3693 3.78954   3
  -5  -4   1 250.830 9.21155   1
   5  -4  -1 231.837 9.55967   1
  -5   4   1 239.646 9.78107   2
  -5   4   1 249.275 8.81455   3
  -4  -4   1 21.2184 3.31248   1
  -4  -4   1 13.0071 3.02794   1
   4  -4  -1 19.4954 3.37487   1
  -4   4   1 18.6888 2.89951   3
  -4   4   1 17.8736 3.17309   2
  -4   4   1 12.7500 1.92920   1
  -3  -4   1 258.430 7.99759   1
   3  -4  -1 261.786 7.84415   1
  -3  -4   1 321.210 8.26730   1
   3  -4  -1 294.516 8.30346   1
  -3   4   1 269.797 8.96418   2
  -3   4   1 281.313 8.29698   3
   2  -4  -1 182.837 5.51367   1
   2  -4  -1 185.027 5.42108   1
  -2   4   1 195.583 6.18267   3
  -2   4   1 184.900 6.81131   2
   1   4  -1 1397.63 28.0440   2
  -1   4   1 1422.51 26.6502   3
  -1   4   1 1417.99 27.4994   2
   0   4   1 451.039 11.2027   2
   0   4  -1 445.920 10.5562   3
   0   4  -1 426.037 11.3391   2
   0   4   1 432.170 10.6590   3
  -1   4  -1 14.2235 2.47249   2
  -1   4  -1 14.3996 2.06402   3
  -2  -4  -1 30.1255 2.63788   1
   2  -4   1 32.0552 2.17927   1
  -2  -4  -1 30.7658 2.42870   1
   2  -4   1 36.0125 2.75662   1
  -2  -4  -1 33.4057 2.87858   1
  -2   4  -1 30.6542 2.70736   3
  -2   4  -1 33.5575 3.66340   2
  -3  -4  -1 25.5086 2.78285   1
  -3  -4  -1 18.1804 2.81879   1
   3  -4   1 21.4005 2.58274   1
   3  -4   1 24.8943 3.17213   1
  -3  -4  -1 25.4109 2.95803   1
  -3   4  -1 22.0965 3.39881   2
  -3   4  -1 25.8598 3.06363   3
  -4  -4  -1 24.5234 3.33021   1
   4  -4   1 28.2561 3.81733   1
  -4   4  -1 24.2496 3.26469   3
   4   4   1 20.1624 3.17345   1
  -4   4  -1 20.8681 2.38005   1
  -4   4  -1 22.7730 3.59437   2
   5  -4   1 116.412 7.10506   1
  -5  -4  -1 107.340 5.92259   1
  -5   4  -1 104.591 5.85149   3
  -5   4  -1 99.0838 6.79303   2
  -6  -4  -1 90.8230 6.46592   1
   6  -4   1 89.3543 7.71398   1
  -6   4  -1 89.0608 6.04783   3
   7  -4   1 80.6918 8.64203   1
  -7  -4  -1 81.4597 7.17144   1
  -7   4  -1 73.9331 6.28645   3
  -8  -4  -1 8.23280 4.18752   1
   8  -4   1 1.03637 5.18090   1
  -8   4  -1 4.90441 3.56643   3
  -8  -5   1 33.7280 5.97933   1
   8  -5  -1 61.4346 8.27192   1
  -8   5   1 40.5341 6.77249   2
  -7  -5   1 87.0937 7.67652   1
  -7  -5   1 64.2263 6.72234   1
   7  -5  -1 56.7930 7.36060   1
  -7   5   1 88.6423 8.71769   2
  -7   5   1 79.4717 6.61612   3
  -6  -5   1 74.3456 6.19967   1
   6  -5  -1 62.9857 6.84905   1
  -6  -5   1 41.4477 5.71866   1
  -6   5   1 50.1967 5.34438   3
  -6   5   1 53.5616 6.39058   2
   5  -5  -1 11.8840 4.00890   1
  -5  -5   1 10.1189 3.09167   1
  -5   5   1 8.87330 2.78421   3
  -5   5   1 14.5984 3.62394   2
  -4  -5   1 1.72530 2.18562   1
   4  -5  -1 -2.5781 2.28214   1
  -4   5   1 -0.1545 1.84899   2
  -4   5   1 2.07561 1.84289   3
   3  -5  -1 79.2911 4.69895   1
  -3  -5   1 86.4075 4.39201   1
   3  -5  -1 74.1795 4.06217   1
  -3  -5   1 80.4313 4.49517   1
  -3   5   1 82.9600 5.52868   2
  -3   5   1 85.2643 4.74562   3
  -2   5   1 408.903 11.6921   2
  -2   5   1 398.430 10.6924   3
   1   5  -1 1007.34 22.5113   2
  -1   5   1 1014.98 20.9334   3
  -1   5   1 992.663 21.7115   2
   0   5  -1 19.2021 2.84554   3
   0   5   1 16.7646 2.90442   2
   0   5  -1 14.9875 2.81061   2
  -1   5  -1 702.160 16.9014   2
  -1   5  -1 688.808 15.7871   3
  -2  -5  -1 -1.9086 1.10809   1
  -2   5  -1 2.40305 1.63092   3
  -2   5  -1 0.35955 1.95321   2
   3  -5   1 20.0677 3.13019   1
  -3  -5  -1 18.6022 2.56907   1
  -3   5  -1 18.0533 2.99814   3
  -3   5  -1 24.1616 3.69599   2
   4  -5   1 15.2165 3.34272   1
  -4  -5  -1 16.1939 2.87647   1
  -4   5  -1 16.7246 3.16759   3
  -4   5  -1 22.6840 3.91878   2
   5  -5   1 836.659 21.5175   1
  -5  -5  -1 860.358 20.0342   1
  -5   5  -1 839.937 22.1649   2
  -5   5  -1 833.683 20.1599   3
  -6  -5  -1 34.0443 4.78933   1
   6  -5   1 29.0490 5.76954   1
  -6   5  -1 28.9561 4.44135   3
  -6   5  -1 26.8406 5.20126   2
   7  -5   1 1.40376 4.40301   1
  -7  -5  -1 9.97052 3.70121   1
  -7   5  -1 4.08465 3.27664   3
  -7   5  -1 -0.4972 3.66113   2
   7  -6  -1 284.226 13.9798   1
  -7  -6   1 288.410 12.3779   1
  -7   6   1 252.185 11.5120   3
  -7   6   1 277.589 13.5676   2
   6  -6  -1 39.4002 6.24271   1
  -6  -6   1 38.3719 5.23272   1
  -6  -6   1 41.1782 5.97312   1
  -6   6   1 35.9457 5.05773   3
  -6   6   1 52.2886 6.71239   2
  -5  -6   1 27.4777 4.31758   1
   5  -6  -1 29.8841 5.15020   1
  -5   6   1 30.7739 5.18723   2
  -5   6   1 38.5670 4.84177   3
  -4  -6   1 260.157 8.91278   1
   4  -6  -1 272.510 9.73889   1
  -4   6   1 261.065 10.8176   2
  -4   6   1 261.754 9.54957   3
  -3  -6   1 130.382 5.48351   1
   3  -6  -1 106.635 5.58478   1
  -3   6   1 103.527 5.76641   3
  -3   6   1 111.988 6.76810   2
  -2   6   1 2.72036 1.93381   3
  -2   6   1 4.33651 2.34508   2
  -1   6   1 80.5198 5.02433   3
  -1   6   1 73.9423 5.29278   2
   0   6  -1 53.9768 4.87942   2
   0   6   1 52.7030 5.28601   2
  -1   6  -1 61.4722 5.03388   2
  -1   6  -1 69.6575 4.58550   3
  -2   6  -1 90.6417 6.19145   2
  -2   6  -1 97.9678 5.35651   3
  -3  -6  -1 16.4016 2.56856   1
   3  -6   1 19.4986 3.34059   1
  -3   6  -1 13.4625 3.30307   2
  -3   6  -1 13.4246 2.95487   3
  -4  -6  -1 244.098 8.66999   1
   4  -6   1 270.338 9.92218   1
  -4   6  -1 238.882 10.7533   2
  -5  -6  -1 10.1891 3.15433   1
   5  -6   1 0.99581 3.65968   1
  -5   6  -1 12.7021 3.97711   2
  -5   6  -1 8.97520 3.19181   3
  -6  -6  -1 26.3332 4.67438   1
   6  -6   1 11.1418 4.82009   1
  -6   6  -1 15.5608 4.12523   3
  -6   6  -1 16.9183 4.68808   2
  -7  -6  -1 30.4247 5.22911   1
   7  -6   1 26.9062 6.61200   1
  -7   6  -1 33.3567 6.34269   2
  -6  -7   1 152.665 8.78467   1
   6  -7  -1 180.039 10.9958   1
  -6   7   1 150.777 10.6741   2
  -6   7   1 165.092 9.17353   3
  -5  -7   1 17.7593 3.99104   1
   5  -7  -1 15.5837 4.54627   1
  -5  -7   1 24.7422 4.49881   1
  -5   7   1 20.7747 4.40190   3
  -5   7   1 17.9932 4.34617   2
  -4  -7   1 52.8748 5.16722   1
   4  -7  -1 51.0335 5.22834   1
  -4   7   1 50.8581 5.45392   3
  -4   7   1 37.7126 5.71725   2
  -3   7   1 34.5372 4.52823   3
  -3   7   1 37.6406 5.48862   2
  -2   7   1 52.5026 5.94117   2
  -2   7   1 60.0974 5.61378   3
  -1   7   1 190.916 8.53265   3
  -1   7   1 189.808 9.03617   2
   0   7  -1 1.13366 2.30129   2
   0   7   1 -1.4226 2.29701   2
  -1   7  -1 9.15447 3.19904   2
  -1   7  -1 5.49065 2.66540   3
  -2   7  -1 277.111 10.1866   3
  -2   7  -1 270.090 11.0822   2
  -3  -7  -1 79.5941 4.41622   1
  -3   7  -1 90.4609 5.95507   3
  -3   7  -1 82.9474 6.91192   2
   4  -7   1 83.1245 6.35617   1
  -4  -7  -1 79.7509 5.35883   1
  -4   7  -1 88.9119 6.12931   3
  -4   7  -1 75.4552 7.64964   2
  -5  -7  -1 212.590 8.96005   1
   5  -7   1 214.290 10.5224   1
  -5   7  -1 209.240 9.90882   3
  -5   7  -1 233.524 11.6508   2
   6  -7   1 78.7371 8.52003   1
  -6  -7  -1 90.2701 7.46478   1
  -6   7  -1 95.9018 9.82222   2
  -6   7  -1 107.534 9.11164   3
  -5  -8   1 159.515 7.61740   1
   5  -8  -1 167.765 9.60704   1
  -5   8   1 159.255 9.21794   3
  -5   8   1 170.655 10.9842   2
  -4  -8   1 144.556 6.35674   1
   4  -8  -1 120.161 7.34337   1
  -4   8   1 130.616 9.61064   2
  -4   8   1 130.249 8.17121   3
  -3   8   1 -0.7905 2.51452   3
  -3   8   1 1.31084 3.09187   2
  -2   8   1 93.3537 7.79256   2
  -2   8   1 74.2387 6.29527   3
  -1   8   1 128.205 8.43944   2
   0   8  -1 238.103 11.5475   2
   0   8   1 247.547 11.4064   2
  -1   8  -1 75.4451 6.07233   3
  -1   8  -1 61.4535 7.07833   2
  -2   8  -1 29.3469 5.19598   2
  -2   8  -1 27.6252 4.58759   3
  -3   8  -1 11.2310 3.95264   2
  -3   8  -1 11.3066 3.47528   3
   4  -8   1 190.784 8.87489   1
  -4  -8  -1 199.310 7.91877   1
  -4   8  -1 201.042 11.5642   2
  -4   8  -1 203.893 9.93318   3
  -5  -8  -1 8.14207 3.36334   1
   5  -8   1 -0.2841 3.05805   1
  -5   8  -1 6.20963 4.33102   2
  -3   9   1 33.3413 5.61774   3
  -3   9   1 31.6879 6.34510   2
  -2   9   1 86.2670 9.30892   2
  -2   9   1 73.3824 7.91392   3
  -1   9   1 121.998 9.50234   2
  -1   9  -1 1.65006 3.77314   2
  -2   9  -1 20.3653 5.44755   2
  -2   9  -1 21.1306 4.98757   3
  -3   9  -1 251.707 16.4458   3
  -3   9  -1 248.625 13.3956   2
  -9   0   2 -5.2538 3.55620   1
   9   0  -2 -0.8332 5.25489   1
   8   0  -2 347.926 15.2082   1
  -8   0   2 329.466 12.8636   1
   7   0  -2 2.20586 3.65382   1
  -7   0   2 4.50585 3.20928   1
  -7   0   2 -1.3901 2.30713   1
   6   0  -2 386.403 13.3633   1
  -6   0   2 399.470 12.5781   1
  -5   0   2 0.49309 1.85254   1
   5   0  -2 3.97261 2.44489   1
   4   0  -2 33.3964 3.71492   1
  -4   0   2 37.6869 3.51328   1
  -3   0   2 -1.3270 1.22950   1
   3   0  -2 -1.7426 1.40667   1
  -2   0   2 355.589 8.33436   1
   2   0  -2 354.829 8.29700   1
   2   0  -2 348.985 8.34023   1
  -2   0   2 348.594 8.24720   1
  -1   0   2 -1.7796 0.69593   1
  -1   0   2 -2.2769 0.87459   1
   1   0  -2 -2.0244 0.83851   1
   1   0  -2 -1.7127 0.77616   1
   0   0  -2 1581.40 26.8056   1
   0   0   2 1601.23 27.2338   1
   0   0   2 1552.96 26.7678   1
   0   0  -2 1525.45 27.2078   1
  -1   0  -2 -0.1214 0.81831   1
   1   0   2 -1.0953 1.22363   1
  -1   0  -2 -0.6499 1.04540   1
   1   0   2 -0.3399 0.75706   1
  -2   0  -2 140.209 4.56438   1
   2   0   2 147.687 5.11742   1
   2   0   2 140.596 5.37185   1
  -3   0  -2 -2.5220 0.84682   1
   3   0   2 -1.4569 1.71810   1
  -4   0  -2 302.402 8.95820   1
   4   0   2 301.675 10.2544   1
  -5   0  -2 -0.4323 1.68812   1
   5   0   2 3.10161 2.81366   1
  -6   0  -2 281.454 10.2154   1
   6   0   2 278.627 12.1593   1
   7   0   2 -1.9205 4.07915   1
  -7   0  -2 -0.8738 2.53914   1
  -8   0  -2 17.2465 4.58616   1
   8   0   2 22.2430 6.31457   1
   9  -1  -2 6.92343 5.91332   1
  -9  -1   2 0.42741 3.81489   1
   8  -1  -2 192.260 11.8057   1
  -8  -1   2 189.689 9.82912   1
  -8  -1   2 203.342 10.7887   1
  -8   1   2 178.263 9.35635   1
   8   1  -2 191.715 11.5381   1
  -7  -1   2 67.7199 6.83758   1
   7  -1  -2 59.1785 6.94679   1
  -7  -1   2 73.4435 6.27325   1
   7   1  -2 69.0006 7.48419   1
  -7   1   2 72.4376 5.86603   1
   6  -1  -2 499.788 15.5188   1
  -6  -1   2 482.213 14.4445   1
   6   1  -2 522.168 15.5750   1
  -6   1   2 517.831 14.1642   1
  -6   1   2 512.871 14.6486   1
  -5  -1   2 11.0803 2.69857   1
   5  -1  -2 9.96266 2.99548   1
   5   1  -2 9.06388 2.89225   1
  -5   1   2 10.4245 2.62429   1
   4  -1  -2 2.45011 1.88295   1
  -4  -1   2 4.25403 1.85515   1
   4   1  -2 4.89238 1.97113   1
  -4   1   2 3.43107 1.63416   1
   3  -1  -2 18.3649 2.61148   1
  -3  -1   2 18.2256 2.54937   1
  -3  -1   2 15.4543 2.79855   1
  -3   1   2 17.7032 2.26962   1
   3   1  -2 14.7330 2.34053   1
   2  -1  -2 7452.76 121.175   1
   2  -1  -2 7081.51 121.158   1
  -2  -1   2 7125.24 120.952   1
  -2  -1   2 7450.80 121.142   1
  -2   1   2 7294.80 121.607   1
   2   1  -2 7181.01 121.638   1
   2   1  -2 7605.58 121.021   1
  -2   1   2 7185.03 120.935   1
   1  -1  -2 1157.47 21.1397   1
  -1  -1   2 1193.80 20.9140   1
   1  -1  -2 1228.34 20.4157   3
  -1  -1   2 1176.90 21.0101   1
   1  -1  -2 1198.10 20.9881   1
   1   1  -2 1134.86 20.8945   1
  -1   1   2 1197.22 20.3442   3
  -1   1   2 1174.64 20.9113   1
  -1   1   2 1202.34 21.0574   1
   1   1  -2 1239.43 20.8336   1
   0  -1   2 6.28433 0.77366   3
   0  -1  -2 4.68927 0.91358   1
   0  -1  -2 5.51281 1.08133   1
   0  -1   2 4.83052 0.84144   2
   0  -1   2 6.22062 0.94192   1
   0   1  -2 6.33573 1.13837   1
   0   1   2 5.23809 0.90225   1
   0   1  -2 4.65800 0.90004   1
   0   1   2 6.12223 1.07082   1
  -1  -1  -2 370.397 8.65292   1
   1  -1   2 386.870 8.51921   1
   1  -1   2 376.522 7.85983   1
  -1  -1  -2 382.300 7.94476   1
   1   1   2 375.951 8.66540   1
   1   1   2 368.342 7.76269   1
  -1   1  -2 362.741 8.10580   1
  -1   1  -2 374.666 7.76377   1
  -2  -1  -2 841.998 16.3419   1
   2  -1   2 828.159 16.1661   1
   2  -1   2 860.543 17.2452   1
  -2  -1  -2 807.029 17.1789   1
  -2   1  -2 834.736 16.1380   1
   2   1   2 832.408 17.3539   1
   3  -1   2 31.2351 3.59738   1
  -3  -1  -2 29.1008 2.63253   1
  -3   1  -2 29.4785 2.66944   1
   3   1   2 30.9178 3.63631   1
   4  -1   2 401.341 12.2577   1
  -4  -1  -2 422.466 11.0779   1
   4   1   2 423.144 12.4642   1
  -4   1  -2 421.111 10.9282   1
  -5  -1  -2 20.7864 3.24616   1
   5  -1   2 15.8973 3.90607   1
   5   1   2 12.1623 3.66936   1
  -5   1  -2 15.7040 2.93478   1
  -6  -1  -2 65.7621 5.48000   1
   6  -1   2 62.2919 7.20855   1
   6   1   2 57.2350 6.61945   1
  -6   1  -2 58.3174 5.16579   1
   7  -1   2 -0.0849 3.97051   1
  -7  -1  -2 0.58473 2.70799   1
   7   1   2 1.79417 4.10737   1
  -7   1  -2 1.18165 2.70239   1
  -8  -1  -2 18.5041 4.97810   1
   8  -1   2 20.6350 6.38731   1
  -8   1  -2 12.8967 4.10917   1
   8   1   2 11.8888 6.05025   1
  -9  -2   2 54.5996 7.37984   1
   9  -2  -2 53.4013 8.22084   1
  -8  -2   2 2.58380 3.32123   1
   8  -2  -2 5.54274 4.53070   1
  -8  -2   2 13.1903 4.31143   1
  -7  -2   2 77.8612 7.00231   1
   7  -2  -2 74.4748 7.77141   1
   7   2  -2 74.3472 7.58831   1
  -7   2   2 82.5806 6.08114   1
  -6  -2   2 18.9659 3.90720   1
   6  -2  -2 20.0241 4.26846   1
  -6   2   2 17.6546 3.29082   1
   6   2  -2 15.4543 4.03519   1
  -5  -2   2 433.264 12.7073   1
   5  -2  -2 439.201 13.1349   1
  -5   2   2 442.081 12.2169   1
   5   2  -2 450.316 12.9669   1
  -5   2   2 425.228 11.6333   1
  -4  -2   2 0.61276 1.67550   1
   4  -2  -2 -1.1580 1.69208   1
   4   2  -2 -0.7287 1.79530   1
  -4   2   2 -1.2160 1.46007   1
   3  -2  -2 -1.9308 1.45939   1
  -3  -2   2 -2.5757 1.23691   1
  -3  -2   2 -2.6553 1.49744   1
   3  -2  -2 -2.5570 0.97863   1
  -3   2   2 -4.0083 1.17639   1
   3   2  -2 -1.9131 1.50559   1
  -2  -2   2 302.564 7.27337   1
   2  -2  -2 285.643 7.31306   1
   2  -2  -2 309.285 7.37504   1
  -2  -2   2 293.272 7.15512   1
  -2   2   2 303.629 7.04770   1
  -2   2   2 294.403 6.96716   3
   2   2  -2 305.198 7.00812   1
   1  -2  -2 20.7639 1.60151   3
  -1  -2   2 21.6510 1.69872   3
   1  -2  -2 21.1626 1.82573   1
  -1  -2   2 21.7850 1.65551   1
   1  -2  -2 23.0208 1.81479   1
  -1  -2   2 20.2458 1.66558   1
  -1   2   2 22.7944 1.70063   3
  -1   2   2 21.1569 1.86929   2
  -1   2   2 22.8443 1.43199   1
   0  -2   2 5.28897 0.97691   3
   0  -2  -2 5.14715 1.00641   1
   0  -2  -2 6.71774 1.20977   1
   0  -2  -2 4.76197 1.05853   3
   0   2  -2 6.05994 1.07415   3
   0   2   2 5.65716 1.22599   2
   0   2  -2 6.26861 1.30970   2
   1  -2   2 109.289 3.76149   1
  -1  -2  -2 103.358 3.98700   1
   1  -2   2 103.950 3.22253   1
  -1  -2  -2 105.240 3.37065   1
  -1   2  -2 102.400 3.45180   3
  -1   2  -2 107.345 3.98136   2
   1   2   2 101.993 3.23821   1
   1   2   2 108.478 3.68897   1
  -2  -2  -2 31.2869 3.13117   1
  -2  -2  -2 33.1871 2.34334   1
   2  -2   2 34.4965 2.94229   1
   2  -2   2 32.1922 2.18784   1
  -2   2  -2 35.1873 2.36938   3
   2   2   2 32.3505 2.98602   1
  -2   2  -2 34.5088 2.15171   1
  -4  -2  -2 738.392 16.9597   1
   4  -2   2 744.527 18.3136   1
  -4   2  -2 759.539 16.5646   1
   4   2   2 766.282 18.5220   1
  -5  -2  -2 17.1974 3.08449   1
   5  -2   2 15.1934 3.92477   1
  -5   2  -2 18.9232 3.10341   1
   5   2   2 21.0738 4.13653   1
   6  -2   2 374.248 14.4787   1
  -6  -2  -2 392.700 12.6418   1
  -6   2  -2 382.142 11.9835   1
   6   2   2 396.465 14.3894   1
  -7  -2  -2 170.007 9.18921   1
   7  -2   2 174.781 11.4430   1
  -7   2  -2 172.231 8.54107   1
   7   2   2 170.933 10.9250   1
   8  -2   2 24.6149 7.02802   1
  -8  -2  -2 30.8484 5.25459   1
   8  -3  -2 263.150 13.8071   1
  -8  -3   2 266.263 11.9551   1
  -8  -3   2 276.550 12.7582   1
  -7  -3   2 5.91026 3.50503   1
   7  -3  -2 4.47355 3.79461   1
   6  -3  -2 103.877 7.46720   1
  -6  -3   2 106.558 6.89996   1
  -6   3   2 98.4692 5.82283   1
   6   3  -2 101.705 7.01644   1
   5  -3  -2 213.971 8.87070   1
  -5  -3   2 196.878 8.35003   1
  -5   3   2 217.379 7.40355   1
  -5   3   2 216.592 7.70993   3
   5   3  -2 219.302 8.66936   1
  -4  -3   2 580.445 13.9490   1
   4  -3  -2 567.538 14.2105   1
  -4   3   2 546.165 13.1176   3
  -4   3   2 567.876 12.7612   1
   4   3  -2 553.818 13.5667   1
  -3  -3   2 963.998 19.2835   1
   3  -3  -2 965.971 19.4168   1
  -3  -3   2 973.385 19.1953   1
   3  -3  -2 901.078 19.1740   1
   3   3  -2 881.069 18.3607   1
  -3   3   2 972.996 18.1313   1
  -3   3   2 947.481 19.9110   2
  -3   3   2 969.605 18.9635   3
  -2  -3   2 2339.68 40.2998   1
   2  -3  -2 2267.70 40.5832   1
  -2  -3   2 2316.11 40.2707   1
   2  -3  -2 2408.79 40.5296   1
  -2   3   2 2341.50 40.7017   3
  -2   3   2 2245.01 41.2496   2
   1  -3  -2 7.94129 1.28080   1
   1  -3  -2 9.78723 1.45652   1
  -1  -3   2 4.92344 1.18886   3
   1  -3  -2 9.61013 1.50793   3
   1   3  -2 11.2332 2.15534   2
  -1   3   2 7.77585 1.56999   2
  -1   3   2 9.47796 1.48852   3
   0  -3   2 251.611 6.46847   3
   0  -3  -2 265.498 6.64786   3
   0   3   2 271.679 7.11712   2
   0   3  -2 263.168 7.47660   2
   0   3  -2 269.462 6.79069   3
  -1  -3  -2 195.709 5.71485   1
   1  -3   2 174.762 5.71897   3
  -1  -3  -2 194.784 4.87103   1
  -1   3  -2 186.342 6.17416   2
  -1   3  -2 190.591 5.49002   3
   2  -3   2 2.50079 1.54728   1
   2  -3   2 1.89931 0.94325   1
  -2  -3  -2 0.91869 1.04671   1
  -2  -3  -2 1.60827 1.57486   1
   2   3   2 1.69275 1.24951   1
  -2   3  -2 0.84269 1.13125   3
  -2   3  -2 2.30253 1.47733   2
  -3  -3  -2 51.6454 4.14704   1
  -3  -3  -2 63.4963 3.74551   1
   3  -3   2 74.4655 4.57488   1
   3  -3   2 71.0456 3.77412   1
  -3   3  -2 65.0465 4.44269   2
   3   3   2 63.0330 4.34692   1
  -3   3  -2 70.7308 3.31019   1
   4  -3   2 449.286 12.9856   1
  -4  -3  -2 432.291 11.7026   1
   4   3   2 451.203 12.7670   1
  -4   3  -2 425.128 11.4667   3
  -4   3  -2 429.207 10.8793   1
  -5  -3  -2 29.3910 4.03579   1
   5  -3   2 33.3893 4.99099   1
   5   3   2 33.0702 4.70662   1
  -5   3  -2 33.1633 3.55890   1
  -6  -3  -2 42.3508 5.04432   1
   6  -3   2 41.7737 6.00429   1
  -7  -3  -2 3.94486 3.18487   1
   7  -3   2 -1.1622 4.11821   1
  -8  -3  -2 44.3391 6.20763   1
   8  -3   2 58.5148 8.73234   1
  -8  -4   2 17.5957 4.68783   1
  -8  -4   2 19.0219 5.08289   1
   8  -4  -2 14.0160 5.54155   1
  -8   4   2 13.1867 4.13504   3
  -7  -4   2 21.4024 4.99610   1
   7  -4  -2 36.7152 6.17578   1
  -7   4   2 32.5829 4.49152   3
  -6  -4   2 156.298 8.30497   1
   6  -4  -2 167.731 9.16716   1
  -6   4   2 161.230 7.47756   3
  -5  -4   2 11.8759 2.97483   1
   5  -4  -2 3.77900 2.81192   1
  -5   4   2 3.39222 2.60836   2
  -5   4   2 5.29382 2.40640   3
  -4  -4   2 344.991 10.0887   1
  -4  -4   2 301.346 9.80914   1
   4  -4  -2 351.390 10.5070   1
  -4   4   2 339.619 8.44728   1
  -4   4   2 333.063 10.5812   2
  -4   4   2 337.512 9.69128   3
  -3  -4   2 64.5738 3.97284   1
  -3  -4   2 60.6975 3.86900   1
   3  -4  -2 62.3998 4.15148   1
   3  -4  -2 63.4834 3.75101   1
  -3   4   2 63.8920 3.78535   3
  -3   4   2 64.2589 4.34406   2
   2  -4  -2 26.7474 2.52845   1
   2  -4  -2 23.9192 2.40780   1
  -2   4   2 31.2233 2.99293   3
  -2   4   2 25.4267 3.00159   2
  -1   4   2 257.502 7.35263   3
  -1   4   2 263.215 7.76842   2
   1   4  -2 255.472 8.41591   2
   0   4   2 3.73767 1.62795   2
   0   4  -2 3.91582 1.39859   3
   0   4  -2 3.20919 1.53351   2
  -1  -4  -2 5.10178 1.57842   1
  -1   4  -2 6.48293 1.54592   3
  -1   4  -2 8.73103 2.02330   2
   2  -4   2 585.505 12.5818   1
   2  -4   2 647.674 13.5644   1
  -2  -4  -2 591.281 14.0418   1
  -2  -4  -2 626.233 12.9751   1
  -2   4  -2 618.389 13.8822   3
  -2   4  -2 623.221 15.1612   2
  -3  -4  -2 392.665 10.0505   1
   3  -4   2 353.806 9.56871   1
   3  -4   2 364.209 10.6506   1
  -3  -4  -2 354.605 10.8254   1
  -3   4  -2 372.768 10.1614   3
  -3   4  -2 373.143 11.3095   2
   4  -4   2 190.369 8.51574   1
  -4  -4  -2 205.154 7.56851   1
   4   4   2 209.783 7.74189   1
  -4   4  -2 203.138 8.72237   2
  -4   4  -2 213.390 7.72892   3
  -4   4  -2 190.854 6.76888   1
   5  -4   2 9.67384 3.37822   1
  -5  -4  -2 9.51339 2.65659   1
  -5   4  -2 6.23742 2.59009   3
  -5   4  -2 8.27922 3.16525   2
   6  -4   2 -2.0108 3.26349   1
  -6  -4  -2 -0.1538 2.53337   1
  -6   4  -2 0.19109 2.44474   3
  -7  -4  -2 9.27391 3.46429   1
   7  -4   2 0.77675 4.54665   1
  -7   4  -2 2.71874 3.14076   3
  -8  -4  -2 224.555 11.6622   1
   8  -4   2 256.259 15.2318   1
   8  -5  -2 164.813 11.9964   1
  -8  -5   2 155.974 9.77867   1
  -8  -5   2 155.110 10.5475   1
  -8   5   2 156.740 10.7598   2
  -8   5   2 143.140 11.5154   3
   7  -5  -2 8.39682 4.42414   1
  -7  -5   2 -0.7841 3.63154   1
  -7   5   2 8.05913 4.18636   2
  -7   5   2 0.11911 2.92369   3
   6  -5  -2 2.57893 3.58073   1
  -6  -5   2 5.07181 3.05267   1
  -6   5   2 7.44406 2.91043   3
  -6   5   2 4.98687 3.46921   2
  -5  -5   2 33.8095 4.45708   1
   5  -5  -2 37.4092 5.09693   1
  -5   5   2 37.6613 4.98073   2
  -5   5   2 42.7222 4.67268   3
   4  -5  -2 468.682 12.9085   1
  -4  -5   2 464.339 12.4618   1
  -4   5   2 448.344 12.4286   3
  -4   5   2 448.652 13.4179   2
   3  -5  -2 13.2528 2.68739   1
  -3  -5   2 8.58941 2.16757   1
  -3  -5   2 13.6695 2.43158   1
   3  -5  -2 11.9850 2.20726   1
  -3   5   2 12.9506 2.93948   2
  -3   5   2 16.0238 2.77180   3
   2  -5  -2 32.2676 2.69690   1
  -2   5   2 30.7154 3.68047   2
  -2   5   2 33.6315 3.40614   3
  -1   5   2 2.16286 1.56928   2
   1   5  -2 -0.0888 1.74491   2
  -1   5   2 3.47439 1.70883   3
   0   5   2 1281.00 26.8881   2
   0   5  -2 1354.85 26.3948   3
   0   5  -2 1306.67 27.6209   2
  -1   5  -2 15.6010 2.51053   3
  -1   5  -2 17.2156 2.96424   2
   2  -5   2 48.6534 2.72043   1
  -2  -5  -2 45.3609 3.80447   1
  -2  -5  -2 41.5754 3.03569   1
  -2   5  -2 45.6558 3.73901   3
  -2   5  -2 45.7804 4.67381   2
   3  -5   2 185.792 7.44554   1
  -3  -5  -2 191.343 6.69991   1
  -3   5  -2 184.817 8.30204   2
  -3   5  -2 196.969 7.37699   3
  -4  -5  -2 189.879 7.32590   1
   4  -5   2 177.622 8.43629   1
  -4   5  -2 197.657 8.94725   2
  -4   5  -2 187.249 7.68626   3
  -5  -5  -2 18.9278 3.42505   1
   5  -5   2 13.4209 4.45790   1
  -5   5  -2 11.2506 3.09363   3
  -5   5  -2 16.1315 4.15955   2
   6  -5   2 48.7047 6.67841   1
  -6  -5  -2 54.9700 6.19158   1
  -6   5  -2 56.3765 5.92939   3
  -6   5  -2 56.8122 7.10613   2
  -7  -5  -2 21.5251 4.82034   1
   7  -5   2 2.49068 5.85674   1
  -7   5  -2 13.9847 5.12471   2
  -7   5  -2 16.5873 4.17564   3
  -7  -6   2 489.236 17.3462   1
  -7  -6   2 468.152 16.2688   1
   7  -6  -2 502.938 18.1645   1
  -7   6   2 469.325 17.4987   2
  -7   6   2 487.982 15.9230   3
  -6  -6   2 34.2375 5.56193   1
   6  -6  -2 41.8078 6.30171   1
  -6   6   2 34.6627 5.55044   2
  -6   6   2 42.4203 5.39446   3
  -5  -6   2 28.4845 4.55384   1
   5  -6  -2 21.4885 4.55793   1
  -5   6   2 21.0255 3.85167   3
  -5   6   2 21.6645 4.41985   2
   4  -6  -2 19.6100 3.85079   1
  -4  -6   2 26.0732 3.69202   1
  -4   6   2 19.3353 3.56970   3
  -4   6   2 27.0346 4.46029   2
   3  -6  -2 373.596 10.5077   1
  -3  -6   2 380.281 10.0251   1
  -3   6   2 379.578 12.3689   2
  -3   6   2 379.319 11.3549   3
  -2   6   2 53.1118 4.31898   3
  -2   6   2 52.3107 4.63948   2
   1   6  -2 334.987 11.7618   2
  -1   6   2 350.442 10.7027   3
  -1   6   2 327.888 11.0933   2
   0   6   2 39.5839 4.61740   2
   0   6  -2 38.2445 4.64647   2
   0   6  -2 41.2402 4.43067   3
  -1   6  -2 64.0269 4.57681   3
  -2   6  -2 2.14810 2.28813   2
  -2   6  -2 2.56565 1.96168   3
  -3  -6  -2 144.075 6.13251   1
   3  -6   2 155.673 7.13229   1
  -3   6  -2 156.616 8.20220   2
  -3   6  -2 153.587 7.11047   3
  -4  -6  -2 217.743 8.32736   1
   4  -6   2 221.306 9.44082   1
  -4   6  -2 217.917 8.78390   3
  -4   6  -2 201.699 9.98016   2
  -5  -6  -2 22.0885 4.31890   1
   5  -6   2 19.9547 4.79059   1
  -5   6  -2 26.4496 4.36851   3
  -5   6  -2 23.5297 4.90029   2
   6  -6   2 65.5370 7.98021   1
  -6  -6  -2 44.1640 6.35442   1
  -6   6  -2 65.0714 6.89323   3
  -6   6  -2 66.8359 7.69786   2
   6  -7  -2 112.199 9.80930   1
  -6  -7   2 103.328 8.00290   1
  -6   7   2 106.276 7.74977   3
  -6   7   2 109.612 9.42227   2
  -5  -7   2 78.3486 6.50727   1
   5  -7  -2 85.9034 7.49057   1
  -5   7   2 84.9644 7.50219   2
  -5   7   2 81.8319 6.45023   3
   4  -7  -2 139.466 7.58817   1
  -4  -7   2 143.796 6.94372   1
  -4   7   2 155.432 7.78025   3
  -4   7   2 139.554 8.65565   2
   3  -7  -2 140.153 6.31968   1
  -3   7   2 136.557 8.20900   2
  -3   7   2 138.034 7.27043   3
  -2   7   2 307.867 11.6415   2
  -2   7   2 316.762 10.8373   3
  -1   7   2 565.314 16.4856   2
   0   7  -2 26.4893 4.57069   2
   0   7   2 26.8490 4.46154   2
  -1   7  -2 54.7027 6.08523   2
  -1   7  -2 58.0190 5.05700   3
  -2   7  -2 36.7064 5.32127   2
  -2   7  -2 45.4254 5.09861   3
  -3  -7  -2 49.9400 4.35623   1
   3  -7   2 55.7515 4.75178   1
  -3   7  -2 55.6947 5.66311   3
  -3   7  -2 58.3396 6.57413   2
  -4  -7  -2 16.1555 3.33258   1
   4  -7   2 17.2339 3.96096   1
  -4   7  -2 20.4933 4.62355   2
  -4   7  -2 14.8284 3.53259   3
   5  -7   2 130.555 8.90741   1
  -5  -7  -2 143.616 7.72941   1
  -5   7  -2 131.971 7.99829   3
  -5   7  -2 140.389 9.52836   2
   6  -7   2 45.4219 7.38128   1
  -6  -7  -2 53.5327 6.19383   1
  -6   7  -2 51.6408 7.68942   2
  -5  -8   2 3.11427 2.80460   1
   5  -8  -2 -3.2302 4.02106   1
  -5   8   2 0.94684 3.65329   2
  -5   8   2 -2.1878 2.76272   3
   4  -8  -2 34.0548 4.15974   1
  -4   8   2 24.3024 5.46041   2
  -4   8   2 28.6767 5.08691   3
  -3   8   2 216.346 9.67866   3
  -3   8   2 200.251 10.6431   2
  -2   8   2 4.32730 3.47487   2
  -2   8   2 0.35903 2.55161   3
  -1   8   2 110.785 8.07977   2
   0   8  -2 42.6776 6.30141   2
  -1   8  -2 38.9002 5.83890   2
  -1   8  -2 42.8701 5.83901   3
  -2   8  -2 2.23986 3.04712   2
  -2   8  -2 2.39437 2.32258   3
  -3  -8  -2 204.080 7.17203   1
  -3   8  -2 207.192 11.0245   2
  -3   8  -2 193.498 9.60699   3
  -4  -8  -2 128.338 6.51924   1
   4  -8   2 116.528 7.58217   1
  -4   8  -2 115.854 7.87942   3
  -4   8  -2 148.889 10.2922   2
  -3   9   2 -0.2726 3.68907   2
  -3   9   2 4.33936 3.64351   3
  -2   9   2 496.471 17.8159   2
  -1   9   2 54.3606 7.51835   2
   0   9  -2 1.66066 3.67471   2
  -1   9  -2 50.1480 7.41901   2
  -2   9  -2 80.5977 8.39044   3
  -2   9  -2 98.7484 10.2147   2
  -3   9  -2 23.1661 6.17027   2
   9   0  -3 1.28998 5.48024   1
  -9   0   3 -1.4413 4.06135   1
  -8   0   3 1.79865 3.21646   1
  -8   0   3 5.03881 3.64192   1
   8   0  -3 -1.6836 3.91479   1
  -7   0   3 188.456 9.39277   1
   7   0  -3 193.912 10.3857   1
   6   0  -3 14.4920 4.05994   1
  -6   0   3 13.1711 3.63259   1
   5   0  -3 104.981 6.21239   1
  -5   0   3 100.492 5.82349   1
  -4   0   3 -0.4607 1.45776   1
   4   0  -3 0.43616 1.70629   1
   3   0  -3 1302.12 24.8295   1
  -3   0   3 1281.23 24.7679   1
  -2   0   3 -0.4309 1.09971   1
   2   0  -3 -1.3741 1.01073   1
   2   0  -3 0.75432 1.21898   1
  -2   0   3 -0.8100 1.17318   1
   1   0  -3 2.21854 1.06085   1
  -1   0   3 1.36716 1.18202   1
  -1   0   3 1.35598 1.00827   1
   1   0  -3 2.10990 1.11876   1
   0   0   3 -0.1215 1.12208   1
   0   0  -3 0.00326 0.86769   1
   0   0  -3 -0.1549 1.06846   1
   0   0   3 -1.0310 0.77124   1
  -1   0  -3 9770.47 163.144   1
   1   0   3 9838.58 166.225   1
  -1   0  -3 9999.99 167.314   1
   1   0   3 9723.78 165.205   1
  -2   0  -3 -0.5457 1.00271   1
   2   0   3 0.01773 1.67889   1
  -3   0  -3 13.6261 2.25536   1
   3   0   3 21.7213 3.42793   1
   4   0   3 -2.2451 2.20027   1
  -4   0  -3 0.10134 1.68961   1
  -5   0  -3 1392.21 29.0341   1
   5   0   3 1406.38 31.4285   1
   6   0   3 -0.7856 3.19362   1
  -6   0  -3 -4.4173 1.88036   1
   7   0   3 -1.4645 4.29028   1
  -7   0  -3 3.31246 3.09679   1
   8   0   3 -4.0414 4.98387   1
  -8   0  -3 0.68634 3.32238   1
   9  -1  -3 72.1182 9.16582   1
  -9  -1   3 87.0379 8.65415   1
  -9   1   3 60.7964 8.41030   1
  -8  -1   3 31.9971 5.50515   1
   8  -1  -3 17.3862 5.41215   1
  -8  -1   3 28.4490 5.77841   1
  -8   1   3 16.5484 4.03138   1
   8   1  -3 22.9840 5.90707   1
   7  -1  -3 55.0491 7.04736   1
  -7  -1   3 62.1103 6.56720   1
   7   1  -3 46.1242 6.30625   1
  -7   1   3 44.2764 5.27671   1
  -7   1   3 53.1562 6.16569   1
   6  -1  -3 108.833 7.46834   1
  -6  -1   3 118.934 7.17780   1
  -6   1   3 128.790 7.01485   1
   6   1  -3 122.718 7.70433   1
   5  -1  -3 139.500 7.05494   1
  -5  -1   3 139.875 6.67081   1
  -5   1   3 144.572 6.70006   1
   5   1  -3 139.082 6.99105   1
   4  -1  -3 15.1131 2.73685   1
  -4  -1   3 12.7881 2.58019   1
   4   1  -3 9.38718 2.36967   1
  -4   1   3 13.3595 2.41319   1
   3  -1  -3 2.02081 1.61684   1
  -3  -1   3 3.07625 1.65179   1
   3   1  -3 3.83621 1.73610   1
  -3   1   3 7.40565 1.90357   1
  -2  -1   3 54.4403 3.06667   1
   2  -1  -3 52.1618 3.03370   1
  -2  -1   3 51.4343 2.92366   1
   2  -1  -3 50.2292 2.98513   1
   2   1  -3 51.7128 2.96057   1
  -2   1   3 55.0174 3.14935   1
  -1  -1   3 425.844 9.03190   1
   1  -1  -3 425.574 9.41657   1
  -1  -1   3 437.301 9.42365   1
   1  -1  -3 444.129 9.27382   1
  -1   1   3 434.328 9.38675   1
  -1   1   3 426.545 9.11075   1
   1   1  -3 432.568 9.33954   1
   1   1  -3 452.764 9.06800   1
   0  -1  -3 85.9284 3.17998   1
   0  -1  -3 91.2969 3.64704   1
   0  -1   3 89.6930 3.09394   1
   0  -1   3 87.0920 2.40919   3
   0  -1   3 87.0710 2.82517   2
   0  -1   3 90.1471 3.60868   1
   0   1  -3 85.5794 3.00210   1
   0   1   3 86.3106 3.50215   1
   0   1   3 92.2662 3.11120   1
   0   1  -3 89.7800 3.50301   1
   0   1  -3 85.9029 2.88126   2
   0   1  -3 90.1252 2.41633   3
   1  -1   3 12.6656 2.15234   1
   1  -1   3 10.1194 1.57073   1
  -1  -1  -3 8.07299 1.95081   1
  -1  -1  -3 8.63959 1.51822   1
  -1   1  -3 8.21631 1.40380   1
   1   1   3 7.21662 1.88866   1
   3  -1   3 164.915 7.01972   1
  -3  -1  -3 183.093 6.29148   1
   3   1   3 186.830 7.46904   1
  -3   1  -3 182.527 6.14880   1
  -4  -1  -3 -3.1266 1.71479   1
   4  -1   3 -5.9987 2.21958   1
  -4   1  -3 -3.1244 1.62040   1
   4   1   3 -3.9699 2.53945   1
  -5  -1  -3 13.8881 3.08191   1
   5  -1   3 16.0388 4.18558   1
  -5   1  -3 11.3822 2.65000   1
   5   1   3 17.6969 4.21788   1
  -6  -1  -3 24.2458 4.20740   1
   6  -1   3 27.2200 5.44328   1
  -6   1  -3 13.5216 3.11403   1
   6   1   3 15.8935 4.37694   1
  -7  -1  -3 102.808 7.72470   1
   7  -1   3 88.1902 9.15689   1
   7   1   3 83.8758 8.89996   1
  -7   1  -3 96.6347 7.12694   1
   8  -1   3 87.4458 10.3766   1
  -8  -1  -3 108.150 8.74892   1
  -8   1  -3 119.368 12.5623   1
   8   1   3 97.4209 10.5825   1
   9  -2  -3 56.9464 8.66167   1
  -9  -2   3 33.2988 6.04833   1
  -9  -2   3 50.1573 7.60510   1
  -8  -2   3 5.04096 3.67250   1
   8  -2  -3 7.78290 4.84802   1
  -7  -2   3 135.576 8.46878   1
   7  -2  -3 159.485 9.77321   1
   7   2  -3 145.009 9.16100   1
  -7   2   3 135.479 7.40028   1
  -7   2   3 130.903 7.84297   1
   6  -2  -3 6.41450 3.17427   1
  -6  -2   3 0.08521 2.74205   1
  -6   2   3 0.09380 2.25891   1
  -6   2   3 -2.0993 2.23706   1
   6   2  -3 -0.0803 2.97954   1
   5  -2  -3 235.677 9.31448   1
  -5  -2   3 233.028 8.89507   1
   5   2  -3 237.928 9.01803   1
  -5   2   3 231.305 8.41478   1
   4  -2  -3 8.92132 2.69237   1
  -4  -2   3 3.90564 2.02787   1
  -4   2   3 7.46721 2.17242   1
   4   2  -3 9.46245 2.44087   1
  -3  -2   3 2581.34 46.4084   1
   3  -2  -3 2645.78 46.6184   1
  -3  -2   3 2670.56 46.5260   1
   3   2  -3 2631.48 46.1757   1
  -3   2   3 2593.57 45.4052   3
  -3   2   3 2561.71 46.1001   1
  -2  -2   3 686.325 13.8716   1
   2  -2  -3 661.626 14.1759   1
   2  -2  -3 685.161 13.9971   1
  -2  -2   3 671.139 13.9035   1
  -2   2   3 680.120 13.7544   1
   2   2  -3 694.384 13.4556   1
  -2   2   3 684.400 13.1602   3
  -1  -2   3 576.569 11.7621   1
   1  -2  -3 584.240 11.7368   1
   1  -2  -3 575.293 11.2119   3
   1  -2  -3 586.609 12.0608   1
  -1  -2   3 587.426 11.5013   1
  -1  -2   3 583.031 11.3796   3
  -1   2   3 571.883 11.2691   2
  -1   2   3 611.117 11.6618   1
  -1   2   3 581.784 11.2248   3
   1   2  -3 594.135 12.5016   2
   0  -2  -3 1679.61 30.7516   1
   0  -2   3 1702.23 29.8264   3
   0  -2   3 1777.26 30.6374   1
   0  -2  -3 1720.88 29.9107   3
   0  -2  -3 1688.03 30.1817   2
   0  -2  -3 1736.02 30.2284   1
   0  -2   3 1721.73 29.9051   1
   0   2  -3 1733.77 30.9148   2
   0   2   3 1714.51 30.1808   1
   0   2  -3 1776.98 29.9495   3
  -1  -2  -3 98.3181 3.64203   1
  -1  -2  -3 96.8010 4.36043   1
   1  -2   3 96.6509 3.43885   1
   1  -2   3 95.0207 4.17067   1
  -1   2  -3 97.6137 3.23519   1
  -1   2  -3 101.205 3.96177   2
   1   2   3 93.5414 3.99648   1
  -1   2  -3 98.2658 3.39149   3
   2  -2   3 2153.53 39.4370   1
  -2  -2  -3 2256.14 38.5626   1
   2  -2   3 2085.11 38.1445   1
  -2  -2  -3 2072.11 39.7236   1
   2   2   3 2206.43 39.5791   1
  -2   2  -3 2191.83 37.9151   1
  -2   2  -3 2094.38 37.9439   3
  -3  -2  -3 1048.51 21.2927   1
   3  -2   3 1029.99 22.6389   1
   3   2   3 1088.07 22.8502   1
  -3   2  -3 1047.06 20.9555   1
  -4  -2  -3 1436.94 28.6779   1
   4  -2   3 1433.96 30.6761   1
  -4   2  -3 1436.50 28.2486   1
   4   2   3 1443.80 30.4573   1
  -5  -2  -3 587.849 15.4513   1
   5  -2   3 607.665 17.8077   1
  -5   2  -3 577.845 15.0358   1
   5   2   3 579.722 17.2175   1
   6  -2   3 241.287 11.9818   1
  -6  -2  -3 238.144 9.89715   1
   6   2   3 258.893 11.8181   1
  -6   2  -3 238.435 9.46056   1
  -7  -2  -3 61.0957 6.68849   1
   7  -2   3 66.7022 8.62797   1
   7   2   3 51.8529 7.78891   1
  -8  -2  -3 33.2738 5.93978   1
   8  -2   3 26.0395 6.49636   1
   8  -3  -3 22.6456 6.03470   1
  -8  -3   3 20.1086 5.28880   1
  -7  -3   3 15.2608 4.36043   1
   7  -3  -3 16.1637 4.83650   1
  -6  -3   3 1.45364 2.69069   1
   6  -3  -3 -0.0801 2.85665   1
   6   3  -3 2.37931 2.89078   1
  -6   3   3 4.43254 2.28317   3
  -6   3   3 1.75275 2.28404   1
   5  -3  -3 27.4946 4.12671   1
  -5  -3   3 25.1593 3.72383   1
   5   3  -3 26.2635 3.88044   1
  -5   3   3 26.0690 3.31065   3
  -5   3   3 29.5642 3.52440   1
  -5   3   3 22.6649 3.40204   1
  -4  -3   3 17.4732 2.90303   1
   4  -3  -3 20.6550 3.27871   1
   4   3  -3 20.6163 3.01345   1
  -4   3   3 21.7562 2.85782   1
  -4   3   3 20.3226 2.62902   3
   3  -3  -3 518.515 12.1272   1
  -3  -3   3 496.568 11.7701   1
  -3  -3   3 508.637 11.9413   1
   3  -3  -3 472.277 12.0489   1
  -3   3   3 499.195 12.1297   2
   3   3  -3 489.815 11.0547   1
  -3   3   3 521.229 11.4301   3
  -3   3   3 489.711 11.1987   1
   2  -3  -3 1324.98 23.7946   1
  -2  -3   3 1267.87 23.5163   1
  -2  -3   3 1262.66 23.3607   1
   2  -3  -3 1255.38 24.0390   1
  -2   3   3 1298.62 23.4543   3
  -2   3   3 1167.15 22.7127   1
  -2   3   3 1273.17 23.9416   2
   1  -3  -3 21.3790 1.97542   1
   1  -3  -3 18.5252 2.07639   1
   1  -3  -3 17.8297 1.88010   3
  -1  -3   3 18.0839 1.89646   3
  -1   3   3 19.0172 2.07861   2
  -1   3   3 20.7710 2.03211   3
   1   3  -3 21.1828 2.70983   2
   0  -3  -3 66.9724 2.87726   1
   0  -3  -3 65.2672 3.20573   1
   0  -3   3 67.3062 2.90185   3
   0  -3  -3 67.6247 3.02102   3
   0   3  -3 71.0074 3.74875   2
   0   3  -3 70.3510 3.15674   3
   0   3   3 65.9822 3.30979   2
   1  -3   3 47.1092 2.41613   1
   1  -3   3 42.6723 2.96326   1
  -1  -3  -3 42.7385 3.27220   1
  -1  -3  -3 48.0248 2.67498   1
  -1   3  -3 44.2019 2.69042   3
  -1   3  -3 47.6389 3.22904   2
  -2  -3  -3 111.513 5.29635   1
   2  -3   3 118.697 5.20051   1
   2  -3   3 104.095 4.10145   1
  -2  -3  -3 111.547 4.47372   1
  -2   3  -3 123.245 5.34327   2
   2   3   3 117.013 4.76239   1
  -2   3  -3 109.971 4.46268   3
   3  -3   3 153.144 6.81472   1
  -3  -3  -3 160.263 5.90642   1
  -3   3  -3 153.408 5.27538   1
  -3   3  -3 152.907 6.67623   2
  -3   3  -3 155.690 5.88748   3
   3   3   3 169.502 6.75911   1
   4  -3   3 455.265 13.9551   1
  -4  -3  -3 466.301 12.5023   1
  -4   3  -3 463.374 12.2365   3
   4   3   3 473.605 13.8145   1
  -4   3  -3 460.069 11.7229   1
   5  -3   3 81.3322 7.15974   1
  -5  -3  -3 80.9910 5.53754   1
   5   3   3 74.4016 6.43178   1
  -5   3  -3 68.6833 4.79308   1
  -6  -3  -3 40.4836 5.04585   1
   6  -3   3 35.1301 6.06646   1
   7  -3   3 2.52925 4.20312   1
  -7  -3  -3 2.19840 3.17725   1
   8  -3   3 44.8371 8.58657   1
  -8  -3  -3 36.9868 6.32487   1
  -8  -4   3 5.51983 4.55213   1
   8  -4  -3 4.30279 4.89138   1
  -8   4   3 5.87622 3.33161   3
  -7  -4   3 66.8088 7.31224   1
   7  -4  -3 75.7499 8.06096   1
  -7   4   3 86.0764 6.26749   3
  -6  -4   3 32.8945 4.88240   1
   6  -4  -3 34.7472 5.26783   1
  -6   4   3 31.3856 4.22316   3
   5  -4  -3 82.4587 6.18227   1
  -5  -4   3 87.2362 5.95664   1
  -5   4   3 100.700 5.45710   3
  -5   4   3 85.7027 5.99742   2
   4  -4  -3 4.37858 2.48432   1
  -4  -4   3 2.37306 2.07392   1
  -4  -4   3 1.89334 2.26421   1
  -4   4   3 2.59475 1.40448   1
  -4   4   3 1.86736 1.79510   3
  -4   4   3 0.18855 1.95730   2
   3  -4  -3 142.240 5.85787   1
   3  -4  -3 128.282 5.58534   1
  -3  -4   3 139.314 5.43767   1
  -3  -4   3 140.190 5.58535   1
  -3   4   3 130.937 5.81623   2
  -3   4   3 141.126 5.39979   3
  -2  -4   3 12.9536 1.90674   1
  -2  -4   3 12.1336 1.97621   1
   2  -4  -3 13.8067 2.15037   1
   2  -4  -3 15.4913 2.22809   1
  -2   4   3 12.9239 2.14673   3
  -2   4   3 14.3105 2.36416   2
   1  -4  -3 2482.47 42.6397   1
   1  -4  -3 2477.50 43.1253   1
  -1   4   3 2468.15 44.2659   2
   1   4  -3 2436.09 45.6885   2
  -1   4   3 2473.58 43.8290   3
   0  -4  -3 32.5386 2.28910   1
   0  -4  -3 29.2203 2.67667   1
   0   4  -3 28.7236 3.20866   2
   0   4  -3 30.5769 2.63364   3
   0   4   3 32.0164 3.28421   2
  -1  -4  -3 274.683 8.28355   1
  -1  -4  -3 299.789 7.47182   1
  -1   4  -3 304.983 9.24016   2
  -1   4  -3 303.596 8.17512   3
   2  -4   3 102.462 4.98724   1
  -2  -4  -3 106.373 4.42520   1
   2  -4   3 100.013 4.01747   1
  -2  -4  -3 94.0631 5.19124   1
  -2   4  -3 97.8256 5.44299   2
  -2   4  -3 98.5387 4.66432   3
   3  -4   3 3842.71 68.9832   1
   3  -4   3 4099.07 70.7279   1
  -3  -4  -3 3988.97 69.2259   1
   3   4   3 3815.06 68.7334   1
  -3   4  -3 4050.64 71.5294   2
  -3   4  -3 4030.19 69.6390   3
   4  -4   3 65.4380 5.82777   1
  -4  -4  -3 54.8603 4.27007   1
  -4   4  -3 61.1672 6.09783   2
  -4   4  -3 57.8067 4.44946   3
  -5  -4  -3 115.447 6.53856   1
   5  -4   3 98.9835 7.98397   1
  -5   4  -3 125.008 7.64263   2
  -5   4  -3 128.753 6.61016   3
  -6  -4  -3 30.4608 4.71831   1
   6  -4   3 39.8946 6.33205   1
  -6   4  -3 23.8864 4.34447   3
  -6   4  -3 27.7108 5.27235   2
  -7  -4  -3 275.961 12.1932   1
   7  -4   3 300.752 15.1488   1
  -7   4  -3 273.007 11.5389   3
  -7   4  -3 288.222 13.7023   2
  -8  -5   3 54.7910 7.42851   1
  -8  -5   3 54.5160 7.02418   1
   8  -5  -3 63.1752 8.51486   1
  -8   5   3 47.5282 6.22969   3
  -8   5   3 46.5195 7.12215   2
   7  -5  -3 18.7985 5.38972   1
  -7  -5   3 23.8948 4.78525   1
  -7   5   3 12.1752 4.41534   2
  -7   5   3 18.8705 4.06880   3
   6  -5  -3 57.2814 6.54242   1
  -6  -5   3 59.4163 6.15080   1
  -6   5   3 63.1297 5.38447   3
  -6   5   3 60.3811 6.50969   2
  -5  -5   3 5.62648 2.81223   1
   5  -5  -3 -3.5244 2.83347   1
  -5   5   3 1.73949 2.17661   3
  -5   5   3 4.18172 2.76254   2
   4  -5  -3 40.6653 4.52850   1
  -4  -5   3 42.0416 4.54984   1
  -4   5   3 40.6908 4.18543   3
  -4   5   3 43.7544 4.75579   2
  -3  -5   3 279.484 8.48707   1
   3  -5  -3 298.081 8.87349   1
  -3  -5   3 288.942 8.37430   1
  -3   5   3 278.816 9.49055   2
  -3   5   3 290.063 8.95185   3
   2  -5  -3 130.578 5.00374   1
   2  -5  -3 126.076 5.11014   1
  -2   5   3 129.604 5.54026   3
  -2   5   3 127.206 6.00447   2
   1   5  -3 104.357 6.03186   2
  -1   5   3 112.346 5.53282   2
  -1   5   3 105.191 5.13234   3
   0   5  -3 95.1775 5.65340   2
   0   5  -3 103.757 5.01208   3
   0   5   3 105.446 5.50086   2
  -1  -5  -3 25.6964 3.19912   1
  -1  -5  -3 29.5644 2.50508   1
  -1   5  -3 33.2319 3.97729   2
  -1   5  -3 31.6069 3.36019   3
  -2  -5  -3 89.3312 4.33153   1
   2  -5   3 90.1340 4.93634   1
   2  -5   3 85.0945 3.80535   1
  -2  -5  -3 81.4879 5.22082   1
  -2   5  -3 90.2130 5.61063   2
  -2   5  -3 91.3467 5.17975   3
  -3  -5  -3 0.07697 1.71812   1
   3  -5   3 2.10761 2.44805   1
  -3   5  -3 0.76480 2.01987   2
  -3   5  -3 0.70095 1.83727   3
   4  -5   3 106.224 6.98627   1
  -4  -5  -3 101.752 5.76807   1
  -4   5  -3 93.1979 5.82433   3
  -4   5  -3 90.5145 6.49414   2
  -5  -5  -3 65.9458 5.45223   1
   5  -5   3 74.4519 7.57551   1
  -5   5  -3 66.0652 5.50095   3
  -5   5  -3 74.4288 6.71569   2
  -6  -5  -3 18.8110 3.86623   1
   6  -5   3 9.22768 4.33630   1
  -6   5  -3 14.7308 3.70281   3
  -6   5  -3 7.58948 4.14534   2
   7  -5   3 23.6060 6.39114   1
  -7  -5  -3 32.7297 5.45504   1
  -7   5  -3 35.7554 5.89644   3
  -7   5  -3 24.0008 5.63947   2
   7  -6  -3 13.4450 5.04657   1
  -7  -6   3 0.67450 4.54146   1
  -7   6   3 18.6265 5.35016   2
  -7   6   3 10.1216 3.75282   3
  -6  -6   3 -4.4880 3.14450   1
   6  -6  -3 4.64909 4.47949   1
  -6   6   3 3.95117 2.85337   3
  -6   6   3 1.32916 3.08523   2
   5  -6  -3 132.369 8.12322   1
  -5  -6   3 133.988 7.74437   1
  -5   6   3 142.168 7.26162   3
  -5   6   3 145.939 8.48691   2
  -4  -6   3 89.7222 5.64290   1
   4  -6  -3 84.1090 6.09478   1
  -4   6   3 93.0631 6.47697   2
  -4   6   3 84.6363 5.60941   3
  -3  -6   3 296.464 8.70170   1
   3  -6  -3 296.752 9.23113   1
  -3   6   3 296.694 10.6321   2
  -3   6   3 301.648 9.87395   3
  -2   6   3 46.8571 4.87618   2
  -2   6   3 44.1957 4.43802   3
   1   6  -3 315.573 11.6365   2
  -1   6   3 326.291 10.7780   2
  -1   6   3 350.643 10.7362   3
   0   6   3 960.864 21.9796   2
   0   6  -3 914.873 21.1878   3
   0   6  -3 935.433 22.6051   2
  -1   6  -3 16.8858 3.60123   2
  -1   6  -3 18.2372 3.25212   3
  -2  -6  -3 995.059 20.1212   1
  -2   6  -3 972.865 23.8680   2
  -2   6  -3 995.564 22.0676   3
   3  -6   3 794.585 18.9422   1
  -3  -6  -3 784.901 17.7736   1
  -3   6  -3 796.770 20.8815   2
  -3   6  -3 788.284 19.2823   3
   4  -6   3 219.328 9.99922   1
  -4  -6  -3 238.935 8.97198   1
  -4   6  -3 224.310 9.29524   3
  -4   6  -3 221.974 10.5766   2
  -5  -6  -3 17.4076 3.76121   1
   5  -6   3 21.7056 5.09009   1
  -5   6  -3 16.1230 3.98138   3
  -5   6  -3 17.3135 4.24558   2
  -6  -6  -3 175.225 9.59668   1
   6  -6   3 188.894 12.2611   1
  -6   6  -3 179.315 9.62223   3
  -6   6  -3 167.942 10.6695   2
   6  -7  -3 31.1963 6.12519   1
  -6  -7   3 43.9690 5.80104   1
  -6   7   3 38.1197 6.70724   2
  -6   7   3 39.4992 5.68738   3
   5  -7  -3 27.3330 5.43779   1
  -5  -7   3 28.8404 4.88730   1
  -5   7   3 29.2704 5.07927   2
  -5   7   3 34.0920 4.95185   3
   4  -7  -3 258.847 10.0108   1
  -4  -7   3 256.000 9.26598   1
  -4   7   3 267.156 11.2835   2
  -4   7   3 260.700 10.1767   3
   3  -7  -3 108.651 6.13785   1
  -3   7   3 97.0295 6.90965   2
  -3   7   3 110.673 6.65559   3
  -2   7   3 50.8384 5.59967   2
  -2   7   3 45.9707 5.09980   3
  -1   7   3 17.2880 3.86022   2
   0   7  -3 161.594 8.73279   2
  -1   7  -3 4.73343 3.04891   2
  -1   7  -3 -1.4804 2.30589   3
  -2  -7  -3 144.595 5.91289   1
  -2   7  -3 142.164 7.63820   3
  -2   7  -3 138.132 8.24860   2
  -3  -7  -3 0.19409 2.07421   1
   3  -7   3 -1.5531 2.45626   1
  -3   7  -3 -7.0184 2.06957   2
  -3   7  -3 3.59838 3.07751   3
   4  -7   3 66.3360 6.72936   1
  -4  -7  -3 73.5117 5.60439   1
  -4   7  -3 60.0190 7.25025   2
  -4   7  -3 75.9997 6.98288   3
   5  -7   3 30.8649 5.75820   1
  -5  -7  -3 33.9025 4.97715   1
  -5   7  -3 45.7030 6.72088   2
  -5   7  -3 39.5387 5.64293   3
  -5  -8   3 42.5817 5.00611   1
   5  -8  -3 40.6637 6.37711   1
  -5   8   3 47.3541 6.77289   2
  -5   8   3 42.9391 5.80024   3
  -4  -8   3 71.1041 6.07235   1
   4  -8  -3 73.9174 5.91674   1
  -4   8   3 85.9640 8.32054   2
  -4   8   3 77.5996 6.81120   3
   3  -8  -3 243.176 8.76003   1
  -3   8   3 232.327 10.2549   3
  -3   8   3 246.521 11.6222   2
  -2   8   3 68.2692 6.79470   3
  -2   8   3 65.1086 7.11271   2
  -1   8   3 41.0282 5.81387   2
   0   8  -3 43.6283 6.49707   2
  -1   8  -3 726.851 21.7005   2
  -1   8  -3 748.090 20.2991   3
  -2   8  -3 80.1276 6.67887   3
  -2   8  -3 82.7966 7.62742   2
  -3  -8  -3 51.0014 4.84132   1
  -3   8  -3 64.6572 7.56934   2
  -3   8  -3 60.5664 6.70470   3
  -4  -8  -3 89.9997 6.24640   1
   4  -8   3 89.4375 7.07064   1
  -4   8  -3 87.2094 9.41413   2
  -4   8  -3 75.0492 7.62888   3
  -3   9   3 24.8156 5.22635   3
  -3   9   3 31.0318 6.07049   2
  -2   9   3 99.4253 8.73868   2
  -1   9   3 124.969 9.39520   2
   0   9  -3 84.7198 9.27083   2
  -1   9  -3 31.5510 6.15802   2
  -2   9  -3 206.390 10.8605   3
  -2   9  -3 221.807 12.7739   2
  -9   0   4 5.35291 4.45719   1
  -9   0   4 -3.9125 3.70444   1
   9   0  -4 -0.1475 5.25394   1
   8   0  -4 717.286 22.2559   1
  -8   0   4 735.024 21.1584   1
   7   0  -4 2.82726 3.38031   1
  -7   0   4 3.43388 3.27874   1
  -6   0   4 331.224 11.6149   1
   6   0  -4 317.626 11.8065   1
  -5   0   4 -1.8319 1.76598   1
   5   0  -4 0.20782 2.07615   1
  -4   0   4 4724.01 82.0490   1
   4   0  -4 4720.12 82.1399   1
  -3   0   4 0.04036 1.59770   1
   3   0  -4 0.41877 1.52313   1
  -2   0   4 1511.41 28.0754   1
   2   0  -4 1517.96 27.8697   1
   1   0  -4 -1.2113 1.06775   1
  -1   0   4 -0.2316 0.96910   1
   1   0  -4 -0.4802 1.10289   1
  -1   0   4 -0.1622 1.28597   1
   0   0   4 1334.97 25.0181   1
   0   0   4 1311.95 24.1940   1
   0   0  -4 1344.93 24.2781   1
   0   0  -4 1311.23 25.0409   1
  -1   0  -4 -0.2023 1.00748   1
   1   0   4 -0.6658 1.45242   1
   2   0   4 703.424 16.5449   1
  -2   0  -4 721.489 15.2854   1
   3   0   4 -2.5826 1.80327   1
  -3   0  -4 0.11951 1.40693   1
  -4   0  -4 0.80888 1.62114   1
   4   0   4 1.18302 2.52388   1
   5   0   4 0.58101 3.13210   1
  -5   0  -4 0.42912 2.09195   1
   6   0   4 22.3515 5.23176   1
  -6   0  -4 21.8633 3.88798   1
   7   0   4 -5.7506 3.74363   1
  -7   0  -4 0.80209 2.82526   1
   8   0   4 37.4558 7.75689   1
   9  -1  -4 36.1203 7.87433   1
  -9  -1   4 33.0702 5.82848   1
  -9  -1   4 30.0082 6.30004   1
  -9   1   4 24.4230 5.79367   1
  -8  -1   4 183.961 10.2160   1
   8  -1  -4 163.929 10.9499   1
   8   1  -4 163.329 10.6913   1
  -8   1   4 169.495 9.97692   1
  -8   1   4 153.481 9.01993   1
   7  -1  -4 110.163 8.49654   1
  -7  -1   4 108.515 7.74204   1
   7   1  -4 107.940 8.34916   1
  -7   1   4 106.949 7.40233   1
  -6  -1   4 4.78641 3.07456   1
   6  -1  -4 12.1495 3.77753   1
   6   1  -4 12.0336 3.48695   1
  -6   1   4 7.12521 3.02956   1
   5  -1  -4 27.7481 3.99405   1
  -5  -1   4 23.9326 3.77457   1
   5   1  -4 29.5883 4.04679   1
  -5   1   4 26.4248 3.69121   1
  -4  -1   4 684.848 15.8565   1
   4  -1  -4 665.397 15.8990   1
   4   1  -4 668.143 15.7250   1
  -4   1   4 674.540 15.7179   1
  -3  -1   4 128.097 5.31623   1
   3  -1  -4 133.559 5.41050   1
   3   1  -4 135.681 5.33094   1
  -3   1   4 143.492 5.52450   1
  -2  -1   4 136.242 4.80171   1
   2  -1  -4 128.717 4.83276   1
   2  -1  -4 141.355 5.68615   1
  -2  -1   4 134.971 5.00652   1
   2   1  -4 131.484 4.72812   1
  -2   1   4 139.891 5.01485   1
   1  -1  -4 81.8926 3.78810   1
  -1  -1   4 89.8793 3.51625   1
   1  -1  -4 85.0444 3.66016   1
  -1  -1   4 91.6918 3.89426   1
  -1   1   4 81.8784 3.72254   1
   1   1  -4 87.5550 3.49220   1
   0  -1   4 493.788 11.3198   1
   0  -1  -4 503.738 10.7611   1
   0  -1  -4 494.666 11.4787   1
   0  -1   4 507.789 10.6339   1
   0   1   4 498.601 11.2161   1
   0   1  -4 494.883 10.4400   1
   0   1  -4 490.763 9.89598   2
   1  -1   4 120.792 5.14281   1
  -1  -1  -4 119.837 4.39765   1
   1  -1   4 119.986 4.26856   1
  -1  -1  -4 115.963 5.46818   1
  -1   1  -4 122.612 4.27862   1
  -1   1  -4 115.678 3.98940   2
   1   1   4 113.684 4.99757   1
  -2  -1  -4 1456.54 27.1485   1
   2  -1   4 1408.91 28.5776   1
  -2   1  -4 1447.60 26.9273   1
   2   1   4 1418.13 28.6141   1
  -3  -1  -4 145.319 5.77065   1
   3  -1   4 140.328 6.91126   1
   3   1   4 142.402 6.89413   1
  -3   1  -4 135.402 5.52621   1
   4  -1   4 671.078 18.1656   1
  -4  -1  -4 682.339 16.2510   1
  -4   1  -4 662.124 15.8836   1
   4   1   4 658.025 17.9236   1
  -5  -1  -4 3.29858 2.09800   1
   5  -1   4 1.44654 3.25799   1
   5   1   4 -2.6820 2.71935   1
  -5   1  -4 2.90064 2.11653   1
  -6  -1  -4 2.84100 2.63906   1
   6  -1   4 5.34127 4.02824   1
  -6   1  -4 3.27646 2.55666   1
   6   1   4 2.11387 3.75185   1
  -7  -1  -4 12.6666 3.88164   1
   7  -1   4 12.9845 5.63144   1
   7   1   4 13.7335 5.22710   1
  -7   1  -4 13.0814 3.52188   1
  -8  -1  -4 457.349 16.7078   1
   8  -1   4 488.344 20.6854   1
  -9  -2   4 33.8864 6.24220   1
  -9  -2   4 29.2161 6.50162   1
   9  -2  -4 31.5577 7.25385   1
  -8  -2   4 95.6343 8.17184   1
   8  -2  -4 80.2003 9.02486   1
  -7  -2   4 237.879 10.9078   1
   7  -2  -4 240.177 11.5893   1
  -7   2   4 240.922 10.3635   1
   7   2  -4 223.521 10.8779   1
  -6  -2   4 33.1591 4.69977   1
   6  -2  -4 41.6336 5.40734   1
   6   2  -4 32.3958 5.02921   1
  -6   2   4 41.6215 4.79975   1
   5  -2  -4 1405.20 29.9899   1
  -5  -2   4 1400.84 29.6004   1
   5   2  -4 1451.15 29.6841   1
  -5   2   4 1444.03 29.3169   1
  -4  -2   4 2481.45 45.8555   1
   4  -2  -4 2458.77 45.9162   1
  -4   2   4 2396.79 45.2908   1
   4   2  -4 2605.83 45.7362   1
   3  -2  -4 1216.12 23.8860   1
  -3  -2   4 1206.36 23.9117   1
  -3  -2   4 1178.10 23.7924   1
  -3   2   4 1202.17 23.6148   1
  -3   2   4 1223.50 22.3416   3
   3   2  -4 1203.87 23.3365   1
  -2  -2   4 202.764 6.30624   1
   2  -2  -4 201.131 6.53518   1
   2  -2  -4 199.639 6.20350   1
  -2  -2   4 213.068 6.18493   1
  -2   2   4 206.979 6.16944   1
  -2   2   4 212.933 5.22818   3
   2   2  -4 200.982 5.76189   1
  -2   2   4 215.279 5.60218   2
  -1  -2   4 574.940 12.2455   1
   1  -2  -4 563.088 12.4599   1
  -1  -2   4 558.352 11.6384   1
  -1  -2   4 561.505 10.9685   3
   1  -2  -4 575.585 10.9449   3
   1  -2  -4 570.323 12.0107   1
   1   2  -4 569.524 12.3228   2
  -1   2   4 559.314 10.9434   3
  -1   2   4 582.803 12.0435   1
   1   2  -4 567.333 11.3776   1
   0  -2  -4 28.0584 2.29582   1
   0  -2   4 27.6778 2.06280   1
   0  -2  -4 28.6809 2.82881   1
   0  -2   4 30.4240 2.70253   1
   0  -2  -4 30.8644 1.80896   3
   0  -2   4 29.6270 1.73085   3
   0   2  -4 29.5985 2.37817   2
   0   2  -4 31.3236 2.01259   1
   0   2  -4 29.3590 1.79214   3
   0   2   4 30.5462 2.53384   1
   1  -2   4 3.04656 1.74667   1
   1  -2   4 1.46548 1.05139   1
  -1  -2  -4 1.46926 1.55104   1
  -1  -2  -4 0.16901 1.01376   1
  -1   2  -4 2.61374 1.02206   3
  -1   2  -4 3.25815 1.14883   1
   1   2   4 1.14994 1.51368   1
  -1   2  -4 1.60691 1.16504   2
  -2  -2  -4 151.659 5.49183   1
   2  -2   4 159.121 6.48534   1
   2  -2   4 139.705 5.22913   1
  -2   2  -4 144.834 5.61490   2
  -2   2  -4 150.988 4.98891   3
   2   2   4 152.499 6.30697   1
  -2   2  -4 142.992 5.03982   1
   3  -2   4 5.15196 2.24106   1
  -3   2  -4 3.80679 1.40078   1
   4  -2   4 25.3313 4.37162   1
  -4  -2  -4 25.9278 3.54216   1
   4   2   4 30.1120 4.64573   1
  -4   2  -4 31.9217 3.70979   1
   5  -2   4 8.34181 3.71907   1
  -5  -2  -4 9.36876 2.91323   1
   5   2   4 12.8271 3.86090   1
  -5   2  -4 9.14396 2.66367   1
   6  -2   4 6.75714 4.00803   1
  -6  -2  -4 5.56536 2.92999   1
   6   2   4 3.09666 3.75126   1
  -6   2  -4 7.69547 2.83091   1
   7  -2   4 85.5579 9.41289   1
  -7  -2  -4 103.629 7.89025   1
   8  -2   4 9.43569 6.52362   1
  -8  -2  -4 10.2212 4.38188   1
   8  -3  -4 0.77927 4.38743   1
  -8  -3   4 -0.7098 3.71718   1
  -8   3   4 5.71880 3.26370   3
  -7  -3   4 138.324 8.85997   1
   7  -3  -4 158.359 9.77163   1
  -7   3   4 135.308 7.28150   3
  -6  -3   4 197.453 9.24198   1
   6  -3  -4 219.922 9.98559   1
  -6   3   4 202.557 8.67567   1
  -6   3   4 203.074 7.98293   3
  -6   3   4 196.385 8.06420   1
   6   3  -4 203.617 11.7575   1
   5  -3  -4 6.04554 3.04529   1
  -5  -3   4 6.14131 2.79234   1
  -5   3   4 4.67893 2.08903   3
  -5   3   4 2.88214 2.38496   1
   5   3  -4 7.64580 2.83606   1
  -4  -3   4 154.114 6.57250   1
   4  -3  -4 156.065 6.80821   1
   4   3  -4 148.249 6.08448   1
  -4   3   4 149.984 6.10550   1
  -4   3   4 148.715 5.61128   3
  -3  -3   4 163.171 6.11759   1
  -3  -3   4 162.343 6.24703   1
   3  -3  -4 168.021 6.35889   1
  -3   3   4 178.996 5.88337   1
  -3   3   4 178.942 5.64084   3
   3   3  -4 180.740 5.69654   1
  -3   3   4 179.401 6.10349   2
   2  -3  -4 340.367 9.25892   1
  -2  -3   4 355.727 9.11559   3
  -2  -3   4 344.005 8.61488   1
   2  -3  -4 343.276 8.30669   3
  -2  -3   4 355.257 8.87479   1
   2  -3  -4 356.666 8.94526   1
  -2   3   4 347.193 8.36074   1
  -2   3   4 347.688 8.25684   3
  -2   3   4 355.031 8.59019   2
  -1  -3   4 131.517 4.27020   3
   1  -3  -4 145.945 4.81447   1
   1  -3  -4 135.200 4.27928   3
  -1  -3   4 135.269 4.78370   1
   1  -3  -4 140.496 5.09742   1
  -1  -3   4 130.024 4.26280   1
   1   3  -4 141.631 5.57234   2
  -1   3   4 133.867 4.28998   1
  -1   3   4 136.771 4.45187   2
  -1   3   4 137.362 4.44727   3
   0  -3   4 27.2427 2.02822   1
   0  -3   4 26.8130 1.92166   3
   0  -3  -4 31.1004 2.38583   1
   0  -3  -4 23.0018 2.01025   3
   0  -3  -4 28.2168 2.87172   1
   0  -3   4 30.4098 2.74884   1
   0   3  -4 26.5684 2.12264   3
   0   3  -4 29.5967 2.98780   2
   0   3   4 26.6169 2.11423   1
   1  -3   4 52.4061 2.80442   1
   1  -3   4 56.2445 3.76177   1
  -1  -3  -4 51.3351 3.77682   1
  -1  -3  -4 50.7417 3.02562   1
   1   3   4 52.1289 3.07801   1
  -1   3  -4 56.4535 3.57054   2
  -1   3  -4 54.0239 2.90578   3
   2  -3   4 519.388 12.9490   1
  -2  -3  -4 492.886 11.8112   1
   2  -3   4 463.951 11.2792   1
  -2  -3  -4 431.849 14.9407   1
   2   3   4 489.821 12.2176   1
  -2   3  -4 489.488 10.7072   1
  -2   3  -4 513.442 11.5044   3
  -2   3  -4 512.384 12.5800   2
  -3  -3  -4 24.3951 2.99177   1
   3  -3   4 24.4079 3.75875   1
   3   3   4 21.2555 3.43378   1
  -3   3  -4 23.9694 2.97243   3
  -3   3  -4 22.6553 3.33761   2
  -3   3  -4 21.0647 2.50819   1
  -4  -3  -4 367.799 11.2634   1
   4  -3   4 394.430 13.0723   1
  -4   3  -4 368.756 10.8087   3
  -4   3  -4 368.691 10.4214   1
   4   3   4 387.045 12.6790   1
  -5  -3  -4 196.124 8.55878   1
   5  -3   4 207.062 10.4122   1
   5   3   4 187.301 9.58688   1
  -5   3  -4 185.417 7.91610   1
   6  -3   4 196.378 11.4560   1
  -6  -3  -4 187.102 9.42012   1
  -7  -3  -4 83.6711 7.49539   1
   7  -3   4 73.2882 8.89364   1
   8  -4  -4 0.75725 4.88113   1
  -8  -4   4 5.41077 4.21639   1
  -8   4   4 4.83697 3.52060   3
  -7  -4   4 6.78417 4.40724   1
   7  -4  -4 17.9941 5.14469   1
  -7   4   4 16.6578 3.75600   3
   6  -4  -4 820.564 21.9477   1
  -6  -4   4 846.486 21.4703   1
  -6   4   4 853.974 20.0174   3
   5  -4  -4 44.1237 5.12869   1
  -5  -4   4 39.9607 4.64372   1
  -5   4   4 39.8503 4.62906   2
  -5   4   4 43.7459 4.23723   3
  -4  -4   4 166.953 7.20979   1
   4  -4  -4 167.707 7.36495   1
  -4   4   4 173.956 6.48964   3
  -4   4   4 163.088 6.08294   1
  -4   4   4 158.610 7.04298   2
  -3  -4   4 1.77262 1.65330   1
  -3  -4   4 1.97253 1.78062   1
   3  -4  -4 2.74033 2.02100   1
   3  -4  -4 2.68776 1.74278   1
  -3   4   4 1.90172 1.41459   3
  -3   4   4 6.58359 1.97070   2
  -2  -4   4 1036.04 20.2530   1
   2  -4  -4 1065.04 20.7389   1
   2  -4  -4 1013.05 21.2477   1
  -2  -4   4 1059.36 20.5777   1
  -2   4   4 1046.89 20.7408   3
  -2   4   4 1072.94 21.2533   2
   1  -4  -4 463.780 10.5029   1
   1  -4  -4 444.292 10.8857   1
  -1   4   4 448.799 11.0377   2
  -1   4   4 463.537 11.0186   3
   1   4  -4 451.103 12.3435   2
   0  -4  -4 24.9672 2.48301   1
   0  -4  -4 18.0170 2.58054   1
   0   4  -4 24.4860 2.60594   3
   0   4  -4 22.5057 3.10076   2
  -1  -4  -4 60.5467 3.37066   1
   1  -4   4 65.1134 4.12458   1
   1  -4   4 58.9036 2.99044   1
  -1  -4  -4 57.9534 4.15064   1
  -1   4  -4 63.0606 3.55561   3
  -1   4  -4 56.1450 4.13466   2
   2  -4   4 91.4515 4.14398   1
  -2  -4  -4 83.6787 5.41997   1
   2  -4   4 99.3027 5.47015   1
  -2  -4  -4 87.2498 4.62533   1
  -2   4  -4 107.603 5.82912   2
  -2   4  -4 98.3961 4.68010   3
   3  -4   4 160.695 7.65691   1
  -3  -4  -4 165.658 6.57732   1
   3   4   4 156.751 6.41152   1
  -3   4  -4 161.625 7.52849   2
  -3   4  -4 144.336 6.20683   3
  -4  -4  -4 38.0960 4.28159   1
   4  -4   4 51.4846 5.87197   1
  -4   4  -4 49.9341 5.55009   2
  -4   4  -4 52.7430 4.95421   3
   5  -4   4 19.9608 4.78916   1
  -5  -4  -4 24.3967 4.26114   1
  -5   4  -4 21.9619 4.54359   2
  -5   4  -4 22.4221 3.77359   3
   6  -4   4 58.2587 7.64643   1
  -6  -4  -4 60.5308 6.51316   1
  -6   4  -4 58.7903 5.79098   3
  -6   4  -4 52.2528 6.96831   2
  -7  -4  -4 12.9990 4.37113   1
   7  -4   4 12.9575 5.54964   1
  -7   4  -4 17.2874 5.75496   2
  -7   4  -4 17.8735 4.16895   3
  -8  -5   4 100.548 9.04399   1
   8  -5  -4 92.3889 10.0517   1
  -8   5   4 99.2910 9.05630   2
  -8   5   4 89.0914 7.35325   3
   7  -5  -4 2.70648 4.36827   1
  -7  -5   4 -3.3836 2.81223   1
  -7   5   4 0.37994 3.64808   2
  -7   5   4 -0.1412 2.77184   3
  -6  -5   4 213.031 10.0336   1
   6  -5  -4 207.127 10.3178   1
  -6   5   4 206.675 8.87955   3
  -6   5   4 205.974 10.0943   2
  -5  -5   4 119.668 7.05916   1
   5  -5  -4 114.835 7.48789   1
  -5   5   4 107.777 6.17794   3
  -5   5   4 114.569 7.21059   2
  -4  -5   4 8.72194 2.84320   1
   4  -5  -4 13.1228 3.25143   1
  -4   5   4 13.6329 2.70140   3
  -4   5   4 13.2478 3.27532   2
  -3  -5   4 33.6257 3.58348   1
   3  -5  -4 30.9511 3.60814   1
  -3   5   4 39.2726 4.07726   2
  -3   5   4 39.2158 3.84265   3
   2  -5  -4 104.974 4.79493   1
   2  -5  -4 91.5933 4.84778   1
  -2   5   4 102.185 5.03348   3
  -2   5   4 96.4726 5.18494   2
   1  -5  -4 60.4651 3.87522   1
   1  -5  -4 56.8686 3.60249   1
   1   5  -4 70.8634 5.29309   2
  -1   5   4 63.0662 4.29633   2
   0  -5  -4 267.255 7.32232   1
   0  -5  -4 249.792 7.93201   1
   0   5  -4 254.242 9.51418   2
   0   5  -4 271.030 8.35041   3
   1  -5   4 238.769 6.51739   1
  -1  -5  -4 222.325 8.18307   1
  -1  -5  -4 244.428 7.19077   1
  -1   5  -4 242.191 9.04509   2
  -1   5  -4 239.386 7.82215   3
   2  -5   4 836.905 18.7918   1
  -2  -5  -4 780.000 17.7403   1
  -2   5  -4 833.959 20.1886   2
  -2   5  -4 853.481 18.7225   3
   3  -5   4 38.1878 4.53107   1
  -3   5  -4 36.5350 4.00077   3
  -3   5  -4 36.9711 4.85464   2
   4  -5   4 44.0496 5.34832   1
  -4  -5  -4 33.8313 4.35959   1
  -4   5  -4 40.2798 4.67644   3
  -4   5  -4 30.1887 4.82372   2
   5  -5   4 -2.0257 3.02208   1
  -5  -5  -4 1.18516 2.05859   1
  -5   5  -4 2.26308 3.09524   2
  -5   5  -4 3.71597 2.58838   3
   6  -5   4 186.638 11.6125   1
  -6  -5  -4 193.844 9.60417   1
  -6   5  -4 181.632 9.27062   3
  -6   5  -4 173.104 10.9434   2
   7  -5   4 12.1771 5.84921   1
  -7  -5  -4 16.8666 4.73948   1
  -7   5  -4 13.9894 5.76673   2
  -7  -6   4 247.173 12.6596   1
   7  -6  -4 259.671 13.2189   1
  -7   6   4 271.571 11.3833   3
  -7   6   4 256.851 12.4385   2
   6  -6  -4 176.350 10.7961   1
  -6  -6   4 192.933 10.0724   1
  -6   6   4 163.573 8.38180   3
  -6   6   4 183.058 9.93000   2
   5  -6  -4 91.3322 7.51559   1
  -5  -6   4 101.753 7.09124   1
  -5   6   4 102.031 7.44262   2
  -5   6   4 115.660 6.62549   3
   4  -6  -4 115.752 6.73668   1
  -4  -6   4 106.993 6.07720   1
  -4   6   4 100.221 5.89854   3
  -4   6   4 97.9279 6.56986   2
  -3  -6   4 686.250 15.7905   1
   3  -6  -4 696.683 16.4319   1
  -3   6   4 692.860 17.8060   2
  -3   6   4 692.918 16.9624   3
   2  -6  -4 389.868 10.2391   1
  -2   6   4 374.020 11.8395   2
  -2   6   4 383.484 11.3244   3
   1  -6  -4 79.9067 4.33865   1
   1   6  -4 82.0916 6.08601   2
  -1   6   4 78.8346 5.43590   2
   0  -6  -4 29.5383 3.08984   1
   0   6  -4 28.2039 3.91613   3
   0   6  -4 31.4336 4.42775   2
  -1  -6  -4 65.8921 4.09943   1
  -1   6  -4 66.2496 4.76170   3
  -1   6  -4 75.5328 5.83436   2
   2  -6   4 79.9318 5.44393   1
  -2  -6  -4 83.2284 4.84897   1
  -2   6  -4 79.0309 6.31761   2
  -2   6  -4 83.6237 5.28494   3
   3  -6   4 203.468 8.89171   1
  -3  -6  -4 205.526 8.07441   1
  -3   6  -4 194.410 8.42022   3
  -3   6  -4 201.295 9.49130   2
   4  -6   4 52.1759 6.22672   1
  -4  -6  -4 48.9519 5.21020   1
  -4   6  -4 56.9054 5.81156   3
  -4   6  -4 50.1635 6.15023   2
   5  -6   4 28.4010 5.62061   1
  -5  -6  -4 25.9261 4.63733   1
  -5   6  -4 28.3447 5.45292   2
  -5   6  -4 37.5925 5.32652   3
  -6  -6  -4 8.30547 3.30155   1
   6  -6   4 14.2640 5.99496   1
  -6   6  -4 5.94627 4.24726   2
  -6   6  -4 6.42230 4.02922   3
   6  -7  -4 1.26023 4.83642   1
  -6  -7   4 3.44386 3.61481   1
  -6   7   4 14.0436 4.79072   2
  -6   7   4 4.66042 3.46169   3
   5  -7  -4 298.673 12.1344   1
  -5  -7   4 303.991 11.4271   1
  -5   7   4 302.753 12.6054   2
  -5   7   4 286.886 11.1668   3
  -4  -7   4 115.387 6.45573   1
   4  -7  -4 104.365 7.07996   1
  -4   7   4 103.693 6.70739   3
  -4   7   4 105.167 7.49290   2
   3  -7  -4 120.444 6.26807   1
  -3   7   4 115.696 6.81925   3
  -3   7   4 113.294 7.20852   2
   2  -7  -4 26.4085 3.42139   1
  -2   7   4 21.4630 3.84024   3
  -2   7   4 25.3543 4.35162   2
  -1   7   4 2.61884 2.94699   2
   0   7  -4 5.19742 2.58327   2
  -1   7  -4 68.7435 6.29669   2
  -1   7  -4 73.9786 5.69791   3
  -2  -7  -4 141.346 6.28144   1
  -2   7  -4 145.826 7.61907   3
  -2   7  -4 142.337 8.30994   2
  -3  -7  -4 83.5414 5.67437   1
   3  -7   4 74.0444 6.45519   1
  -3   7  -4 75.0021 6.04875   3
  -3   7  -4 58.0225 7.01056   2
  -4  -7  -4 53.5785 5.63989   1
   4  -7   4 48.3987 6.42627   1
  -4   7  -4 50.5859 6.79013   2
  -4   7  -4 51.5891 5.92833   3
   5  -7   4 21.3720 5.55269   1
  -5  -7  -4 12.4424 4.22743   1
  -5   7  -4 28.0986 5.63344   2
  -5   7  -4 18.7111 4.72518   3
   5  -8  -4 37.9753 5.83908   1
  -5  -8   4 32.1426 4.81901   1
  -5   8   4 35.1875 5.37684   3
  -5   8   4 34.7761 6.21494   2
   4  -8  -4 457.348 13.7308   1
  -4  -8   4 420.415 12.7814   1
  -4   8   4 429.044 14.6947   3
  -4   8   4 460.906 15.9788   2
   3  -8  -4 320.935 10.5046   1
  -3   8   4 300.915 11.8528   3
  -3   8   4 300.846 12.7470   2
  -2   8   4 2.21253 3.38482   2
  -1   8   4 9.38311 3.60377   2
   0   8  -4 112.034 8.55735   2
  -1   8  -4 175.875 9.42247   3
  -1   8  -4 205.288 10.8313   2
  -2  -8  -4 9.49174 2.97003   1
  -2   8  -4 3.34306 3.42497   3
  -2   8  -4 17.8702 4.62572   2
   3  -8   4 141.422 8.17617   1
  -3  -8  -4 151.096 7.03230   1
  -3   8  -4 130.572 8.50244   3
  -3   8  -4 140.993 9.57649   2
   4  -8   4 -1.8970 2.75529   1
  -4  -8  -4 8.01733 3.43463   1
  -4   8  -4 -3.3322 4.21423   2
  -4   8  -4 2.69137 2.92321   3
  -3   9   4 78.2615 8.49080   2
  -3   9   4 60.0461 7.08774   3
  -2   9   4 16.6666 4.81653   2
   0   9  -4 21.3662 5.86286   2
  -1   9  -4 75.4210 8.85695   2
  -2   9  -4 102.545 8.81825   3
  -2   9  -4 107.952 10.7831   2
  -9   0   5 41.3241 6.59705   1
   9   0  -5 32.9932 7.36680   1
  -9   0   5 54.0013 7.97969   1
   8   0  -5 -4.0208 4.02632   1
  -8   0   5 3.47403 3.63927   1
   7   0  -5 164.437 9.80089   1
  -7   0   5 171.028 9.38510   1
   6   0  -5 -3.0608 2.47813   1
  -6   0   5 0.10903 2.44028   1
  -5   0   5 377.134 11.7691   1
   5   0  -5 382.629 12.0042   1
   4   0  -5 0.63561 2.00641   1
  -4   0   5 -0.0277 2.06940   1
  -3   0   5 328.201 9.47567   1
   3   0  -5 341.211 9.42596   1
   2   0  -5 0.41565 1.33166   1
  -2   0   5 1.06153 1.49796   1
  -1   0   5 128.350 5.19451   1
   1   0  -5 135.025 4.87882   1
   0   0  -5 0.08616 1.17272   1
   0   0   5 0.86377 1.53563   1
  -1   0  -5 2417.58 43.1554   1
   1   0   5 2425.88 44.5622   1
   2   0   5 0.73997 1.77750   1
  -2   0  -5 -0.3547 1.22598   1
   3   0   5 7.24750 3.01750   1
  -3   0  -5 6.38610 2.23280   1
   4   0   5 0.03668 2.33680   1
  -4   0  -5 -1.0871 1.68659   1
  -5   0  -5 113.076 6.62502   1
   5   0   5 130.837 8.83459   1
   6   0   5 -3.2495 3.69396   1
  -6   0  -5 -3.3352 2.27081   1
   7   0   5 93.7462 10.0356   1
  -7   0  -5 107.502 8.03598   1
   8   0   5 -2.4221 5.28381   1
  -8   0  -5 0.01809 3.66059   1
  -9  -1   5 164.615 11.1247   1
   9  -1  -5 143.382 11.8516   1
  -9   1   5 142.398 10.4294   1
  -9   1   5 150.682 11.3913   1
  -8  -1   5 3.49558 4.02632   1
   8  -1  -5 -0.6469 4.19075   1
  -8   1   5 5.65683 3.87174   1
   8   1  -5 -2.2045 4.00071   1
   7  -1  -5 91.9332 7.97817   1
  -7  -1   5 106.477 7.79669   1
  -7   1   5 97.6938 7.39334   1
   7   1  -5 105.824 8.16972   1
  -6  -1   5 49.9389 5.55406   1
   6  -1  -5 61.7235 6.48170   1
  -6   1   5 49.1242 5.32244   1
   6   1  -5 54.0744 5.83985   1
  -5  -1   5 897.497 21.0410   1
   5  -1  -5 914.546 21.2769   1
   5   1  -5 868.936 20.8029   1
  -5   1   5 928.771 20.9831   1
   4  -1  -5 8.29936 2.55199   1
  -4  -1   5 19.7836 3.25135   1
  -4   1   5 17.0530 3.02356   1
   4   1  -5 13.4181 2.86848   1
   3  -1  -5 440.734 11.4551   1
  -3  -1   5 457.364 11.6816   1
   3   1  -5 462.520 11.3458   1
  -3   1   5 459.963 11.6545   1
  -2  -1   5 118.131 5.00185   1
   2  -1  -5 110.272 4.71000   1
  -2   1   5 117.907 4.91243   1
   2   1  -5 112.954 4.58365   1
   1  -1  -5 215.038 6.58243   1
  -1  -1   5 229.767 6.99360   1
  -1  -1   5 220.795 6.34197   1
   1   1  -5 229.082 6.36072   1
  -1   1   5 217.401 6.78996   1
   0  -1   5 639.971 13.5599   1
   0  -1  -5 639.977 13.7281   1
   0  -1   5 617.422 14.3408   1
   0   1   5 650.379 14.3847   1
   0   1  -5 656.610 13.4575   1
  -1  -1  -5 1072.47 21.2094   1
   1  -1   5 1089.51 22.5830   1
  -1   1  -5 1082.39 20.9531   1
   1   1   5 1060.87 22.2648   1
  -1   1  -5 1057.39 20.1591   2
   2  -1   5 385.070 11.3593   1
  -2  -1  -5 360.076 9.84447   1
   2   1   5 371.790 11.2301   1
  -2   1  -5 371.078 9.72933   1
   3  -1   5 1168.02 25.7510   1
  -3  -1  -5 1098.47 23.4725   1
  -3   1  -5 1143.50 23.4389   1
   3   1   5 1131.77 25.4840   1
   4  -1   5 42.5042 5.68921   1
  -4  -1  -5 32.6443 4.18486   1
  -4   1  -5 34.7101 4.02421   1
   4   1   5 34.6136 5.02122   1
  -5  -1  -5 6.37350 2.53543   1
   5  -1   5 7.67328 3.62539   1
  -5   1  -5 6.65121 2.41092   1
   5   1   5 5.70159 3.29981   1
   6  -1   5 37.3861 6.69123   1
  -6  -1  -5 31.4087 4.90622   1
   6   1   5 34.9391 6.14786   1
  -6   1  -5 36.2119 4.88950   1
   7  -1   5 158.489 12.0921   1
  -7  -1  -5 180.646 9.97982   1
  -7   1  -5 146.323 8.80700   1
   7   1   5 126.383 11.0313   1
  -8  -1  -5 1.93028 4.00579   1
   8  -1   5 -4.9340 5.57824   1
  -9  -2   5 -0.6544 4.68781   1
   9  -2  -5 0.36291 5.55823   1
   8  -2  -5 0.75923 4.58395   1
  -8  -2   5 10.7263 4.62450   1
  -7  -2   5 -2.0980 3.00853   1
   7  -2  -5 2.52335 3.56672   1
   7   2  -5 0.81580 3.52491   1
  -7   2   5 4.43548 3.09555   1
  -6  -2   5 83.8675 6.60872   1
   6  -2  -5 89.5438 7.01580   1
  -6   2   5 76.8486 6.08060   1
   6   2  -5 78.8163 6.37444   1
  -5  -2   5 7.62921 2.87766   1
   5  -2  -5 6.11967 2.88213   1
   5   2  -5 6.05892 2.84771   1
  -5   2   5 7.02224 2.63562   1
   4  -2  -5 988.701 21.9652   1
  -4  -2   5 976.750 21.8429   1
   4   2  -5 1004.80 21.4344   1
  -4   2   5 1010.24 19.8089   3
  -4   2   5 1044.57 21.7033   1
   3  -2  -5 15.6236 2.69031   1
  -3  -2   5 14.2518 2.45032   1
   3   2  -5 12.8660 2.37052   1
  -3   2   5 14.6315 2.52140   1
  -3   2   5 15.9862 1.81917   3
   2  -2  -5 162.714 5.79042   1
  -2  -2   5 155.139 4.49110   3
  -2  -2   5 164.815 5.97456   1
  -2  -2   5 157.689 5.53208   1
  -2   2   5 161.685 5.77823   1
  -2   2   5 156.508 4.28472   3
   2   2  -5 153.801 5.27315   1
   1  -2  -5 39.3657 2.98812   1
  -1  -2   5 41.4810 3.23587   1
   1  -2  -5 38.7910 3.19480   1
  -1  -2   5 37.6793 2.75526   1
  -1   2   5 41.6519 3.12203   1
   1   2  -5 41.7219 2.65616   1
   1   2  -5 44.8980 2.90532   2
  -1  -2  -5 239.412 7.13154   1
   1  -2   5 219.292 6.69631   1
   1  -2   5 243.439 8.00975   1
   1   2   5 235.844 7.72309   1
  -1   2  -5 235.046 5.99954   3
  -1   2  -5 233.482 6.54785   1
  -1   2  -5 231.546 6.77439   2
  -2  -2  -5 396.258 10.7426   1
   2  -2   5 405.024 11.9802   1
   2   2   5 436.829 12.0651   1
  -2   2  -5 399.853 10.5878   2
  -2   2  -5 408.071 10.2619   1
  -2   2  -5 425.349 9.89796   3
   3  -2   5 20.7813 3.73235   1
  -3  -2  -5 16.3652 2.72290   1
  -3   2  -5 16.3744 2.63310   1
   3   2   5 13.4550 3.45954   1
  -4  -2  -5 164.802 7.40669   1
   4  -2   5 162.966 8.87221   1
   4   2   5 167.426 8.78167   1
  -4   2  -5 171.543 7.06557   1
  -5  -2  -5 143.181 7.48410   1
   5  -2   5 138.289 9.28065   1
   5   2   5 131.296 8.58212   1
  -5   2  -5 116.987 6.53093   1
  -6  -2  -5 36.2648 5.10924   1
   6  -2   5 34.3253 6.49228   1
   6   2   5 24.4351 5.48031   1
  -6   2  -5 32.8474 4.69643   1
   7  -2   5 297.710 15.6341   1
  -7  -2  -5 281.015 12.6596   1
  -8  -3   5 2.27977 4.16186   1
   8  -3  -5 -4.0319 4.06315   1
  -8   3   5 0.05967 2.98011   3
  -7  -3   5 126.498 8.53573   1
   7  -3  -5 131.866 9.37921   1
  -7   3   5 136.128 7.16001   3
  -6  -3   5 15.1119 3.83622   1
   6  -3  -5 15.2480 4.26103   1
  -6   3   5 12.0936 2.76616   3
  -6   3   5 15.8974 3.40568   1
   5  -3  -5 477.121 14.1379   1
  -5  -3   5 501.144 14.0879   1
  -5   3   5 482.934 13.2964   1
   5   3  -5 475.949 13.4294   1
  -5   3   5 464.748 12.1393   3
   4  -3  -5 51.5184 4.73065   1
  -4  -3   5 55.0492 4.56251   1
  -4   3   5 51.4647 3.40865   3
  -4   3   5 53.0016 4.13114   1
   4   3  -5 46.3905 3.98139   1
  -3  -3   5 953.107 20.4992   1
  -3  -3   5 957.273 20.6681   1
   3  -3  -5 1003.76 20.9252   1
  -3   3   5 1001.24 19.2809   3
  -3   3   5 1012.25 20.2579   1
   3   3  -5 999.698 19.6839   1
  -3   3   5 1002.45 19.9486   2
  -2  -3   5 343.393 9.03836   1
   2  -3  -5 359.160 9.41980   1
  -2  -3   5 371.875 9.59162   1
   2  -3  -5 343.789 9.87457   1
  -2  -3   5 344.567 8.46209   3
   2  -3  -5 353.755 8.38632   3
  -2   3   5 360.791 9.02958   1
  -2   3   5 360.861 8.35178   3
  -2   3   5 360.917 8.49234   2
  -1  -3   5 42.3223 2.28766   3
   1  -3  -5 38.8496 3.29123   1
   1  -3  -5 42.3742 3.11743   1
  -1  -3   5 37.7390 3.18333   1
  -1  -3   5 37.8689 2.66447   1
   1  -3  -5 37.5106 2.25409   3
   1   3  -5 38.7078 3.29141   2
  -1   3   5 40.8876 2.91304   1
   0  -3  -5 8.14486 1.87690   1
   0  -3  -5 7.08922 1.33951   3
   0  -3   5 11.9984 2.12816   1
   0  -3  -5 7.15122 1.68628   1
   0   3   5 6.76039 1.53993   1
   0   3  -5 13.3884 2.05605   2
   1  -3   5 1642.01 30.6932   1
  -1  -3  -5 1753.98 31.4029   1
  -1  -3  -5 1658.52 33.8098   1
   1  -3   5 1644.07 32.1855   1
  -1   3  -5 1677.90 30.2888   3
  -1   3  -5 1649.08 31.6562   2
  -1   3  -5 1636.88 29.6732   1
   1   3   5 1660.85 31.2784   1
   2  -3   5 400.045 11.8657   1
  -2  -3  -5 400.401 10.6464   1
  -2   3  -5 392.098 9.84363   3
  -2   3  -5 385.270 10.8707   2
  -2   3  -5 377.624 9.43442   1
   2   3   5 401.810 11.1516   1
  -3  -3  -5 5.94284 2.08633   1
   3  -3   5 3.25451 2.73645   1
  -3   3  -5 3.93034 2.30936   2
   3   3   5 -1.7495 2.36595   1
  -3   3  -5 4.28344 1.91688   3
  -3   3  -5 4.15046 1.69409   1
  -4  -3  -5 165.328 7.46420   1
   4  -3   5 152.321 8.83109   1
  -4   3  -5 158.827 6.79895   3
  -4   3  -5 149.972 7.73128   2
   4   3   5 158.297 8.21502   1
  -4   3  -5 157.565 6.61733   1
   5  -3   5 204.650 11.1327   1
  -5  -3  -5 222.923 9.40012   1
  -5   3  -5 211.859 8.63083   3
   5   3   5 211.707 10.6365   1
   6  -3   5 63.7372 8.37259   1
  -6  -3  -5 88.1409 7.02429   1
   7  -3   5 15.1957 6.33092   1
  -7  -3  -5 31.8551 5.78290   1
  -8  -4   5 24.9409 5.65016   1
   8  -4  -5 28.0160 6.37832   1
  -8   4   5 23.3150 4.74014   3
   7  -4  -5 6.48723 4.59110   1
  -7  -4   5 4.35579 4.06306   1
  -7   4   5 4.70018 2.94220   3
  -6  -4   5 -2.3851 2.58371   1
   6  -4  -5 1.87447 3.19879   1
  -6   4   5 6.64231 2.52130   3
  -5  -4   5 236.352 9.46495   1
   5  -4  -5 233.239 9.64689   1
  -5   4   5 257.938 8.46710   3
  -5   4   5 223.773 8.97517   2
   4  -4  -5 184.005 7.80379   1
  -4  -4   5 197.530 8.05365   1
  -4   4   5 186.536 7.44479   2
  -4   4   5 178.296 6.67028   1
  -4   4   5 183.136 6.66393   3
  -3  -4   5 393.141 10.7962   1
  -3  -4   5 384.896 10.5345   1
   3  -4  -5 396.422 11.0185   1
  -3   4   5 394.408 10.0654   3
  -3   4   5 404.268 9.81298   1
  -3   4   5 392.733 10.5268   2
   2  -4  -5 4.33495 1.88987   1
  -2  -4   5 -3.3190 1.45870   1
  -2  -4   5 2.79315 1.55615   1
   2  -4  -5 1.13293 1.74561   1
  -2   4   5 1.96769 1.44868   2
  -2   4   5 3.12386 1.48732   3
  -1  -4   5 46.4209 3.48586   1
   1  -4  -5 45.8753 3.44079   1
   1  -4  -5 39.7170 3.61031   1
  -1  -4   5 41.9726 2.82930   1
   1   4  -5 44.0031 3.98775   2
  -1   4   5 47.2628 3.18198   2
   0  -4  -5 91.4666 4.40531   1
   0  -4   5 96.3313 4.73714   1
   0  -4  -5 85.2016 4.82386   1
   0  -4   5 86.5815 3.77865   1
   0   4  -5 93.0840 5.10627   2
   0   4  -5 95.7899 4.26858   3
   1  -4   5 169.435 5.74358   1
   1  -4   5 179.694 7.03122   1
  -1  -4  -5 180.823 6.41824   1
  -1  -4  -5 165.930 7.33155   1
  -1   4  -5 180.914 6.13045   3
  -1   4  -5 187.660 7.25406   2
   2  -4   5 215.304 7.29786   1
   2  -4   5 248.078 9.18302   1
  -2  -4  -5 251.624 8.14390   1
  -2   4  -5 249.652 8.96727   2
  -2   4  -5 243.358 7.71477   3
   2   4   5 243.354 7.63696   1
   3  -4   5 567.219 16.0446   1
  -3  -4  -5 560.659 14.4539   1
  -3   4  -5 543.686 15.2898   2
   3   4   5 548.741 14.3892   1
  -3   4  -5 553.116 13.8415   3
   4  -4   5 1.08734 3.04674   1
  -4  -4  -5 14.5848 2.97294   1
  -4   4  -5 11.5382 3.81567   2
  -4   4  -5 14.8532 3.09639   3
   5  -4   5 8.81348 4.10372   1
  -5  -4  -5 7.70189 2.98765   1
  -5   4  -5 1.72266 2.53339   3
  -5   4  -5 5.62342 3.62235   2
  -6  -4  -5 48.4896 5.91391   1
   6  -4   5 47.0232 7.28354   1
  -6   4  -5 52.1507 6.79071   2
  -6   4  -5 59.4878 6.23121   3
  -7  -4  -5 64.1311 7.71334   1
   7  -4   5 53.8640 8.70375   1
  -7   4  -5 72.9945 7.39750   3
  -7   4  -5 69.6559 8.32115   2
   8  -5  -5 -6.0904 4.93319   1
  -8  -5   5 2.75757 4.52625   1
  -8   5   5 -1.1161 4.32906   2
  -8   5   5 1.58192 3.14240   3
   7  -5  -5 106.720 9.24800   1
  -7  -5   5 88.3236 7.76439   1
  -7   5   5 94.1088 6.96137   3
  -7   5   5 91.2754 8.06673   2
   6  -5  -5 0.26793 3.57226   1
  -6  -5   5 4.36018 3.28131   1
  -6   5   5 3.32464 2.83589   3
  -6   5   5 12.2268 3.73835   2
  -5  -5   5 161.631 8.15377   1
   5  -5  -5 168.406 8.63068   1
  -5   5   5 162.326 8.04341   2
  -5   5   5 164.668 7.21133   3
  -4  -5   5 62.5282 5.24852   1
   4  -5  -5 68.9913 5.73539   1
  -4   5   5 62.5180 4.52182   3
  -4   5   5 56.3707 5.30355   2
   3  -5  -5 409.890 11.5338   1
  -3  -5   5 414.487 11.3192   1
  -3   5   5 398.246 11.4570   2
  -3   5   5 402.171 10.9858   3
   2  -5  -5 61.0924 4.12338   1
  -2  -5   5 53.3734 3.69594   1
  -2  -5   5 64.4482 4.19604   1
  -2   5   5 52.3144 3.83994   3
  -2   5   5 57.1899 4.02228   2
   1  -5  -5 83.7567 4.53270   1
  -1  -5   5 77.3395 3.73532   1
   1  -5  -5 82.6466 4.87708   1
   1   5  -5 74.7369 5.58864   2
  -1   5   5 88.3281 4.83280   2
   0  -5  -5 28.1578 3.54072   1
   0  -5  -5 36.2384 3.46234   1
   0  -5   5 35.7600 2.71360   1
   0   5  -5 35.0408 3.51386   3
   0   5  -5 31.2799 4.18041   2
   1  -5   5 1973.56 37.0083   1
  -1  -5  -5 1958.95 36.1964   1
  -1   5  -5 1937.20 36.6242   3
  -1   5  -5 1880.70 38.4683   2
   2  -5   5 7.07353 3.08082   1
  -2   5  -5 5.04901 2.49823   2
  -3  -5  -5 9.67007 2.81537   1
   3  -5   5 3.33712 3.12409   1
  -3   5  -5 2.82973 2.24196   3
  -3   5  -5 2.28292 2.62656   2
   4  -5   5 140.454 8.97538   1
  -4  -5  -5 125.410 7.14313   1
  -4   5  -5 136.520 8.04527   2
  -4   5  -5 129.092 7.02522   3
  -5  -5  -5 183.706 9.03303   1
   5  -5   5 193.466 11.0524   1
  -5   5  -5 205.020 9.07580   3
  -5   5  -5 179.217 10.0970   2
  -6  -5  -5 -3.3787 2.99770   1
   6  -5   5 -1.3458 4.60346   1
  -6   5  -5 -0.5633 3.95708   2
  -6   5  -5 0.29515 3.21190   3
  -7  -6   5 -3.5589 4.51398   1
   7  -6  -5 -1.3767 4.40308   1
  -7   6   5 4.41374 3.38959   3
  -7   6   5 1.88262 3.71010   2
  -6  -6   5 261.666 11.7117   1
   6  -6  -5 259.076 12.4200   1
  -6   6   5 258.342 10.2721   3
  -6   6   5 275.697 11.9071   2
   5  -6  -5 86.1115 7.09742   1
  -5  -6   5 78.4066 6.77300   1
  -5   6   5 78.7288 6.79576   2
  -5   6   5 81.9460 5.88787   3
   4  -6  -5 9.07911 3.50220   1
  -4  -6   5 12.0790 3.07015   1
  -4   6   5 14.7409 3.64592   2
  -4   6   5 7.88556 2.59546   3
  -3  -6   5 26.3226 3.55505   1
   3  -6  -5 29.7742 4.03970   1
  -3   6   5 28.2416 3.83971   3
  -3   6   5 30.9479 4.34588   2
   2  -6  -5 318.712 9.43548   1
  -2   6   5 311.525 10.5117   2
  -2   6   5 306.682 10.1847   3
   1  -6  -5 6.26405 2.23604   1
  -1   6   5 9.66265 2.79660   2
   1   6  -5 4.98398 2.94231   2
   0   6  -5 221.890 9.68148   2
  -1  -6  -5 74.9640 4.63658   1
   1  -6   5 68.8757 4.96941   1
  -1   6  -5 83.4102 6.39959   2
  -1   6  -5 74.1382 5.01515   3
  -2  -6  -5 35.8363 3.88343   1
   2  -6   5 32.6644 4.59601   1
  -2   6  -5 39.0113 4.43009   3
  -2   6  -5 33.8574 5.21596   2
  -3  -6  -5 40.5194 4.42767   1
   3  -6   5 37.6132 5.15262   1
  -3   6  -5 39.0151 5.69992   2
  -3   6  -5 28.5444 4.39643   3
  -4  -6  -5 29.0063 4.26644   1
   4  -6   5 19.4502 4.85318   1
  -4   6  -5 32.1005 4.71430   3
  -4   6  -5 30.3493 5.67464   2
  -5  -6  -5 8.63870 3.66857   1
   5  -6   5 -2.2171 3.92109   1
  -5   6  -5 9.01596 4.88076   2
  -5   6  -5 7.47451 3.59092   3
  -6  -6  -5 13.0344 4.03477   1
   6  -6   5 1.41772 5.40918   1
  -6   6  -5 11.1591 5.34962   3
  -6   6  -5 19.8299 5.41304   2
   6  -7  -5 16.4491 5.16342   1
  -6  -7   5 14.2248 4.35088   1
  -6   7   5 16.4952 4.52113   2
  -6   7   5 17.3422 3.94073   3
   5  -7  -5 247.851 11.4016   1
  -5  -7   5 237.701 10.4976   1
  -5   7   5 246.701 11.3016   2
  -5   7   5 237.525 10.1624   3
   4  -7  -5 46.3801 5.55775   1
  -4  -7   5 59.1322 5.70015   1
  -4   7   5 52.2970 6.04857   2
  -4   7   5 63.0313 6.12093   3
   3  -7  -5 166.348 7.82671   1
  -3   7   5 161.021 8.50981   2
  -3   7   5 166.278 7.89907   3
   2  -7  -5 96.7067 5.52350   1
  -2   7   5 88.7096 6.49345   2
   1  -7  -5 112.036 5.84041   1
  -1   7   5 105.961 6.87310   2
   0  -7  -5 513.526 12.9039   1
   0   7  -5 498.829 16.4396   2
  -1  -7  -5 47.2722 4.33542   1
  -1   7  -5 43.5772 5.02229   3
  -1   7  -5 43.9373 6.20137   2
   2  -7   5 86.6274 5.93757   1
  -2  -7  -5 129.234 6.57601   1
  -2   7  -5 98.5957 6.46436   3
  -2   7  -5 110.216 7.67730   2
   3  -7   5 112.217 7.72014   1
  -3  -7  -5 114.490 6.85938   1
  -3   7  -5 119.539 7.23573   3
  -3   7  -5 96.0509 8.41703   2
   4  -7   5 114.861 9.15185   1
  -4  -7  -5 144.619 8.04118   1
  -4   7  -5 110.556 10.3623   2
  -4   7  -5 120.956 7.85750   3
   5  -7   5 3.81652 4.83240   1
  -5  -7  -5 22.3551 4.39501   1
  -5   7  -5 2.14105 3.65791   3
  -5   7  -5 8.87302 5.48439   2
   5  -8  -5 69.0120 7.34079   1
  -5  -8   5 53.6772 5.88098   1
  -5   8   5 72.8944 8.06403   2
  -5   8   5 52.3181 6.35818   3
  -4  -8   5 45.6032 5.35461   1
   4  -8  -5 52.4049 6.54071   1
  -4   8   5 37.3341 5.85763   2
  -4   8   5 45.0071 5.72330   3
   3  -8  -5 62.3988 5.39668   1
  -3   8   5 64.8611 7.16899   2
  -3   8   5 62.7688 6.69623   3
   2  -8  -5 117.620 6.39261   1
  -2   8   5 130.523 8.35411   2
   1  -8  -5 12.9634 2.89240   1
   0  -8  -5 52.9818 4.38202   1
   0   8  -5 56.4150 7.16901   2
  -1  -8  -5 30.1357 3.73829   1
  -1   8  -5 36.1881 6.20097   2
  -1   8  -5 24.4225 4.55164   3
  -2  -8  -5 121.885 6.47650   1
  -2   8  -5 145.640 8.04267   3
  -2   8  -5 140.875 9.61707   2
  -3  -8  -5 8.78388 3.60255   1
   3  -8   5 7.73001 2.78342   1
  -3   8  -5 11.3859 4.69964   2
  -3   8  -5 10.8954 3.74560   3
   3  -9  -5 35.9305 4.96415   1
  -2   9   5 -1.3501 3.64636   2
   0   9  -5 34.7248 6.67487   2
  -1   9  -5 18.2842 5.34513   2
  -9   0   6 -6.6181 4.19762   1
   9   0  -6 1.70157 5.22919   1
  -8   0   6 -1.2046 3.65999   1
   8   0  -6 -0.6624 4.54585   1
   7   0  -6 -1.1459 3.34207   1
  -7   0   6 0.88573 3.22972   1
   6   0  -6 417.355 13.9405   1
  -6   0   6 445.594 14.0723   1
  -5   0   6 -1.7847 2.23398   1
   5   0  -6 -1.7569 2.42028   1
  -4   0   6 304.491 9.92700   1
   4   0  -6 299.952 9.76032   1
  -3   0   6 -2.3787 1.55580   1
   3   0  -6 -0.9661 1.55885   1
  -2   0   6 18.1274 2.92162   1
   2   0  -6 16.9513 2.54775   1
  -1   0   6 1.12649 1.40952   1
   1   0  -6 0.62100 1.33198   1
   0   0  -6 424.104 10.4656   1
   0   0   6 413.903 11.3239   1
   1   0   6 1.27996 1.82404   1
  -1   0  -6 -1.1070 1.26295   1
   2   0   6 6144.74 107.124   1
  -2   0  -6 6122.89 104.835   1
  -3   0  -6 -0.2717 1.72161   1
   3   0   6 0.06923 2.34105   1
  -4   0  -6 357.085 11.3132   1
   4   0   6 334.728 13.0360   1
  -5   0  -6 -3.3065 2.29224   1
   5   0   6 -3.7667 3.17233   1
   6   0   6 1173.02 31.5091   1
  -6   0  -6 1214.24 28.3513   1
  -7   0  -6 3.63943 3.46869   1
   7   0   6 -3.7649 4.37633   1
   9  -1  -6 8.21760 5.72092   1
  -9  -1   6 12.5810 5.53575   1
  -9   1   6 8.32581 5.93396   1
  -8  -1   6 -2.7565 3.67548   1
   8  -1  -6 -4.3881 3.98517   1
   8   1  -6 -5.7153 4.01121   1
  -8   1   6 0.67737 3.85429   1
  -7  -1   6 55.4581 6.53308   1
   7  -1  -6 63.9239 7.26601   1
   7   1  -6 58.0857 7.01270   1
  -7   1   6 49.0686 6.11853   1
  -6  -1   6 671.007 18.3794   1
   6  -1  -6 652.598 18.5114   1
   6   1  -6 678.111 18.4815   1
  -6   1   6 674.063 18.0944   1
   5  -1  -6 28.4750 4.26914   1
  -5  -1   6 30.6338 4.37562   1
   5   1  -6 27.8574 4.15432   1
  -5   1   6 30.6999 4.37809   1
   4  -1  -6 0.30401 2.02448   1
  -4  -1   6 -1.3426 1.70343   1
   4   1  -6 -0.5051 1.92413   1
  -4   1   6 2.13607 2.08410   1
  -3  -1   6 39.2287 3.61699   1
   3  -1  -6 40.2713 3.68471   1
  -3   1   6 41.9406 4.02148   1
   3   1  -6 40.0824 3.52381   1
   2  -1  -6 8.95243 2.14927   1
  -2  -1   6 10.6404 2.46347   1
  -2   1   6 6.41418 2.05919   1
   2   1  -6 10.8122 2.14058   1
   1  -1  -6 1.18760 1.33863   1
  -1  -1   6 3.41179 1.68325   1
   1   1  -6 2.87197 1.32071   1
  -1   1   6 0.46375 1.32964   1
   0  -1  -6 201.551 6.61363   1
   0  -1   6 205.555 7.36956   1
   0   1  -6 193.445 6.30150   1
   0   1   6 208.556 7.27564   1
   1  -1   6 9.49133 2.56669   1
  -1  -1  -6 11.1717 2.18232   1
  -1   1  -6 8.21971 1.49593   2
  -1   1  -6 10.4637 2.04857   1
   1   1   6 11.1744 2.67011   1
   2  -1   6 131.477 6.95288   1
  -2  -1  -6 131.121 5.88059   1
  -2   1  -6 128.544 5.65721   1
   2   1   6 141.720 7.03429   1
  -3  -1  -6 45.9461 4.09110   1
   3  -1   6 40.1124 5.19367   1
  -3   1  -6 43.5860 3.95071   1
   3   1   6 51.5147 5.85154   1
   4  -1   6 82.7792 6.99654   1
  -4  -1  -6 75.5874 5.40764   1
  -4   1  -6 70.4379 5.08042   1
   4   1   6 70.4252 7.05421   1
  -5  -1  -6 19.4309 3.90195   1
   5  -1   6 16.8381 5.17432   1
   5   1   6 11.6661 4.92365   1
  -5   1  -6 19.0898 3.84094   1
   6  -1   6 55.2871 7.49524   1
   6   1   6 53.3969 7.51842   1
  -7  -1  -6 -2.0499 3.25318   1
   7  -1   6 0.12107 4.85545   1
   7   1   6 -0.8886 4.48624   1
  -9  -2   6 120.764 10.4750   1
   9  -2  -6 102.149 10.7556   1
   8  -2  -6 32.9857 6.57952   1
  -8  -2   6 41.4897 6.72715   1
  -7  -2   6 30.2416 5.55425   1
   7  -2  -6 21.1561 4.95685   1
   7   2  -6 14.1442 4.85979   1
  -7   2   6 25.7089 4.63983   1
  -6  -2   6 285.779 11.2037   1
   6  -2  -6 265.343 11.2202   1
  -6   2   6 258.902 10.3040   1
   6   2  -6 262.717 10.6647   1
   5  -2  -6 -2.5535 2.23551   1
  -5  -2   6 0.16322 2.30742   1
   5   2  -6 4.17119 2.64284   1
  -5   2   6 -0.0449 2.18656   1
  -5   2   6 0.28304 1.44699   3
   4  -2  -6 357.469 11.0326   1
  -4  -2   6 354.261 10.9620   1
  -4   2   6 356.886 10.7292   1
   4   2  -6 362.208 10.6200   1
  -4   2   6 352.669 8.71842   3
  -3  -2   6 11.3024 2.68862   1
   3  -2  -6 10.4804 2.69742   1
  -3   2   6 10.1262 1.50931   3
   3   2  -6 9.65633 2.35427   1
  -3   2   6 6.32966 2.43428   1
  -2  -2   6 781.217 17.4002   1
   2  -2  -6 780.820 17.1571   1
   2   2  -6 805.170 16.6146   1
  -2   2   6 804.798 17.3419   1
  -1  -2   6 388.267 10.4017   1
  -1  -2   6 357.969 9.46023   1
   1  -2  -6 389.411 9.96139   1
   1   2  -6 382.912 9.40073   2
   1   2  -6 372.119 9.28802   1
  -1   2   6 384.026 10.1311   1
   0  -2   6 791.086 18.0484   1
   0  -2   6 838.794 17.9298   1
   0  -2  -6 814.372 17.3604   1
   0   2   6 827.433 17.8759   1
   0   2  -6 795.237 16.5057   1
   0   2  -6 809.601 15.1777   3
   0   2  -6 804.110 16.4251   2
  -1  -2  -6 670.084 15.4843   1
   1  -2   6 677.052 16.7735   1
   1   2   6 712.153 16.5347   1
  -1   2  -6 668.916 14.8625   1
  -1   2  -6 689.573 14.9078   2
  -1   2  -6 695.570 13.7180   3
   2  -2   6 338.669 11.4018   1
  -2  -2  -6 347.392 10.1890   1
  -2   2  -6 339.224 9.52594   1
  -2   2  -6 339.987 9.66193   2
   2   2   6 348.312 11.2296   1
  -2   2  -6 344.561 8.77396   3
   3  -2   6 834.539 21.0686   1
  -3  -2  -6 823.093 19.2060   1
  -3   2  -6 812.916 18.4377   1
  -3   2  -6 810.764 18.9636   2
   3   2   6 805.982 20.4666   1
  -4  -2  -6 22.0927 3.86785   1
   4  -2   6 17.3490 4.21418   1
   4   2   6 13.7086 3.85264   1
  -4   2  -6 23.6691 3.41331   1
  -5  -2  -6 613.280 17.2778   1
   5  -2   6 635.896 20.3184   1
   5   2   6 609.308 19.2816   1
  -5   2  -6 607.786 16.5633   1
  -6  -2  -6 503.923 16.2024   1
   6  -2   6 494.769 19.0746   1
   6   2   6 477.058 18.0596   1
  -7  -2  -6 124.903 9.14911   1
   7  -2   6 103.304 11.4271   1
   8  -3  -6 18.9361 5.95076   1
  -8  -3   6 19.9328 5.49699   1
  -8   3   6 21.1344 4.31082   3
  -7  -3   6 67.2884 7.56376   1
   7  -3  -6 70.4862 8.06751   1
  -7   3   6 70.2902 5.41997   3
   6  -3  -6 125.930 8.25728   1
  -6  -3   6 124.301 8.06831   1
  -6   3   6 124.434 7.26317   1
  -6   3   6 124.942 6.11914   3
  -5  -3   6 69.2535 5.86530   1
   5  -3  -6 72.1987 6.16022   1
  -5   3   6 65.0767 5.20086   1
  -5   3   6 75.4273 4.46199   3
   5   3  -6 66.6582 5.41268   1
  -4  -3   6 99.6917 5.79245   1
   4  -3  -6 103.171 6.00975   1
   4   3  -6 105.245 5.45063   1
  -4   3   6 103.039 4.56922   3
  -4   3   6 103.621 5.60966   1
   3  -3  -6 92.3966 5.24750   1
  -3  -3   6 105.149 5.48206   1
  -3   3   6 94.2552 3.87110   3
   3   3  -6 88.7865 4.49804   1
  -3   3   6 88.7996 4.14487   2
  -3   3   6 91.7585 4.78168   1
   2  -3  -6 53.0863 3.84424   1
   2  -3  -6 53.7989 2.76256   3
  -2  -3   6 52.4550 2.66516   3
  -2  -3   6 54.9700 3.98977   1
  -2  -3   6 54.5378 3.52148   1
   2   3  -6 48.9340 3.14311   1
  -2   3   6 52.6510 2.77968   3
   1  -3  -6 243.611 7.63486   1
  -1  -3   6 241.524 7.16098   1
   1  -3  -6 230.491 6.10292   3
  -1  -3   6 237.977 6.21668   3
  -1  -3   6 257.938 8.01007   1
  -1   3   6 252.444 7.45306   1
   1   3  -6 239.565 7.84613   2
   1   3  -6 245.808 6.49576   1
   0  -3   6 24.8731 2.73358   1
   0  -3  -6 28.5713 3.04369   1
   0  -3   6 22.4003 3.10175   1
   0  -3  -6 24.0955 2.26352   3
   0  -3   6 20.5572 2.07068   3
   0   3  -6 23.1912 2.29333   1
   0   3  -6 26.5432 2.44475   3
   0   3  -6 28.2521 3.17809   2
   0   3   6 25.1935 2.92290   1
   1  -3   6 4.31747 2.36027   1
   1  -3   6 0.80398 1.45284   1
  -1   3  -6 4.74988 1.37273   1
  -1   3  -6 2.81894 1.66993   2
   2  -3   6 36.7439 4.73994   1
  -2  -3  -6 34.0458 3.84204   1
  -2   3  -6 37.1391 3.90484   2
   2   3   6 38.6772 4.45083   1
  -2   3  -6 40.5646 3.10923   3
  -2   3  -6 33.6713 2.98139   1
  -3  -3  -6 167.220 7.44884   1
   3  -3   6 187.512 9.01089   1
   3   3   6 185.090 8.47191   1
  -3   3  -6 173.451 6.64643   1
  -3   3  -6 190.592 8.00539   2
  -3   3  -6 181.089 6.79086   3
   4  -3   6 26.4454 4.82628   1
  -4  -3  -6 18.8745 3.41188   1
   4   3   6 26.1429 4.57662   1
  -5  -3  -6 48.0225 5.72738   1
   5  -3   6 40.6675 6.56928   1
  -5   3  -6 51.6092 6.16532   2
  -5   3  -6 56.3873 5.46038   3
  -6  -3  -6 90.1389 7.53928   1
   6  -3   6 72.8183 8.82169   1
  -6   3  -6 75.6044 6.37459   3
  -7  -3  -6 1.45951 3.79322   1
   7  -3   6 -5.2874 5.19745   1
  -7   3  -6 -5.0207 3.04043   3
   8  -4  -6 207.130 12.6834   1
  -8  -4   6 178.416 11.4893   1
  -8   4   6 179.752 9.23282   3
   7  -4  -6 6.83773 4.63859   1
  -7  -4   6 1.07015 3.70349   1
  -7   4   6 1.94631 2.67423   3
   6  -4  -6 148.725 9.08229   1
  -6  -4   6 140.764 8.57617   1
  -6   4   6 140.491 6.73987   3
  -6   4   6 143.288 8.00401   2
   5  -4  -6 86.0307 6.72945   1
  -5  -4   6 88.4185 6.44753   1
  -5   4   6 98.5223 5.34766   3
  -5   4   6 99.6098 6.09603   2
  -4  -4   6 67.0256 5.18671   1
   4  -4  -6 73.9826 5.50975   1
  -4   4   6 60.4538 3.90301   3
  -4   4   6 68.5030 4.51603   1
  -4   4   6 68.8306 4.66685   2
   3  -4  -6 21.9404 3.40928   1
  -3  -4   6 23.5762 3.54550   1
  -3  -4   6 20.4970 2.98467   1
  -3   4   6 25.6101 2.84709   3
  -3   4   6 24.5227 2.87203   2
  -3   4   6 22.9234 2.90074   1
   2  -4  -6 20.0583 3.00846   1
  -2  -4   6 20.2560 2.70551   1
  -2  -4   6 22.2486 3.13145   1
  -2   4   6 23.3933 2.59612   3
  -2   4   6 20.9798 2.57203   1
  -1  -4   6 72.1373 4.53851   1
   0  -4  -6 1742.24 32.7905   1
   0  -4   6 1750.96 33.5397   1
   0  -4   6 1663.47 31.9049   1
   0  -4  -6 1737.90 40.6920   1
   0   4   6 1714.60 31.6360   1
   0   4  -6 1684.85 33.8388   2
   0   4  -6 1754.38 32.0239   3
   1  -4   6 107.281 4.96293   1
  -1  -4  -6 121.182 5.65880   1
   1  -4   6 113.552 6.39713   1
   1   4   6 117.532 5.11430   1
  -1   4  -6 112.749 6.06539   2
  -1   4  -6 122.648 5.04220   3
   2  -4   6 17.9488 3.89407   1
  -2  -4  -6 22.6304 3.08762   1
  -2   4  -6 21.3420 3.44670   2
   2   4   6 20.4384 3.01267   1
  -2   4  -6 27.7490 3.24346   3
   3  -4   6 89.4008 6.82418   1
  -3  -4  -6 74.6693 5.31871   1
  -3   4  -6 76.6580 5.68799   2
  -3   4  -6 74.9260 4.72803   3
   4  -4   6 1115.02 27.7867   1
  -4  -4  -6 1091.03 25.1445   1
  -4   4  -6 1100.85 24.0797   3
  -4   4  -6 1070.05 26.0200   2
   5  -4   6 10.0729 4.73700   1
  -5  -4  -6 16.7883 3.91984   1
  -5   4  -6 11.7761 3.53040   3
  -5   4  -6 42.6163 6.07698   2
  -6  -4  -6 14.4173 4.40523   1
   6  -4   6 18.0188 6.01659   1
  -6   4  -6 16.0965 5.30736   2
  -6   4  -6 15.2158 4.10752   3
   7  -5  -6 44.7315 6.95055   1
  -7  -5   6 50.7075 6.64829   1
  -7   5   6 41.8937 5.28247   3
  -7   5   6 38.4080 6.09924   2
   6  -5  -6 25.7654 5.12718   1
  -6  -5   6 25.8873 4.86885   1
  -6   5   6 23.9268 4.56058   2
  -6   5   6 26.5726 4.02477   3
  -5  -5   6 113.619 7.39856   1
   5  -5  -6 136.309 8.09034   1
  -5   5   6 134.929 7.27224   2
  -5   5   6 123.540 6.25454   3
  -4  -5   6 89.3374 6.00153   1
   4  -5  -6 104.085 6.54150   1
  -4   5   6 105.047 5.39378   3
  -4   5   6 91.3220 5.76425   2
   3  -5  -6 32.0596 4.24637   1
  -3  -5   6 31.3457 3.99271   1
  -3   5   6 32.6639 3.60707   2
  -3   5   6 36.4023 3.78993   3
   2  -5  -6 0.94638 1.99397   1
  -2  -5   6 -0.0129 1.88637   1
  -2   5   6 0.38944 1.63740   2
  -2   5   6 -0.9358 1.48545   3
   1  -5  -6 47.9751 4.09425   1
  -1  -5   6 47.5285 4.03343   1
   1   5  -6 45.3933 4.90628   2
  -1   5   6 45.7908 3.85680   2
   0  -5   6 56.3479 4.49697   1
   0  -5  -6 48.9888 4.07755   1
   0   5  -6 50.3736 3.91179   3
   0   5  -6 54.8252 5.48899   2
  -1  -5  -6 286.552 9.13994   1
   1  -5   6 304.063 10.3133   1
  -1   5  -6 295.326 9.10097   3
  -1   5  -6 291.880 10.4116   2
   2  -5   6 88.2027 6.57245   1
  -2  -5  -6 89.3430 5.78234   1
  -2   5  -6 81.4515 5.08460   3
  -2   5  -6 90.6550 6.27913   2
  -3  -5  -6 20.0573 3.81586   1
   3  -5   6 23.6370 4.42946   1
  -3   5  -6 22.9270 3.52561   3
  -3   5  -6 23.5323 4.45468   2
  -4  -5  -6 28.0724 3.86694   1
   4  -5   6 25.1909 5.41072   1
  -4   5  -6 25.3323 4.84146   2
  -4   5  -6 27.8389 4.01237   3
  -5  -5  -6 28.0330 5.37786   1
   5  -5   6 15.8362 5.58226   1
  -5   5  -6 25.6664 4.44609   3
  -5   5  -6 34.2328 5.83299   2
   6  -5   6 31.0135 7.16719   1
  -6  -5  -6 30.1511 5.44677   1
  -6   5  -6 37.4124 5.76208   3
  -6   5  -6 40.4735 7.06297   2
  -7  -6   6 73.8802 8.36711   1
   7  -6  -6 74.2187 8.71598   1
  -7   6   6 72.9303 7.88566   2
  -7   6   6 58.8935 6.19825   3
   6  -6  -6 16.8815 5.19747   1
  -6  -6   6 18.8300 4.88469   1
  -6   6   6 19.1169 3.93925   3
  -6   6   6 24.7146 4.86679   2
  -5  -6   6 29.3762 4.78850   1
   5  -6  -6 24.7845 5.21976   1
  -5   6   6 28.2894 4.59188   2
  -5   6   6 26.7706 4.00366   3
  -4  -6   6 152.265 7.75210   1
   4  -6  -6 152.069 8.13817   1
  -4   6   6 149.396 7.59569   2
  -4   6   6 159.678 7.29285   3
  -3  -6   6 1.35300 2.46574   1
   3  -6  -6 -1.2264 2.50116   1
  -3   6   6 2.98611 1.99187   3
  -3   6   6 0.14374 1.96819   2
   2  -6  -6 69.0449 4.95827   1
  -2  -6   6 60.9365 4.62859   1
  -2   6   6 63.5546 5.00072   2
   1  -6  -6 73.3431 4.95983   1
  -1  -6   6 81.5438 4.89861   1
   1   6  -6 67.9982 6.18237   2
   0  -6  -6 472.311 12.5401   1
   0  -6   6 461.946 12.6024   1
   0   6  -6 465.675 14.8076   2
   0   6  -6 464.322 13.2313   3
  -1  -6  -6 202.278 7.84455   1
   1  -6   6 203.150 8.74993   1
  -1   6  -6 188.129 7.88643   3
  -1   6  -6 194.542 9.34777   2
  -2  -6  -6 15.7392 3.41017   1
   2  -6   6 11.9614 3.62095   1
  -2   6  -6 14.4987 3.85471   2
  -2   6  -6 13.6765 3.18072   3
   3  -6   6 353.569 13.4059   1
  -3  -6  -6 366.935 12.1036   1
  -3   6  -6 375.585 13.8857   2
  -3   6  -6 360.414 12.0166   3
   4  -6   6 218.808 11.8707   1
  -4  -6  -6 219.193 10.1701   1
  -4   6  -6 223.345 9.66093   3
  -4   6  -6 228.304 11.3146   2
   5  -6   6 158.810 11.2820   1
  -5  -6  -6 164.210 9.29799   1
  -5   6  -6 170.013 11.0918   2
  -5   6  -6 161.760 9.12274   3
   6  -7  -6 11.5555 5.39596   1
  -6  -7   6 13.9276 4.62873   1
  -6   7   6 15.2277 4.50651   2
  -6   7   6 14.0267 4.02407   3
   5  -7  -6 184.030 10.2362   1
  -5  -7   6 178.493 9.67377   1
  -5   7   6 178.024 9.67616   2
  -5   7   6 187.671 9.04222   3
  -4  -7   6 65.5862 6.22626   1
   4  -7  -6 65.8175 6.24002   1
  -4   7   6 67.4178 5.80461   3
  -4   7   6 64.1821 6.39521   2
   3  -7  -6 88.5641 6.38616   1
  -3  -7   6 95.2320 5.68978   1
  -3   7   6 86.0267 6.49175   2
  -3   7   6 86.9915 6.26789   3
   2  -7  -6 25.9579 3.97646   1
  -2   7   6 24.1732 4.07747   2
   1  -7  -6 35.9748 4.32173   1
   0  -7  -6 9.37600 2.86139   1
   0   7  -6 7.50934 3.36452   2
   1  -7   6 385.939 11.8896   1
  -1  -7  -6 396.436 11.7063   1
  -1   7  -6 376.539 12.4605   3
  -1   7  -6 370.924 14.4423   2
  -2  -7  -6 5.81030 2.78231   1
   2  -7   6 1.05800 3.27363   1
  -2   7  -6 1.60075 2.64652   3
  -2   7  -6 8.49732 3.51558   2
   3  -7   6 -1.0498 3.42931   1
  -3  -7  -6 -2.8935 2.76043   1
  -3   7  -6 -7.8982 2.26345   3
  -3   7  -6 -5.4734 3.14612   2
  -4  -7  -6 2.16296 3.57058   1
   4  -7   6 4.42514 3.77608   1
  -4   7  -6 1.00229 3.17882   3
  -4   7  -6 2.78234 4.61522   2
  -4  -8   6 72.9394 6.06619   1
   4  -8  -6 48.7187 6.11936   1
  -4   8   6 49.3645 6.61197   2
  -4   8   6 56.1987 6.30347   3
   3  -8  -6 12.1521 3.92240   1
  -3   8   6 10.5188 4.05254   2
   2  -8  -6 12.1072 3.08629   1
  -2   8   6 20.3129 4.40652   2
   1  -8  -6 20.6538 3.26498   1
   0  -8  -6 45.8140 4.72566   1
   0   8  -6 48.0923 7.06677   2
  -1  -8  -6 10.1089 2.49894   1
  -1   8  -6 5.24076 3.92022   2
  -1   8  -6 -0.2622 2.20918   3
  -2  -8  -6 374.865 12.8639   1
   2  -8   6 363.062 13.3152   1
  -2   8  -6 402.009 13.6858   3
  -2   8  -6 417.582 16.3490   2
   3  -8   6 29.3254 5.66367   1
  -3  -8  -6 23.1041 4.37724   1
  -3   8  -6 33.9788 6.20782   2
  -3   8  -6 26.4092 4.90541   3
   2  -9  -6 19.2117 3.86214   1
   1  -9  -6 42.2384 4.73086   1
   0  -9  -6 45.5869 4.88755   1
   0   9  -6 48.1166 8.25013   2
  -9   0   7 104.935 10.4834   1
   9   0  -7 80.9073 9.65648   1
  -8   0   7 -0.4979 4.29089   1
   8   0  -7 -2.5171 4.22505   1
   7   0  -7 906.525 24.1998   1
  -7   0   7 920.099 24.0216   1
  -6   0   7 1.28766 2.81981   1
   6   0  -7 4.69815 3.27713   1
   5   0  -7 4.95687 2.82068   1
  -5   0   7 4.05433 2.93068   1
  -4   0   7 -0.0583 1.81950   1
   4   0  -7 1.29048 2.05739   1
  -3   0   7 878.138 19.9356   1
   3   0  -7 890.606 19.6754   1
   2   0  -7 -1.1770 1.41286   1
  -2   0   7 -2.2657 1.43898   1
   1   0  -7 95.0077 4.74058   1
  -1   0   7 88.7088 5.12653   1
   0   0   7 -0.5542 1.60387   1
   0   0  -7 0.68220 1.49525   1
  -1   0  -7 1746.65 33.5090   1
   1   0   7 1741.06 35.1366   1
   2   0   7 -1.1210 2.11573   1
  -2   0  -7 -0.1118 1.51646   1
  -3   0  -7 10.9308 2.64142   1
   3   0   7 8.99891 3.47788   1
  -4   0  -7 -0.7224 1.96545   1
   4   0   7 -1.6492 3.03177   1
  -5   0  -7 99.2605 6.66266   1
   5   0   7 66.1736 7.74283   1
   6   0   7 -3.4540 4.05453   1
  -6   0  -7 -0.1190 2.58212   1
  -7   0  -7 -1.2912 3.10995   1
   7   0   7 -2.5363 4.66811   1
   9  -1  -7 16.2866 6.71939   1
  -9  -1   7 15.6143 6.03848   1
   8  -1  -7 71.7239 8.80679   1
  -8  -1   7 56.2557 7.29590   1
   8   1  -7 53.6686 7.64100   1
  -8   1   7 66.9971 7.69366   1
  -7  -1   7 272.295 12.1074   1
   7  -1  -7 269.640 12.3154   1
  -7   1   7 276.857 11.8095   1
   7   1  -7 271.431 12.1486   1
   6  -1  -7 271.103 11.3623   1
  -6  -1   7 268.953 11.1932   1
  -6   1   7 254.164 10.7542   1
   6   1  -7 262.815 10.8948   1
  -5  -1   7 104.774 6.82581   1
   5  -1  -7 96.9009 6.71194   1
  -5   1   7 100.471 6.46992   1
   5   1  -7 102.334 6.58455   1
  -4  -1   7 192.708 8.18091   1
   4  -1  -7 202.739 8.25693   1
   4   1  -7 203.230 8.05905   1
  -4   1   7 207.493 8.35615   1
   3  -1  -7 501.947 13.2807   1
  -3  -1   7 510.729 13.6395   1
  -3   1   7 529.874 13.6425   1
   3   1  -7 495.544 12.9795   1
  -2  -1   7 258.506 8.64960   1
   2  -1  -7 256.618 8.25748   1
  -2   1   7 249.585 8.55443   1
   2   1  -7 270.748 8.16877   1
  -1  -1   7 464.563 12.3216   1
   1  -1  -7 451.691 11.6843   1
  -1   1   7 443.267 12.0743   1
   1   1  -7 444.920 11.1904   1
   0  -1   7 75.7169 4.98123   1
   0  -1  -7 85.1141 4.56120   1
   0   1   7 80.2552 4.99658   1
   0   1  -7 79.3716 4.25476   1
  -1  -1  -7 383.176 10.6774   1
   1  -1   7 372.339 11.8055   1
   1   1   7 386.122 11.8009   1
  -1   1  -7 369.680 10.3023   1
  -1   1  -7 373.440 8.96716   2
  -2  -1  -7 2.85025 1.92628   1
   2  -1   7 -0.1157 2.29591   1
   2   1   7 1.86973 2.36364   1
  -2   1  -7 0.91260 1.44874   2
  -2   1  -7 -0.2561 1.55697   1
  -3  -1  -7 230.494 8.78167   1
   3  -1   7 226.876 10.3543   1
  -3   1  -7 243.699 8.75042   1
   3   1   7 232.862 10.2253   1
   4  -1   7 5.58143 3.69684   1
  -4  -1  -7 6.51388 2.61948   1
  -4   1  -7 6.29987 2.64521   1
   4   1   7 5.32829 3.37995   1
  -5  -1  -7 395.612 13.4710   1
   5  -1   7 380.063 15.8345   1
  -5   1  -7 384.651 12.9422   1
   5   1   7 380.946 15.4896   1
  -6  -1  -7 0.30735 3.31377   1
   6  -1   7 -0.3173 4.25356   1
  -6   1  -7 4.72208 3.16022   1
   6   1   7 4.67091 4.87176   1
  -7  -1  -7 76.4408 8.41984   1
   7  -1   7 83.2099 10.3722   1
   7   1   7 69.6152 9.90109   1
  -8  -2   7 4.47695 4.42161   1
   8  -2  -7 1.93292 4.58442   1
  -7  -2   7 182.407 10.2395   1
   7  -2  -7 191.830 10.7129   1
  -7   2   7 161.053 9.38175   1
  -6  -2   7 88.8856 7.22962   1
   6  -2  -7 103.032 7.65396   1
   6   2  -7 89.8528 6.90795   1
  -6   2   7 93.0912 6.93874   1
  -6   2   7 92.1029 5.17769   3
   5  -2  -7 290.879 10.9021   1
  -5  -2   7 289.846 10.8374   1
  -5   2   7 281.959 10.4137   1
  -5   2   7 294.269 8.23149   3
   5   2  -7 290.554 10.3194   1
   4  -2  -7 983.949 22.5949   1
  -4  -2   7 986.623 22.8766   1
  -4   2   7 1024.26 19.2837   3
  -4   2   7 1009.49 22.5174   1
   4   2  -7 994.304 21.9565   1
  -3  -2   7 330.280 10.4306   1
   3  -2  -7 332.687 10.3115   1
  -3   2   7 321.427 10.0118   1
   3   2  -7 318.373 9.53876   1
   2  -2  -7 965.623 20.4689   1
  -2  -2   7 937.990 20.8486   1
  -2   2   7 953.362 20.5595   1
   2   2  -7 944.910 19.7073   1
  -1  -2   7 930.473 20.6746   1
   1  -2  -7 942.467 20.1124   1
  -1   2   7 945.932 20.4322   1
   1   2  -7 940.972 19.3445   1
   0  -2   7 915.138 20.6727   1
   0  -2  -7 922.285 19.7137   1
   0   2  -7 896.787 18.8095   1
   0   2   7 910.567 20.2496   1
   0   2  -7 906.365 18.3230   2
   1  -2   7 160.673 7.46843   1
  -1  -2  -7 163.174 6.65123   1
   1   2   7 164.241 7.33752   1
  -1   2  -7 166.045 4.93772   3
  -1   2  -7 152.932 5.67821   2
  -1   2  -7 158.559 6.08592   1
   2  -2   7 167.330 8.37331   1
  -2  -2  -7 151.257 6.92244   1
  -2   2  -7 161.628 6.59007   1
   2   2   7 159.052 7.87910   1
  -2   2  -7 162.892 5.61226   3
  -2   2  -7 170.192 6.47757   2
   3  -2   7 14.6806 3.74598   1
  -3  -2  -7 13.2628 2.96434   1
   3   2   7 5.79139 3.03182   1
  -3   2  -7 10.0155 2.72292   2
  -3   2  -7 17.4959 2.88311   1
   4  -2   7 47.8351 6.22016   1
  -4  -2  -7 49.3394 5.36054   1
   4   2   7 37.7542 5.45971   1
  -4   2  -7 52.7025 4.70616   1
   6  -2   7 -3.3772 4.21413   1
  -6  -2  -7 4.04502 3.82142   1
  -7  -2  -7 3.04533 4.20710   1
   7  -2   7 -0.1239 5.67016   1
   8  -3  -7 46.0358 7.57191   1
  -8  -3   7 52.9480 7.47711   1
  -8   3   7 55.3158 5.82730   3
   7  -3  -7 6.33798 4.35379   1
  -7  -3   7 5.94675 3.80917   1
  -7   3   7 10.5682 3.02635   3
  -6  -3   7 500.988 15.9187   1
   6  -3  -7 499.047 16.2105   1
  -6   3   7 507.367 13.2373   3
  -6   3   7 498.024 15.2822   1
   5  -3  -7 304.705 11.4289   1
  -5  -3   7 313.829 11.3996   1
  -5   3   7 311.121 8.88285   3
   5   3  -7 319.402 11.7179   1
  -5   3   7 296.244 10.5083   1
  -4  -3   7 178.715 8.02318   1
   4  -3  -7 190.806 8.25660   1
  -4   3   7 185.644 6.63214   2
  -4   3   7 194.513 7.81396   1
   4   3  -7 178.272 7.19164   1
  -4   3   7 179.589 5.92426   3
   3  -3  -7 1.85220 2.15137   1
  -3  -3   7 -0.2924 1.89472   1
  -3   3   7 -0.0251 1.86176   1
   3   3  -7 0.07769 1.63418   1
  -3   3   7 0.13700 1.04463   3
   2  -3  -7 283.377 8.88898   1
  -2  -3   7 259.279 8.95815   1
  -2  -3   7 241.655 6.56849   3
  -2   3   7 273.808 8.65059   1
   2   3  -7 283.242 7.86911   1
  -2   3   7 264.988 6.94897   3
  -1  -3   7 912.263 18.2007   3
  -1  -3   7 971.397 21.2672   1
   1  -3  -7 938.433 18.1440   3
   1  -3  -7 973.379 20.7453   1
  -1   3   7 1016.42 20.8127   1
   1   3  -7 978.364 20.6522   2
   1   3  -7 993.601 19.3325   1
   0  -3  -7 -0.5492 1.65018   1
   0  -3  -7 0.09766 0.95030   3
   0  -3   7 0.02760 1.80479   1
   0   3  -7 0.73690 1.02743   3
   0   3  -7 -0.2386 1.42733   2
   0   3   7 2.21880 1.67042   1
   0   3  -7 -0.5272 1.20719   1
  -1  -3  -7 98.0324 5.36173   1
   1  -3   7 109.647 6.23509   1
  -1   3  -7 98.6038 4.56105   1
  -1   3  -7 102.840 5.18016   2
  -1   3  -7 100.142 4.19016   3
   1   3   7 102.553 5.62488   1
   2  -3   7 41.4226 5.22727   1
  -2  -3  -7 33.1517 4.04907   1
  -2   3  -7 28.4555 3.73389   2
   2   3   7 35.0710 4.46261   1
  -2   3  -7 39.0757 3.78669   1
  -2   3  -7 36.1373 3.06799   3
  -3  -3  -7 20.1923 3.54716   1
   3  -3   7 19.3254 4.22059   1
  -3   3  -7 19.7665 3.80419   2
  -3   3  -7 18.1039 2.94340   1
   3   3   7 20.8417 3.97991   1
  -3   3  -7 23.5281 3.02945   3
   4  -3   7 106.433 8.41790   1
  -4  -3  -7 105.352 6.80541   1
   4   3   7 103.473 7.56021   1
  -4   3  -7 105.605 7.16095   2
  -4   3  -7 110.066 5.92151   3
   5  -3   7 340.711 15.0842   1
  -5  -3  -7 331.281 12.8778   1
  -5   3  -7 336.746 11.5399   3
  -5   3  -7 339.911 13.2607   2
  -6  -3  -7 41.0031 5.90987   1
   6  -3   7 34.2547 7.02016   1
  -6   3  -7 31.0871 5.15041   3
  -6   3  -7 39.5732 6.65907   2
   8  -4  -7 8.04406 5.74740   1
  -8  -4   7 5.65000 4.92422   1
  -8   4   7 1.47398 3.02651   3
   7  -4  -7 114.019 9.39709   1
  -7  -4   7 99.8620 8.46342   1
  -7   4   7 99.0248 6.33229   3
   6  -4  -7 -2.1359 3.08550   1
  -6  -4   7 3.23859 3.19483   1
  -6   4   7 -2.1396 2.03174   3
  -6   4   7 -0.6075 2.77698   2
  -5  -4   7 997.450 23.9645   1
   5  -4  -7 1030.73 24.4698   1
  -5   4   7 1008.58 21.4198   3
  -5   4   7 1009.58 22.6429   2
   4  -4  -7 0.59347 2.38247   1
  -4  -4   7 1.15124 2.55692   1
  -4   4   7 5.17843 2.13820   2
  -4   4   7 1.64465 1.61815   3
   3  -4  -7 731.815 17.8441   1
  -3  -4   7 753.782 18.0998   1
  -3   4   7 717.659 16.5350   1
  -3   4   7 724.557 15.7460   3
  -2  -4   7 0.30353 1.89541   1
  -2  -4   7 0.72186 1.62397   1
   2  -4  -7 3.04145 1.90534   1
  -2   4   7 1.58347 1.74542   1
  -1  -4   7 1829.98 36.4189   1
   1  -4  -7 2012.06 37.4594   1
  -1  -4   7 1993.66 37.8362   1
  -1   4   7 2000.16 36.4118   1
   1   4  -7 1967.19 38.3440   2
   0  -4  -7 413.973 11.3579   1
   0  -4   7 358.214 10.2808   1
   0  -4   7 396.199 11.8354   1
   0   4   7 384.653 10.4120   1
   0   4  -7 388.105 11.6178   2
   0   4  -7 378.483 9.78317   3
  -1  -4  -7 6.94343 2.23987   1
   1  -4   7 3.97767 2.72439   1
   1   4   7 3.63921 1.87208   1
  -1   4  -7 6.36298 1.84995   3
  -1   4  -7 4.87646 2.31934   2
  -2  -4  -7 2.11333 2.13957   1
   2  -4   7 1.71587 2.68496   1
  -2   4  -7 -0.8400 1.91827   2
  -2   4  -7 4.54794 2.00073   3
   2   4   7 2.88213 2.95655   1
  -3  -4  -7 165.854 7.89411   1
   3  -4   7 164.602 9.23788   1
  -3   4  -7 176.353 8.34371   2
  -3   4  -7 167.382 7.03434   3
  -4  -4  -7 103.173 7.02034   1
   4  -4   7 98.0519 8.31506   1
  -4   4  -7 84.3298 6.78727   2
  -4   4  -7 91.5288 5.79461   3
   5  -4   7 2.26341 4.30636   1
  -5  -4  -7 2.49216 2.92355   1
  -5   4  -7 6.52125 3.16416   3
  -5   4  -7 0.86022 3.03503   2
   6  -4   7 19.3274 6.67892   1
  -6  -4  -7 26.9997 5.70901   1
  -6   4  -7 28.4044 6.26319   2
  -6   4  -7 32.1678 5.42950   3
   7  -5  -7 205.384 11.8782   1
  -7  -5   7 201.803 11.0039   1
  -7   5   7 184.532 10.2110   2
  -7   5   7 180.692 8.78475   3
   6  -5  -7 40.4932 6.12541   1
  -6  -5   7 50.6641 6.48927   1
  -6   5   7 46.2628 4.76286   3
  -6   5   7 35.1375 5.09898   2
   5  -5  -7 412.984 13.7981   1
  -5  -5   7 389.316 13.3565   1
  -5   5   7 364.722 11.2915   3
  -5   5   7 382.718 12.2510   2
  -4  -5   7 73.2583 6.17508   1
   4  -5  -7 72.1588 6.20584   1
  -4   5   7 73.9648 5.17561   2
  -4   5   7 87.3198 5.01333   3
  -3  -5   7 75.2913 5.76590   1
   3  -5  -7 79.0295 5.80095   1
  -3   5   7 83.9131 4.68321   3
  -3   5   7 77.5530 4.66083   2
  -2  -5   7 3.87924 2.27908   1
   2  -5  -7 1.96757 2.28994   1
   1  -5  -7 350.358 10.5967   1
  -1  -5   7 348.407 10.8645   1
   1   5  -7 342.322 11.8346   2
   0  -5   7 344.940 11.1055   1
   0  -5  -7 335.829 10.5492   1
   0   5  -7 352.798 11.7362   2
   0   5  -7 345.487 9.95603   3
   1  -5   7 320.109 11.2551   1
  -1  -5  -7 311.301 10.2507   1
  -1   5  -7 308.478 9.46857   3
  -1   5  -7 317.433 11.0407   2
  -2  -5  -7 5.17602 2.67931   1
   2  -5   7 -2.8966 2.80917   1
  -2   5  -7 11.0218 2.74514   3
  -2   5  -7 4.41771 2.76302   2
   3  -5   7 74.5847 7.62975   1
  -3  -5  -7 70.1242 5.84564   1
  -3   5  -7 87.5026 5.68102   3
  -3   5  -7 91.2709 6.61578   2
   4  -5   7 -0.6471 3.55560   1
  -4  -5  -7 1.48617 2.74184   1
  -4   5  -7 0.11621 2.62314   3
  -4   5  -7 1.47229 3.35425   2
  -5  -5  -7 122.983 8.56051   1
   5  -5   7 140.940 10.6237   1
  -5   5  -7 127.604 7.95622   3
  -5   5  -7 135.836 9.36786   2
   6  -6  -7 277.300 12.8554   1
  -6  -6   7 264.210 12.4696   1
  -6   6   7 256.667 11.5202   2
  -6   6   7 264.171 10.3258   3
  -5  -6   7 206.209 9.84681   1
   5  -6  -7 198.544 10.5529   1
  -5   6   7 204.183 8.55765   3
  -5   6   7 204.301 9.30124   2
  -4  -6   7 117.094 7.26101   1
   4  -6  -7 115.536 7.55641   1
  -4   6   7 119.112 6.85063   2
  -4   6   7 115.761 6.41341   3
  -3  -6   7 12.4534 3.18182   1
   3  -6  -7 8.84140 3.13884   1
  -3   6   7 14.0416 2.94708   3
  -3   6   7 14.0881 3.21675   2
  -2  -6   7 813.473 18.7723   1
   2  -6  -7 776.857 18.7427   1
  -2   6   7 758.713 18.3739   2
   1  -6  -7 434.174 12.6019   1
  -1  -6   7 447.292 12.8129   1
   1   6  -7 435.767 14.6858   2
   0  -6   7 121.947 7.15449   1
   0  -6  -7 135.657 6.88146   1
   0   6  -7 115.424 7.60936   2
   0   6  -7 130.085 6.41708   3
   1  -6   7 4.74530 2.77703   1
  -1  -6  -7 4.70924 2.29742   1
  -1   6  -7 3.59180 3.22929   2
  -1   6  -7 -0.1327 1.69464   3
   2  -6   7 162.446 9.10014   1
  -2  -6  -7 168.862 8.21544   1
  -2   6  -7 162.919 7.46887   3
  -2   6  -7 170.652 9.28454   2
  -3  -6  -7 91.8248 6.87803   1
   3  -6   7 70.8940 7.46247   1
  -3   6  -7 85.6308 6.15272   3
  -3   6  -7 94.7571 7.82924   2
  -4  -6  -7 19.1917 4.45261   1
   4  -6   7 13.8454 5.04797   1
  -4   6  -7 10.5351 4.24693   2
  -4   6  -7 11.8265 3.67386   3
   5  -6   7 6.78648 5.72119   1
  -5  -6  -7 14.1684 3.96517   1
  -5   6  -7 8.67751 3.45217   3
  -5   6  -7 6.99592 4.17979   2
   5  -7  -7 5.47653 4.55258   1
  -5  -7   7 -6.0536 3.28845   1
  -5   7   7 6.13674 3.57859   2
  -5   7   7 5.11873 3.19868   3
  -4  -7   7 373.333 12.8461   1
   4  -7  -7 380.868 13.5471   1
  -4   7   7 363.773 12.8257   2
  -4   7   7 363.657 12.3895   3
  -3  -7   7 79.8371 5.75445   1
   3  -7  -7 70.9118 6.33847   1
  -3   7   7 75.0719 6.19678   2
   2  -7  -7 5.41861 2.85145   1
  -2  -7   7 7.20027 2.32436   1
  -2   7   7 8.61768 3.11913   2
  -1  -7   7 44.4353 4.59857   1
   1  -7  -7 50.2013 5.09495   1
   0  -7   7 77.2690 5.51089   1
   0  -7  -7 76.2939 5.58268   1
   0   7  -7 71.0691 7.42656   2
   1  -7   7 59.7848 5.45879   1
  -1  -7  -7 69.8835 5.67520   1
  -1   7  -7 49.2046 6.92019   2
  -1   7  -7 55.6034 4.80161   3
   2  -7   7 2.91915 3.53114   1
  -2  -7  -7 4.90709 3.10187   1
  -2   7  -7 5.57720 3.67836   2
  -2   7  -7 6.18670 2.03289   3
   3  -7   7 -2.6569 3.99158   1
  -3  -7  -7 3.04751 3.42816   1
  -3   7  -7 10.3201 4.55404   2
  -3   7  -7 4.10454 2.01918   3
  -4  -7  -7 51.5368 6.48179   1
   4  -7   7 49.5571 7.69716   1
  -4   7  -7 60.1493 8.41367   2
  -4   7  -7 45.9696 5.23248   3
  -4  -8   7 25.1448 3.99783   1
   4  -8  -7 26.7086 5.72122   1
  -4   8   7 23.5941 4.89083   3
   3  -8  -7 306.345 11.8024   1
  -3  -8   7 321.099 11.1452   1
  -3   8   7 330.325 16.2560   2
   2  -8  -7 242.379 10.2137   1
   1  -8  -7 36.8790 5.19331   1
   0  -8  -7 25.6669 4.34688   1
   0   8  -7 21.1843 5.74476   2
  -1  -8  -7 343.097 12.1902   1
  -1   8  -7 376.706 15.6656   2
  -1   8  -7 336.387 12.6963   3
   2  -8   7 161.934 8.80027   1
  -2  -8  -7 163.956 8.62369   1
  -2   8  -7 169.632 8.57337   3
  -2   8  -7 150.060 11.1926   2
   8   0  -8 425.933 16.7646   1
  -8   0   8 415.069 16.0816   1
  -7   0   8 0.47019 3.31679   1
   7   0  -8 -4.3156 3.43483   1
   6   0  -8 4.73216 3.44854   1
  -6   0   8 -1.7013 2.90251   1
   5   0  -8 -2.8708 2.30664   1
  -5   0   8 -0.9679 2.51783   1
   4   0  -8 54.2616 5.00000   1
  -4   0   8 60.7255 5.30429   1
  -3   0   8 -2.3825 1.97163   1
   3   0  -8 -1.4641 1.87342   1
  -2   0   8 132.084 6.50635   1
   2   0  -8 130.535 6.06568   1
   1   0  -8 -2.0402 1.45611   1
  -1   0   8 -0.1893 1.68264   1
   0   0   8 445.358 13.1357   1
   0   0  -8 462.102 12.2015   1
   1   0   8 1.21880 2.16842   1
  -1   0  -8 0.28144 1.55026   1
  -2   0  -8 26.4631 3.70789   1
   2   0   8 30.3337 4.63168   1
   3   0   8 -0.8572 2.68657   1
  -3   0  -8 0.35703 1.87482   1
   4   0   8 188.064 10.8478   1
  -4   0  -8 210.010 9.22963   1
  -5   0  -8 -0.0139 2.33790   1
   5   0   8 -2.4120 3.27504   1
   6   0   8 228.990 13.8192   1
  -6   0  -8 210.506 10.5078   1
  -8  -1   8 318.552 14.3344   1
   8  -1  -8 311.299 14.6346   1
  -8   1   8 319.608 14.2426   1
   7  -1  -8 10.6975 4.68883   1
  -7  -1   8 10.5307 4.23905   1
   7   1  -8 10.8163 4.36952   1
  -7   1   8 19.5850 4.78384   1
  -6  -1   8 184.984 9.45542   1
   6  -1  -8 197.238 9.82539   1
  -6   1   8 173.411 9.42490   1
   6   1  -8 191.446 9.54837   1
   5  -1  -8 69.9481 6.14036   1
  -5  -1   8 74.4062 6.33403   1
   5   1  -8 78.7735 5.94415   1
  -5   1   8 72.6783 6.13664   1
  -4  -1   8 234.034 9.34489   1
   4  -1  -8 221.395 8.95641   1
   4   1  -8 229.443 8.82424   1
  -4   1   8 226.668 9.11413   1
   3  -1  -8 4.78738 2.42927   1
  -3  -1   8 2.96493 2.42642   1
  -3   1   8 6.32263 2.66441   1
   3   1  -8 4.17354 2.32689   1
   2  -1  -8 458.406 12.4385   1
  -2  -1   8 461.179 12.9399   1
   2   1  -8 462.062 12.2735   1
  -2   1   8 458.456 12.9275   1
   1  -1  -8 2.99940 1.93229   1
  -1  -1   8 3.21770 2.20803   1
  -1   1   8 5.67020 2.31552   1
   1   1  -8 2.76465 1.71454   1
   0  -1  -8 1582.12 31.3076   1
   0  -1   8 1571.14 32.7126   1
   0   1  -8 1603.64 30.9943   1
   0   1   8 1560.36 32.3893   1
   1  -1   8 362.427 12.0944   1
  -1  -1  -8 334.922 10.6187   1
   1   1   8 366.121 12.0429   1
  -1   1  -8 355.715 10.4906   1
   2  -1   8 28.3382 4.50668   1
  -2  -1  -8 28.6492 3.98215   1
   2   1   8 26.0001 4.40478   1
  -2   1  -8 32.0982 3.83305   1
  -2   1  -8 29.4304 3.13279   2
  -3  -1  -8 208.570 8.78784   1
   3  -1   8 207.805 10.4933   1
  -3   1  -8 206.872 8.43642   1
   3   1   8 202.045 10.1265   1
  -4  -1  -8 1009.65 24.2167   1
   4  -1   8 1004.83 27.0224   1
   4   1   8 998.664 26.3993   1
  -4   1  -8 997.885 23.7441   1
   5  -1   8 41.0383 7.08519   1
  -5  -1  -8 34.8674 5.16811   1
   5   1   8 34.7679 6.49857   1
  -5   1  -8 39.1543 5.47559   1
  -6  -1  -8 2.60831 3.37407   1
   6  -1   8 7.11000 4.93030   1
   6   1   8 2.02190 4.70821   1
  -8  -2   8 26.2191 6.01933   1
   8  -2  -8 29.5850 6.71609   1
  -8   2   8 27.3814 4.25750   3
  -7  -2   8 29.0348 5.48322   1
   7  -2  -8 18.6603 5.26969   1
  -7   2   8 25.7597 5.11577   1
  -7   2   8 27.0354 3.76386   3
   6  -2  -8 17.2856 4.56307   1
  -6  -2   8 10.4289 3.75973   1
  -6   2   8 6.52865 2.01077   3
  -6   2   8 12.9029 3.66120   1
   6   2  -8 2.81663 3.16808   1
   5  -2  -8 12.0784 3.66394   1
  -5  -2   8 15.4198 3.97774   1
   5   2  -8 13.3494 3.36566   1
  -5   2   8 5.59540 2.80868   1
  -5   2   8 11.0785 2.02161   3
   4  -2  -8 1.26605 2.40119   1
  -4  -2   8 0.74577 2.30255   1
  -4   2   8 7.15322 2.86461   1
   4   2  -8 3.50449 2.37655   1
  -3  -2   8 253.178 9.82106   1
   3  -2  -8 282.975 9.96222   1
   3   2  -8 274.428 9.14273   1
  -3   2   8 260.034 9.71964   1
  -2  -2   8 0.95747 2.04045   1
   2  -2  -8 0.11978 1.67311   1
   2   2  -8 -1.0137 1.57618   1
  -2   2   8 3.06096 2.06012   1
  -1  -2   8 43.8587 4.80778   1
   1   2  -8 51.4141 3.78028   1
   0  -2   8 125.780 6.95904   1
   0  -2  -8 131.251 6.28402   1
   0   2  -8 121.744 5.61149   1
   0   2   8 115.598 6.53270   1
   0   2  -8 124.788 4.95551   2
  -1  -2  -8 133.370 6.41124   1
   1  -2   8 133.841 7.39487   1
   1   2   8 125.949 7.00869   1
  -1   2  -8 130.168 5.26491   2
  -1   2  -8 125.170 5.77344   1
  -2  -2  -8 31.9828 4.02145   1
   2  -2   8 31.9987 4.93560   1
   2   2   8 32.3259 4.72237   1
  -2   2  -8 36.1189 2.67338   3
  -2   2  -8 33.7553 3.70983   2
  -2   2  -8 26.7037 3.51980   1
  -3  -2  -8 19.2098 3.65154   1
   3  -2   8 17.0283 4.47016   1
  -3   2  -8 16.4768 2.62874   3
  -3   2  -8 22.9646 3.37566   2
  -3   2  -8 17.7047 3.23760   1
   3   2   8 20.8256 4.28260   1
  -4  -2  -8 145.063 7.98126   1
   4  -2   8 129.425 9.31554   1
  -4   2  -8 134.897 7.15620   1
  -4   2  -8 131.675 7.13515   2
   4   2   8 111.127 8.53331   1
  -5  -2  -8 19.0247 4.24291   1
   5  -2   8 10.4152 4.97769   1
   5   2   8 19.0892 5.26428   1
  -6  -2  -8 155.403 9.73846   1
   6  -2   8 163.521 12.5175   1
  -8  -3   8 46.0176 7.02351   1
   8  -3  -8 57.1409 8.24997   1
  -8   3   8 48.4104 5.69646   3
   7  -3  -8 11.7514 5.10587   1
  -7  -3   8 11.5080 4.55139   1
  -7   3   8 15.5047 3.30736   3
   6  -3  -8 216.796 10.6466   1
  -6  -3   8 207.521 10.2721   1
  -6   3   8 205.949 7.49616   3
  -5  -3   8 4.00634 3.08667   1
   5  -3  -8 5.74452 3.39714   1
  -5   3   8 4.24812 2.81905   1
  -5   3   8 6.79590 2.00214   3
  -4  -3   8 137.054 7.49319   1
   4  -3  -8 149.956 7.68904   1
  -4   3   8 136.720 5.01981   3
  -4   3   8 145.680 7.01221   1
   4   3  -8 144.581 6.76192   1
   3  -3  -8 104.145 6.24105   1
  -3  -3   8 112.211 6.52883   1
  -3   3   8 99.2973 5.99461   1
   3   3  -8 94.4392 5.30701   1
   2  -3  -8 855.201 19.7199   1
  -2  -3   8 888.214 20.4550   1
   2   3  -8 835.842 18.3184   1
  -2   3   8 882.399 19.7489   1
   1  -3  -8 471.066 12.7149   1
  -1  -3   8 452.235 13.0878   1
   1   3  -8 459.267 12.0560   2
   1   3  -8 442.320 11.2691   1
  -1   3   8 459.172 12.6636   1
   0  -3  -8 453.186 12.6665   1
   0  -3   8 451.992 13.5605   1
   0   3  -8 457.701 10.2680   3
   0   3  -8 441.868 11.2529   1
   0   3   8 448.652 12.6812   1
   0   3  -8 461.566 12.0245   2
  -1  -3  -8 56.1812 4.71520   1
   1  -3   8 59.5678 5.98456   1
  -1   3  -8 54.5877 4.10547   2
  -1   3  -8 55.8891 3.98731   1
   1   3   8 56.7980 5.39213   1
  -1   3  -8 56.1145 3.11723   3
  -2  -3  -8 234.930 9.14610   1
   2  -3   8 235.413 10.5239   1
  -2   3  -8 224.990 7.13296   3
   2   3   8 218.181 9.36891   1
  -2   3  -8 226.849 7.93360   1
  -2   3  -8 222.789 8.48608   2
   3  -3   8 259.209 11.8045   1
  -3  -3  -8 245.469 9.97322   1
   3   3   8 239.879 10.7036   1
  -3   3  -8 252.641 9.59654   2
  -3   3  -8 244.730 8.18792   3
  -4  -3  -8 40.3602 5.01741   1
   4  -3   8 24.0443 5.14301   1
   5  -3   8 63.7065 8.57791   1
  -5  -3  -8 52.3436 6.56671   1
  -5   3  -8 61.8163 6.75650   2
  -5   3  -8 63.8061 5.21681   3
  -6  -3  -8 239.462 12.2239   1
   6  -3   8 248.839 14.9701   1
  -6   3  -8 241.930 10.5287   3
  -6   3  -8 238.856 11.6762   2
   8  -4  -8 -4.4531 4.59179   1
  -8  -4   8 6.40543 4.97274   1
  -7  -4   8 25.9767 5.58541   1
   7  -4  -8 28.3906 5.85046   1
  -7   4   8 15.7570 3.58686   3
  -7   4   8 22.2052 4.71358   2
   6  -4  -8 46.4947 6.47582   1
  -6  -4   8 39.3227 5.82227   1
  -6   4   8 32.4477 3.90045   3
  -6   4   8 41.4581 5.05475   2
   5  -4  -8 46.3320 6.03637   1
  -5  -4   8 47.3225 6.05723   1
  -5   4   8 47.4470 4.69997   2
  -5   4   8 45.4414 3.86734   3
   4  -4  -8 12.5365 3.47573   1
  -4  -4   8 11.7657 3.37373   1
  -4   4   8 11.5949 2.25737   3
   3  -4  -8 15.7973 3.50473   1
  -3  -4   8 14.1547 3.46962   1
  -3   4   8 17.6090 2.39258   3
  -3   4   8 25.0465 4.31035   1
  -2  -4   8 240.589 9.28705   1
   2  -4  -8 233.853 8.80654   1
  -2   4   8 222.980 8.01735   1
   1  -4  -8 42.6861 4.42289   1
  -1  -4   8 37.5511 4.65624   1
  -1   4   8 40.5983 4.07598   1
   1   4  -8 46.9698 4.73144   2
   0  -4   8 50.6669 5.63882   1
   0  -4  -8 49.0294 4.83322   1
   0   4  -8 58.7984 3.41970   3
   0   4  -8 49.3947 5.03132   2
   0   4   8 46.0125 4.38051   1
   1  -4   8 73.3348 6.00160   1
  -1  -4  -8 69.6323 5.21510   1
  -1   4  -8 73.6603 3.94154   3
  -1   4  -8 76.0364 5.11431   2
   1   4   8 76.4838 6.42835   1
  -2  -4  -8 61.5924 5.25205   1
   2  -4   8 52.9085 6.31752   1
  -2   4  -8 57.2608 4.97817   2
  -2   4  -8 54.9793 3.81699   3
  -3  -4  -8 17.7566 3.74648   1
   3  -4   8 17.3015 4.60074   1
  -3   4  -8 19.5606 3.77279   2
  -3   4  -8 11.0847 2.30628   3
   4  -4   8 363.327 15.2845   1
  -4  -4  -8 355.468 13.1268   1
  -4   4  -8 359.469 11.4336   3
  -4   4  -8 354.743 13.2497   2
   5  -4   8 57.5610 8.32799   1
  -5  -4  -8 59.3035 6.92040   1
  -5   4  -8 54.1392 5.70336   3
  -5   4  -8 60.1056 7.08886   2
  -6  -4  -8 0.10740 3.71879   1
   6  -4   8 -3.0916 4.98398   1
  -6   4  -8 1.24935 4.65118   2
  -6   4  -8 7.57416 3.20556   3
   7  -5  -8 3.79659 5.05220   1
  -7  -5   8 -7.7199 3.78523   1
  -7   5   8 -2.5075 3.59067   2
  -7   5   8 4.07569 2.70465   3
  -6  -5   8 132.166 8.91763   1
   6  -5  -8 162.395 10.0176   1
  -6   5   8 139.805 7.16990   3
  -6   5   8 149.159 8.19606   2
  -5  -5   8 3.74500 3.98795   1
   5  -5  -8 7.82152 3.73003   1
  -5   5   8 6.25025 2.91441   2
  -5   5   8 9.15211 2.45376   3
   4  -5  -8 41.1185 5.28750   1
  -4  -5   8 40.8571 5.30273   1
  -4   5   8 36.6506 3.90622   2
  -4   5   8 42.4939 4.14264   3
  -3  -5   8 6.44539 2.92445   1
   3  -5  -8 8.74203 3.03387   1
  -3   5   8 7.24390 2.01300   3
  -2  -5   8 424.047 13.0383   1
   2  -5  -8 428.101 12.7165   1
   1  -5  -8 8.51201 2.59900   1
  -1  -5   8 0.37999 2.77983   1
   1   5  -8 8.57236 2.97391   2
   0  -5  -8 5.78947 2.40324   1
   0  -5   8 -0.0417 2.73635   1
   0   5  -8 4.03169 2.79704   2
   0   5  -8 4.53558 1.77668   3
   1  -5   8 2.41544 2.94890   1
  -1  -5  -8 1.60177 2.47161   1
  -1   5  -8 1.15444 2.64001   2
  -1   5  -8 -1.4541 1.46860   3
   2  -5   8 685.482 19.9096   1
  -2  -5  -8 693.921 18.2858   1
  -2   5  -8 677.162 16.6090   3
  -2   5  -8 705.084 19.2229   2
  -3  -5  -8 1.51068 2.35193   1
   3  -5   8 -3.6783 3.58314   1
  -3   5  -8 -0.8077 2.93412   2
  -3   5  -8 2.10617 2.15317   3
   4  -5   8 1.89588 3.93557   1
  -4  -5  -8 4.53020 3.04176   1
  -4   5  -8 4.00063 2.63403   3
  -4   5  -8 6.46814 3.70147   2
  -5  -5  -8 200.374 10.7450   1
   5  -5   8 170.611 12.4041   1
  -5   5  -8 196.037 11.1757   2
  -5   5  -8 178.974 8.97805   3
   6  -6  -8 22.8023 5.52457   1
  -6  -6   8 25.9077 5.82696   1
  -6   6   8 26.7274 4.24538   3
   5  -6  -8 118.465 9.03792   1
  -5  -6   8 126.770 8.78144   1
  -5   6   8 125.397 6.90125   3
  -5   6   8 113.141 9.52742   2
   4  -6  -8 -0.7002 3.40344   1
  -4  -6   8 -2.2959 2.86034   1
  -4   6   8 2.01652 2.67685   2
  -4   6   8 2.37343 2.13900   3
   3  -6  -8 8.02502 3.05160   1
  -3  -6   8 4.23572 3.32934   1
   2  -6  -8 16.1079 3.59325   1
  -2  -6   8 20.4821 3.45571   1
   1  -6  -8 576.594 15.6695   1
  -1  -6   8 572.423 15.8497   1
   1   6  -8 560.835 17.3051   2
   0  -6   8 -2.0736 2.38277   1
   0  -6  -8 -1.1517 2.49994   1
   0   6  -8 -1.7454 2.47988   2
   0   6  -8 -3.7616 1.03167   3
  -1  -6  -8 -2.8384 2.99898   1
   1  -6   8 4.13176 3.41571   1
  -1   6  -8 7.42601 2.01835   3
  -1   6  -8 4.36624 3.33203   2
  -2  -6  -8 39.0125 5.11607   1
   2  -6   8 35.1299 5.82077   1
  -2   6  -8 31.1807 5.27036   2
  -2   6  -8 32.9920 4.19911   3
   3  -6   8 7.68617 4.85530   1
  -3  -6  -8 16.7691 4.21456   1
  -3   6  -8 12.5714 2.80990   3
  -3   6  -8 16.2753 4.87295   2
   4  -6   8 30.6552 6.49147   1
  -4  -6  -8 37.5549 5.62586   1
  -4   6  -8 39.8001 4.73066   3
  -4   6  -8 42.5200 6.94436   2
   5  -7  -8 3.48186 4.30634   1
  -5  -7   8 -1.0401 3.75881   1
  -5   7   8 0.54212 2.81019   3
  -4  -7   8 62.5199 6.40443   1
   4  -7  -8 60.4691 7.11161   1
  -4   7   8 60.1701 6.13955   3
  -3  -7   8 8.18070 3.70446   1
  -2  -7   8 319.905 11.3630   1
   2  -7  -8 342.659 11.8206   1
  -1  -7   8 3.43759 2.28685   1
   1  -7  -8 6.89266 3.20870   1
   0  -7   8 115.126 7.48651   1
   0  -7  -8 129.067 7.44164   1
   0   7  -8 113.387 8.70641   2
   1  -7   8 277.860 11.3723   1
  -1  -7  -8 250.971 10.5090   1
  -1   7  -8 245.252 9.88701   3
  -1   7  -8 273.835 12.4883   2
  -2  -7  -8 -0.6860 3.14695   1
   2  -7   8 1.59885 3.66026   1
  -2   7  -8 0.55346 3.74004   2
  -2   7  -8 -0.0152 2.17843   3
  -3  -7  -8 114.855 8.29938   1
   3  -7   8 114.248 9.60365   1
  -3   7  -8 113.185 7.14486   3
  -3   7  -8 132.216 9.81312   2
   3  -8  -8 26.1446 5.39015   1
  -3  -8   8 24.6722 4.69180   1
   2  -8  -8 24.6052 4.49648   1
  -2  -8   8 22.7584 4.38278   1
  -1  -8   8 275.137 10.4453   1
   1  -8  -8 267.713 10.8198   1
   0  -8  -8 6.67521 3.41556   1
   0  -8   8 11.7464 3.68318   1
   0   8  -8 6.95817 4.22878   2
  -1  -8  -8 3.46067 3.67849   1
   1  -8   8 8.34805 3.45180   1
  -1   8  -8 -5.0457 2.15203   3
  -1   8  -8 5.72612 4.57753   2
   8   0  -9 -1.5270 4.70344   1
  -8   0   9 -4.2136 4.42897   1
  -7   0   9 40.2911 6.41685   1
   7   0  -9 43.8097 6.39196   1
  -6   0   9 2.92550 3.18539   1
   6   0  -9 -0.3931 3.36331   1
  -5   0   9 386.642 13.4983   1
   5   0  -9 399.889 13.3618   1
   4   0  -9 -4.5274 2.24289   1
  -4   0   9 -5.0112 2.40929   1
   3   0  -9 532.564 14.5251   1
  -3   0   9 516.375 14.9794   1
  -2   0   9 0.22687 2.03897   1
   2   0  -9 -0.4457 1.73641   1
  -1   0   9 41.7913 4.78751   1
   1   0  -9 46.1512 4.53566   1
   0   0   9 -0.3498 1.99953   1
   0   0  -9 -0.5184 1.72967   1
  -1   0  -9 156.521 7.16270   1
   1   0   9 154.116 8.21500   1
  -2   0  -9 -0.9735 1.68089   1
   2   0   9 -0.9997 2.31023   1
  -3   0  -9 1792.34 37.2639   1
   3   0   9 1819.41 40.2307   1
   4   0   9 -3.4965 3.12531   1
  -4   0  -9 1.87154 2.40528   1
  -5   0  -9 3.30487 2.96026   1
   5   0   9 7.70176 4.71832   1
  -6   0  -9 -0.9807 3.20448   1
   6   0   9 -1.0399 4.98725   1
   8  -1  -9 4.92283 5.07618   1
  -8  -1   9 3.73975 4.93106   1
  -8   1   9 1.28515 4.38842   1
  -7  -1   9 94.2033 8.59647   1
   7  -1  -9 91.0449 9.07299   1
  -7   1   9 88.7742 8.51098   1
   7   1  -9 91.7673 8.19705   1
   6  -1  -9 45.9053 6.30032   1
  -6  -1   9 45.1043 6.07249   1
   6   1  -9 43.5158 5.92487   1
  -6   1   9 45.4328 6.13831   1
   5  -1  -9 100.928 7.16917   1
   5   1  -9 99.8184 6.81225   1
  -5   1   9 104.611 7.19129   1
   4  -1  -9 -1.9747 2.82152   1
  -4  -1   9 3.68506 3.11736   1
  -4   1   9 -0.9561 2.98151   1
   4   1  -9 4.19152 3.11897   1
   3  -1  -9 67.5540 5.31538   1
  -3  -1   9 75.5555 5.84868   1
   3   1  -9 64.5308 5.10130   1
  -3   1   9 59.7753 5.25572   1
   2  -1  -9 106.096 6.12554   1
  -2  -1   9 109.605 6.52019   1
  -2   1   9 114.799 6.65893   1
   2   1  -9 107.665 5.97904   1
  -1  -1   9 143.868 7.45528   1
   1  -1  -9 145.290 6.97428   1
  -1   1   9 136.099 7.27641   1
   1   1  -9 138.654 6.44396   1
   0  -1   9 25.0405 4.11126   1
   0  -1  -9 27.0053 3.95532   1
   0   1   9 26.7930 4.11302   1
   0   1  -9 26.5608 3.62421   1
   1  -1   9 13.9478 3.35182   1
   1   1   9 11.2796 3.12484   1
  -2  -1  -9 5.39839 2.60589   1
   2  -1   9 2.91680 3.23957   1
  -2   1  -9 3.74178 1.88030   2
  -2   1  -9 2.39968 2.13632   1
   2   1   9 2.10739 3.11949   1
   4  -1   9 17.3139 5.09713   1
  -4  -1  -9 18.3065 4.17821   1
  -4   1  -9 15.1246 3.51956   1
   4   1   9 16.0347 4.79157   1
   5  -1   9 5.94926 4.64415   1
  -5  -1  -9 2.41034 3.11579   1
  -5   1  -9 0.88750 2.84665   1
   5   1   9 -0.6779 3.59553   1
  -6  -1  -9 21.1944 4.92026   1
   6  -1   9 12.5742 6.23795   1
   6   1   9 7.83855 4.95448   1
  -8  -2   9 290.011 14.4435   1
   8  -2  -9 294.933 15.0426   1
  -7  -2   9 40.8125 6.52693   1
   7  -2  -9 34.4711 6.22236   1
  -7   2   9 42.0431 6.15651   1
  -6  -2   9 172.735 9.72435   1
   6  -2  -9 150.448 9.33170   1
   6   2  -9 153.325 10.8129   1
  -6   2   9 150.081 6.04003   3
  -6   2   9 161.908 8.99039   1
  -5  -2   9 114.542 7.50442   1
   5  -2  -9 107.333 7.50196   1
   5   2  -9 104.174 6.81894   1
  -5   2   9 112.888 7.22076   1
   3  -2  -9 635.259 16.8362   1
  -3  -2   9 663.433 17.4464   1
  -3   2   9 629.760 16.8575   1
   3   2  -9 625.729 15.9045   1
  -2  -2   9 84.6572 5.88650   1
   2  -2  -9 76.4922 5.40945   1
   2   2  -9 73.5187 4.94058   1
  -2   2   9 68.3886 5.34919   1
   1  -2  -9 765.271 18.1962   1
  -1  -2   9 732.919 18.7597   1
   1   2  -9 715.210 16.9941   1
  -1   2   9 718.076 18.2629   1
   0  -2  -9 -2.5953 1.78758   1
   0  -2   9 -2.7383 1.99340   1
   0   2   9 3.50566 2.40642   1
   0   2  -9 0.84334 1.68266   1
   1  -2   9 111.915 7.17895   1
  -1  -2  -9 107.873 6.25105   1
  -1   2  -9 106.681 5.65748   1
   1   2   9 105.729 6.80976   1
  -1   2  -9 106.407 4.97113   2
   2  -2   9 15.2094 4.06635   1
  -2  -2  -9 13.1615 3.11264   1
  -2   2  -9 10.4237 2.64449   1
   2   2   9 14.1853 3.84963   1
  -2   2  -9 15.7463 2.92228   2
  -2   2  -9 20.0210 2.56454   3
   3  -2   9 237.714 11.8153   1
  -3  -2  -9 238.741 10.1011   1
   3   2   9 228.519 11.0323   1
  -3   2  -9 238.047 8.83341   2
  -3   2  -9 230.581 7.95021   3
  -3   2  -9 239.411 9.41921   1
   4  -2   9 155.924 10.7359   1
  -4  -2  -9 146.579 8.66785   1
  -4   2  -9 164.298 8.13740   2
   4   2   9 148.741 9.83195   1
  -4   2  -9 152.749 7.00202   3
  -5  -2  -9 163.883 9.59045   1
   5  -2   9 184.024 12.3618   1
  -5   2  -9 180.627 9.75358   2
  -6  -2  -9 234.131 12.1624   1
   6  -2   9 249.534 15.4103   1
  -6   2  -9 250.505 12.3796   2
   8  -3  -9 12.9167 5.98804   1
  -8  -3   9 8.28139 5.17880   1
  -7  -3   9 83.2035 8.58605   1
   7  -3  -9 95.6478 9.38081   1
   6  -3  -9 40.1108 6.19617   1
  -6  -3   9 32.4424 5.65413   1
  -6   3   9 37.6758 3.83454   3
  -5  -3   9 1.44248 3.16434   1
   5  -3  -9 4.57871 3.54415   1
  -5   3   9 5.47243 1.71531   3
  -5   3   9 0.24148 2.98166   1
  -4  -3   9 81.8969 6.37886   1
   4  -3  -9 75.2174 6.45895   1
  -4   3   9 75.2039 5.96185   1
  -3  -3   9 378.133 12.6822   1
   3  -3  -9 393.037 12.5123   1
  -3   3   9 390.964 12.0984   1
   3   3  -9 379.021 11.1186   1
   2  -3  -9 253.702 9.50868   1
  -2  -3   9 235.833 9.74352   1
   2   3  -9 238.110 8.34943   1
  -2   3   9 250.822 9.35124   1
  -1  -3   9 3.67185 2.96403   1
   1  -3  -9 17.8075 3.56018   1
   1   3  -9 10.5304 2.64088   1
  -1   3   9 10.0092 3.23520   1
   0  -3  -9 18.7213 3.54706   1
   0  -3   9 13.0688 3.53645   1
   0   3   9 12.5080 3.00919   1
   0   3  -9 19.5773 3.03709   2
   0   3  -9 12.1161 2.47167   1
  -1  -3  -9 31.9281 4.28787   1
   1  -3   9 41.0149 5.48521   1
  -1   3  -9 32.4812 3.64525   1
  -1   3  -9 37.9220 2.76501   3
  -1   3  -9 35.0341 3.86529   2
   1   3   9 37.7606 4.77360   1
   2  -3   9 5.04790 3.25704   1
  -2  -3  -9 -0.0939 2.45370   1
   2   3   9 0.13392 2.69221   1
  -2   3  -9 8.14142 2.34505   2
  -2   3  -9 7.82412 1.87019   3
  -3  -3  -9 13.9076 3.41352   1
   3  -3   9 8.92997 4.05953   1
  -3   3  -9 7.78884 3.10805   2
   3   3   9 14.6841 3.91613   1
  -3   3  -9 14.0369 2.56841   3
  -4  -3  -9 103.521 7.60664   1
   4  -3   9 93.9916 9.58668   1
  -4   3  -9 121.740 7.26741   2
  -4   3  -9 103.545 6.05293   3
  -5  -3  -9 55.0295 6.91779   1
   5  -3   9 39.3760 7.45059   1
  -5   3  -9 43.6107 5.56704   2
  -5   3  -9 50.7678 5.40849   3
  -7  -4   9 383.270 15.5969   1
   7  -4  -9 356.452 15.3379   1
  -6  -4   9 2.10532 3.76198   1
   6  -4  -9 -1.1475 3.51222   1
   5  -4  -9 -0.0390 3.23081   1
  -5  -4   9 -0.3586 2.84759   1
  -5   4   9 1.72841 1.89961   3
  -4  -4   9 66.5958 6.65714   1
   4  -4  -9 68.6872 6.84327   1
  -4   4   9 70.2633 4.09724   3
   3  -4  -9 250.752 9.89972   1
  -3  -4   9 236.864 10.1013   1
  -2  -4   9 25.0511 4.12236   1
   2  -4  -9 22.4282 3.95613   1
  -1  -4   9 197.192 8.80627   1
   1  -4  -9 194.965 8.43508   1
   1   4  -9 197.399 7.98050   2
   0  -4   9 47.9506 5.65705   1
   0  -4  -9 43.3680 5.02504   1
   0   4  -9 42.5222 3.12062   3
   0   4  -9 47.5657 4.09401   2
  -1  -4  -9 195.123 8.56131   1
   1  -4   9 176.077 9.24866   1
  -1   4  -9 193.098 7.89166   2
  -1   4  -9 184.078 6.38961   3
   2  -4   9 4.05763 3.04993   1
  -2  -4  -9 -0.8931 2.25310   1
  -2   4  -9 -0.1169 1.30435   3
  -2   4  -9 -3.3837 2.06931   2
   3  -4   9 128.133 9.43317   1
  -3  -4  -9 127.892 7.95187   1
  -3   4  -9 132.238 6.23369   3
  -3   4  -9 120.001 7.06801   2
   4  -4   9 8.67896 4.42160   1
  -4  -4  -9 3.03827 3.16541   1
  -4   4  -9 4.50629 2.36829   3
  -4   4  -9 0.01022 2.64543   2
  -5  -4  -9 710.343 21.3832   1
   5  -4   9 710.143 24.3912   1
  -5   4  -9 692.794 21.0016   2
  -5   4  -9 670.285 18.6677   3
   7  -5  -9 195.913 12.1609   1
  -7  -5   9 179.727 11.6464   1
   6  -5  -9 13.0174 5.16977   1
  -6  -5   9 23.8497 4.89261   1
   5  -5  -9 4.02988 3.81671   1
  -5  -5   9 5.03796 3.44376   1
  -5   5   9 4.23014 2.14702   3
  -4  -5   9 151.690 8.77378   1
   4  -5  -9 154.439 8.79683   1
  -4   5   9 150.016 6.44038   3
  -3  -5   9 281.025 11.1192   1
   3  -5  -9 273.913 10.7431   1
   2  -5  -9 20.5774 4.18362   1
  -2  -5   9 15.6144 4.41802   1
   1  -5  -9 -1.2128 2.52284   1
  -1  -5   9 -3.3485 2.79206   1
   1   5  -9 3.08984 2.56508   2
   0  -5   9 65.8737 6.52691   1
   0  -5  -9 65.1697 5.50993   1
   0   5  -9 67.0590 4.40750   3
   0   5  -9 60.4024 5.96102   2
   1  -5   9 1.24580 2.61950   1
  -1  -5  -9 15.4053 3.23388   1
  -1   5  -9 9.80601 2.16718   3
  -1   5  -9 7.87049 3.02234   2
  -2  -5  -9 77.2987 6.22378   1
   2  -5   9 79.9079 8.20612   1
  -2   5  -9 78.9163 6.20229   2
  -2   5  -9 78.7570 4.82583   3
   3  -5   9 5.76045 4.43258   1
  -3  -5  -9 16.6473 3.99364   1
  -3   5  -9 14.0618 2.75776   3
  -3   5  -9 -3.0600 2.26279   2
   4  -5   9 30.8844 6.32313   1
  -4  -5  -9 44.0178 6.21392   1
  -4   5  -9 44.5323 5.35867   3
  -4   5  -9 52.1867 6.46956   2
  -6  -6   9 86.1119 8.52398   1
   6  -6  -9 91.2717 9.22589   1
  -5  -6   9 -0.7824 3.83238   1
   5  -6  -9 -3.1298 3.70781   1
   4  -6  -9 -4.4490 2.93685   1
  -4  -6   9 3.11322 3.62856   1
  -4   6   9 4.47649 2.67073   3
   3  -6  -9 266.451 11.1973   1
  -3  -6   9 259.899 11.0218   1
   2  -6  -9 34.5214 4.98845   1
  -2  -6   9 38.7581 5.08590   1
   1  -6  -9 201.375 9.30772   1
  -1  -6   9 209.096 9.44992   1
   0  -6  -9 6.17546 3.30559   1
   0  -6   9 7.48615 3.26062   1
   0   6  -9 3.26261 3.47313   2
  -1  -6  -9 36.7528 5.22297   1
   1  -6   9 32.4622 5.29349   1
  -1   6  -9 42.2541 4.41335   3
  -1   6  -9 44.9281 6.17567   2
  -2  -6  -9 117.322 7.73610   1
   2  -6   9 102.945 8.43595   1
  -2   6  -9 106.080 6.16185   3
  -2   6  -9 109.662 8.18814   2
  -3  -6  -9 58.4865 6.73665   1
   3  -6   9 53.6504 7.78283   1
  -3   6  -9 53.5198 5.56323   3
  -3   6  -9 54.0527 7.14937   2
   4  -6   9 152.555 12.1529   1
  -4  -6  -9 154.173 9.76534   1
  -4   6  -9 147.725 8.13671   3
  -4   6  -9 124.651 9.55919   2
   5  -7  -9 8.10351 4.63267   1
  -5  -7   9 6.89387 3.91054   1
   4  -7  -9 201.176 11.0221   1
  -4  -7   9 214.995 10.9702   1
  -3  -7   9 31.5111 5.20240   1
   3  -7  -9 23.5037 5.23195   1
   2  -7  -9 57.5001 6.16878   1
  -2  -7   9 37.9469 6.06979   1
   1  -7  -9 94.3241 7.50811   1
  -1  -7   9 99.9734 7.89603   1
   0  -7   9 98.0427 7.85091   1
   0  -7  -9 103.286 7.52040   1
   0   7  -9 96.6321 8.23056   2
  -1  -7  -9 -2.3431 3.23294   1
   1  -7   9 1.14339 3.54817   1
  -1   7  -9 5.45056 2.35379   3
  -1   7  -9 -1.0707 2.97086   2
   2  -7   9 70.3845 7.94922   1
  -2   7  -9 61.1590 6.01540   3
  -2   7  -9 73.8990 8.38281   2
  -2  -8   9 62.3417 6.28620   1
   2  -8  -9 53.1531 6.47801   1
   1  -8  -9 54.3412 6.69926   1
  -1  -8   9 51.9811 6.14403   1
   0  -8   9 12.0381 3.21055   1
   0  -8  -9 1.78622 3.71376   1
   0   8  -9 15.5752 5.33386   2
  -8   0  10 256.810 13.6795   1
   8   0 -10 261.710 13.9798   1
  -7   0  10 -5.7795 3.85762   1
   7   0 -10 -5.7561 3.54176   1
  -6   0  10 253.954 12.0019   1
   6   0 -10 268.562 11.8762   1
   5   0 -10 -6.1024 2.82020   1
  -5   0  10 0.97170 3.20679   1
   4   0 -10 15.1646 3.68796   1
  -4   0  10 12.7751 3.91450   1
  -3   0  10 -3.0741 2.40352   1
   3   0 -10 -2.6406 2.34141   1
  -2   0  10 1834.74 37.9815   1
   2   0 -10 1830.25 36.7852   1
   1   0 -10 2.77468 2.52857   1
  -1   0  10 7.69062 3.32610   1
   0   0  10 764.026 20.2897   1
   0   0 -10 757.876 18.8215   1
  -1   0 -10 -0.9998 1.90881   1
   1   0  10 -0.3802 2.62721   1
  -2   0 -10 1503.48 32.6421   1
   2   0  10 1547.28 35.1786   1
  -3   0 -10 0.45101 2.15319   1
   3   0  10 -0.7295 2.89575   1
  -4   0 -10 2.68932 2.82315   1
   4   0  10 5.20384 4.35619   1
  -5   0 -10 0.98579 2.78725   1
   5   0  10 -1.9954 3.98070   1
   8  -1 -10 -0.6819 4.89110   1
  -8  -1  10 0.04252 4.69225   1
  -8   1  10 -2.1502 4.40909   1
  -7  -1  10 7.76687 4.91712   1
   7  -1 -10 12.4729 4.93809   1
   7   1 -10 17.3372 5.62410   1
  -7   1  10 12.9151 4.87038   1
  -6  -1  10 127.277 8.86281   1
   6  -1 -10 114.428 8.61290   1
   6   1 -10 114.401 8.17059   1
  -6   1  10 125.742 8.56570   1
   5  -1 -10 121.124 8.25916   1
  -5  -1  10 126.343 8.38846   1
  -5   1  10 130.014 8.43140   1
   5   1 -10 129.321 8.00513   1
  -4  -1  10 58.3039 6.07889   1
   4  -1 -10 56.5221 6.07897   1
   4   1 -10 52.6151 5.59288   1
  -4   1  10 60.2257 6.30672   1
  -3  -1  10 181.155 9.04298   1
   3  -1 -10 175.106 8.53263   1
  -3   1  10 171.547 8.69529   1
   3   1 -10 174.872 8.18241   1
   2  -1 -10 952.070 22.4208   1
  -2  -1  10 976.798 23.3867   1
  -2   1  10 979.564 23.3449   1
   2   1 -10 961.651 22.2018   1
   1  -1 -10 312.783 10.9165   1
  -1  -1  10 325.053 11.7553   1
   1   1 -10 306.098 10.2408   1
  -1   1  10 295.152 11.3059   1
   0  -1  10 104.117 7.04754   1
   0  -1 -10 90.6633 6.05656   1
   0   1  10 107.618 6.97906   1
   0   1 -10 97.5173 6.05378   1
   1  -1  10 6.74776 3.20117   1
  -1  -1 -10 2.85757 2.43428   1
  -1   1 -10 3.31444 2.20354   1
   1   1  10 0.45234 2.52222   1
   2  -1  10 712.626 20.8323   1
  -2  -1 -10 692.570 18.7049   1
   2   1  10 685.726 20.3260   1
  -2   1 -10 702.539 18.3015   1
   3  -1  10 13.8404 5.04321   1
  -3  -1 -10 19.3833 4.25924   1
  -3   1 -10 26.7899 3.55535   2
  -3   1 -10 18.9806 4.00437   1
   3   1  10 16.8816 4.99306   1
  -4  -1 -10 273.015 11.6545   1
   4  -1  10 269.578 13.7286   1
  -4   1 -10 276.251 10.1768   2
  -4   1 -10 259.951 10.9747   1
   4   1  10 250.907 13.0574   1
  -5  -1 -10 3.35105 3.30905   1
   5  -1  10 0.63515 4.53247   1
   5   1  10 -2.8502 4.22593   1
   8  -2 -10 85.8797 9.91530   1
  -8  -2  10 82.1300 9.49538   1
  -7  -2  10 0.29164 3.88977   1
   7  -2 -10 -3.8956 3.54537   1
   6  -2 -10 38.8643 6.08826   1
  -6  -2  10 34.8865 5.98897   1
  -6   2  10 28.7732 5.41705   1
  -5  -2  10 44.5120 6.20148   1
   5  -2 -10 45.2761 6.19244   1
  -5   2  10 37.1732 5.54345   1
   5   2 -10 34.4368 5.00138   1
   4  -2 -10 245.700 10.4802   1
  -4  -2  10 254.440 10.6741   1
   4   2 -10 229.338 9.52285   1
  -4   2  10 260.257 10.5243   1
   3  -2 -10 746.440 19.3337   1
  -3  -2  10 741.723 19.9267   1
  -3   2  10 735.156 19.4737   1
   3   2 -10 731.366 18.3440   1
  -2  -2  10 969.897 23.6222   1
   2  -2 -10 964.575 22.6540   1
  -2   2  10 975.952 23.2738   1
   2   2 -10 950.922 21.7752   1
   1  -2 -10 674.991 17.8792   1
  -1  -2  10 691.294 18.8180   1
   1   2 -10 675.823 16.8262   1
  -1   2  10 689.458 18.3668   1
   0  -2  10 25.5299 4.72140   1
   0  -2 -10 25.2235 4.10618   1
   0   2 -10 23.3802 3.54688   1
   0   2  10 19.9808 4.08377   1
  -1  -2 -10 640.898 17.3581   1
   1  -2  10 624.279 18.7403   1
  -1   2 -10 638.704 16.4618   1
   1   2  10 642.461 18.3773   1
  -2  -2 -10 206.118 9.31810   1
   2  -2  10 204.699 10.7197   1
  -2   2 -10 205.435 8.72553   1
   2   2  10 209.203 10.3659   1
  -2   2 -10 204.221 6.57128   3
  -2   2 -10 213.386 7.75528   2
   3  -2  10 112.755 9.13744   1
  -3  -2 -10 121.352 7.81841   1
  -3   2 -10 123.584 6.30943   2
   3   2  10 102.523 8.56358   1
  -3   2 -10 114.490 5.40290   3
   4  -2  10 27.1378 6.18379   1
  -4  -2 -10 33.6323 5.28475   1
  -4   2 -10 28.5285 4.08300   3
   4   2  10 27.3427 5.71474   1
  -4   2 -10 35.6134 4.53839   2
  -5  -2 -10 58.9882 7.23878   1
   5  -2  10 56.6656 8.77730   1
  -5   2 -10 57.2445 5.66620   3
  -5   2 -10 55.8154 6.49642   2
   7  -3 -10 0.21418 4.36056   1
  -7  -3  10 3.70894 4.15984   1
   6  -3 -10 -1.6803 3.80135   1
  -6  -3  10 1.73607 3.46587   1
  -5  -3  10 225.183 10.9927   1
   5  -3 -10 220.104 10.8279   1
  -4  -3  10 303.866 11.9080   1
   4  -3 -10 278.857 11.4292   1
  -4   3  10 282.544 10.9190   1
   3  -3 -10 86.0913 6.64377   1
  -3  -3  10 92.0134 6.83466   1
  -3   3  10 88.4789 6.45740   1
   2  -3 -10 1.04104 2.35201   1
  -2  -3  10 1.68072 2.65945   1
  -2   3  10 3.44554 2.30168   1
   1  -3 -10 383.754 12.6048   1
  -1  -3  10 396.687 13.4088   1
  -1   3  10 398.761 12.8135   1
   1   3 -10 405.273 15.7792   1
   0  -3  10 236.566 10.5226   1
   0  -3 -10 243.940 9.79790   1
   0   3  10 215.898 9.35317   1
   0   3 -10 226.028 8.05094   2
   1  -3  10 119.368 7.93105   1
  -1  -3 -10 112.960 7.10704   1
  -1   3 -10 120.575 5.84560   2
   1   3  10 116.345 7.42616   1
  -2  -3 -10 125.445 7.48708   1
   2  -3  10 124.696 8.90026   1
  -2   3 -10 133.197 5.43836   3
   2   3  10 125.878 8.07393   1
  -2   3 -10 123.932 6.37484   2
  -3  -3 -10 12.7890 3.83020   1
   3  -3  10 16.6406 4.86346   1
  -3   3 -10 22.0747 3.83588   2
  -3   3 -10 16.8807 2.87847   3
  -4  -3 -10 112.042 8.35308   1
   4  -3  10 122.236 10.5985   1
  -4   3 -10 128.938 6.52826   3
  -4   3 -10 124.013 7.79442   2
   5  -3  10 9.17862 5.80877   1
  -5  -3 -10 30.7944 5.71652   1
  -5   3 -10 32.8503 4.37040   3
  -5   3 -10 15.7719 4.12546   2
   7  -4 -10 23.9137 6.02413   1
  -7  -4  10 8.96696 5.17063   1
  -6  -4  10 92.8081 8.39153   1
   6  -4 -10 94.3553 9.00826   1
  -5  -4  10 10.0599 4.20263   1
   5  -4 -10 6.82115 4.11633   1
  -4  -4  10 684.087 19.3762   1
   4  -4 -10 663.004 19.1167   1
   3  -4 -10 52.2071 6.04820   1
  -3  -4  10 49.4831 6.12782   1
   2  -4 -10 104.705 6.95674   1
  -2  -4  10 107.715 7.16542   1
   1  -4 -10 15.2801 3.52711   1
  -1  -4  10 16.5833 3.85223   1
   0  -4  10 823.506 22.3010   1
   0  -4 -10 867.682 21.4813   1
   0   4 -10 863.013 17.9572   3
   0   4 -10 845.342 20.3529   2
   1  -4  10 157.969 9.01979   1
  -1  -4 -10 137.511 7.96145   1
  -1   4 -10 149.844 7.44519   2
  -1   4 -10 147.058 5.66893   3
   2  -4  10 33.5235 5.68755   1
  -2  -4 -10 39.5611 5.10155   1
  -2   4 -10 45.7184 3.66234   3
   3  -4  10 21.2392 5.69628   1
  -3  -4 -10 20.3054 4.70207   1
  -3   4 -10 26.7337 3.67765   3
  -3   4 -10 21.6784 4.41438   2
  -4  -4 -10 259.973 12.3186   1
   4  -4  10 254.959 14.5653   1
  -4   4 -10 257.048 11.5204   2
  -4   4 -10 244.563 9.54180   3
  -6  -5  10 47.0630 6.54927   1
   6  -5 -10 58.6081 7.79953   1
  -5  -5  10 9.59840 4.54257   1
   5  -5 -10 1.94441 3.89224   1
   4  -5 -10 370.375 13.9016   1
  -4  -5  10 375.428 13.9762   1
  -3  -5  10 202.155 10.1985   1
   3  -5 -10 203.407 9.78470   1
  -2  -5  10 95.4246 7.33854   1
   2  -5 -10 104.460 7.12465   1
   1  -5 -10 5.90134 3.22296   1
  -1  -5  10 10.6914 3.51257   1
   0  -5 -10 218.560 9.88922   1
   0  -5  10 230.186 10.6896   1
   0   5 -10 214.137 9.40705   2
  -1  -5 -10 123.683 7.76902   1
   1  -5  10 127.754 9.00796   1
  -1   5 -10 108.391 5.49168   3
  -1   5 -10 128.381 7.29296   2
   2  -5  10 130.746 9.40144   1
  -2  -5 -10 127.653 8.00926   1
  -2   5 -10 120.229 5.90527   3
  -2   5 -10 134.724 7.57634   2
  -3  -5 -10 35.3855 5.58007   1
   3  -5  10 38.8749 6.88431   1
  -3   5 -10 40.1221 4.57402   3
   4  -5  10 177.140 12.7926   1
  -4  -5 -10 166.013 10.4120   1
  -4   5 -10 164.797 8.25039   3
  -4   5 -10 182.126 10.5564   2
   5  -6 -10 66.7206 7.50807   1
  -5  -6  10 51.6312 6.95048   1
   4  -6 -10 228.741 11.2746   1
  -4  -6  10 232.113 11.4370   1
  -3  -6  10 -0.6316 3.77273   1
   3  -6 -10 -1.5083 3.73579   1
   2  -6 -10 74.6682 6.98720   1
  -2  -6  10 72.8520 7.46206   1
   1  -6 -10 484.495 15.3775   1
  -1  -6  10 441.742 15.3625   1
   0  -6 -10 162.331 9.12525   1
   0  -6  10 177.952 10.0104   1
   0   6 -10 192.695 9.72681   2
   1  -6  10 187.288 10.5305   1
  -1  -6 -10 188.201 9.63783   1
  -1   6 -10 186.649 7.77947   3
  -1   6 -10 170.729 9.67719   2
   2  -6  10 -2.9936 3.64060   1
  -2  -6 -10 3.77514 3.71020   1
  -2   6 -10 5.71615 4.11014   2
  -2   6 -10 6.13250 2.34465   3
  -3  -6 -10 377.719 14.5980   1
   3  -6  10 362.666 16.0812   1
  -3   6 -10 359.080 12.3245   3
  -3   6 -10 376.397 14.6787   2
  -4  -7  10 6.21776 4.61883   1
   4  -7 -10 4.13733 4.08071   1
   3  -7 -10 616.506 19.2140   1
  -3  -7  10 641.883 19.4433   1
   2  -7 -10 86.8349 7.91180   1
  -2  -7  10 72.1259 7.28400   1
   1  -7 -10 16.9356 4.89402   1
  -1  -7  10 9.28165 4.31961   1
   0  -7 -10 5.79499 3.88383   1
   0  -7  10 0.99598 3.56440   1
   0   7 -10 7.28369 3.50749   2
   1  -7  10 88.4638 8.59648   1
  -1  -7 -10 71.7795 7.33208   1
  -1   7 -10 86.3325 7.45112   2
  -1   7 -10 62.9516 9.71682   3
  -8   0  11 4.44561 5.36467   1
   7   0 -11 193.172 11.6670   1
  -7   0  11 201.531 11.9370   1
  -6   0  11 -1.2900 4.17748   1
   6   0 -11 -3.8573 3.67987   1
   5   0 -11 -1.8216 2.90861   1
  -5   0  11 -1.0371 3.24000   1
   4   0 -11 2.21860 2.86711   1
  -4   0  11 -2.9932 2.69007   1
  -3   0  11 0.78529 2.69461   1
   3   0 -11 2.55428 2.58227   1
  -2   0  11 -2.4554 2.42083   1
   2   0 -11 0.35434 2.42057   1
   1   0 -11 8.89991 2.94726   1
  -1   0  11 11.2826 3.70253   1
   0   0  11 3.22309 2.80933   1
   0   0 -11 -0.6159 2.05354   1
   1   0  11 118.421 8.39182   1
  -1   0 -11 138.186 7.60098   1
  -2   0 -11 2.08715 2.50887   1
   2   0  11 1.52212 2.95321   1
  -3   0 -11 136.275 8.33786   1
   3   0  11 130.193 9.65871   1
   4   0  11 -3.7060 3.48261   1
  -4   0 -11 2.78144 2.75948   1
  -5   0 -11 8.83157 3.82199   1
   5   0  11 -2.0919 4.64240   1
  -8  -1  11 57.7961 8.25083   1
   8  -1 -11 58.7172 8.85195   1
  -8   1  11 53.7818 9.41868   1
  -7  -1  11 353.892 14.9462   1
   7  -1 -11 330.719 14.8494   1
  -7   1  11 332.633 14.7219   1
  -6  -1  11 76.9808 8.23367   1
   6  -1 -11 62.9780 7.56890   1
  -6   1  11 61.8046 7.24352   1
   6   1 -11 56.9031 6.96296   1
   5  -1 -11 184.554 9.88877   1
  -5  -1  11 164.674 9.79387   1
  -5   1  11 166.614 9.69526   1
   5   1 -11 149.631 8.98894   1
   4  -1 -11 76.0858 6.81303   1
  -4  -1  11 80.4662 6.91084   1
  -4   1  11 76.1694 6.89686   1
   4   1 -11 72.7279 6.37100   1
  -3  -1  11 379.991 13.5188   1
   3  -1 -11 355.571 12.7334   1
  -3   1  11 379.109 13.4350   1
   3   1 -11 367.418 12.4306   1
   2  -1 -11 31.9020 4.71770   1
  -2  -1  11 35.7853 5.16247   1
  -2   1  11 31.5780 4.85755   1
   2   1 -11 27.0475 4.14032   1
  -1  -1  11 118.230 7.73359   1
   1  -1 -11 127.522 7.31372   1
   1   1 -11 114.741 6.59391   1
  -1   1  11 114.298 7.55435   1
   0  -1 -11 22.0808 4.00475   1
   0  -1  11 27.9615 5.04103   1
   0   1  11 23.6317 4.51922   1
   0   1 -11 27.7789 4.34024   1
   1  -1  11 608.940 19.2206   1
  -1  -1 -11 651.287 17.8067   1
   1   1  11 596.346 18.6746   1
  -1   1 -11 634.328 17.0569   1
  -2  -1 -11 74.4161 6.43956   1
   2  -1  11 76.1968 8.15552   1
   2   1  11 73.0485 7.93696   1
  -2   1 -11 79.1594 6.24133   1
   3  -1  11 72.1025 8.37882   1
  -3  -1 -11 72.1871 6.43465   1
   3   1  11 67.7001 7.72611   1
  -3   1 -11 64.9342 6.70017   1
   4  -1  11 93.0997 10.2716   1
  -4  -1 -11 102.143 7.70547   1
   4   1  11 91.3167 9.39584   1
   5  -1  11 324.806 16.6177   1
  -5  -1 -11 278.051 13.0490   1
   5   1  11 268.390 14.9706   1
   7  -2 -11 4.10184 4.81311   1
  -7  -2  11 14.0514 4.99566   1
   6  -2 -11 79.5441 8.58751   1
  -6  -2  11 75.8046 8.26789   1
  -6   2  11 76.0162 7.81482   1
   5  -2 -11 3.35822 3.70055   1
  -5  -2  11 1.78410 3.55361   1
  -5   2  11 4.90408 3.47230   1
  -4  -2  11 106.406 8.01052   1
   4  -2 -11 100.790 7.77905   1
  -4   2  11 117.239 8.06029   1
   4   2 -11 105.358 7.19669   1
   3  -2 -11 7.80105 3.44573   1
  -3  -2  11 5.90485 3.35247   1
  -3   2  11 4.45289 3.09424   1
   3   2 -11 4.74811 2.69985   1
   2  -2 -11 37.6717 5.00478   1
  -2  -2  11 38.6962 5.61955   1
  -2   2  11 44.3669 5.69451   1
   2   2 -11 44.1781 5.00040   1
   1  -2 -11 9.86672 3.28490   1
  -1  -2  11 6.02340 3.40854   1
  -1   2  11 6.51120 3.12818   1
   1   2 -11 10.9502 3.06959   1
   0  -2 -11 3.24034 2.57220   1
   0  -2  11 1.72834 2.83393   1
   0   2 -11 2.02654 2.06907   1
   0   2  11 2.47883 2.86439   1
  -1  -2 -11 55.8517 6.39847   1
   1  -2  11 52.5012 7.15117   1
   1   2  11 42.9538 5.82499   1
  -1   2 -11 45.4353 5.20897   1
   2  -2  11 74.1597 8.44304   1
  -2  -2 -11 68.5191 6.82595   1
   2   2  11 66.1758 7.37288   1
   3  -2  11 34.6324 6.71465   1
  -3  -2 -11 33.1033 5.30424   1
   3   2  11 28.3263 5.84563   1
  -3   2 -11 43.7824 4.83371   2
   4  -2  11 26.3424 5.93856   1
   5  -2  11 -5.7508 4.03664   1
  -5  -2 -11 3.95783 4.05694   1
   7  -3 -11 0.75253 4.58093   1
  -7  -3  11 5.09361 4.37836   1
  -6  -3  11 74.8817 8.27200   1
   6  -3 -11 82.2912 8.86438   1
   5  -3 -11 398.846 14.9507   1
  -5  -3  11 412.717 15.3572   1
   4  -3 -11 10.8141 4.25217   1
  -4  -3  11 5.98051 4.11171   1
  -4   3  11 8.19717 4.76925   1
  -3  -3  11 248.703 11.1160   1
   3  -3 -11 246.722 10.6827   1
  -3   3  11 240.645 10.4443   1
   2  -3 -11 -1.0880 2.60586   1
  -2  -3  11 -1.9773 2.84370   1
  -2   3  11 -1.2835 2.26814   1
  -1  -3  11 176.423 9.43273   1
   1  -3 -11 201.272 9.45894   1
  -1   3  11 179.325 8.98348   1
   0  -3 -11 32.2741 4.89927   1
   0  -3  11 22.9112 4.69199   1
   0   3  11 27.7608 4.40803   1
   0   3 -11 36.1072 4.12201   2
  -1  -3 -11 265.091 11.0675   1
   1  -3  11 264.260 12.3089   1
  -1   3 -11 258.879 9.03879   2
   1   3  11 262.098 11.7825   1
  -2  -3 -11 2.02814 2.94718   1
   2  -3  11 -3.1505 3.15190   1
  -2   3 -11 1.15089 1.95281   2
  -3  -3 -11 374.596 14.3109   1
   3  -3  11 381.053 16.6940   1
  -3   3 -11 380.642 12.3738   2
  -4  -3 -11 175.278 10.3031   1
   4  -3  11 149.524 11.6868   1
  -4   3 -11 165.688 8.75730   2
  -6  -4  11 15.7108 5.60016   1
   6  -4 -11 13.8844 5.32058   1
   5  -4 -11 175.779 10.4818   1
  -5  -4  11 173.564 10.4311   1
  -4  -4  11 88.7233 8.81901   1
   4  -4 -11 74.7676 7.70201   1
   3  -4 -11 5.23173 3.51442   1
  -3  -4  11 6.57215 3.67858   1
  -2  -4  11 10.5161 3.88245   1
   2  -4 -11 7.61763 3.54230   1
   1  -4 -11 39.9837 5.45130   1
  -1  -4  11 30.8940 5.37766   1
   0  -4  11 22.5871 4.80205   1
   0  -4 -11 17.2528 3.91994   1
   0   4 -11 19.2090 3.21577   2
   1  -4  11 16.0066 4.29321   1
  -2  -4 -11 55.2463 6.64832   1
   2  -4  11 60.2711 7.59362   1
  -2   4 -11 46.4911 5.13109   2
   3  -4  11 132.266 10.9008   1
  -3  -4 -11 132.575 9.06989   1
  -3   4 -11 154.564 8.29281   2
  -4  -4 -11 14.3562 4.37161   1
   4  -4  11 25.1268 6.57824   1
  -4   4 -11 27.2363 4.56228   2
  -6  -5  11 17.9892 5.57415   1
   6  -5 -11 10.3307 5.40179   1
   5  -5 -11 356.245 14.6837   1
  -5  -5  11 330.215 14.2644   1
  -4  -5  11 14.6407 4.77053   1
   4  -5 -11 6.76139 3.88073   1
   3  -5 -11 143.921 8.83096   1
  -3  -5  11 124.443 9.26111   1
   2  -5 -11 34.7815 5.36830   1
  -2  -5  11 41.6376 6.21694   1
  -1  -5  11 38.1107 5.95685   1
   1  -5 -11 42.6278 5.73060   1
   0  -5  11 24.3348 5.19918   1
   0  -5 -11 19.5770 4.33906   1
   0   5 -11 22.5299 4.17649   2
  -1  -5 -11 31.5064 5.14359   1
   1  -5  11 44.8237 6.41025   1
  -1   5 -11 37.2832 5.06761   2
   2  -5  11 7.91678 4.99140   1
  -2  -5 -11 17.4410 4.64144   1
  -2   5 -11 19.7973 3.87471   2
  -3  -5 -11 578.751 19.0300   1
   3  -5  11 584.465 21.4210   1
  -3   5 -11 575.819 18.1736   2
   5  -6 -11 44.1106 7.05267   1
  -5  -6  11 26.3896 5.56606   1
   4  -6 -11 35.3327 6.52407   1
  -4  -6  11 49.9293 6.98688   1
   3  -6 -11 -0.8161 2.83272   1
  -3  -6  11 10.4500 4.72981   1
   2  -6 -11 55.0457 6.61717   1
  -2  -6  11 57.3099 7.22456   1
  -1  -6  11 -4.6876 3.47457   1
   1  -6 -11 2.12822 3.51780   1
   0  -6 -11 156.049 9.05286   1
   0  -6  11 174.452 10.2753   1
   0   6 -11 160.860 9.20088   2
  -1  -6 -11 20.3500 4.76621   1
   1  -6  11 20.0928 5.46027   1
  -1   6 -11 15.5058 4.27132   2
   2  -6  11 35.1316 7.14944   1
  -2  -6 -11 33.1076 6.00046   1
  -2   6 -11 38.8302 6.10905   2
  -2  -7  11 10.9977 5.33494   1
   2  -7 -11 13.4997 4.53911   1
   1  -7 -11 74.6374 7.58250   1
  -1  -7  11 74.5498 8.35222   1
   0  -7 -11 14.8490 4.70668   1
   0   7 -11 9.85584 3.95966   2
   7   0 -12 0.53819 4.99082   1
  -7   0  12 -1.7420 4.33232   1
   6   0 -12 19.2230 5.42636   1
  -6   0  12 14.5982 5.26762   1
  -5   0  12 1.49151 3.72638   1
   5   0 -12 -0.6875 3.37529   1
  -4   0  12 883.169 23.8293   1
   4   0 -12 872.537 23.0062   1
   3   0 -12 -0.2668 2.61326   1
  -3   0  12 -3.5903 2.68820   1
   2   0 -12 11.6475 3.50254   1
  -2   0  12 16.0742 4.26072   1
  -1   0  12 -1.1639 2.65840   1
   1   0 -12 1.44875 2.46207   1
   0   0 -12 299.331 11.6814   1
   0   0  12 306.103 12.8670   1
  -1   0 -12 -1.7438 2.13932   1
   1   0  12 -1.7557 3.02449   1
  -2   0 -12 331.759 12.8347   1
   2   0  12 352.289 15.0291   1
  -3   0 -12 -2.4316 2.40615   1
   3   0  12 -2.3727 3.68502   1
  -4   0 -12 214.561 11.5820   1
   4   0  12 214.943 13.7703   1
   7  -1 -12 0.57448 4.73916   1
  -7  -1  12 14.6111 5.02889   1
  -7   1  12 -2.0669 4.85977   1
   6  -1 -12 83.2277 8.68405   1
  -6  -1  12 92.9392 9.40018   1
  -6   1  12 90.8936 8.78592   1
   5  -1 -12 38.4658 5.99777   1
  -5  -1  12 42.1142 6.41562   1
   5   1 -12 43.1574 6.09849   1
  -5   1  12 46.8317 6.43251   1
  -4  -1  12 441.968 15.7367   1
   4  -1 -12 463.420 15.6544   1
  -4   1  12 437.621 15.6622   1
   4   1 -12 443.911 14.9744   1
  -3  -1  12 0.93644 3.04520   1
   3  -1 -12 1.06822 2.76630   1
   3   1 -12 0.74139 2.84656   1
  -3   1  12 1.06607 3.01098   1
  -2  -1  12 84.9625 7.06531   1
   2  -1 -12 77.3403 6.38856   1
  -2   1  12 74.1877 7.41345   1
   2   1 -12 69.7668 5.99776   1
  -1  -1  12 129.376 8.50408   1
   1  -1 -12 124.597 7.75246   1
  -1   1  12 116.115 8.12842   1
   1   1 -12 123.549 7.25383   1
   0  -1 -12 311.162 11.8343   1
   0  -1  12 280.785 12.6107   1
   0   1  12 291.782 12.6118   1
   0   1 -12 285.459 11.0301   1
  -1  -1 -12 28.0335 4.92840   1
   1  -1  12 34.1006 5.99799   1
   1   1  12 29.1643 5.58897   1
  -1   1 -12 21.7845 4.08651   1
   2  -1  12 2.25673 3.91665   1
  -2  -1 -12 3.30422 3.07898   1
  -2   1 -12 2.67174 2.84077   1
   2   1  12 2.12294 3.80488   1
   3  -1  12 15.7912 5.09576   1
  -3  -1 -12 22.0010 4.65479   1
   3   1  12 19.9287 5.69964   1
   4  -1  12 -1.8796 4.30869   1
  -4  -1 -12 -1.7212 3.20440   1
   4   1  12 2.34275 4.41723   1
  -7  -2  12 163.825 11.8320   1
   7  -2 -12 167.888 11.7471   1
   6  -2 -12 43.8376 7.21109   1
  -6  -2  12 49.9183 7.34568   1
   5  -2 -12 143.676 9.62439   1
  -5  -2  12 140.037 9.61620   1
  -5   2  12 130.010 9.13652   1
   4  -2 -12 245.754 11.4033   1
  -4  -2  12 247.310 11.9397   1
  -4   2  12 241.155 11.4387   1
   3  -2 -12 104.508 7.67610   1
  -3  -2  12 102.177 8.00669   1
  -3   2  12 101.260 7.57771   1
   2  -2 -12 51.5451 5.97363   1
  -2  -2  12 56.2296 7.01410   1
   2   2 -12 45.5560 5.47663   1
  -2   2  12 50.3170 6.23230   1
  -1  -2  12 11.8779 4.19195   1
   1  -2 -12 9.98505 3.60065   1
   1   2 -12 6.19414 3.00078   1
  -1   2  12 4.40003 3.36952   1
   0  -2  12 679.408 20.5723   1
   0  -2 -12 666.647 18.9169   1
   0   2  12 670.540 19.9683   1
   1  -2  12 9.09290 4.65369   1
  -1  -2 -12 14.4191 4.28495   1
   1   2  12 4.98511 3.70835   1
   2  -2  12 276.650 13.6582   1
  -2  -2 -12 269.928 11.8534   1
   2   2  12 263.425 12.7515   1
  -3  -2 -12 1.56300 2.97758   1
   3  -2  12 2.98633 4.27998   1
   4  -2  12 12.2921 5.37894   1
  -4  -2 -12 11.7049 4.41062   1
  -6  -3  12 50.9572 7.50370   1
   6  -3 -12 61.7789 7.94632   1
  -5  -3  12 66.9760 7.81584   1
   5  -3 -12 76.6870 8.37737   1
  -4  -3  12 52.1163 7.05353   1
   4  -3 -12 57.8793 7.07725   1
  -3  -3  12 130.855 8.94738   1
   3  -3 -12 106.306 8.05519   1
  -2  -3  12 101.933 8.16785   1
   2  -3 -12 88.1887 7.17346   1
  -2   3  12 90.3561 9.84259   1
  -1  -3  12 241.186 11.6062   1
   1  -3 -12 237.337 10.9376   1
  -1   3  12 237.412 14.0861   1
   0  -3  12 5.10820 3.41226   1
  -1  -3 -12 2.99892 3.33431   1
   1  -3  12 -5.1199 3.19120   1
  -2  -3 -12 77.0047 7.72507   1
   2  -3  12 75.8462 8.94741   1
   3  -3  12 7.89378 4.80596   1
  -3  -3 -12 10.1702 4.16601   1
  -4  -3 -12 -1.2451 2.94228   1
   6  -4 -12 394.418 16.6158   1
  -6  -4  12 400.574 16.8265   1
   5  -4 -12 2.21176 4.11845   1
  -5  -4  12 4.29877 4.37165   1
  -4  -4  12 -0.6881 3.68956   1
   4  -4 -12 -1.0251 3.38819   1
   3  -4 -12 88.8690 8.24367   1
  -3  -4  12 96.0063 8.85776   1
  -2  -4  12 118.006 8.66331   1
   2  -4 -12 98.0720 7.90171   1
   1  -4 -12 -0.2034 3.11385   1
  -1  -4  12 0.47221 3.38320   1
   0  -4 -12 111.811 8.14291   1
   0  -4  12 130.707 8.92586   1
   0   4 -12 127.376 7.08324   2
  -1  -4 -12 1.14806 3.00881   1
   1  -4  12 0.61752 3.60052   1
  -1   4 -12 0.92716 2.56069   2
   2  -4  12 247.909 13.5881   1
  -2  -4 -12 277.311 12.6227   1
   3  -4  12 8.48490 4.97760   1
  -3  -4 -12 4.12493 3.67299   1
  -5  -5  12 85.8400 8.93544   1
   5  -5 -12 92.2571 9.46736   1
  -4  -5  12 8.40013 4.61605   1
   4  -5 -12 7.98442 4.43832   1
  -3  -5  12 57.9048 8.08766   1
   3  -5 -12 89.8303 7.87288   1
   2  -5 -12 172.785 9.81943   1
  -2  -5  12 170.102 10.2359   1
  -1  -5  12 4.82348 4.12056   1
   1  -5 -12 -1.2869 3.16549   1
   0  -5  12 44.5235 6.82937   1
   0  -5 -12 50.1477 6.31198   1
   0   5 -12 33.6042 4.98295   2
   1  -5  12 203.967 11.7940   1
  -1  -5 -12 174.642 10.0328   1
  -1   5 -12 148.098 8.67228   2
   2  -5  12 30.4816 6.52963   1
  -2  -5 -12 25.9139 5.74112   1
  -2   5 -12 33.8214 5.37003   2
  -3  -6  12 24.3780 5.87317   1
   3  -6 -12 24.4885 5.55714   1
   2  -6 -12 122.078 9.03409   1
  -2  -6  12 103.084 9.36370   1
  -1  -6  12 12.3818 5.30431   1
   1  -6 -12 9.21922 4.73981   1
   0  -6  12 89.7365 9.48902   1
   0  -6 -12 107.195 8.61047   1
   0   6 -12 110.058 7.78930   2
  -1  -6 -12 36.6148 6.29243   1
  -7   0  13 257.505 13.7325   1
  -6   0  13 -2.6228 4.29723   1
   6   0 -13 -0.1661 4.12574   1
   5   0 -13 282.807 12.9855   1
  -5   0  13 298.980 13.9548   1
  -4   0  13 -2.5448 3.63986   1
   4   0 -13 0.06689 3.56343   1
  -3   0  13 42.1305 6.22250   1
   3   0 -13 44.3801 6.05023   1
   2   0 -13 -0.8429 2.65431   1
  -2   0  13 -3.0587 2.91241   1
  -1   0  13 547.293 18.4046   1
   1   0 -13 557.179 16.8906   1
   0   0  13 24.4320 5.03165   1
   0   0 -13 13.2819 3.87850   1
  -1   0 -13 27.3492 4.95893   1
   1   0  13 30.9190 5.94773   1
  -2   0 -13 5.01009 3.32596   1
   2   0  13 -1.7511 3.71986   1
  -3   0 -13 509.413 17.8588   1
   3   0  13 539.927 20.8449   1
  -6  -1  13 2.36780 4.75295   1
   6  -1 -13 -2.2580 4.10349   1
  -6   1  13 1.17224 4.56871   1
  -5  -1  13 62.0332 7.97512   1
   5  -1 -13 62.1528 7.96872   1
  -5   1  13 57.4869 7.31781   1
   4  -1 -13 52.1632 7.00073   1
  -4  -1  13 47.6760 6.86516   1
  -4   1  13 40.4959 6.60541   1
   4   1 -13 41.6710 6.06950   1
   3  -1 -13 23.4773 5.00926   1
  -3  -1  13 26.2279 5.63265   1
  -3   1  13 21.9947 5.33486   1
   3   1 -13 19.8690 4.38523   1
  -2  -1  13 102.533 8.01505   1
   2  -1 -13 91.8191 7.34862   1
   2   1 -13 93.1790 7.11208   1
  -2   1  13 84.6003 7.75516   1
  -1  -1  13 390.001 15.4115   1
   1  -1 -13 407.342 14.3978   1
  -1   1  13 407.341 15.2500   1
   1   1 -13 391.383 13.5904   1
   0  -1 -13 153.194 9.22224   1
   0  -1  13 162.733 10.2830   1
   0   1 -13 153.365 8.72936   1
   0   1  13 178.819 10.4230   1
   1  -1  13 21.4126 5.47375   1
  -1  -1 -13 20.6842 4.31056   1
  -1   1 -13 22.7961 4.63276   1
   1   1  13 26.9132 5.54906   1
  -2  -1 -13 14.3903 3.99791   1
   2  -1  13 6.91760 4.70028   1
   2   1  13 11.0365 4.61602   1
   3  -1  13 98.2946 10.2965   1
  -3  -1 -13 87.3468 7.95668   1
   3   1  13 84.9339 9.63273   1
  -6  -2  13 1.10599 5.17434   1
   6  -2 -13 3.94265 4.76620   1
   5  -2 -13 100.905 9.39059   1
  -5  -2  13 104.475 10.0222   1
  -5   2  13 96.0005 11.3678   1
  -4  -2  13 6.16598 4.25179   1
   4  -2 -13 11.2387 4.23303   1
  -4   2  13 7.15733 4.25663   1
   3  -2 -13 95.8986 7.86700   1
  -3  -2  13 95.8122 8.34420   1
  -3   2  13 87.7475 7.81437   1
  -2  -2  13 102.498 8.39422   1
   2  -2 -13 86.4530 7.47129   1
  -2   2  13 102.161 8.27265   1
   1  -2 -13 405.165 14.4598   1
  -1  -2  13 357.891 14.8946   1
  -1   2  13 369.086 14.5954   1
   0  -2  13 149.257 10.2206   1
   0  -2 -13 149.802 9.12583   1
   0   2  13 149.074 9.86085   1
  -1  -2 -13 177.547 9.84089   1
   1  -2  13 169.689 11.2122   1
   1   2  13 182.913 10.9504   1
   2  -2  13 364.914 16.5002   1
  -2  -2 -13 353.349 14.3584   1
   3  -2  13 58.3547 9.01707   1
  -3  -2 -13 45.0532 6.85141   1
   6  -3 -13 3.85778 4.90466   1
  -6  -3  13 4.73317 4.72527   1
  -5  -3  13 9.04380 4.97578   1
   5  -3 -13 7.96547 4.78389   1
   4  -3 -13 98.6181 8.80119   1
  -4  -3  13 102.095 9.66387   1
  -3  -3  13 102.473 8.80879   1
   3  -3 -13 114.432 8.68222   1
  -2  -3  13 38.1176 6.28254   1
   2  -3 -13 46.6563 6.39432   1
  -1  -3  13 2.15471 3.84549   1
   1  -3 -13 3.88886 3.46532   1
   0  -3 -13 250.167 11.7308   1
   0  -3  13 238.570 12.6162   1
   1  -3  13 454.361 18.0120   1
  -1  -3 -13 450.985 16.3825   1
  -2  -3 -13 98.7376 8.44417   1
   2  -3  13 88.9835 9.97923   1
   3  -3  13 1.65120 4.72436   1
  -3  -3 -13 2.79363 3.83693   1
   5  -4 -13 244.596 13.2337   1
  -5  -4  13 251.786 13.6382   1
  -4  -4  13 6.27357 4.72019   1
   4  -4 -13 3.55998 4.00173   1
   3  -4 -13 146.046 9.71161   1
  -3  -4  13 142.195 10.0518   1
   2  -4 -13 6.93046 3.89239   1
  -2  -4  13 1.31180 3.90738   1
  -1  -4  13 8.57836 4.58539   1
   1  -4 -13 13.0502 4.40596   1
   0  -4 -13 7.96634 4.00681   1
   0  -4  13 7.59894 4.33332   1
   1  -4  13 718.137 23.6320   1
  -1  -4 -13 729.539 22.1108   1
   2  -4  13 123.424 10.6631   1
  -2  -4 -13 107.082 8.99589   1
   4  -5 -13 26.7526 6.18054   1
  -4  -5  13 29.1835 6.20131   1
   3  -5 -13 134.200 9.67048   1
  -3  -5  13 115.891 9.62557   1
  -2  -5  13 72.9172 8.60991   1
   2  -5 -13 70.9315 7.65564   1
  -1  -5  13 35.1750 6.94113   1
   1  -5 -13 28.0649 5.77292   1
   0  -5 -13 -2.3350 3.39086   1
  -1  -5 -13 292.236 13.7034   1
   1  -5  13 316.256 15.1260   1
  -6   0  14 369.111 16.8570   1
  -5   0  14 -0.8509 4.35538   1
   5   0 -14 -1.4388 3.98881   1
   4   0 -14 107.932 8.81971   1
  -4   0  14 121.565 9.44541   1
   3   0 -14 0.14570 3.25735   1
  -3   0  14 -1.2647 3.75923   1
   2   0 -14 87.8610 7.67626   1
  -2   0  14 73.3776 8.31265   1
  -1   0  14 3.02733 3.73081   1
   1   0 -14 -3.3498 2.64925   1
   0   0  14 11.0646 4.68673   1
   0   0 -14 7.62033 3.52801   1
   1   0  14 2.66650 4.02429   1
  -1   0 -14 -0.0907 3.18541   1
  -2   0 -14 7.85077 4.28420   1
   2   0  14 0.31941 4.10004   1
   6  -1 -14 632.482 21.9324   1
  -6  -1  14 701.691 23.1555   1
  -6   1  14 655.616 22.1181   1
  -5  -1  14 129.025 10.4633   1
   5  -1 -14 123.620 10.0482   1
  -5   1  14 119.668 10.1758   1
  -4  -1  14 4.19432 4.56234   1
   4  -1 -14 3.77483 4.25647   1
  -4   1  14 7.02118 4.57898   1
   3  -1 -14 152.259 9.78585   1
  -3  -1  14 147.518 10.4146   1
  -3   1  14 139.918 10.1160   1
   2  -1 -14 535.813 17.8154   1
  -2  -1  14 569.505 19.3179   1
   2   1 -14 557.426 20.5013   1
  -2   1  14 552.352 19.0236   1
  -1  -1  14 4.32903 3.89155   1
   1  -1 -14 0.99076 3.19547   1
  -1   1  14 2.44482 3.21914   1
   0  -1  14 220.858 12.5980   1
   0  -1 -14 216.270 11.2346   1
   0   1  14 206.762 11.9986   1
  -1  -1 -14 1.24578 3.31001   1
   1  -1  14 2.03943 4.05964   1
   1   1  14 -1.8565 3.49410   1
  -2  -1 -14 89.6432 8.65873   1
   2  -1  14 83.5047 10.0525   1
   2   1  14 93.3920 10.3392   1
  -5  -2  14 105.915 10.5727   1
   5  -2 -14 105.084 10.1235   1
   4  -2 -14 17.9396 5.14756   1
  -4  -2  14 17.0620 5.63615   1
  -3  -2  14 174.362 11.1111   1
   3  -2 -14 165.342 10.3308   1
  -3   2  14 163.206 10.2633   1
   2  -2 -14 20.9666 4.88479   1
  -2  -2  14 21.2262 4.98391   1
  -2   2  14 12.7850 4.64532   1
   1  -2 -14 -0.6257 3.27665   1
  -1  -2  14 0.58844 3.91800   1
  -1   2  14 -1.2631 3.26120   1
   0  -2 -14 7.16377 4.01553   1
   0  -2  14 14.7977 5.15873   1
   0   2  14 10.6522 4.67351   1
  -1  -2 -14 6.28672 3.95656   1
   1  -2  14 4.93875 4.52818   1
  -2  -2 -14 9.42251 4.69793   1
   2  -2  14 11.3361 5.84034   1
  -5  -3  14 151.774 11.4775   1
   5  -3 -14 163.775 11.4851   1
  -4  -3  14 187.766 11.8756   1
   4  -3 -14 188.380 11.4564   1
   3  -3 -14 34.4478 6.70626   1
  -3  -3  14 27.0893 6.31680   1
   2  -3 -14 129.797 9.36505   1
  -2  -3  14 155.271 10.4601   1
  -1  -3  14 56.7805 8.19991   1
   1  -3 -14 47.0377 6.85922   1
   0  -3  14 364.312 16.1639   1
   0  -3 -14 344.716 14.8096   1
  -1  -3 -14 54.8396 7.44711   1
   1  -3  14 45.0993 7.62290   1
   4  -4 -14 151.377 10.8707   1
  -4  -4  14 131.068 10.9849   1
   3  -4 -14 45.3592 7.10126   1
  -3  -4  14 55.8540 8.23114   1
   2  -4 -14 44.9423 6.56443   1
  -2  -4  14 60.7488 8.06126   1
   1  -4 -14 24.3132 5.64208   1
  -1  -4  14 35.5769 6.78806   1
   0  -4 -14 -0.1685 3.58490   1
   0  -4  14 -1.1903 4.12969   1
  -5   0  15 18.0859 6.52797   1
   4   0 -15 -3.4479 4.15637   1
  -4   0  15 1.43738 4.29479   1
  -3   0  15 489.007 18.5784   1
   3   0 -15 447.949 16.8129   1
   2   0 -15 0.65505 3.53986   1
  -2   0  15 0.04054 3.81043   1
   1   0 -15 64.7074 7.53162   1
  -1   0  15 73.5505 8.70572   1
   0   0  15 -0.9061 3.89016   1
   0   0 -15 -0.0263 3.66960   1
   1   0  15 26.3717 6.29790   1
   5  -1 -15 69.7319 9.02035   1
  -5  -1  15 74.5755 9.65310   1
  -5   1  15 60.4047 8.64686   1
  -4  -1  15 -0.9368 4.17185   1
   4  -1 -15 -0.5843 3.91907   1
  -4   1  15 -0.6199 4.61059   1
  -3  -1  15 111.228 10.1968   1
   3  -1 -15 122.106 9.52067   1
  -3   1  15 114.499 10.1197   1
  -2  -1  15 -1.5924 4.04103   1
   2  -1 -15 -0.4424 3.38621   1
  -2   1  15 -1.8830 3.80355   1
   1  -1 -15 6.11225 3.97539   1
  -1  -1  15 1.77272 4.49447   1
  -1   1  15 0.80910 3.95722   1
   0  -1  15 95.1114 10.6721   1
   0  -1 -15 102.240 9.81469   1
   0   1  15 97.5368 10.2647   1
   1  -1  15 175.232 12.4893   1
  -1  -1 -15 136.977 10.3265   1
   1   1  15 159.105 11.8424   1
  -4  -2  15 86.7033 9.65354   1
   4  -2 -15 84.9290 9.18327   1
   3  -2 -15 106.938 9.42196   1
  -3  -2  15 94.5986 10.3843   1
   2  -2 -15 96.9666 9.45288   1
  -2  -2  15 100.644 10.4938   1
   1  -2 -15 263.827 13.0403   1
  -1  -2  15 283.306 14.7480   1
   0  -2 -15 19.9912 5.42727   1
   0  -2  15 14.2269 5.59892   1
   3  -3 -15 18.8734 5.62144   1
  -3  -3  15 25.2335 6.43609   1
  -2  -3  15 11.9121 4.87075   1
   2  -3 -15 4.27961 4.13680   1
   1  -3 -15 189.031 11.7181   1
  -1  -3  15 195.797 12.8523   1
   0  -3 -15 195.290 12.0871   1
  -2   0  16 139.056 11.2547   1
  -1   0  16 9.74098 4.68436   1
   2  -1 -16 9.59372 4.65647   1
  -2  -1  16 11.4586 5.14779   1
  -2   1  16 3.36729 4.62446   1
   0   0   0    0.00    0.00   0

 _exptl_absorpt_process_details 'SADABS 2014/4'
 _exptl_absorpt_correction_type   multiscan
 _exptl_absorpt_correction_T_max  0.7457
 _exptl_absorpt_correction_T_min  0.6813
 _exptl_special_details
)
 The following wavelength and cell were deduced by SADABS from the
 direction cosines etc. They are given here for emergency use only:
 CELL 0.71086    7.057    7.380   12.090   89.900  102.278   90.009
)

;
_shelx_hkl_checksum              34180
loop_
_space_group_symop_operation_xyz
'x, y, z'
'-x+1/2, y+1/2, -z+1/2'
'-x, -y, -z'
'x-1/2, -y-1/2, z-1/2'
loop_
_atom_site_label
_atom_site_type_symbol
_atom_site_fract_x
_atom_site_fract_y
_atom_site_fract_z
_atom_site_U_iso_or_equiv
_atom_site_adp_type
_atom_site_occupancy
_atom_site_site_symmetry_order
_atom_site_calc_flag
_atom_site_refinement_flags_posn
_atom_site_refinement_flags_adp
_atom_site_refinement_flags_occupancy
_atom_site_disorder_assembly
_atom_site_disorder_group
Ti1 Ti 0.48703(8) 0.23252(7) 0.33802(4) 0.00883(16) Uani 1 1 d . . . . .
P1 P 0.75069(11) 0.13802(11) 0.59117(6) 0.00942(19) Uani 1 1 d . . . . .
P2 P 0.69062(13) 0.63718(11) 0.30405(7) 0.0151(2) Uani 1 1 d . . . . .
O1 O 0.6399(4) 0.2408(3) 0.48916(19) 0.0175(5) Uani 1 1 d . . . . .
O2 O 0.6318(4) -0.0131(3) 0.6273(2) 0.0173(5) Uani 1 1 d . . . . .
O3 O 0.8130(3) 0.2749(3) 0.68592(18) 0.0119(4) Uani 1 1 d . . . . .
O4 O 0.5737(4) 0.4617(3) 0.3030(2) 0.0187(5) Uani 1 1 d . . . . .
O5 O 0.8215(4) 0.6097(3) 0.2181(2) 0.0187(5) Uani 1 1 d . . . . .
O6 O 0.7990(5) 0.6922(5) 0.4170(2) 0.0374(8) Uani 1 1 d . . . . .
O7 O 0.2679(4) 0.3650(3) 0.3901(2) 0.0181(5) Uani 1 1 d . . . . .
H1 H 0.9114 0.0611 0.5644 0.050 Uiso 1 1 d . U . . .
H2 H 0.5579 0.7606 0.2524 0.050 Uiso 1 1 d . U . . .
H7A H 0.2543 0.3507 0.4579 0.050 Uiso 1 1 d . U . . .
H7B H 0.2286 0.4903 0.3642 0.050 Uiso 1 1 d . U . . .
loop_
_atom_site_aniso_label
_atom_site_aniso_U_11
_atom_site_aniso_U_22
_atom_site_aniso_U_33
_atom_site_aniso_U_23
_atom_site_aniso_U_13
_atom_site_aniso_U_12
Ti1 0.0125(3) 0.0079(3) 0.0056(3) 0.00075(19) 0.00064(19) -0.00105(18)
P1 0.0128(4) 0.0090(4) 0.0059(3) -0.0010(3) 0.0005(3) -0.0014(3)
P2 0.0195(4) 0.0120(4) 0.0155(4) -0.0016(3) 0.0074(3) -0.0045(3)
O1 0.0259(13) 0.0149(11) 0.0090(10) -0.0001(9) -0.0025(9) -0.0056(9)
O2 0.0235(12) 0.0110(11) 0.0161(11) 0.0028(9) 0.0014(9) -0.0048(9)
O3 0.0166(11) 0.0107(10) 0.0061(10) -0.0019(8) -0.0029(8) -0.0018(8)
O4 0.0226(12) 0.0140(11) 0.0196(12) 0.0039(9) 0.0047(10) -0.0068(9)
O5 0.0192(12) 0.0231(13) 0.0155(12) -0.0030(10) 0.0071(10) -0.0080(10)
O6 0.0482(19) 0.049(2) 0.0186(14) -0.0150(13) 0.0158(13) -0.0303(15)
O7 0.0247(13) 0.0173(12) 0.0146(12) 0.0008(9) 0.0094(10) 0.0047(9)
loop_
_atom_type_symbol
_atom_type_description
_atom_type_scat_dispersion_real
_atom_type_scat_dispersion_imag
_atom_type_scat_source
O O 0.0106 0.0060 'International Tables Vol C Tables 4.2.6.8 and 6.1.1.4'
H H 0.0000 0.0000 'International Tables Vol C Tables 4.2.6.8 and 6.1.1.4'
P P 0.1023 0.0942 'International Tables Vol C Tables 4.2.6.8 and 6.1.1.4'
Ti Ti 0.2776 0.4457 'International Tables Vol C Tables 4.2.6.8 and 6.1.1.4'
loop_
_geom_angle_atom_site_label_1
_geom_angle_atom_site_label_2
_geom_angle_atom_site_label_3
_geom_angle
_geom_angle_site_symmetry_1
_geom_angle_site_symmetry_3
_geom_angle_publ_flag
O5 Ti1 O4 93.36(11) 2_645 . ?
O5 Ti1 O2 93.12(11) 2_645 3_656 ?
O4 Ti1 O2 172.89(11) . 3_656 ?
O5 Ti1 O1 93.31(11) 2_645 . ?
O4 Ti1 O1 92.43(10) . . ?
O2 Ti1 O1 90.12(10) 3_656 . ?
O5 Ti1 O3 90.18(10) 2_645 4_565 ?
O4 Ti1 O3 89.02(10) . 4_565 ?
O2 Ti1 O3 88.04(10) 3_656 4_565 ?
O1 Ti1 O3 176.14(10) . 4_565 ?
O5 Ti1 O7 176.66(11) 2_645 . ?
O4 Ti1 O7 86.76(11) . . ?
O2 Ti1 O7 86.60(11) 3_656 . ?
O1 Ti1 O7 90.01(11) . . ?
O3 Ti1 O7 86.49(10) 4_565 . ?
O2 P1 O1 112.41(14) . . ?
O2 P1 O3 111.13(13) . . ?
O1 P1 O3 107.27(13) . . ?
O2 P1 H1 107.6 . . ?
O1 P1 H1 109.0 . . ?
O3 P1 H1 109.5 . . ?
O6 P2 O4 114.39(16) . . ?
O6 P2 O5 113.14(16) . . ?
O4 P2 O5 106.38(14) . . ?
O6 P2 H2 114.3 . . ?
O4 P2 H2 104.1 . . ?
O5 P2 H2 103.4 . . ?
P1 O1 Ti1 148.08(16) . . ?
P1 O2 Ti1 169.45(17) . 3_656 ?
P1 O3 Ti1 134.66(14) . 4_666 ?
P2 O4 Ti1 163.54(17) . . ?
P2 O5 Ti1 139.73(16) . 2_655 ?
Ti1 O7 H7A 119.1 . . ?
Ti1 O7 H7B 121.7 . . ?
H7A O7 H7B 109.7 . . ?
loop_
_geom_bond_atom_site_label_1
_geom_bond_atom_site_label_2
_geom_bond_distance
_geom_bond_site_symmetry_2
_geom_bond_publ_flag
Ti1 O5 1.872(2) 2_645 ?
Ti1 O4 1.879(2) . ?
Ti1 O2 1.912(2) 3_656 ?
Ti1 O1 1.916(2) . ?
Ti1 O3 1.984(2) 4_565 ?
Ti1 O7 2.042(2) . ?
P1 O2 1.516(2) . ?
P1 O1 1.516(2) . ?
P1 O3 1.521(2) . ?
P1 H1 1.3691 . ?
P2 O6 1.473(3) . ?
P2 O4 1.535(2) . ?
P2 O5 1.546(2) . ?
P2 H2 1.3601 . ?
O2 Ti1 1.912(2) 3_656 ?
O3 Ti1 1.984(2) 4_666 ?
O5 Ti1 1.872(2) 2_655 ?
O7 H7A 0.8525 . ?
O7 H7B 0.9969 . ?
loop_
_geom_hbond_atom_site_label_D
_geom_hbond_atom_site_label_H
_geom_hbond_atom_site_label_A
_geom_hbond_distance_DH
_geom_hbond_distance_HA
_geom_hbond_distance_DA
_geom_hbond_angle_DHA
_geom_hbond_site_symmetry_A
O7 H7A O6 0.85 1.67 2.514(4) 172.4 3_666
O7 H7B O3 1.00 1.84 2.831(3) 172.9 3_666
