#------------------------------------------------------------------------------
#$Date: 2021-10-06 16:46:44 +0300 (Wed, 06 Oct 2021) $
#$Revision: 269614 $
#$URL: file:///home/coder/svn-repositories/cod/cif/7/12/88/7128835.cif $
#------------------------------------------------------------------------------
#
# This file is available in the Crystallography Open Database (COD),
# http://www.crystallography.net/
#
# All data on this site have been placed in the public domain by the
# contributors.
#
data_7128835
loop_
_publ_author_name
'Chen, Fangyuan'
'Tang, Junyuan'
'Wei, Yinhui'
'Tian, Jingyuan'
'Gao, Hui'
'Yi, Wei'
'Zhou, Zhi'
_publ_section_title
;
 Rh(III)-Catalyzed and synergistic dual directing group-enabled
 redox-neutral [3+3] annulation of <i>N</i>-phenoxyacetamides with
 \a-allenols.
;
_journal_issue                   73
_journal_name_full
'Chemical communications (Cambridge, England)'
_journal_page_first              9284
_journal_page_last               9287
_journal_paper_doi               10.1039/d1cc03206b
_journal_volume                  57
_journal_year                    2021
_chemical_formula_moiety         'C18 H18 O2'
_chemical_formula_sum            'C18 H18 O2'
_chemical_formula_weight         266.32
_space_group_crystal_system      triclinic
_space_group_IT_number           2
_space_group_name_Hall           '-P 1'
_space_group_name_H-M_alt        'P -1'
_atom_sites_solution_hydrogens   geom
_atom_sites_solution_primary     dual
_audit_creation_date             2021-05-17
_audit_creation_method
;
Olex2 1.3-alpha
(compiled 2020.09.11 svn.r3730fd0d for OlexSys, GUI svn.r6159)
;
_audit_update_record
;
2021-05-20 deposited with the CCDC.	2021-08-16 downloaded from the CCDC.
;
_cell_angle_alpha                77.537(14)
_cell_angle_beta                 72.055(16)
_cell_angle_gamma                75.300(16)
_cell_formula_units_Z            2
_cell_length_a                   8.3313(17)
_cell_length_b                   8.8068(15)
_cell_length_c                   10.2625(15)
_cell_measurement_reflns_used    1584
_cell_measurement_temperature    149.99(10)
_cell_measurement_theta_max      29.1770
_cell_measurement_theta_min      3.1650
_cell_volume                     685.1(2)
_computing_cell_refinement       'CrysAlisPro 1.171.38.43f (Rigaku OD, 2015)'
_computing_data_collection       'CrysAlisPro 1.171.38.43f (Rigaku OD, 2015)'
_computing_data_reduction        'CrysAlisPro 1.171.38.43f (Rigaku OD, 2015)'
_computing_molecular_graphics    'Olex2 1.3-alpha (Dolomanov et al., 2009)'
_computing_publication_material  'Olex2 1.3-alpha (Dolomanov et al., 2009)'
_computing_structure_refinement  'SHELXL 2018/3 (Sheldrick, 2015)'
_computing_structure_solution    'SHELXT 2018/2 (Sheldrick, 2018)'
_diffrn_ambient_environment      N~2~
_diffrn_ambient_temperature      149.99(10)
_diffrn_detector                 'CCD plate'
_diffrn_detector_area_resol_mean 5.2684
_diffrn_detector_type            AtlasS2
_diffrn_measured_fraction_theta_full 0.994
_diffrn_measured_fraction_theta_max 0.994
_diffrn_measurement_details
;
List of Runs (angles in degrees, time in seconds):

  # Type    Start    End  Width  t~exp~   \w     \q     \k     \f   Frames
#--------------------------------------------------------------------------
  1  \w    -77.00  21.00   1.00    2.00    --  -11.27 -77.00 120.00   98
  2  \w    -57.00  36.00   1.00    2.00    --   11.90 -57.00-120.00   93
  3  \w    -16.00  83.00   1.00    2.00    --   11.90  57.00  30.00   99
;
_diffrn_measurement_device       'four-circle diffractometer'
_diffrn_measurement_device_type  'SuperNova, Dual, Cu at zero, AtlasS2'
_diffrn_measurement_method       '\w scans'
_diffrn_orient_matrix_type
'CrysAlisPro convention (1999,Acta A55,543-557)'
_diffrn_orient_matrix_UB_11      0.0205759000
_diffrn_orient_matrix_UB_12      -0.0493727000
_diffrn_orient_matrix_UB_13      -0.0514824000
_diffrn_orient_matrix_UB_21      -0.0880242000
_diffrn_orient_matrix_UB_22      0.0160740000
_diffrn_orient_matrix_UB_23      0.0005210000
_diffrn_orient_matrix_UB_31      0.0132681000
_diffrn_orient_matrix_UB_32      0.0663004000
_diffrn_orient_matrix_UB_33      -0.0524220000
_diffrn_radiation_monochromator  mirror
_diffrn_radiation_probe          x-ray
_diffrn_radiation_type           'Mo K\a'
_diffrn_radiation_wavelength     0.71073
_diffrn_reflns_av_R_equivalents  0.0788
_diffrn_reflns_av_unetI/netI     0.1001
_diffrn_reflns_Laue_measured_fraction_full 0.994
_diffrn_reflns_Laue_measured_fraction_max 0.994
_diffrn_reflns_limit_h_max       9
_diffrn_reflns_limit_h_min       -7
_diffrn_reflns_limit_k_max       10
_diffrn_reflns_limit_k_min       -10
_diffrn_reflns_limit_l_max       12
_diffrn_reflns_limit_l_min       -9
_diffrn_reflns_number            4266
_diffrn_reflns_point_group_measured_fraction_full 0.994
_diffrn_reflns_point_group_measured_fraction_max 0.994
_diffrn_reflns_theta_full        24.997
_diffrn_reflns_theta_max         24.997
_diffrn_reflns_theta_min         2.110
_diffrn_source                   'micro-focus sealed X-ray tube'
_diffrn_source_type              'SuperNova (Mo) X-ray Source'
_exptl_absorpt_coefficient_mu    0.083
_exptl_absorpt_correction_T_max  1.00000
_exptl_absorpt_correction_T_min  0.44050
_exptl_absorpt_correction_type   multi-scan
_exptl_absorpt_process_details
;
CrysAlisPro 1.171.38.43f (Rigaku Oxford Diffraction, 2015)
Empirical absorption correction using spherical harmonics,
 implemented in SCALE3 ABSPACK scaling algorithm.
;
_exptl_crystal_colour            colourless
_exptl_crystal_colour_primary    colourless
_exptl_crystal_density_diffrn    1.291
_exptl_crystal_description       block
_exptl_crystal_F_000             284
_exptl_crystal_size_max          0.14
_exptl_crystal_size_mid          0.12
_exptl_crystal_size_min          0.1
_refine_diff_density_max         0.409
_refine_diff_density_min         -0.433
_refine_diff_density_rms         0.102
_refine_ls_extinction_method     none
_refine_ls_goodness_of_fit_ref   0.998
_refine_ls_hydrogen_treatment    constr
_refine_ls_matrix_type           full
_refine_ls_number_parameters     184
_refine_ls_number_reflns         2399
_refine_ls_number_restraints     0
_refine_ls_restrained_S_all      0.998
_refine_ls_R_factor_all          0.1104
_refine_ls_R_factor_gt           0.0832
_refine_ls_shift/su_max          0.000
_refine_ls_shift/su_mean         0.000
_refine_ls_structure_factor_coef Fsqd
_refine_ls_weighting_details
'w=1/[\s^2^(Fo^2^)+(0.1421P)^2^] where P=(Fo^2^+2Fc^2^)/3'
_refine_ls_weighting_scheme      calc
_refine_ls_wR_factor_gt          0.2123
_refine_ls_wR_factor_ref         0.2471
_reflns_Friedel_coverage         0.000
_reflns_number_gt                1561
_reflns_number_total             2399
_reflns_threshold_expression     'I > 2\s(I)'
_cod_data_source_file            d1cc03206b2.cif
_cod_data_source_block           127-3
_cod_depositor_comments          'Adding full bibliography for 7128835.cif.'
_cod_database_code               7128835
_shelx_shelxl_version_number     2018/3
_shelx_space_group_comment
;
The symmetry employed for this shelxl refinement is uniquely defined
by the following loop, which should always be used as a source of
symmetry information in preference to the above space-group names.
They are only intended as comments.
;
_reflns_odcompleteness_completeness 99.32
_reflns_odcompleteness_iscentric 1
_reflns_odcompleteness_theta     26.32
_olex2_refinement_description
;
1. Fixed Uiso
 At 1.2 times of:
  All C(H) groups, All C(H,H) groups
 At 1.5 times of:
  All C(H,H,H) groups, All O(H) groups
2.a Secondary CH2 refined with riding coordinates:
 C9(H9A,H9B)
2.b Aromatic/amide H refined with riding coordinates:
 C16(H16), C13(H13), C2(H2), C15(H15), C7(H7), C3(H3), C6(H6), C5(H5), C14(H14)
2.c Idealised Me refined as rotating group:
 C17(H17A,H17B,H17C), C18(H18A,H18B,H18C)
2.d Idealised tetrahedral OH refined as rotating group:
 O1(H1)
;
_shelx_res_file
;
TITL 127-3_a.res in P-1
    127-3.res
    created by SHELXL-2018/3 at 13:22:33 on 17-May-2021
REM Old TITL 127-3 in P-1
REM SHELXT solution in P-1: R1 0.248, Rweak 0.008, Alpha 0.032
REM <I/s> 0.000 for 0 systematic absences, Orientation as input
REM Formula found by SHELXT: C18 O2
CELL 0.71073 8.3313 8.8068 10.2625 77.537 72.055 75.3
ZERR 2 0.0017 0.0015 0.0015 0.014 0.016 0.016
LATT 1
SFAC C H O
UNIT 36 36 4

L.S. 20
PLAN  5
CONF
BOND
list 4
fmap 2 53
acta
MORE -1
BOND $H
OMIT -3 50
REM <olex2.extras>
REM <HklSrc "%.\\127-3.hkl">
REM </olex2.extras>

WGHT    0.142100
FVAR       0.89928
O2    3    0.623003    0.108866    0.843220    11.00000    0.01852    0.02505 =
         0.03845   -0.00390   -0.01091   -0.00135
O1    3    0.335633    0.183241    0.963364    11.00000    0.02386    0.03055 =
         0.03298   -0.00009   -0.00667   -0.00541
AFIX 147
H1    2    0.323697    0.099877    1.015851    11.00000   -1.50000
AFIX   0
C11   1    0.691593    0.231683    0.853134    11.00000    0.01702    0.02793 =
         0.02612   -0.00216   -0.00416   -0.00367
C12   1    0.617009    0.392086    0.824876    11.00000    0.02078    0.02912 =
         0.02402   -0.00165   -0.00233   -0.00629
C10   1    0.446220    0.149646    0.833926    11.00000    0.01663    0.03053 =
         0.03707   -0.00343   -0.01360   -0.00227
C8    1    0.465920    0.435663    0.768144    11.00000    0.01976    0.03041 =
         0.02671   -0.00143   -0.00537   -0.00681
C16   1    0.845620    0.186255    0.891873    11.00000    0.02028    0.03027 =
         0.03453    0.00049   -0.00961   -0.00326
AFIX  43
H16   2    0.894250    0.079071    0.909313    11.00000   -1.20000
AFIX   0
C13   1    0.700703    0.502399    0.841772    11.00000    0.02524    0.03382 =
         0.03375   -0.00467   -0.00772   -0.00997
AFIX  43
H13   2    0.652908    0.609958    0.825556    11.00000   -1.20000
AFIX   0
C1    1    0.237910    0.646944    0.681662    11.00000    0.02502    0.02723 =
         0.03051    0.00008   -0.00721   -0.00881
C2    1    0.230610    0.589395    0.567747    11.00000    0.02391    0.02669 =
         0.03519   -0.00193   -0.00481   -0.00403
AFIX  43
H2    2    0.317463    0.507244    0.532327    11.00000   -1.20000
AFIX   0
C15   1    0.925464    0.298040    0.904360    11.00000    0.01906    0.04402 =
         0.03175   -0.00059   -0.00795   -0.00547
AFIX  43
H15   2    1.029372    0.267119    0.928130    11.00000   -1.20000
AFIX   0
C7    1    0.376885    0.585570    0.749899    11.00000    0.02578    0.02674 =
         0.03204   -0.00331   -0.00898   -0.00537
AFIX  43
H7    2    0.407564    0.659628    0.785141    11.00000   -1.20000
AFIX   0
C4    1   -0.035840    0.772771    0.555854    11.00000    0.02765    0.03666 =
         0.02985    0.00181   -0.00760   -0.01019
C9    1    0.422447    0.298230    0.729728    11.00000    0.02134    0.02809 =
         0.03751    0.00076   -0.01067   -0.00603
AFIX  23
H9A   2    0.495780    0.277691    0.638882    11.00000   -1.20000
H9B   2    0.303882    0.325800    0.724821    11.00000   -1.20000
AFIX   0
C3    1    0.096755    0.651937    0.506149    11.00000    0.02917    0.03231 =
         0.02772   -0.00150   -0.00685   -0.00794
AFIX  43
H3    2    0.096263    0.611623    0.429681    11.00000   -1.20000
AFIX   0
C6    1    0.107298    0.773932    0.727431    11.00000    0.02854    0.02926 =
         0.03312   -0.00588   -0.01028   -0.00562
AFIX  43
H6    2    0.110743    0.818815    0.800418    11.00000   -1.20000
AFIX   0
C17   1    0.418593    0.006205    0.792961    11.00000    0.03106    0.02882 =
         0.03956   -0.00082   -0.01605   -0.00673
AFIX 137
H17A  2    0.492902   -0.009323    0.702493    11.00000   -1.50000
H17B  2    0.300756    0.022072    0.791583    11.00000   -1.50000
H17C  2    0.444485   -0.085692    0.858658    11.00000   -1.50000
AFIX   0
C5    1   -0.027434    0.834538    0.666369    11.00000    0.02678    0.03215 =
         0.03953   -0.00610   -0.00912   -0.00081
AFIX  43
H5    2   -0.113613    0.918029    0.700124    11.00000   -1.20000
AFIX   0
C14   1    0.851037    0.457618    0.881476    11.00000    0.02596    0.04286 =
         0.03653   -0.00720   -0.00895   -0.01260
AFIX  43
H14   2    0.902695    0.534060    0.892963    11.00000   -1.20000
AFIX   0
C18   1   -0.184751    0.834819    0.491454    11.00000    0.03263    0.04953 =
         0.04180   -0.00328   -0.01512   -0.00319
AFIX 137
H18A  2   -0.145814    0.823714    0.395045    11.00000   -1.50000
H18B  2   -0.229395    0.944843    0.500792    11.00000   -1.50000
H18C  2   -0.273722    0.775352    0.537580    11.00000   -1.50000
AFIX   0
HKLF 4




REM  127-3_a.res in P-1
REM wR2 = 0.2471, GooF = S = 0.998, Restrained GooF = 0.998 for all data
REM R1 = 0.0832 for 1561 Fo > 4sig(Fo) and 0.1104 for all 2399 data
REM 184 parameters refined using 0 restraints

END

WGHT      0.1421      0.0000

REM Highest difference peak  0.409,  deepest hole -0.433,  1-sigma level  0.102
Q1    1   0.4855  0.3801  0.7084  11.00000  0.05    0.41
Q2    1   0.4583  0.0933  0.7701  11.00000  0.05    0.39
Q3    1   0.5453  0.0920  0.9415  11.00000  0.05    0.38
Q4    1   0.0160  0.5237  0.4961  11.00000  0.05    0.38
Q5    1   0.6938  0.0886  0.7526  11.00000  0.05    0.37
;
_shelx_res_checksum              65182
_shelx_hkl_file
;
   0   0   1  299.79    6.70
   0   0   2  646.17   13.97
   0   0   3 2388.28   32.19
   0   0   4    6.87    2.11
   0   0   5  143.48   10.27
   0   0  -6  108.11   11.79
   0   0   6   92.90    9.05
   0   0   7   66.79    8.30
   0   0  -7   85.89   12.01
   0   0   8    2.67    1.57
   0   0   9    8.76    3.60
   0   0  10   25.67    6.66
   0   0  11    5.33    3.21
   0   0  12   41.83    9.51
   0  -1  12   11.84    5.00
   0  -1  11    3.16    2.13
   0  -1  10   15.31    4.95
   0  -1   9   39.54    7.27
   0  -1   8   86.19    9.94
   0   1  -7    0.38    0.86
   0  -1   7    0.04    0.58
   0  -1   7    0.31    0.68
   0  -1   7    0.60    0.68
   0  -1   6   23.26    4.65
   0  -1   6   24.20    6.59
   0   1  -6   32.45    7.45
   0  -1   6    8.73    1.95
   0  -1   5  216.08   17.20
   0  -1   5  175.32   11.08
   0   1  -4    4.06    2.12
   0  -1   4    3.11    1.47
   0  -1   4    3.11    0.88
   0  -1   3  146.59    8.05
   0  -1   3  128.02    5.40
   0   1  -3  149.16    9.56
   0  -1   2 3020.23   37.56
   0   1  -2 2944.95   35.46
   0  -1   1  142.90    5.06
   0  -1   1  143.39    5.04
   0  -1   1  116.56    5.73
   0   1  -1  111.89    5.09
   0   1   0  385.98    7.95
   0   1   1  906.71   11.94
   0  -1  -1  833.01   11.20
   0   1   1  924.93   11.63
   0  -1  -1  836.42   11.28
   0  -1  -2 4717.18   38.62
   0   1   2 4855.36   37.04
   0  -1  -3  558.12   16.81
   0   1   3  625.55   16.62
   0   1   4   18.65    3.47
   0   1   5   36.88    5.19
   0  -1  -6    0.07    0.73
   0   1   6  215.49   13.73
   0  -1  -7   25.63    6.41
   0   1   7   27.03    5.28
   0   1   8   14.07    4.16
   0   1   9    2.55    2.12
   0   1  10    3.33    2.55
   0   1  11    6.49    3.39
   0   1  12   13.81    5.60
   0  -2  11   -0.72    1.85
   0  -2  10    1.29    1.54
   0  -2   9    0.08    1.13
   0  -2   8   33.88    6.19
   0  -2   8   19.95    4.84
   0  -2   7   98.31   14.47
   0  -2   7   99.62   10.05
   0   2  -6    5.91    3.16
   0  -2   6    8.75    3.89
   0  -2   6    4.03    1.31
   0  -2   6    3.94    1.78
   0  -2   5  193.87    9.55
   0  -2   5  222.09   12.41
   0  -2   4    9.26    3.42
   0   2  -4    5.69    2.46
   0  -2   4    7.00    2.02
   0  -2   4    8.43    1.81
   0  -2   3  760.79   18.29
   0  -2   3  731.56   16.39
   0  -2   2  868.53   17.84
   0  -2   2  895.90   22.63
   0  -2   2  936.38   17.57
   0  -2   1    6.83    1.29
   0  -2   1    5.98    1.56
   0  -2   1    3.61    1.08
   0   2  -1    4.53    1.20
   0   2   0  525.16   11.75
   0  -2  -1  295.97    9.43
   0   2   1  288.85    9.50
   0   2   1  267.83    7.72
   0   2   2   57.95    4.48
   0  -2  -2   50.31    3.87
   0  -2  -2   46.82    3.94
   0   2   2   51.13    3.95
   0  -2  -3    6.90    1.59
   0  -2  -3   12.14    2.46
   0   2   3   11.16    2.47
   0  -2  -4  103.11    8.22
   0   2   4  106.44    8.01
   0   2   5  236.69   13.28
   0  -2  -5  213.77   13.58
   0   2   6    1.01    1.25
   0  -2  -6    1.82    1.46
   0   2   7   11.97    3.61
   0  -2  -7   13.48    4.50
   0   2   8   29.11    6.10
   0   2   9   50.54    8.91
   0   2  10    3.83    2.45
   0   2  11   13.56    5.30
   0   2  12   10.00    5.21
   0  -3  11    3.26    2.69
   0  -3  10   94.16   11.96
   0  -3   9    3.56    2.51
   0  -3   9    1.70    1.51
   0  -3   8    2.52    1.60
   0  -3   8    6.10    2.69
   0  -3   7  119.58   16.67
   0  -3   7   91.73    9.18
   0  -3   6   47.38    5.56
   0  -3   6   61.19    7.13
   0  -3   5    9.14    2.50
   0  -3   5   13.70    4.66
   0  -3   5   11.65    2.80
   0  -3   4  551.61   17.53
   0  -3   4  567.76   18.07
   0  -3   3  190.74    9.87
   0  -3   3  217.50   14.32
   0  -3   3  192.51    9.20
   0  -3   2  422.36   14.25
   0  -3   2  400.46   16.28
   0  -3   2  419.51   11.95
   0   3  -1  453.10   12.70
   0  -3   1  578.11   11.88
   0  -3   1  436.64   14.30
   0  -3   1  549.10   16.10
   0  -3   0  548.03   10.33
   0   3   0  603.36   14.85
   0  -3  -1  212.10    9.78
   0   3   1  204.60    8.43
   0   3   2   17.08    2.74
   0  -3  -2   14.33    2.14
   0  -3  -2   17.93    2.93
   0  -3  -3    8.64    2.22
   0  -3  -3    8.18    2.08
   0   3   3   10.11    2.48
   0  -3  -4    1.32    0.84
   0  -3  -4    3.24    1.61
   0  -3  -5   29.93    4.81
   0  -3  -5   37.19    5.83
   0   3   6   62.30    8.03
   0  -3  -6   49.54    7.54
   0  -3  -6   53.43    9.09
   0   3   7   10.48    3.41
   0  -3  -7   12.39    2.97
   0   3   8    5.12    2.36
   0   3   9    1.36    1.21
   0   3  10   23.85    6.64
   0   3  11    3.55    2.94
   0   3  12    2.12    3.09
   0  -4  11   61.12   10.22
   0  -4  10    6.76    3.16
   0  -4   9    8.72    4.12
   0  -4   9   32.42    6.40
   0  -4   8    6.02    2.47
   0  -4   8    0.76    1.68
   0  -4   7   37.29    5.81
   0  -4   7   19.25    4.46
   0  -4   6   24.60    7.36
   0  -4   6   20.82    4.12
   0  -4   6   16.63    3.60
   0  -4   5   28.37    6.93
   0  -4   5   20.49    4.54
   0  -4   5   25.05    4.08
   0  -4   4    1.01    1.04
   0  -4   4    0.34    0.30
   0  -4   4    1.51    1.61
   0  -4   3   59.60    6.35
   0  -4   3   54.74    4.81
   0  -4   3   59.99    7.68
   0  -4   2  197.01   12.53
   0  -4   2  175.37    7.75
   0  -4   2  183.43   11.18
   0  -4   1   12.74    2.62
   0  -4   1   10.28    2.55
   0  -4   1   13.07    1.95
   0   4  -1   11.60    2.19
   0   4   0   49.75    4.79
   0  -4   0   39.74    2.77
   0  -4  -1  105.87    8.03
   0  -4  -1   78.60    3.98
   0   4   1   96.20    7.68
   0   4   2  405.08   14.67
   0  -4  -2  359.52   15.46
   0  -4  -3   31.56    4.65
   0  -4  -3   24.79    3.47
   0   4   3   34.01    4.68
   0  -4  -4    2.37    1.52
   0  -4  -4    1.55    1.42
   0   4   4    4.47    1.92
   0  -4  -5   13.92    3.54
   0  -4  -5    9.12    3.13
   0  -4  -6  263.64   16.82
   0  -4  -6  249.69   17.19
   0  -4  -7    1.75    2.67
   0   4   7    2.06    1.49
   0  -4  -8   10.34    4.76
   0   4   8    9.46    3.75
   0   4   9   -0.02    1.07
   0   4  10   23.64    6.93
   0   4  11   11.51    5.46
   0   4  12    8.93    5.08
   0  -5  11    9.73    4.13
   0  -5  10   33.88    7.07
   0  -5   9   26.63    5.81
   0  -5   8   12.90    3.65
   0  -5   8    2.56    1.91
   0  -5   7    0.78    0.71
   0  -5   7    0.71    0.86
   0  -5   6   11.62    2.91
   0  -5   6   18.54    6.35
   0  -5   6    8.91    3.02
   0  -5   5  135.43   11.92
   0  -5   5  141.89    9.78
   0  -5   4   10.18    2.25
   0  -5   4    9.52    3.09
   0  -5   4    9.58    3.67
   0  -5   3   25.43    5.40
   0  -5   3   21.02    2.96
   0  -5   3   18.10    4.00
   0  -5   2   11.82    1.87
   0  -5   2   13.98    3.35
   0  -5   2   12.85    3.27
   0  -5   1   54.00    3.46
   0   5  -1   75.34    5.66
   0  -5   1   70.68    7.57
   0   5   0  263.43   11.44
   0  -5   0  172.57    5.20
   0  -5  -1    8.01    1.22
   0   5   1   11.70    2.96
   0  -5  -1   13.55    3.26
   0  -5  -2    0.24    0.38
   0   5   2    0.23    0.62
   0  -5  -3    2.59    1.23
   0   5   3    2.42    1.31
   0   5   4  302.51   16.48
   0  -5  -4  204.57   11.62
   0  -5  -5    1.17    1.26
   0   5   5    1.32    1.48
   0   5   6   12.37    3.86
   0  -5  -6    8.36    3.07
   0  -5  -7   25.49    6.83
   0   5   7   21.93    5.65
   0  -5  -8   48.46   13.58
   0   5   8  123.32   14.51
   0   5   9   20.27    6.41
   0   5  10   34.19    8.76
   0   5  11    2.45    2.90
   0  -6   9    2.00    1.67
   0  -6   8    0.24    0.55
   0  -6   8    1.48    1.89
   0  -6   7   41.14    7.84
   0  -6   7   90.46    8.99
   0  -6   6    7.66    2.31
   0  -6   6    4.71    2.56
   0  -6   6    6.38    4.03
   0  -6   5    9.40    2.31
   0  -6   5   12.07    4.49
   0  -6   5    9.04    3.28
   0  -6   4    0.28    0.28
   0  -6   4    0.64    1.21
   0  -6   4    0.45    0.97
   0  -6   3    0.38    0.63
   0  -6   3   -0.28    0.60
   0  -6   3   -0.28    0.53
   0  -6   2   11.86    2.85
   0  -6   2    8.65    1.48
   0  -6   2    7.93    2.95
   0  -6   1  195.05   13.94
   0   6  -1  207.48    9.47
   0  -6   1  138.76    5.19
   0  -6   1  104.02    3.79
   0   6   0   38.59    4.33
   0  -6   0   42.00    6.57
   0   6   1  111.50    9.10
   0  -6  -1  109.84   10.56
   0   6   2   57.01    7.62
   0  -6  -2   38.50    3.60
   0  -6  -2   56.98    7.59
   0  -6  -3   35.02    6.13
   0   6   3   41.88    6.21
   0  -6  -3   25.00    3.54
   0  -6  -4    1.14    1.50
   0   6   4    0.04    0.23
   0  -6  -4    0.36    0.75
   0  -6  -5   54.66    6.87
   0  -6  -5   40.20    7.00
   0  -6  -6  286.29   17.62
   0  -6  -6  156.83   14.77
   0   6   7   28.99    6.90
   0  -6  -7   16.32    6.14
   0   6   8   -0.60    0.74
   0   6   9    4.59    3.19
   0   6  10   73.56   13.23
   0   6  11    4.42    3.66
   0  -7   8    0.09    0.47
   0  -7   7    1.19    2.14
   0  -7   6   19.66    3.77
   0  -7   6   13.49    4.42
   0  -7   5   59.04    5.93
   0  -7   5   51.05    8.35
   0  -7   4    2.97    1.07
   0  -7   4    1.02    0.92
   0  -7   3   17.35    4.64
   0  -7   3   14.77    3.47
   0  -7   3   13.53    1.97
   0  -7   2   26.11    2.70
   0  -7   2   24.46    1.95
   0  -7   1   -1.42    2.07
   0  -7   0    6.80    2.62
   0   7   0    6.25    1.68
   0  -7  -1   20.41    5.11
   0   7   1   20.15    3.80
   0   7   2   57.88    8.12
   0  -7  -2   48.93    7.90
   0  -7  -3    6.85    3.03
   0   7   3    6.82    3.25
   0  -7  -3    4.39    1.52
   0  -7  -4   45.86    7.81
   0  -7  -4   39.42    5.14
   0  -7  -5  216.81   18.09
   0  -7  -5  256.19   14.96
   0  -7  -6   47.04    7.19
   0  -7  -6   29.41    6.88
   0  -7  -7   59.14   11.69
   0   7   7  136.63   16.02
   0   7   8    1.20    1.65
   0  -7  -8    0.88    2.74
   0   7   9   24.30    7.41
   0   7  10    9.21    4.67
   0   7  11   28.66    8.89
   0  -8   8    5.33    3.80
   0  -8   7   -1.16    2.51
   0  -8   6   31.93    7.81
   0  -8   5    4.21    2.82
   0  -8   4   21.36    5.68
   0  -8   3   24.66    6.05
   0  -8   2   10.91    3.84
   0  -8   1   14.61    4.46
   0  -8   0    1.95    1.81
   0   8   0    0.76    0.53
   0   8   1    0.99    0.63
   0  -8  -1    1.57    1.48
   0  -8  -2   19.19    5.40
   0   8   2   27.06    5.04
   0   8   3  139.90   14.25
   0  -8  -3  104.88   12.36
   0  -8  -4    7.77    2.23
   0  -8  -4    3.96    3.07
   0   8   5   79.27   10.89
   0  -8  -5   34.97    7.72
   0  -8  -6   25.09    7.17
   0   8   6  107.46   14.04
   0  -8  -7   17.23    7.26
   0   8   7   63.19   11.12
   0  -8  -8    5.53    3.88
   0   8   8   21.17    6.71
   0   8   9   52.56   11.67
   0   8  10   47.33   11.14
   0   8  11   22.67    8.18
   0  -9   6    2.47    2.53
   0  -9   5    3.26    2.58
   0  -9   4   50.88    9.95
   0  -9   3    3.62    2.40
   0  -9   2    8.41    3.55
   0  -9   1    1.18    1.75
   0  -9   0    5.31    3.05
   0  -9  -1    7.96    3.75
   0  -9  -2    6.60    3.83
   0  -9  -3    7.18    4.20
   0  -9  -4    7.87    4.33
   0   9   5    3.37    2.44
   0  -9  -5   -0.65    1.36
   0  -9  -6    1.94    2.64
   0  -9  -7    1.86    2.99
   0  -9  -8    2.05    3.37
   0 -10   2    6.28    3.73
   0 -10   1   18.34    6.21
   0 -10   0   16.93    6.03
   0 -10  -1   14.93    6.09
   0 -10  -2    3.68    3.38
   0 -10  -3   10.35    4.94
   0 -10  -4    0.17    2.60
   0 -10  -5    0.27    1.45
   0 -10  -6   -1.28    1.72
   0 -10  -7    2.04    3.38
   1 -10  -7   -0.39    1.07
   1 -10  -6   -4.54    5.98
   1 -10  -5    5.04    7.56
   1 -10  -4    4.63    5.29
   1 -10  -3    0.48    1.70
   1 -10  -2    2.22    2.29
   1 -10  -1   10.70    6.72
   1 -10   0   33.11   10.00
   1 -10   1    1.81    2.50
   1  -9  -7   -4.15    6.43
   1  -9  -6   -2.38    1.94
   1  -9  -5    4.21    4.06
   1  -9  -4    2.32    2.24
   1  -9  -3    4.23    3.87
   1  -9  -2    1.69    2.79
   1  -9  -1   13.62    6.07
   1  -9   0    2.03    2.74
   1  -9   1    1.47    0.99
   1  -9   2    4.05    3.19
   1  -9   3   18.58    6.37
   1  -9   4    1.84    1.85
   1  -9   5   -0.21    1.61
   1  -9   6    0.38    0.91
  -1   8   9    7.96    4.48
  -1   8   8  121.97   16.29
  -1   8   7    0.23    1.56
   1  -8  -7    0.81    1.86
  -1   8   6    0.12    0.07
   1  -8  -6   -1.57    3.65
   1  -8  -5   -2.60    3.15
  -1   8   5    1.92    2.11
   1  -8  -4    4.54    3.56
  -1   8   4   16.34    3.87
   1  -8  -3    8.33    4.54
  -1   8   3   33.07    6.13
   1  -8  -2   -1.78    2.05
  -1   8   2    1.47    0.93
   1  -8  -1    3.64    2.85
   1  -8   0    8.77    4.28
   1  -8   1    8.70    4.06
   1  -8   2    7.27    3.57
   1  -8   3    8.41    4.42
   1  -8   4   77.74   12.44
   1  -8   5   36.99    9.39
   1  -8   6    0.20    1.21
   1  -8   7   -0.63    1.57
   1  -8   8  -17.29    8.17
  -1   7  11    2.53    1.93
  -1   7  10   30.08    8.89
  -1   7   9   43.75    9.99
   1  -7  -8    0.75    4.35
  -1   7   8   21.15    6.53
  -1   7   7    8.52    3.76
   1  -7  -7    8.63    6.28
  -1   7   6    2.92    2.13
   1  -7  -6  -13.85    6.65
  -1   7   5    2.87    1.98
   1  -7  -5   -2.85    2.71
  -1   7   4    2.15    1.14
   1  -7  -4   -2.59    2.28
  -1   7   3   35.00    5.25
   1  -7  -3   21.97    6.55
   1  -7  -2   35.75    8.00
  -1   7   2   47.33    6.31
   1  -7  -1    0.24    0.76
   1  -7   0    3.31    2.69
   1  -7   1   36.66    7.45
   1  -7   2   12.94    4.58
   1  -7   3    3.09    2.17
   1  -7   4   51.28    3.77
   1  -7   4   45.06    9.04
   1  -7   5   29.00    7.51
   1  -7   6   45.89   10.32
   1  -7   7   -2.28    3.63
   1  -7   8   -3.22    4.77
  -1   6  11   78.01   14.77
  -1   6  10    3.25    2.99
  -1   6   9   16.63    5.95
  -1   6   8   27.04    7.08
   1  -6  -8    3.07    3.74
  -1   6   7  227.10   19.48
   1  -6  -7   93.97   22.63
  -1   6   6    0.69    1.37
   1  -6  -6   -0.19    1.10
   1  -6  -5    0.15    1.37
  -1   6   5    3.48    1.62
   1  -6  -5    2.21    1.65
   1  -6  -4   17.06    3.74
   1  -6  -4   16.27    6.24
  -1   6   4   31.54    5.41
   1  -6  -3   38.78    8.02
  -1   6   3   70.37    7.27
   1  -6  -2    0.87    1.11
  -1   6   2    0.54    0.63
  -1   6   1    2.38    1.04
   1  -6  -1    3.31    2.38
   1  -6   0    0.13    0.28
   1  -6   1    4.76    2.63
   1  -6   2   44.42    7.42
   1  -6   3    8.40    1.70
   1  -6   3    9.90    1.47
   1  -6   3   13.18    4.20
   1  -6   4    0.69    0.73
   1  -6   4    1.36    1.63
   1  -6   4    0.92    0.75
   1  -6   5    5.73    3.01
   1  -6   5    6.70    2.77
   1  -6   5    6.74    2.01
   1  -6   6    2.34    2.47
   1  -6   6    9.38    2.69
   1  -6   7    4.41    3.34
   1  -6   7   10.55    2.91
   1  -6   8    0.84    0.83
   1  -6   8   15.12    3.92
  -1   5  11    5.56    4.11
  -1   5  10    4.41    4.00
  -1   5   9    3.99    3.24
   1  -5  -8   25.88    9.61
  -1   5   8   20.14    5.95
  -1   5   7   39.12    7.53
   1  -5  -6    4.52    1.99
  -1   5   6    7.30    3.27
  -1   5   5  310.41   18.18
   1  -5  -5  285.70   19.43
  -1   5   4    6.20    2.58
   1  -5  -4    5.23    2.48
   1  -5  -4    3.83    2.99
  -1   5   4    6.67    2.66
   1  -5  -3   14.36    4.53
  -1   5   3   19.38    3.62
  -1   5   3   19.98    4.43
   1  -5  -3   12.07    2.72
  -1   5   2    2.03    1.03
  -1   5   2    1.98    1.58
   1  -5  -2    2.71    2.32
  -1   5   1  500.98   22.88
   1  -5  -1  427.79   21.65
   1  -5   0   13.45    3.67
  -1   5   0   12.06    3.75
  -1   5  -1   56.68    7.90
   1  -5   1   45.67    6.81
   1  -5   2   12.11    3.57
   1  -5   3    3.22    1.86
   1  -5   3    1.47    0.91
   1  -5   3    1.78    0.70
   1  -5   4   58.24    7.45
   1  -5   4   49.12    7.65
   1  -5   4   52.91    4.80
   1  -5   5   52.94    8.39
   1  -5   5   40.06    4.78
   1  -5   5   35.87    6.89
   1  -5   6   16.74    5.26
   1  -5   6   24.32    4.16
   1  -5   6   26.14    6.65
   1  -5   7    5.81    4.21
   1  -5   7    7.67    4.09
   1  -5   7    5.19    2.13
   1  -5   8   -0.19    1.98
   1  -5   8    3.74    2.09
   1  -5   9    7.21    5.50
   1  -5   9    3.70    2.17
   1  -5  10   14.40    4.56
   1  -5  11    2.21    2.46
  -1   4  11   18.11    6.83
  -1   4  10    1.71    2.20
  -1   4   9   -0.12    1.07
   1  -4  -8    1.26    0.71
  -1   4   8    0.63    0.73
   1  -4  -7  278.28   28.87
  -1   4   7  412.55   23.54
   1  -4  -6  141.89   15.01
  -1   4   6  125.95   11.83
  -1   4   5    5.69    2.20
   1  -4  -5    6.38    3.43
   1  -4  -5    2.55    1.59
  -1   4   5    2.94    1.55
   1  -4  -4   52.52    9.52
   1  -4  -4   49.19    6.82
  -1   4   4   65.38    7.09
  -1   4   4   59.06    6.95
  -1   4   3    0.22    0.59
   1  -4  -3    1.32    1.10
  -1   4   3    0.52    0.80
  -1   4   2  232.60   10.15
  -1   4   2  258.24   14.24
  -1   4   1  371.44    9.95
  -1   4   1  523.69   20.46
  -1   4   0  103.50    9.61
  -1   4  -1    2.99    1.82
   1  -4   2  180.32    5.71
   1  -4   2  172.54    7.35
   1  -4   2  216.23   13.37
  -1   4  -2  204.77   15.02
   1  -4   3  471.69   12.35
   1  -4   3  504.45   18.33
  -1   4  -3  530.40   21.98
   1  -4   3  527.05   21.47
   1  -4   4  114.62   10.37
   1  -4   4  120.25   11.04
   1  -4   4   95.79    6.60
   1  -4   5    3.10    2.05
   1  -4   5    2.91    1.34
   1  -4   5    4.30    2.61
   1  -4   6   69.80    9.47
   1  -4   6   91.60    8.23
   1  -4   7   30.25    7.60
   1  -4   7   62.59   11.62
   1  -4   7   46.82    6.42
   1  -4   8    3.35    2.01
   1  -4   8   -2.68    2.83
   1  -4   9   -1.06    1.32
   1  -4   9   -0.41    2.41
   1  -4  10   93.40   11.61
   1  -4  11  121.81   14.41
  -1   3  11    0.62    1.02
  -1   3  10   -0.44    1.24
  -1   3   9    0.82    0.95
  -1   3   8   75.17   10.45
  -1   3   7   14.32    4.34
   1  -3  -7   16.44    2.65
  -1   3   6   36.13    4.05
   1  -3  -6   63.23   10.42
  -1   3   6   59.36    8.01
   1  -3  -6   63.84   10.20
  -1   3   5  323.63   17.08
   1  -3  -5  350.30   20.88
  -1   3   5  292.76   12.04
  -1   3   4   41.78    4.90
   1  -3  -4   41.29    9.32
  -1   3   4   46.82    5.87
   1  -3  -4   33.98    6.07
  -1   3   3   11.38    2.65
  -1   3   3   13.67    2.97
   1  -3  -3   10.01    2.83
   1  -3  -3   20.22    5.36
  -1   3   2   61.29    6.14
  -1   3   2   49.47    4.50
   1  -3  -2   46.84    4.81
   1  -3  -2   59.73    7.60
   1  -3  -1   11.16    3.04
  -1   3   1   12.48    2.94
  -1   3   1    7.72    1.32
  -1   3   0  697.58   22.02
   1  -3   1 1564.30   32.30
  -1   3  -1 1731.53   33.48
   1  -3   2  977.54   18.97
   1  -3   2 1192.43   28.41
  -1   3  -2 1250.74   29.75
   1  -3   2 1049.29   15.19
   1  -3   3   25.24    2.96
  -1   3  -3   34.72    5.08
   1  -3   3   31.54    4.83
  -1   3  -3   29.40    4.62
   1  -3   3   30.27    4.52
   1  -3   4  137.30   10.58
   1  -3   4  146.32   12.01
  -1   3  -4  161.89   13.08
   1  -3   5  442.63   21.29
   1  -3   5  575.71   27.07
   1  -3   5  424.99   15.88
  -1   3  -5  607.77   29.40
   1  -3   6    1.42    0.84
   1  -3   6    2.80    2.50
  -1   3  -6    3.14    2.22
   1  -3   6    0.15    0.66
  -1   3  -7    2.79    1.88
   1  -3   7    2.74    1.52
   1  -3   7    2.50    2.30
   1  -3   7   -0.55    1.98
   1  -3   8   -0.84    1.07
   1  -3   8    1.62    2.51
   1  -3   9   98.73   11.06
   1  -3   9   12.31    7.66
   1  -3  10    5.30    2.81
   1  -3  11   14.95    5.13
   1  -3  12   10.64    4.53
  -1   2  11   -3.34    2.72
  -1   2  10    9.84    3.99
  -1   2   9    5.15    3.12
  -1   2   8    2.38    2.02
  -1   2   7    1.24    0.89
   1  -2  -6   58.20    9.57
  -1   2   6   64.76    8.34
  -1   2   5   11.48    2.14
  -1   2   5   21.19    4.45
   1  -2  -5   24.30    6.19
   1  -2  -5   16.89    2.90
  -1   2   4  143.29   10.21
   1  -2  -4  140.98   12.34
  -1   2   3   13.70    2.90
  -1   2   3    8.95    2.32
   1  -2  -3   14.44    3.83
   1  -2  -3    9.40    4.88
  -1   2   2  285.17   11.88
  -1   2   2  336.42   11.76
   1  -2  -2  270.36   11.44
   1  -2  -2  341.42   20.04
  -1   2   1  330.65    9.19
  -1   2   1  305.72   10.33
  -1   2   1  345.90   14.13
  -1   2   0    6.13    1.78
  -1   2  -1   -0.12    0.27
   1  -2   1    0.85    0.92
  -1   2  -2 1030.39   22.80
   1  -2   2 1070.31   25.13
  -1   2  -2  914.16   15.88
   1  -2   2  928.18   15.13
  -1   2  -3  625.83   17.41
   1  -2   3  618.14   14.94
  -1   2  -4    2.31    1.51
   1  -2   4    4.30    2.41
   1  -2   4    1.95    0.83
  -1   2  -4    2.55    1.23
  -1   2  -5   40.45    6.42
   1  -2   5   36.64    4.78
   1  -2   5   29.77    5.99
  -1   2  -6   42.01    7.35
   1  -2   6   36.08    5.19
   1  -2   7    0.07    0.40
   1  -2   7    0.15    1.29
  -1   2  -7    1.06    1.39
   1  -2   7    2.77    2.94
   1  -2   8   20.50    4.71
   1  -2   8    2.92    3.67
   1  -2   9   20.85    4.92
   1  -2   9   22.20    5.38
   1  -2  10   15.12    4.88
   1  -2  11   72.13   11.14
   1  -2  12    2.32    2.54
  -1   1  11    4.00    3.05
  -1   1  10   -0.04    1.31
  -1   1   9   21.75    5.94
  -1   1   8   71.71   10.00
  -1   1   7  415.38   22.53
   1  -1  -6   92.97   11.60
  -1   1   6   79.75   11.13
  -1   1   6   88.20    9.78
   1  -1  -5   95.89   10.71
  -1   1   5   40.23    3.63
  -1   1   4 1208.81   24.23
  -1   1   4 1271.00   37.80
  -1   1   3 1012.41   25.84
  -1   1   3  812.84   25.66
   1  -1  -3  918.74   17.03
  -1   1   3  958.93   23.72
   1  -1  -3  891.36   25.66
  -1   1   2   60.38    5.84
  -1   1   2   76.77    6.00
  -1   1   2   77.23    8.03
  -1   1   1 2712.71   45.30
  -1   1   1 2642.44   29.68
  -1   1   0 1238.15   16.19
   1  -1   0 1230.26   16.56
  -1   1  -1  294.19    7.54
   1  -1   1  283.95    8.05
   1  -1   2  430.43   11.04
   1  -1   2  434.66   18.15
  -1   1  -2  440.68   10.88
  -1   1  -3  384.15   11.79
  -1   1  -3  373.68   12.81
   1  -1   3  407.69   12.56
  -1   1  -4  251.81   12.78
   1  -1   4  275.96   11.89
  -1   1  -4  256.55    9.39
  -1   1  -5    1.17    1.14
   1  -1   5    0.39    0.09
   1  -1   5    1.88    1.79
   1  -1   6    3.97    1.83
  -1   1  -6    2.91    2.19
  -1   1  -7   50.04    9.09
   1  -1   7   46.23    6.65
   1  -1   7   33.25    6.32
   1  -1   8  115.89   11.43
   1  -1   8   76.23    4.26
   1  -1   9   12.79    3.93
   1  -1  10   64.61    9.91
   1  -1  11    4.18    3.15
   1  -1  12    0.54    1.12
  -1   0  11   -0.05    1.10
  -1   0  10   22.21    6.27
  -1   0   9   62.84    9.81
  -1   0   8    3.79    2.44
  -1   0   7   41.86    7.14
  -1   0   6  217.85   14.93
   1   0  -6  205.14   16.72
  -1   0   6  217.74   19.19
  -1   0   5 2451.77   35.41
  -1   0   5 2810.37   48.87
  -1   0   4  390.65    9.23
  -1   0   4  380.71   17.10
  -1   0   3 1293.53   16.82
  -1   0   3 1279.70   28.41
  -1   0   2 8918.22   45.03
  -1   0   2 9999.00   83.54
  -1   0   1 1191.94   15.19
   1   0  -1 1089.03   22.91
  -1   0   0  254.93    7.17
   1   0   0  140.26    6.90
   1   0   1 1635.09   21.71
   1   0   1 1651.83   18.88
   1   0   2    0.30    0.39
  -1   0  -2   -0.19    1.01
  -1   0  -2    0.68    0.53
   1   0   2    0.51    0.16
  -1   0  -3   99.57    6.55
   1   0   3   82.24    4.68
   1   0   3   93.18    6.31
  -1   0  -3   79.44    6.40
   1   0   4    6.15    1.87
  -1   0  -4    4.49    0.99
   1   0   4    6.05    1.09
  -1   0  -4    5.69    1.89
   1   0   5    9.57    1.26
   1   0   5   10.46    2.63
  -1   0  -5   10.45    3.12
   1   0   6    5.23    1.90
  -1   0  -6    8.13    3.07
   1   0   7   -1.04    1.52
  -1   0  -7   -0.13    0.78
   1   0   8   -0.67    0.72
   1   0   9   72.01    9.96
   1   0  10   92.84   12.16
   1   0  11    9.13    4.29
   1   0  12    0.72    1.68
  -1  -1  11   36.38    8.51
  -1  -1  10    1.14    1.52
  -1  -1   9   46.94    8.60
  -1  -1   8   65.07    9.36
  -1  -1   7   60.69    4.00
  -1  -1   7   95.84    4.98
  -1  -1   6  167.27   18.57
  -1  -1   6  133.61   11.79
  -1  -1   5    1.87    2.45
  -1  -1   5    1.84    1.58
  -1  -1   4  147.30   13.81
  -1  -1   4  125.07   10.04
  -1  -1   3  278.25   16.73
  -1  -1   3  279.64   13.93
   1   1  -2 3426.17   48.18
  -1  -1   2 3391.95   50.94
  -1  -1   2 3548.47   42.32
  -1  -1   1  748.81   20.72
   1   1  -1  724.94   19.88
   1   1   0  487.29   15.35
   1   1   1 1369.67   22.98
   1   1   2   -0.06    0.23
   1   1   3  171.65    9.21
   1   1   4   17.85    3.29
  -1  -1  -4   11.90    1.25
   1   1   5  266.63   14.24
   1   1   6    1.50    0.95
   1   1   7   30.17    5.63
  -1  -1  -7   28.93    6.15
   1   1   8   27.73    5.99
   1   1   9    1.32    1.93
   1   1  10   10.24    4.28
   1   1  11   85.48   12.83
   1   1  12   23.36    7.36
  -1  -2  11    0.90    1.15
  -1  -2  10   10.44    4.20
  -1  -2   9    0.28    0.56
  -1  -2   8   58.40    5.09
  -1  -2   8  171.86   15.18
  -1  -2   7  134.19    7.53
  -1  -2   7  191.15   14.89
  -1  -2   6    1.83    2.39
  -1  -2   6   -0.11    0.83
  -1  -2   6    0.85    0.63
  -1  -2   5   11.03    3.25
  -1  -2   5   19.48    5.96
  -1  -2   4   49.86    8.40
  -1  -2   4   33.40    5.34
   1   2  -3   72.93    7.96
  -1  -2   3   78.19    7.66
  -1  -2   3   76.73    9.23
  -1  -2   2    0.69    0.60
   1   2  -2    1.00    0.67
   1   2  -1 1776.11   32.92
  -1  -2   1 1859.54   36.21
  -1  -2   0 3929.21   49.03
   1   2   0 4218.45   49.99
   1   2   1   36.19    4.60
  -1  -2  -1   31.66    3.77
  -1  -2  -2  365.60   12.39
   1   2   2  371.37   13.44
   1   2   3   33.73    4.34
  -1  -2  -3   35.71    4.30
   1   2   4 1186.71   28.76
  -1  -2  -4 1018.27   24.51
   1   2   5  140.64   10.87
  -1  -2  -5  126.48    9.93
  -1  -2  -6    0.08    0.96
   1   2   6    1.26    1.10
   1   2   7    0.23    1.07
  -1  -2  -7    0.23    0.91
   1   2   8   33.83    6.78
   1   2   9   86.82   11.52
   1   2  10    1.02    1.85
   1   2  11   26.90    7.40
   1   2  12   26.05    7.77
  -1  -3  11    1.77    1.69
  -1  -3  10   22.96    6.11
  -1  -3   9   26.40    6.32
  -1  -3   8    4.82    1.91
  -1  -3   8    7.55    3.23
  -1  -3   7   32.21    4.41
  -1  -3   7   35.98    6.43
  -1  -3   6  239.58   12.06
  -1  -3   6  265.18   16.34
  -1  -3   5   33.59    5.50
  -1  -3   5   26.06    4.35
  -1  -3   4    4.93    2.09
  -1  -3   4    5.80    2.91
  -1  -3   4    3.70    1.53
  -1  -3   3   36.87    6.66
   1   3  -3   42.35    6.07
  -1  -3   3   43.46    5.91
   1   3  -2  693.77   23.74
  -1  -3   2  589.71   23.76
  -1  -3   1  174.26   12.34
   1   3  -1  158.74   10.42
   1   3   0  122.39    9.41
  -1  -3   0  129.12   10.04
  -1  -3  -1  570.29   17.27
   1   3   1  641.24   22.58
   1   3   2  103.25    8.33
  -1  -3  -2   93.84    6.55
  -1  -3  -3  246.84   11.51
   1   3   3  282.32   13.97
  -1  -3  -4    6.22    1.97
   1   3   4    7.70    2.41
  -1  -3  -4    5.13    1.64
  -1  -3  -5   16.58    3.76
   1   3   5   18.05    4.14
  -1  -3  -5   13.78    2.35
   1   3   6  207.27   15.06
  -1  -3  -6  189.41   13.59
  -1  -3  -7    1.12    0.87
  -1  -3  -7    5.12    2.76
   1   3   7    5.87    2.73
   1   3   8    3.81    2.56
   1   3   9   11.30    4.36
   1   3  10    2.49    2.04
   1   3  11   11.07    4.81
   1   3  12   43.05   10.41
  -1  -4  11    0.60    1.44
  -1  -4  10    2.75    2.27
  -1  -4   9    0.27    0.45
  -1  -4   8    2.09    1.43
  -1  -4   8    6.26    2.99
  -1  -4   7   11.24    3.51
  -1  -4   7    4.47    1.95
  -1  -4   6   17.97    6.50
  -1  -4   6   11.98    3.34
  -1  -4   6   14.14    3.18
  -1  -4   5    0.38    0.91
  -1  -4   5   -0.32    0.88
  -1  -4   5    0.67    0.79
  -1  -4   4    1.96    1.36
  -1  -4   4    3.19    1.74
  -1  -4   4    1.90    1.91
  -1  -4   3    1.65    0.95
   1   4  -3    3.32    1.72
  -1  -4   3    2.06    1.64
  -1  -4   3    3.46    1.59
   1   4  -2   31.80    5.17
  -1  -4   2   29.44    4.30
  -1  -4   2   32.40    6.21
  -1  -4   1   64.04    7.84
   1   4  -1   51.43    6.20
   1   4   0   57.10    6.83
  -1  -4   0   58.58    6.88
  -1  -4  -1  186.37    9.96
   1   4   1  230.87   15.11
  -1  -4  -2  162.62    8.89
  -1  -4  -2  166.74    9.50
   1   4   2  167.51   11.34
  -1  -4  -3   53.47    5.68
   1   4   3   60.76    7.00
  -1  -4  -3   55.90    5.55
   1   4   4    1.98    1.42
  -1  -4  -4    0.55    0.91
  -1  -4  -4    0.59    0.78
   1   4   5   44.64    6.73
  -1  -4  -5   42.04    5.97
  -1  -4  -5   39.33    4.61
  -1  -4  -6  420.80   20.18
   1   4   6  475.38   23.60
  -1  -4  -7   32.43    6.42
  -1  -4  -7   13.63    2.88
   1   4   7   36.01    7.06
  -1  -4  -8   18.05    5.03
   1   4   8   44.90    8.51
   1   4   9  100.85   13.50
   1   4  10   22.09    6.50
   1   4  11    1.31    1.78
   1   4  12   16.62    6.48
  -1  -5  10   29.72    6.75
  -1  -5   9   23.20    5.51
  -1  -5   8    0.29    0.97
  -1  -5   8    1.17    0.92
  -1  -5   7    5.02    2.72
  -1  -5   7    7.76    2.76
  -1  -5   6    3.71    2.02
  -1  -5   6    7.27    2.59
  -1  -5   5    1.57    1.05
  -1  -5   5    1.23    0.71
  -1  -5   5    0.73    0.86
  -1  -5   4   19.09    4.11
  -1  -5   4   15.32    3.52
  -1  -5   4   20.32    5.97
  -1  -5   3   45.35    6.41
  -1  -5   3   48.60    8.66
   1   5  -3   48.63    6.67
  -1  -5   3   43.29    5.81
  -1  -5   2   16.91    4.61
   1   5  -2   14.02    3.54
  -1  -5   2   11.42    2.78
  -1  -5   2   15.88    3.71
  -1  -5   1  180.42   12.15
   1   5  -1  178.56   11.90
  -1  -5   1  209.88   15.55
   1   5   0   39.54    5.92
   1   5   1   60.84    7.99
  -1  -5  -1   53.36    5.20
  -1  -5  -2  135.57    8.31
   1   5   2  155.29   13.35
   1   5   3   18.81    4.19
  -1  -5  -3   15.91    2.96
  -1  -5  -4    4.52    1.78
   1   5   4    6.85    2.75
   1   5   5   83.80    9.97
  -1  -5  -5   66.50    7.39
  -1  -5  -6   11.59    2.90
  -1  -5  -6   10.07    3.45
   1   5   6   16.42    4.55
  -1  -5  -7  194.88   12.38
   1   5   7  454.81   25.75
  -1  -5  -8   28.50    5.71
   1   5   8   92.23   12.62
  -1  -5  -9    5.00    3.36
   1   5   9    5.14    3.12
   1   5  10   26.36    7.63
   1   5  11    3.64    3.19
   1   5  12    2.90    3.31
  -1  -6  10    2.10    1.84
  -1  -6   9    4.05    2.56
  -1  -6   8    2.24    2.18
  -1  -6   8    0.86    0.88
  -1  -6   7   35.96    6.64
  -1  -6   7   53.54    7.58
  -1  -6   6    0.36    0.36
  -1  -6   6   -0.85    1.27
  -1  -6   5    1.48    0.75
  -1  -6   5    6.15    3.66
  -1  -6   5    3.63    2.03
  -1  -6   4    0.53    0.67
  -1  -6   4   -0.22    0.49
  -1  -6   4   -0.17    0.57
   1   6  -3   21.42    4.46
  -1  -6   3   15.04    4.08
  -1  -6   3   17.94    5.30
  -1  -6   3   15.91    3.24
  -1  -6   2  115.09    9.51
   1   6  -2  124.47   10.68
  -1  -6   2  120.29   12.92
  -1  -6   2  108.93   10.19
   1   6  -1  101.65    9.52
  -1  -6   1  100.95    9.71
  -1  -6   1  106.42   10.48
  -1  -6   0   53.92    7.01
   1   6   0   44.74    6.27
  -1  -6   0   47.63    5.44
   1   6   1   10.75    3.37
  -1  -6  -1    9.07    2.05
  -1  -6  -1    9.06    2.84
  -1  -6  -2   20.32    3.17
  -1  -6  -2   19.20    4.16
   1   6   2   25.53    5.99
  -1  -6  -3   45.27    5.02
  -1  -6  -3   44.84    6.27
   1   6   4    0.10    0.98
  -1  -6  -4    0.23    0.67
  -1  -6  -4    0.97    1.10
  -1  -6  -5  166.68   11.58
  -1  -6  -5  182.78   12.76
   1   6   5  192.69   16.05
  -1  -6  -6   61.27    7.58
  -1  -6  -6   62.86    8.00
   1   6   6   77.24   10.82
   1   6   7   21.06    5.75
   1   6   8   84.77   12.72
   1   6   9    3.86    3.06
   1   6  10    1.92    2.43
   1   6  11    5.45    3.71
  -1  -7   8    5.05    3.22
  -1  -7   7    2.06    1.35
  -1  -7   7    3.98    2.57
  -1  -7   6   14.97    3.63
  -1  -7   6   10.46    3.56
  -1  -7   5    5.39    2.66
  -1  -7   5    6.24    2.21
  -1  -7   4   -1.00    1.51
  -1  -7   4    0.57    0.66
  -1  -7   4   -0.29    1.17
  -1  -7   3    2.16    1.28
  -1  -7   3    0.29    1.31
  -1  -7   3    2.01    2.04
  -1  -7   2    2.12    0.47
  -1  -7   2    3.89    1.46
  -1  -7   2    2.87    1.84
   1   7  -2    3.77    1.74
  -1  -7   1    9.16    2.92
  -1  -7   1    8.32    1.91
   1   7  -1    8.23    2.59
  -1  -7   0  443.68   21.75
   1   7   0  460.92   20.49
  -1  -7  -1   55.80    4.78
  -1  -7  -1   78.92    9.20
   1   7   1   79.34    9.51
   1   7   2  428.35   24.41
  -1  -7  -2  388.36   20.26
  -1  -7  -3  165.16   13.23
   1   7   3  193.09   18.26
  -1  -7  -4  677.75   21.40
  -1  -7  -4  740.49   28.31
  -1  -7  -5  104.97    9.30
  -1  -7  -5  102.96   10.79
  -1  -7  -6   38.82    6.25
  -1  -7  -6   34.14    6.25
   1   7   7   37.37    8.37
  -1  -7  -7   11.98    3.82
   1   7   8   19.76    6.45
  -1  -7  -8    6.44    3.50
   1   7   9   89.17   14.63
   1   7  10   11.13    5.23
   1   7  11   16.16    6.70
  -1  -8   7   12.55    4.69
  -1  -8   6   24.78    6.09
  -1  -8   5    2.96    1.68
  -1  -8   4   18.49    5.13
  -1  -8   4   25.45    3.79
  -1  -8   3   31.34    3.98
  -1  -8   3   27.16    5.98
  -1  -8   2   24.24    3.20
  -1  -8   2   30.77    6.60
  -1  -8   1    3.55    1.99
   1   8  -1    2.42    1.48
  -1  -8   1    1.02    0.66
  -1  -8   1    1.41    0.72
  -1  -8   0   56.51    4.35
  -1  -8   0   82.44   10.31
   1   8   0   84.78    8.43
   1   8   1   85.41    9.55
  -1  -8  -1   76.62    9.91
  -1  -8  -2    2.10    2.16
  -1  -8  -2    2.15    1.02
   1   8   2   -0.07    0.77
  -1  -8  -3   60.97    5.60
   1   8   3   82.32   12.23
  -1  -8  -3   65.47    9.29
  -1  -8  -4  148.87   14.12
  -1  -8  -4  130.44    9.13
  -1  -8  -5  102.05   11.98
  -1  -8  -5   87.46    8.60
  -1  -8  -6  233.16   15.31
  -1  -8  -6  165.91   15.07
   1   8   7   75.26   12.92
  -1  -8  -7   23.60    6.43
  -1  -8  -8   15.01    5.47
   1   8   8   57.41   11.59
   1   8   9    1.92    2.86
   1   8  10   17.19    6.95
   1   8  11   31.50   10.03
  -1  -9   6    4.50    3.13
  -1  -9   5   11.17    4.40
  -1  -9   4    3.18    2.48
  -1  -9   3   64.48   10.33
  -1  -9   2   32.74    7.28
  -1  -9   1    0.94    0.98
  -1  -9   0   -0.05    0.24
  -1  -9  -1   -0.06    0.61
   1   9   1    1.65    1.26
   1   9   2   -0.36    1.29
  -1  -9  -2   -1.09    1.99
  -1  -9  -3    3.06    2.45
   1   9   3    3.78    2.77
  -1  -9  -4   33.82    7.50
   1   9   4   42.70    9.76
   1   9   5   11.17    5.10
  -1  -9  -5    3.37    2.65
  -1  -9  -6   13.46    4.90
   1   9   6   38.87   10.20
  -1  -9  -7    4.99    3.25
   1   9   7   17.47    6.34
   1   9   8    0.56    1.37
  -1  -9  -8    2.32    2.52
   1   9   9   90.79   16.35
  -1 -10   3    4.81    3.20
  -1 -10   2   32.05    7.75
  -1 -10   1   31.97    7.82
  -1 -10   0    7.10    3.74
  -1 -10  -1    9.64    4.48
  -1 -10  -2    3.08    2.35
  -1 -10  -3    1.25    2.24
  -1 -10  -4    9.49    4.45
  -1 -10  -5   13.04    5.30
  -1 -10  -6    2.84    2.64
  -1 -10  -7    0.66    0.93
  -1 -10  -8    2.58    1.93
  -1 -11  -3    6.77    3.86
  -1 -11  -4    6.50    4.28
  -1 -11  -5    8.92    5.00
  -1 -11  -6    5.75    4.18
  -1 -11  -7    3.22    4.58
   2 -10  -5   -3.28    4.78
   2 -10  -4    2.13    1.23
   2 -10  -3   -4.77    7.52
   2 -10  -2   -2.07    2.99
   2 -10  -1    8.61    6.95
   2  -9  -7  -11.90   16.30
   2  -9  -6  -14.11   14.95
   2  -9  -5   21.13    9.73
   2  -9  -4   -4.51    7.88
   2  -9  -3   -2.39    4.55
   2  -9  -2    6.67    5.27
   2  -9  -1    1.56    2.49
   2  -9   0    4.87    5.02
   2  -9   1    6.61    5.08
   2  -9   2   11.45    6.60
   2  -9   3    0.01    1.36
   2  -9   4   12.82    7.53
   2  -8  -7  -18.61   15.85
   2  -8  -6  -15.03   11.32
   2  -8  -5    1.35    3.09
   2  -8  -4   -3.03    4.96
   2  -8  -3   -1.14    3.06
   2  -8  -2   -0.35    2.83
   2  -8  -1   63.96   14.70
   2  -8   0    2.02    3.43
   2  -8   1    4.11    3.86
   2  -8   2   42.01   10.77
   2  -8   3    1.90    2.86
   2  -8   4  131.23   20.79
   2  -8   5    4.28    4.22
   2  -8   6   -2.53    4.20
   2  -8   7    1.48    3.91
   2  -8   8   -0.59    2.51
  -2   7  10    9.76    5.08
  -2   7   9   12.16    5.57
  -2   7   8    2.45    2.18
   2  -7  -7    6.39    8.25
  -2   7   7   64.89   10.84
  -2   7   6    0.95    1.40
   2  -7  -6   -9.85    8.76
   2  -7  -5    5.43    5.88
  -2   7   5    0.63    0.95
   2  -7  -4   -4.21    5.57
  -2   7   4    1.72    1.46
   2  -7  -3    0.63    1.89
  -2   7   3    7.30    2.27
  -2   7   3    5.60    1.95
  -2   7   2    0.77    0.81
   2  -7  -2    0.47    1.73
  -2   7   2    1.26    0.77
   2  -7  -1   34.47   10.14
   2  -7   0   97.33   15.77
   2  -7   1  264.10   25.18
   2  -7   2  161.13   19.43
   2  -7   3  234.98   24.08
   2  -7   4    7.29    4.35
   2  -7   5   -2.45    4.06
   2  -7   6    0.05    2.53
   2  -7   7   -2.39    5.84
   2  -7   8    1.53    4.43
  -2   6  10    2.40    2.58
  -2   6   9    1.71    2.48
   2  -6  -8   13.71    7.25
  -2   6   8    0.72    1.77
  -2   6   7   53.95    9.41
   2  -6  -6  -21.40   12.78
  -2   6   6    0.53    1.63
  -2   6   5   24.45    5.46
  -2   6   5   19.19    4.94
   2  -6  -4    9.54    6.83
  -2   6   4   20.74    4.67
  -2   6   3    0.32    0.89
  -2   6   3    0.31    1.27
   2  -6  -3    0.29    1.44
  -2   6   2   -0.44    0.64
   2  -6  -2   -2.28    2.75
  -2   6   2    0.44    0.71
   2  -6  -1   -0.28    1.72
   2  -6   0    3.22    3.03
   2  -6   1   17.15    6.65
   2  -6   2   63.09   11.66
   2  -6   3   26.79    8.00
   2  -6   4   65.39   12.25
   2  -6   5   55.29   12.00
   2  -6   5   60.03    5.67
   2  -6   6    3.18    2.46
   2  -6   6    9.96    2.46
   2  -6   7    4.86    2.01
   2  -6   7    3.24    1.18
   2  -6   8    5.04    5.35
   2  -6   9    3.60    2.78
  -2   5  10   18.61    6.73
  -2   5   9   10.57    4.95
  -2   5   8   32.46    7.81
  -2   5   7    3.20    2.17
   2  -5  -7   23.17    9.64
  -2   5   6  141.55   12.33
   2  -5  -6   75.78   22.89
  -2   5   5   61.85    8.61
  -2   5   5   66.65    8.63
  -2   5   5   60.21    9.12
  -2   5   4    3.40    1.79
   2  -5  -4    7.29    6.70
  -2   5   4    0.53    0.17
  -2   5   3    1.99    1.20
  -2   5   3    1.46    1.52
  -2   5   3    2.38    1.26
   2  -5  -3    1.03    2.29
   2  -5  -2    0.88    1.97
  -2   5   2    2.51    1.95
  -2   5   2    2.61    1.30
  -2   5   2    3.91    1.32
  -2   5   1    0.21    0.28
   2  -5  -1    1.65    2.08
  -2   5   1    0.01    0.45
  -2   5   1   -0.15    0.32
   2  -5   0    3.56    3.64
  -2   5   0    2.33    2.17
   2  -5   1    9.31    4.60
  -2   5  -1    7.53    3.37
   2  -5   2   18.16    5.95
   2  -5   3   12.54    5.11
   2  -5   4    7.02    1.99
   2  -5   4    5.34    1.63
   2  -5   4    6.11    3.91
   2  -5   5    1.92    0.97
   2  -5   5    2.42    2.94
   2  -5   5    1.87    1.18
   2  -5   6   16.54    3.40
   2  -5   6    9.82    5.32
   2  -5   7    3.43    1.57
   2  -5   7    1.93    1.31
   2  -5   8    4.75    5.36
   2  -5   8    6.35    2.52
   2  -5   9   -3.39    6.43
   2  -5   9   18.98    4.71
   2  -5  10   45.42    7.80
  -2   4  11   11.47    5.38
  -2   4  10    3.38    3.27
  -2   4   9   19.03    6.15
  -2   4   8   58.61    9.98
   2  -4  -8   77.25    7.26
  -2   4   7   66.07    9.82
  -2   4   7   47.33    6.06
  -2   4   6   59.30    7.16
  -2   4   6   91.61   10.52
  -2   4   5    2.86    1.80
  -2   4   5    3.53    2.10
  -2   4   5    3.62    1.88
  -2   4   4    7.56    2.83
  -2   4   4   13.50    3.51
  -2   4   3  280.37   16.03
  -2   4   3  351.74   15.61
  -2   4   2  108.33    8.60
  -2   4   2  123.07    7.84
  -2   4   1  204.13    8.03
   2  -4  -1  182.52   18.97
  -2   4   1  198.66    9.52
  -2   4   0   23.24    5.12
  -2   4  -1   35.25    6.31
   2  -4   1    0.26    0.10
  -2   4  -2    0.53    0.67
   2  -4   2    0.07    1.16
   2  -4   3    0.73    1.52
   2  -4   3    0.54    0.46
  -2   4  -3    0.16    0.66
   2  -4   3    0.45    0.48
  -2   4  -3    0.38    0.52
   2  -4   4   14.33    5.46
   2  -4   4   16.57    3.56
  -2   4  -4   19.90    4.82
   2  -4   4   11.43    2.49
  -2   4  -4   15.94    3.70
  -2   4  -5   48.00    7.87
   2  -4   5   65.17    8.70
   2  -4   5   37.78    9.38
   2  -4   5   39.80    4.97
  -2   4  -5   64.23    9.38
   2  -4   6   17.75    7.03
   2  -4   6   19.63    3.80
   2  -4   6   29.85    6.90
  -2   4  -7   10.52    3.91
   2  -4   7    4.83    3.95
   2  -4   7   10.38    2.99
   2  -4   7    6.69    3.69
   2  -4   8    0.84    0.96
   2  -4   8   -1.41    4.86
   2  -4   9   77.46    9.82
   2  -4  10    0.22    0.74
   2  -4  11   21.06    5.78
   2  -4  12   63.42   10.60
  -2   3  11    0.15    0.67
  -2   3  10   -1.43    1.31
  -2   3   9  108.06   13.89
  -2   3   8   71.63   10.65
  -2   3   7    0.77    1.79
  -2   3   7    0.64    0.71
   2  -3  -7    1.26    0.77
  -2   3   6   18.01    3.81
  -2   3   6   27.97    6.05
   2  -3  -6   35.66    4.92
  -2   3   5    0.24    0.51
  -2   3   5    1.57    1.36
  -2   3   5    0.78    1.46
  -2   3   4   63.67    7.57
  -2   3   4   52.35    6.70
  -2   3   3  346.51   15.71
  -2   3   3  312.11   17.73
   2  -3  -2   31.99   11.00
  -2   3   2   47.01    5.88
  -2   3   2   78.75    8.48
  -2   3   2   61.45    6.05
  -2   3   1 1116.09   24.09
  -2   3   1 1170.08   22.64
  -2   3   0  416.89   11.88
  -2   3   0  703.18   25.26
  -2   3  -1    5.77    2.36
  -2   3  -1    3.72    0.82
  -2   3  -2    0.97    0.53
  -2   3  -2    1.85    1.34
   2  -3   2    0.53    2.14
  -2   3  -3    0.54    0.57
   2  -3   3    1.13    0.78
  -2   3  -3    1.77    0.91
   2  -3   3    0.51    1.38
   2  -3   4  584.71   18.14
   2  -3   4  601.39   34.32
  -2   3  -5   70.53    8.02
   2  -3   5   43.19   10.25
  -2   3  -5   63.30    7.52
   2  -3   5   52.09    5.91
   2  -3   6    0.33    0.64
   2  -3   6    3.31    3.61
  -2   3  -6   -0.41    0.85
   2  -3   7    0.19    0.93
   2  -3   7   -0.70    1.70
   2  -3   7    2.00    2.98
  -2   3  -7   -0.07    0.90
   2  -3   8   15.79    4.08
   2  -3   9   81.89   10.24
   2  -3   9   42.88   13.80
   2  -3  10    3.92    2.84
   2  -3  11   82.14   11.71
   2  -3  12    4.75    3.10
  -2   2  11   27.63    7.81
  -2   2  10    0.57    0.51
  -2   2   9    3.99    2.39
  -2   2   8   11.85    2.04
  -2   2   8   45.15    8.56
  -2   2   7   31.50    4.14
  -2   2   7  112.74   12.52
  -2   2   6   22.22    4.17
  -2   2   6   57.67    8.64
  -2   2   5  113.71   13.17
  -2   2   5  121.48   11.35
   2  -2  -5  151.29    9.39
  -2   2   4   68.90    7.84
   2  -2  -4   76.55    7.49
  -2   2   4   61.28    7.60
   2  -2  -3  516.30   34.73
  -2   2   3  468.52   21.93
  -2   2   3  546.50   21.24
  -2   2   2   87.36    8.25
  -2   2   2  116.57    9.07
  -2   2   1  403.46   15.30
   2  -2  -1  245.65   30.80
   2  -2   0    0.03    0.29
  -2   2   0    0.67    1.20
  -2   2   0    0.35    0.44
  -2   2  -1    8.14    1.80
   2  -2   1   14.66    2.40
  -2   2  -1   13.25    3.74
  -2   2  -2   62.88    4.92
   2  -2   2   61.09    5.10
  -2   2  -3  100.27    6.57
   2  -2   3   92.95    6.69
  -2   2  -4  198.09   11.00
  -2   2  -4  203.66   12.50
   2  -2   4  193.77   10.48
   2  -2   5    4.65    3.89
  -2   2  -5   13.60    3.10
   2  -2   5   11.32    2.87
  -2   2  -5   14.81    3.52
  -2   2  -6   36.20    5.19
   2  -2   6   29.40    4.94
   2  -2   7    6.89    2.60
  -2   2  -7    5.94    2.92
   2  -2   8   28.97    8.82
   2  -2   8   37.63    6.47
   2  -2   9    6.77    2.94
   2  -2   9    3.69    1.49
   2  -2  10   65.39    9.91
   2  -2  11  120.14   14.43
   2  -2  12    8.58    4.03
  -2   1  11    1.49    2.51
  -2   1  10   58.53   10.68
  -2   1   9   43.34    9.09
  -2   1   8   81.88   11.48
  -2   1   7  170.75   15.53
  -2   1   7   67.89    5.49
  -2   1   6  396.99   17.37
  -2   1   6  411.48   22.39
  -2   1   5   49.47    8.15
  -2   1   5   42.72    8.85
  -2   1   5   49.78    7.36
  -2   1   4  444.29   21.00
  -2   1   4  397.89   30.07
  -2   1   3  225.82   15.52
  -2   1   3  271.28   15.47
  -2   1   2  122.86    9.09
   2  -1  -2  126.99   10.54
   2  -1  -2  148.45    9.00
  -2   1   1  157.67   10.02
  -2   1   1  108.70   18.34
   2  -1   0   39.01    4.59
  -2   1   0   34.17    4.91
  -2   1  -1  597.85   16.78
   2  -1   1  688.47   18.65
  -2   1  -2  258.88   20.07
   2  -1   2  272.87   11.91
  -2   1  -2  276.31   11.38
   2  -1   3  101.41    7.33
  -2   1  -3  112.94    7.68
  -2   1  -4  470.37   16.92
   2  -1   4  435.22   16.31
  -2   1  -5  327.70   14.05
   2  -1   5  279.02   14.23
  -2   1  -5  309.62   15.90
   2  -1   6   55.69    6.93
  -2   1  -6   58.90    5.57
   2  -1   6   53.42    9.52
  -2   1  -6   35.30    6.09
   2  -1   7    2.05    1.81
  -2   1  -7    0.74    1.29
   2  -1   7    0.37    0.65
  -2   1  -7    1.27    0.76
   2  -1   8  108.66   11.26
   2  -1   8  122.39    7.47
   2  -1   9  143.04   13.84
   2  -1  10   14.36    4.77
   2  -1  11    2.24    2.05
   2  -1  12    2.80    1.86
  -2   0  11   56.57   11.10
  -2   0  10   39.96    9.01
  -2   0   9    1.69    2.08
  -2   0   8   59.49    9.80
  -2   0   7  249.70   18.81
  -2   0   7  223.74   16.66
  -2   0   6    5.45    2.82
  -2   0   5  353.46   24.60
  -2   0   5  338.49   19.77
  -2   0   5  365.30   20.76
  -2   0   4  484.67   22.34
  -2   0   4  512.44   16.93
   2   0  -3   42.29    7.02
  -2   0   3   34.64    3.78
  -2   0   3   46.72    7.05
  -2   0   2  129.74   11.12
  -2   0   2  152.75    7.80
   2   0  -2  157.33   12.52
  -2   0   1  135.36    7.14
   2   0  -1  122.57    9.87
   2   0   0    8.49    2.36
  -2   0   0   13.69    2.40
  -2   0   0    7.83    2.30
   2   0   1  334.17   15.12
  -2   0  -1  298.91   13.87
  -2   0  -2 1141.41   25.33
   2   0   2 1092.72   23.14
   2   0   3    9.32    2.38
  -2   0  -3    9.59    2.46
   2   0   3    8.54    1.87
   2   0   4  226.90   12.32
  -2   0  -4  259.30   13.30
   2   0   4  234.47    9.61
  -2   0  -5  391.42   17.48
   2   0   5  374.69   12.21
  -2   0  -6  143.32   11.95
  -2   0  -6  144.44    7.68
   2   0   6  149.37    7.19
   2   0   6  143.02   11.54
  -2   0  -7   18.85    2.41
  -2   0  -7   26.86    5.93
   2   0   7   27.33    5.44
   2   0   8  113.68   11.83
   2   0   9    8.11    3.63
   2   0  10   70.38   10.52
   2   0  11    1.16    1.96
   2   0  12   13.15    5.54
  -2  -1  11   11.36    5.10
  -2  -1  10   10.18    4.63
  -2  -1   9    1.94    1.98
  -2  -1   8    0.77    0.32
  -2  -1   8    2.45    0.94
  -2  -1   7  246.23   10.30
  -2  -1   7  249.73   18.57
  -2  -1   6    1.85    0.94
  -2  -1   6    2.55    1.99
  -2  -1   5   91.85   10.83
  -2  -1   5   92.19   13.09
  -2  -1   5   82.11    6.06
  -2  -1   4   37.00    6.71
  -2  -1   3  369.59   18.24
   2   1  -3  364.03   20.31
   2   1  -2   -0.21    1.09
   2   1  -1    9.04    2.82
   2   1   0  950.79   27.69
   2   1   1  277.34   14.94
   2   1   2    6.88    2.20
   2   1   3    7.00    2.17
  -2  -1  -3    6.14    1.36
   2   1   4    1.76    1.06
  -2  -1  -4    2.15    0.80
   2   1   5   40.69    5.84
  -2  -1  -5   75.68    9.86
  -2  -1  -6  143.96   11.95
   2   1   6  146.83   11.91
   2   1   7   88.07   10.30
  -2  -1  -7  100.83   10.98
   2   1   8   25.58    5.83
   2   1   9    2.29    2.15
   2   1  10   10.37    4.16
   2   1  11   -0.37    1.01
   2   1  12    4.22    2.84
  -2  -2  10   28.16    7.36
  -2  -2   9    0.43    0.57
  -2  -2   8   14.97    2.67
  -2  -2   8   18.69    3.04
  -2  -2   7   24.39    5.91
  -2  -2   6   21.62    5.56
  -2  -2   5  246.78   22.00
  -2  -2   5  249.23   17.53
   2   2  -4   81.04   10.62
  -2  -2   4   62.97   10.39
  -2  -2   4   82.12   10.03
   2   2  -3    9.88    3.45
  -2  -2   3   10.59    3.99
   2   2  -2  527.19   25.16
  -2  -2   2  446.73   22.60
   2   2  -1 2463.82   48.72
  -2  -2   1 2697.13   52.85
   2   2   0  323.13   17.72
  -2  -2   0  288.69   16.40
   2   2   1    4.98    2.26
  -2  -2  -1    8.12    2.77
   2   2   2    4.86    2.18
  -2  -2  -2    4.14    1.73
   2   2   3  667.55   23.52
  -2  -2  -3  688.52   22.37
   2   2   4   60.95    7.28
   2   2   5   74.22    8.40
  -2  -2  -6    1.01    0.64
   2   2   6    0.02    0.53
  -2  -2  -7    6.22    2.93
   2   2   7   10.86    3.60
   2   2   8   37.95    7.23
   2   2   9   -0.16    0.84
   2   2  10   53.94    9.82
   2   2  11    7.23    3.59
   2   2  12   -1.05    1.77
  -2  -3  10   17.69    5.73
  -2  -3   9    0.22    0.87
  -2  -3   8   13.88    4.82
  -2  -3   8   11.90    2.67
  -2  -3   7   50.53    6.17
  -2  -3   7   75.51   10.23
  -2  -3   6    0.44    0.89
  -2  -3   5   12.06    3.89
  -2  -3   5   16.14    5.83
   2   3  -4    6.72    2.75
  -2  -3   4    9.25    3.78
  -2  -3   4    6.94    3.61
  -2  -3   3  551.46   28.79
   2   3  -3  706.11   30.55
  -2  -3   2  546.26   27.11
   2   3  -2  645.28   27.48
   2   3  -1   18.47    4.44
  -2  -3   1   16.93    4.63
   2   3   0   81.51    9.59
  -2  -3   0   73.50    9.07
   2   3   1   66.43    8.58
  -2  -3  -1   62.05    7.94
  -2  -3  -2 1038.73   29.17
   2   3   2 1093.98   34.99
   2   3   3   18.10    4.07
  -2  -3  -3   16.04    3.48
  -2  -3  -4   45.83    6.21
   2   3   4   48.75    6.76
  -2  -3  -5   28.51    5.16
   2   3   5   29.74    5.83
  -2  -3  -6    8.55    2.89
   2   3   6    6.06    2.58
  -2  -3  -7   11.93    3.75
  -2  -3  -7    8.10    1.60
   2   3   7   12.52    3.98
  -2  -3  -8   14.34    1.69
  -2  -3  -8   25.72    2.47
   2   3   9   27.97    6.82
   2   3  10  195.94   19.43
   2   3  11   45.57    9.78
   2   3  12   25.31    7.86
  -2  -4  10    5.91    3.50
  -2  -4   9   -0.19    1.36
  -2  -4   8   12.17    3.61
  -2  -4   8   19.49    5.46
  -2  -4   7    3.08    1.77
  -2  -4   7    2.28    1.97
  -2  -4   6    1.92    1.22
  -2  -4   6    0.91    1.07
  -2  -4   5   18.08    4.63
  -2  -4   5   19.40    6.56
   2   4  -4   25.43    6.00
  -2  -4   4   27.73    7.11
  -2  -4   4   28.65    5.99
   2   4  -3   21.72    5.42
  -2  -4   3   19.02    5.64
   2   4  -2   32.15    6.20
  -2  -4   2   29.89    6.89
   2   4  -1  636.14   26.93
  -2  -4   1  664.48   30.90
  -2  -4   0    0.01    0.78
   2   4   0    1.18    1.24
   2   4   1  769.20   30.66
  -2  -4  -1  801.99   30.26
   2   4   2   32.16    6.44
  -2  -4  -2   31.41    5.13
  -2  -4  -3  136.08   10.52
   2   4   3  151.53   12.88
  -2  -4  -4 1790.39   39.92
   2   4   4 1921.54   47.55
   2   4   5   39.44    6.80
  -2  -4  -5   50.06    6.82
   2   4   6  222.18   17.18
  -2  -4  -6  211.55   14.41
  -2  -4  -7   67.49    5.71
   2   4   7   89.08   11.51
  -2  -4  -7   96.15   10.79
  -2  -4  -8    0.63    0.72
   2   4   8    1.82    1.87
   2   4   9   44.17    8.87
  -2  -4  -9   27.58    2.60
   2   4  10   25.43    7.02
   2   4  11    6.49    4.24
   2   4  12   13.73    6.03
  -2  -5  10    6.18    3.22
  -2  -5   9   13.28    4.54
  -2  -5   8    3.05    1.81
  -2  -5   8    3.83    2.47
  -2  -5   7    5.42    2.52
  -2  -5   7    7.76    3.26
  -2  -5   6   -0.39    0.56
  -2  -5   6   -0.38    0.59
  -2  -5   5    1.49    1.35
  -2  -5   5    1.52    1.47
   2   5  -4   16.77    4.74
  -2  -5   4   17.20    5.96
  -2  -5   4   18.15    4.81
  -2  -5   3    4.39    2.15
   2   5  -3    6.64    3.38
  -2  -5   3    6.83    3.70
   2   5  -2   24.61    5.68
  -2  -5   2   29.37    6.93
  -2  -5   1   11.86    4.20
   2   5  -1    5.64    2.42
   2   5   0   24.08    5.53
  -2  -5   0   23.05    5.48
   2   5   1   74.83   10.00
  -2  -5  -1   66.94    7.98
  -2  -5  -2  647.63   23.06
   2   5   2  806.26   35.54
  -2  -5  -3   32.11    5.07
   2   5   3   34.84    7.12
   2   5   4   35.92    6.89
  -2  -5  -4   31.25    5.21
   2   5   5  114.17   12.83
  -2  -5  -5   93.96    9.34
  -2  -5  -6    2.17    1.37
   2   5   6    3.98    2.83
  -2  -5  -7   53.53    5.86
   2   5   7   66.95   10.47
   2   5   8   32.28    7.52
  -2  -5  -8   18.48    3.69
  -2  -5  -9    0.08    0.61
   2   5   9    0.51    0.96
   2   5  10   11.81    5.27
   2   5  11    6.00    3.98
   2   5  12    2.41    2.58
  -2  -6   9    0.96    0.95
  -2  -6   8   10.85    3.97
  -2  -6   8    8.15    3.17
  -2  -6   7    1.58    0.79
  -2  -6   7    0.73    0.58
  -2  -6   6    8.24    2.89
  -2  -6   6    6.76    2.75
  -2  -6   5    2.66    2.08
  -2  -6   5    0.55    0.32
  -2  -6   4    4.79    2.46
  -2  -6   4    7.36    2.81
   2   6  -4    5.09    2.68
  -2  -6   4    7.07    4.42
  -2  -6   3   27.71    5.98
  -2  -6   3   29.24    5.54
   2   6  -3   30.28    6.58
  -2  -6   3   33.83    8.48
  -2  -6   2  199.39   13.80
  -2  -6   2  239.87   20.99
   2   6  -2  232.17   17.48
   2   6  -1   94.29   10.74
  -2  -6   1  114.50   13.85
  -2  -6   0    3.02    2.12
   2   6   0    1.73    1.54
   2   6   1  317.63   21.44
  -2  -6  -1  270.02   16.44
   2   6   2  159.50   16.13
  -2  -6  -2  136.21   10.73
   2   6   3   14.66    5.03
  -2  -6  -3   12.64    3.20
  -2  -6  -3    8.55    3.07
  -2  -6  -4    2.61    1.60
   2   6   4    2.61    1.76
  -2  -6  -4    0.88    0.76
  -2  -6  -5    7.12    2.49
  -2  -6  -5    9.17    2.78
   2   6   5   11.77    4.37
  -2  -6  -6    6.80    2.43
  -2  -6  -6    6.95    2.49
   2   6   6    9.18    4.14
   2   6   7    9.80    4.18
   2   6   8   73.30   12.08
   2   6   9    3.94    2.68
   2   6  10    2.67    2.14
   2   6  11   -1.50    3.04
   2   6  12   14.10    6.28
  -2  -7   8    1.78    1.31
  -2  -7   7    0.24    1.08
  -2  -7   7    3.10    1.88
  -2  -7   6   26.17    5.51
  -2  -7   6   17.14    4.53
  -2  -7   5   -0.95    1.45
  -2  -7   5    0.09    0.58
  -2  -7   4   20.60    4.99
  -2  -7   4   18.94    4.38
  -2  -7   4   23.53    7.66
   2   7  -3   97.90   11.47
  -2  -7   3   88.23   10.67
  -2  -7   3   86.97    9.57
  -2  -7   3  110.85   15.38
  -2  -7   2  100.63   11.13
   2   7  -2  104.15   11.78
  -2  -7   2   99.69   14.16
  -2  -7   1  847.57   31.21
   2   7  -1  903.77   34.69
  -2  -7   1  894.48   37.26
  -2  -7   0  692.04   27.84
   2   7   0  706.40   30.52
  -2  -7   0  711.02   27.54
  -2  -7  -1   44.45    7.04
   2   7   1   42.77    8.09
  -2  -7  -1   31.67    5.13
  -2  -7  -2  238.53   13.86
  -2  -7  -2  257.16   16.91
   2   7   2  274.27   21.49
   2   7   3   22.05    6.52
  -2  -7  -3   20.72    4.09
  -2  -7  -3   21.13    4.81
  -2  -7  -4   80.72    9.45
  -2  -7  -4   83.40    8.44
   2   7   4  105.47   14.65
  -2  -7  -5    0.49    0.64
  -2  -7  -5    1.59    1.30
   2   7   5    1.06    1.25
  -2  -7  -6   48.32    6.96
  -2  -7  -6   47.82    6.87
   2   7   6   58.70   10.82
   2   7   7   15.05    5.74
  -2  -7  -7    7.45    3.02
  -2  -7  -8   -1.09    1.30
   2   7   8    0.38    1.75
  -2  -7  -9    0.49    0.99
   2   7   9   17.11    6.27
   2   7  10    8.32    4.30
   2   7  11    3.36    3.93
  -2  -8   7   13.36    4.49
  -2  -8   6   15.29    4.61
  -2  -8   5    4.08    1.93
  -2  -8   5    3.76    2.23
  -2  -8   4    0.45    0.54
  -2  -8   4   -0.14    1.27
  -2  -8   3   39.91    7.28
   2   8  -3   46.96    7.76
  -2  -8   3   37.57    5.75
  -2  -8   2   16.27    4.63
  -2  -8   2   23.61    6.37
   2   8  -2   24.70    5.78
  -2  -8   2   22.75    5.21
   2   8  -1   67.26    9.43
  -2  -8   1   59.45    8.85
  -2  -8   1   62.43    8.27
  -2  -8   0    9.71    3.63
   2   8   0    7.26    3.15
  -2  -8   0    4.19    1.99
  -2  -8  -1  254.41   17.90
   2   8   1  260.75   19.97
  -2  -8  -1  229.13   13.56
  -2  -8  -2  321.09   20.18
  -2  -8  -2  305.91   14.97
  -2  -8  -3   17.05    3.55
   2   8   3   18.72    6.30
  -2  -8  -3   22.54    5.51
   2   8   4   98.52   15.39
  -2  -8  -4   72.85    9.51
  -2  -8  -4   71.48    7.48
  -2  -8  -5   45.74    7.47
   2   8   5   67.42   12.79
  -2  -8  -5   47.81    6.45
  -2  -8  -6   35.75    6.84
   2   8   6   51.96   10.60
  -2  -8  -7   -0.39    0.75
   2   8   7    0.16    1.18
  -2  -8  -8    1.23    1.29
   2   8   8    4.71    3.22
   2   8   9   27.04    8.83
   2   8  10   12.05    5.93
   2   8  11   -0.57    1.11
  -2  -9   6   -0.31    0.95
  -2  -9   5   33.07    7.56
  -2  -9   4    1.79    2.03
  -2  -9   3   35.44    7.47
  -2  -9   2    3.55    2.02
   2   9  -1   31.58    6.32
  -2  -9   1   26.23    6.22
  -2  -9   0    5.90    3.01
   2   9   0    7.12    2.98
   2   9   1    5.13    2.58
  -2  -9  -1    4.75    2.69
  -2  -9  -2    2.17    2.28
   2   9   2    1.35    1.67
  -2  -9  -3   60.13    9.50
   2   9   3   73.95   12.23
  -2  -9  -4  176.67   16.13
   2   9   4  229.30   23.40
  -2  -9  -5    0.79    1.43
   2   9   5   -0.74    2.09
  -2  -9  -6    1.72    2.14
   2   9   6    2.15    1.58
   2   9   7    1.26    1.35
  -2  -9  -7   -0.14    0.48
  -2  -9  -8   21.54    6.18
   2   9   8   57.85   12.76
   2   9   9    2.58    2.45
   2   9  10    1.63    3.12
   2   9  11   -6.90    5.10
  -2 -10   3    2.67    2.74
  -2 -10   2   33.42    7.76
  -2 -10   1   20.82    6.08
  -2 -10   0   17.80    5.17
  -2 -10  -1    8.46    3.52
  -2 -10  -2    1.38    1.39
  -2 -10  -3   30.26    7.27
  -2 -10  -4    2.93    2.12
  -2 -10  -5   51.35    9.85
   2  10   5   83.81   15.08
  -2 -10  -6   -0.04    1.10
   2  10   6    0.61    2.09
   2  10   7    1.15    2.00
  -2 -10  -7    1.55    1.85
   2  10   8    5.97    5.91
  -2 -10  -8   -0.33    1.20
  -2 -11  -2   22.37    6.47
  -2 -11  -3    0.93    1.18
  -2 -11  -4    1.82    2.10
  -2 -11  -5    1.42    2.13
  -2 -11  -6   14.47    5.82
  -2 -11  -7   -0.65    1.95
   3  -9  -6    5.27    9.85
   3  -9  -5  -19.86   15.33
   3  -9  -4  -23.18   15.45
   3  -9  -3   -4.03    8.97
   3  -9  -2   -5.52    6.33
   3  -9  -1   -0.24    0.40
   3  -9   0    2.12    1.62
   3  -9   1    4.23    3.52
   3  -9   2    3.15    3.28
   3  -8  -6   19.51   16.48
   3  -8  -5   -5.75   13.01
   3  -8  -4  -16.98   12.70
   3  -8  -3   23.12   14.83
   3  -8  -2    5.26    5.45
   3  -8  -1   14.93    9.14
   3  -8   0   39.65   14.94
   3  -8   1    2.69    2.63
   3  -8   2    0.73    1.73
   3  -8   3   67.95   18.78
   3  -8   4    8.92    6.33
   3  -8   5    3.35    6.90
   3  -8   6    3.72    7.09
   3  -8   7   -2.55    2.09
   3  -7  -7   48.13   19.48
  -3   7   7   70.98   11.30
  -3   7   6   10.84    4.24
  -3   7   5   24.80    5.67
   3  -7  -4    4.74    2.65
  -3   7   4   45.12    6.83
   3  -7  -3   39.77   18.54
   3  -7  -2   90.41   23.72
   3  -7  -1   53.68   17.34
   3  -7   0   23.34   11.46
   3  -7   1  115.31   22.30
   3  -7   2   21.71    9.16
   3  -7   3   -1.36    5.33
   3  -7   4    2.91    2.82
   3  -7   5   31.09   13.21
   3  -7   6    5.94    6.66
   3  -7   7    0.05    4.10
   3  -7   8   -4.15    6.09
  -3   6  10    3.61    2.36
  -3   6   9  100.41   15.26
  -3   6   8   30.71    7.87
   3  -6  -7   20.62    7.94
  -3   6   7   17.89    5.54
  -3   6   6    0.29    1.42
   3  -6  -6   16.98   11.68
  -3   6   5   16.87    4.65
   3  -6  -5    4.73    1.75
  -3   6   4   24.28    5.50
  -3   6   4   36.08    6.00
  -3   6   3    9.51    2.69
  -3   6   3    5.52    2.26
  -3   6   2    3.37    1.50
   3  -6  -2    0.46    1.17
  -3   6   2    1.79    1.08
   3  -6  -1   20.27   10.53
  -3   6   1   22.73    2.59
   3  -6   0   11.46    6.60
   3  -6   1    2.04    2.82
   3  -6   2   32.85   12.01
   3  -6   3  163.80   25.71
   3  -6   4  202.72   29.44
   3  -6   5   -1.65    2.17
   3  -6   6    3.05    2.97
   3  -6   7    2.58    2.78
   3  -6   8   -0.51    4.65
   3  -6   9    9.78    9.48
  -3   5  10   16.60    6.51
  -3   5   9    8.32    4.20
  -3   5   8    9.74    4.40
  -3   5   7    5.80    3.22
   3  -5  -7    5.28    3.09
  -3   5   6   20.34    5.40
  -3   5   6   19.81    5.13
  -3   5   5    1.61    1.18
  -3   5   5    2.27    2.36
  -3   5   4   18.41    5.05
  -3   5   4   18.28    4.48
  -3   5   3    3.55    1.90
  -3   5   3    5.62    2.38
  -3   5   2    1.70    1.03
   3  -5  -2    0.81    2.88
  -3   5   2   -0.05    0.48
  -3   5   1   22.98    2.92
  -3   5   1   20.49    3.38
   3  -5  -1   12.27    7.85
   3  -5   0    2.21    3.45
   3  -5   1   25.41   12.77
   3  -5   2  191.25   27.25
   3  -5   3   16.56    8.37
   3  -5   4   48.04   14.78
   3  -5   5  105.46    7.24
   3  -5   5   94.80    8.32
   3  -5   6   11.95    3.07
   3  -5   6    5.91    7.31
   3  -5   7   49.12    6.92
   3  -5   7    9.08    8.10
   3  -5   8   -1.97    2.15
   3  -5   8    7.81    2.86
   3  -5   9    2.76    1.90
  -3   4  10    2.21    2.58
  -3   4   9    3.63    2.83
  -3   4   8   78.36   11.90
  -3   4   7   37.18    7.83
   3  -4  -7   47.18    7.00
  -3   4   6   15.78    4.57
   3  -4  -6   25.25    5.73
  -3   4   5   -0.41    1.21
  -3   4   5   -0.37    1.44
  -3   4   5    0.94    0.65
  -3   4   4   18.45    5.01
  -3   4   4   16.65    5.62
  -3   4   4   25.99    5.56
  -3   4   3    8.52    2.79
  -3   4   3    5.35    2.98
   3  -4  -3    1.26    3.34
  -3   4   2    5.38    2.05
   3  -4  -2   -1.35    2.80
  -3   4   2    3.94    2.28
  -3   4   2    3.48    1.65
  -3   4   1   62.15    5.90
  -3   4   1   50.96    5.92
  -3   4   0    5.16    1.54
   3  -4   0    3.30    4.85
  -3   4   0   11.81    4.17
  -3   4   0    6.45    1.60
   3  -4   1   -0.41    1.20
  -3   4  -1    1.21    0.65
  -3   4  -1    0.56    1.03
  -3   4  -2    3.66    0.94
   3  -4   2    2.61    2.08
   3  -4   3    2.28    4.40
  -3   4  -3    5.90    3.35
  -3   4  -3    6.94    1.66
   3  -4   4   40.91    4.79
  -3   4  -4   46.89    8.04
   3  -4   4   29.30    4.00
  -3   4  -4   40.34    4.94
   3  -4   5   23.56    4.53
   3  -4   5   20.18    4.03
  -3   4  -5   22.12    4.47
   3  -4   6   24.13    4.52
   3  -4   6    8.92    7.66
   3  -4   6   17.99    4.63
   3  -4   7   27.71    6.88
   3  -4   7   37.11   15.59
  -3   4  -7  213.13   18.06
   3  -4   7  145.71   11.91
   3  -4   8  140.57   12.70
   3  -4   8   36.38   16.65
   3  -4   9   21.26    5.23
   3  -4   9    9.06    7.91
   3  -4  10    0.75    0.89
   3  -4  11   -1.37    1.98
  -3   3  10   16.52    6.09
  -3   3   9    1.46    2.02
  -3   3   8   21.32    6.37
  -3   3   7    4.31    2.60
  -3   3   7    0.58    0.49
  -3   3   6   78.05    9.17
  -3   3   6  168.42   16.10
  -3   3   5  111.06   14.02
  -3   3   5   90.39   10.34
  -3   3   5  131.16   13.09
  -3   3   4    8.82    3.14
  -3   3   4    8.50    3.70
  -3   3   4    6.61    3.24
  -3   3   3   49.48    7.09
  -3   3   3   54.60    8.84
  -3   3   2    6.68    2.30
  -3   3   2    6.85    3.62
  -3   3   2    4.36    1.93
  -3   3   1   33.67    5.02
  -3   3   1   37.04    5.02
  -3   3   0   86.15    7.45
  -3   3   0  102.01   12.17
   3  -3   1   15.12    2.65
  -3   3  -1   12.53    4.59
  -3   3  -1   10.78    2.42
   3  -3   2   -0.06    2.27
  -3   3  -2    1.24    1.47
   3  -3   2    0.45    0.44
  -3   3  -2    0.60    0.36
  -3   3  -3  179.69   14.74
   3  -3   3  170.50   10.69
  -3   3  -3  163.09    8.94
  -3   3  -4   35.27    6.68
   3  -3   4   25.17    4.45
  -3   3  -4   30.86    4.31
  -3   3  -5    5.49    1.83
  -3   3  -5    7.51    3.05
   3  -3   5   -0.04    3.36
   3  -3   5    3.94    1.82
  -3   3  -6   90.11   10.47
   3  -3   6   63.12    7.48
  -3   3  -7  173.44   15.35
   3  -3   7  139.75   11.99
  -3   3  -7  165.32   14.45
   3  -3   8    2.70    3.21
  -3   3  -8   -0.03    0.92
   3  -3   8   -0.12    0.82
   3  -3   9  131.86   13.22
   3  -3   9  154.53   20.07
   3  -3  10   98.27   12.13
   3  -3  11   24.85    6.53
   3  -3  12    0.47    1.20
  -3   2  10    6.24    4.03
  -3   2   9    0.67    1.49
  -3   2   8  199.61   19.23
  -3   2   7   38.93    6.33
  -3   2   7   91.13   12.42
  -3   2   6   16.30    5.04
  -3   2   6   10.88    3.96
  -3   2   5   10.87    4.43
  -3   2   5    9.68    3.82
  -3   2   5   10.25    3.89
   3  -2  -5   14.33    3.38
  -3   2   4    8.33    3.64
  -3   2   4   15.17    4.37
   3  -2  -4   16.79    3.74
  -3   2   4   11.47    4.68
  -3   2   3  330.33   25.04
   3  -2  -3  362.38   18.58
  -3   2   3  314.49   19.15
  -3   2   2   16.46    5.60
  -3   2   2   14.84    3.63
  -3   2   2   10.43    3.27
   3  -2  -1    2.77    1.62
  -3   2   1    0.58    0.55
  -3   2   1    2.08    1.47
   3  -2   0   49.09    6.26
  -3   2   0   65.08    7.09
   3  -2   1   31.04    4.60
  -3   2  -1   27.21    4.34
   3  -2   2  259.82   13.24
  -3   2  -2  287.29   22.96
  -3   2  -3   22.11    3.73
   3  -2   3   25.77    4.29
  -3   2  -3   27.19    6.39
  -3   2  -4    2.57    1.36
  -3   2  -4    4.19    2.44
   3  -2   4    2.36    1.43
  -3   2  -5   64.06    8.39
   3  -2   5   46.86    6.27
  -3   2  -5   59.63    6.81
  -3   2  -6   55.91    7.76
   3  -2   6   41.24    6.28
   3  -2   6   30.47   11.02
  -3   2  -7   11.24    3.92
  -3   2  -7   11.07    3.38
   3  -2   7   10.21    5.67
   3  -2   7    8.40    2.99
  -3   2  -8   88.68    9.21
   3  -2   8  100.16   11.73
   3  -2   8   88.78   10.41
   3  -2   9  224.34   17.41
   3  -2   9  282.04   15.21
   3  -2  10   40.33    7.86
   3  -2  11   20.25    5.84
   3  -2  12   21.17    6.42
  -3   1  10   40.54    9.74
  -3   1   9  230.79   21.61
  -3   1   8   12.72    5.45
  -3   1   7   27.39    5.38
  -3   1   7   30.56    7.32
  -3   1   6    3.20    1.92
  -3   1   6    4.77    2.11
  -3   1   5   23.89    9.13
  -3   1   5   21.74    6.57
  -3   1   5   27.51    6.35
  -3   1   4    2.26    1.69
  -3   1   4    5.69    4.29
  -3   1   4    3.95    2.52
   3  -1  -3   90.05   11.05
  -3   1   3   81.88    9.95
   3  -1  -3   98.50    8.17
   3  -1  -2   80.37    9.75
  -3   1   2   63.42    8.59
   3  -1  -2   91.53    8.02
   3  -1  -1   32.68    5.81
  -3   1   1   24.13    4.87
  -3   1   0    0.89    0.82
   3  -1   0    1.38    1.10
  -3   1   0    0.04    2.38
   3  -1   0    2.10    1.52
  -3   1  -1    1.57    1.25
   3  -1   1    1.54    1.22
   3  -1   2  498.40   20.41
  -3   1  -2  157.32   25.50
  -3   1  -2  370.54   16.90
   3  -1   2  299.04   20.69
   3  -1   3 1479.30   34.96
  -3   1  -3  879.41   50.77
   3  -1   3 1263.19   32.01
   3  -1   3 1052.17   41.58
  -3   1  -3 1367.41   31.74
  -3   1  -4  249.92   21.86
   3  -1   4  208.05   13.62
  -3   1  -4  229.49   13.71
   3  -1   5   39.32    5.87
   3  -1   5   42.00    7.03
  -3   1  -5   48.99    6.55
  -3   1  -6   36.84    6.15
  -3   1  -6   29.24    5.33
   3  -1   6   23.08    4.89
   3  -1   6   24.88    4.63
  -3   1  -7   22.32    5.32
  -3   1  -7   23.88    4.34
   3  -1   7   16.83    4.37
   3  -1   7   23.12    4.03
   3  -1   8  345.26   20.60
  -3   1  -8  353.93   15.75
   3  -1   9    1.96    1.26
   3  -1   9    0.10    0.80
   3  -1  10    8.73    3.52
   3  -1  11    5.01    2.89
   3  -1  12   -0.47    1.41
  -3   0  10   12.60    5.68
  -3   0   9   91.95   14.13
  -3   0   8   99.33   14.03
  -3   0   7   61.97   14.01
  -3   0   7  115.00   14.16
  -3   0   6   17.40    5.65
  -3   0   5    6.41    3.52
  -3   0   5    5.02    2.65
  -3   0   5    4.66    3.51
  -3   0   4    4.15    2.32
  -3   0   4    1.56    1.98
  -3   0   4   -0.65    0.89
   3   0  -3  772.44   33.18
  -3   0   3  741.87   24.53
   3   0  -2   30.80    6.43
  -3   0   2   18.83    4.91
  -3   0   2   26.98    4.55
   3   0  -1   59.97    8.46
  -3   0   1   46.50    7.11
  -3   0   1   63.03    6.79
   3   0   0  108.38   10.33
  -3   0   0   97.04    9.95
  -3   0   0  168.22   11.22
   3   0   0  183.01   10.53
   3   0   1  454.75   21.33
  -3   0  -1  463.29   23.53
  -3   0  -2   41.31    5.99
   3   0   2   35.21    6.11
  -3   0  -2   34.43    7.56
   3   0   3 1040.60   31.61
  -3   0  -3 1206.83   31.43
   3   0   3 1574.16   33.00
   3   0   3 1292.73   35.36
  -3   0  -3  711.41   48.99
  -3   0  -4   93.22    9.13
   3   0   4   86.97    9.22
   3   0   4   91.18    7.78
   3   0   5  658.32   24.95
   3   0   5  798.87   22.32
  -3   0  -6  425.08   25.36
  -3   0  -6  433.52   20.96
   3   0   6  406.69   15.29
  -3   0  -7    1.81    1.25
  -3   0  -7    0.17    0.64
   3   0   7    0.96    1.02
  -3   0  -8    7.19    2.09
   3   0   8    8.19    3.03
  -3   0  -9    7.82    1.85
   3   0   9   10.24    3.86
   3   0  10  250.25   20.22
   3   0  11    2.14    2.01
   3   0  12    0.76    1.71
  -3  -1  10    6.73    4.15
  -3  -1   9   22.10    7.02
  -3  -1   8    4.38    2.99
  -3  -1   7  142.57   11.95
  -3  -1   7  147.15   15.84
  -3  -1   6   35.13    4.59
  -3  -1   6   38.91    8.01
  -3  -1   5    2.80    1.40
  -3  -1   5    2.24    2.03
  -3  -1   4   -0.31    1.69
   3   1  -4    0.22    1.55
  -3  -1   4    1.21    0.97
  -3  -1   4    0.86    0.79
   3   1  -3  111.27   13.28
  -3  -1   3   96.04    7.23
  -3  -1   2    0.72    0.60
   3   1  -2    2.69    2.14
   3   1  -1   76.90    9.58
  -3  -1   1   88.03    6.65
  -3  -1   0   68.00    5.81
   3   1   0   49.69    8.00
  -3  -1   0   48.85    7.48
   3   1   1  176.85   15.04
  -3  -1  -1  172.66   14.26
   3   1   2  523.12   25.46
  -3  -1  -2  455.89   20.81
  -3  -1  -3    1.07    0.93
   3   1   3    1.18    0.81
   3   1   3    1.10    1.09
  -3  -1  -3    0.68    0.22
  -3  -1  -4    1.36    1.04
   3   1   4    0.22    1.11
  -3  -1  -4    0.16    0.59
   3   1   5   61.03    7.90
  -3  -1  -5   71.87    9.13
  -3  -1  -6   13.13    3.81
   3   1   6   10.84    3.39
   3   1   7   20.01    5.07
  -3  -1  -7   29.59    5.97
  -3  -1  -7   22.60    8.23
  -3  -1  -8  176.27   11.24
   3   1   8  286.57   20.04
  -3  -1  -9   15.02    1.83
   3   1   9   19.28    5.31
   3   1  10   16.12    4.98
   3   1  11    0.23    0.56
   3   1  12   -0.43    1.19
  -3  -2  10    4.62    3.55
  -3  -2   9   16.63    5.83
  -3  -2   8    4.39    2.52
  -3  -2   7   25.45    4.01
  -3  -2   7   27.94    6.91
  -3  -2   6   75.12    6.99
  -3  -2   6   80.16   11.63
  -3  -2   5   35.60    7.92
  -3  -2   4    0.48    1.09
   3   2  -4    1.28    1.17
  -3  -2   4    2.01    2.61
   3   2  -3   19.20    5.58
  -3  -2   3   15.47    4.92
   3   2  -2  405.63   24.25
   3   2  -1  110.54   12.23
   3   2   0   58.37    8.81
   3   2   1   18.85    4.87
   3   2   2    6.91    3.19
   3   2   3   11.87    3.88
   3   2   4    0.88    1.01
  -3  -2  -5    8.48    1.96
   3   2   5    8.41    3.06
   3   2   6  141.98   13.18
  -3  -2  -6  131.92   12.18
  -3  -2  -6  127.45    7.45
  -3  -2  -7    7.92    3.20
  -3  -2  -7    6.41    2.58
   3   2   7    5.09    2.73
  -3  -2  -8    0.86    0.98
   3   2   8    6.76    3.33
  -3  -2  -9   -0.21    0.27
   3   2   9   -0.01    0.27
   3   2  10   70.92   11.38
   3   2  11    0.30    1.67
   3   2  12    3.72    2.73
  -3  -3  10    6.99    3.92
  -3  -3   9   -1.23    1.97
  -3  -3   8   64.82   11.04
  -3  -3   7    9.37    4.31
  -3  -3   6    5.40    3.33
  -3  -3   5   24.05    6.35
  -3  -3   4   15.37    4.90
   3   3  -4   17.50    5.49
  -3  -3   4   14.28    5.55
   3   3  -3  442.92   27.29
  -3  -3   3  384.00   26.81
   3   3  -2   26.29    6.44
  -3  -3   2   23.01    6.31
   3   3  -1  146.93   14.64
  -3  -3   1  134.36   14.50
  -3  -3   0    4.81    2.94
   3   3   0    5.25    2.86
   3   3   1   33.06    6.89
  -3  -3  -1   33.29    6.94
   3   3   2  368.23   24.32
  -3  -3  -2  302.21   18.44
   3   3   3  512.33   27.11
  -3  -3  -3  550.25   24.50
  -3  -3  -4  215.33   15.06
   3   3   4  223.66   16.82
   3   3   5    7.34    3.21
  -3  -3  -5    6.15    2.60
  -3  -3  -6    1.04    1.44
   3   3   6    1.02    1.69
  -3  -3  -7   16.61    4.55
  -3  -3  -7   12.94    2.38
   3   3   7   14.46    4.72
  -3  -3  -8   20.30    2.91
   3   3   8   21.04    5.81
  -3  -3  -9   22.06    2.32
   3   3   9   39.21    8.28
   3   3  10    2.39    1.38
   3   3  11   39.28    9.43
   3   3  12   25.49    7.80
  -3  -4   9   14.14    5.16
  -3  -4   8    0.77    0.88
  -3  -4   8    2.48    2.23
  -3  -4   7    0.04    0.07
  -3  -4   6   74.08   11.06
  -3  -4   5   71.57   10.90
   3   4  -5   75.95   12.29
  -3  -4   4    2.89    2.08
   3   4  -4   -0.04    0.79
  -3  -4   4    1.72    2.49
   3   4  -3   65.01   10.83
  -3  -4   3   58.60   11.14
   3   4  -2  146.87   15.57
  -3  -4   2  146.75   17.07
   3   4  -1 1114.31   41.37
  -3  -4   1 1024.31   42.08
   3   4   0   52.35    9.06
  -3  -4   0   52.31    9.17
   3   4   1  670.16   32.60
  -3  -4  -1  722.66   33.31
  -3  -4  -2  694.32   29.09
   3   4   2  846.69   37.38
   3   4   3  715.32   34.40
  -3  -4  -3  668.96   27.56
   3   4   4  234.46   18.43
  -3  -4  -4  234.10   16.05
  -3  -4  -5  112.18   11.32
   3   4   5  107.68   12.96
   3   4   6   42.34    8.14
  -3  -4  -6   50.78    7.78
   3   4   7    7.78    3.57
   3   4   8   48.61    9.22
  -3  -4  -9    0.89    0.58
   3   4   9    1.16    0.81
  -3  -4  -9    2.09    0.92
   3   4  10   -4.08    2.95
   3   4  11   38.06    9.49
   3   4  12   -0.77    2.54
  -3  -5   9    1.19    1.24
  -3  -5   8    2.01    1.53
  -3  -5   8    1.12    0.25
  -3  -5   7   12.58    3.92
  -3  -5   7   11.41    4.42
  -3  -5   6    0.80    1.18
  -3  -5   5   35.95    7.66
  -3  -5   4    8.44    3.73
   3   5  -4    7.27    3.78
   3   5  -3  348.55   25.12
  -3  -5   3  348.49   28.84
   3   5  -2  145.10   15.76
  -3  -5   2  137.87   17.12
  -3  -5   1    4.02    2.57
   3   5  -1    2.34    1.79
  -3  -5   0    5.05    3.03
   3   5   0    3.70    2.17
   3   5   1   64.25   10.52
  -3  -5  -1   62.84    9.97
   3   5   2    0.03    1.06
  -3  -5  -2    1.57    1.48
   3   5   3  256.15   22.48
  -3  -5  -3  215.84   15.78
   3   5   4   22.13    6.57
  -3  -5  -4   22.27    4.91
   3   5   5   46.98    8.79
  -3  -5  -5   52.86    8.01
  -3  -5  -6    2.37    1.70
   3   5   6    2.86    2.31
   3   5   7    0.28    1.37
  -3  -5  -8   41.64    5.17
   3   5   8   55.83   10.30
  -3  -5  -9   -0.66    0.68
   3   5   9    0.41    0.33
   3   5  10   35.50    9.11
   3   5  11    3.49    1.63
   3   5  12   12.72    5.96
  -3  -6   9   10.71    4.74
  -3  -6   8   16.53    5.44
  -3  -6   7   33.94    6.37
  -3  -6   7   42.97    8.27
  -3  -6   6   13.70    4.14
  -3  -6   6   11.07    4.02
  -3  -6   5   19.18    4.96
  -3  -6   5   29.05    6.66
   3   6  -4  362.53   25.86
  -3  -6   4  395.19   27.33
   3   6  -3   44.95    9.27
  -3  -6   3   44.20   10.69
   3   6  -2  145.56   15.98
  -3  -6   2  141.27   18.07
   3   6  -1   50.26    9.18
  -3  -6   1   47.47   10.10
  -3  -6   0    9.63    4.50
   3   6   0   12.75    5.14
   3   6   1   36.47    8.37
  -3  -6  -1   28.72    6.19
  -3  -6  -2    9.86    3.37
   3   6   2    9.68    4.24
   3   6   3  263.36   24.24
  -3  -6  -3  201.56   15.30
  -3  -6  -4    0.69    0.92
   3   6   4    0.52    0.67
  -3  -6  -5    9.62    3.38
   3   6   5   11.41    5.33
   3   6   5    6.81    3.56
  -3  -6  -6    1.88    1.20
   3   6   6    0.83    0.98
  -3  -6  -7   22.61    4.33
   3   6   7   32.16    8.33
   3   6   8   36.90    9.06
   3   6   9   15.31    6.02
   3   6  10    5.27    3.14
   3   6  11    3.97    3.63
   3   6  12    3.95    4.21
  -3  -7   8    0.84    0.50
  -3  -7   7   15.50    4.55
  -3  -7   7   25.66    6.30
  -3  -7   6   96.42   11.43
  -3  -7   6  109.46   12.80
  -3  -7   5  174.84   15.61
  -3  -7   5  184.13   16.37
  -3  -7   4    9.94    4.05
   3   7  -4    9.31    4.25
  -3  -7   4    9.08    3.36
  -3  -7   3  150.69   14.13
  -3  -7   3  167.15   14.86
   3   7  -2  244.52   20.96
  -3  -7   2  237.23   24.60
  -3  -7   1    2.76    1.69
   3   7  -1    6.32    3.23
   3   7   0   84.53   11.95
  -3  -7   0   93.13   13.27
   3   7   1   49.01    9.77
  -3  -7  -1   47.01    7.98
   3   7   2   -2.00    2.01
  -3  -7  -2   -0.68    1.49
   3   7   3    6.78    3.81
  -3  -7  -3    5.97    2.70
   3   7   4   20.51    7.22
  -3  -7  -4   16.91    4.30
   3   7   5   37.59    9.69
  -3  -7  -5   40.00    7.05
   3   7   6   15.00    5.55
  -3  -7  -6   13.04    3.68
  -3  -7  -7    3.01    1.86
   3   7   7    0.68    1.30
  -3  -7  -8    1.74    1.40
   3   7   8    0.20    1.39
  -3  -7  -9   11.16    3.57
   3   7   9   21.48    7.69
   3   7  10   58.95   13.06
   3   7  11    0.07    1.64
  -3  -8   7   -0.49    1.23
  -3  -8   6    1.55    1.76
  -3  -8   6    1.05    1.33
  -3  -8   5    0.19    0.19
  -3  -8   5    1.92    1.55
  -3  -8   4   14.15    4.62
  -3  -8   4   14.97    4.48
   3   8  -4   18.79    6.00
   3   8  -3  198.20   19.11
  -3  -8   3  150.61   14.82
  -3  -8   3  194.95   18.23
  -3  -8   2   21.51    5.47
   3   8  -2   32.69    7.74
  -3  -8   1   49.15    8.39
   3   8  -1   57.16   10.21
  -3  -8   1   48.03    9.92
   3   8   0    0.61    0.44
  -3  -8   0    3.22    2.05
  -3  -8   0    1.61    1.48
  -3  -8  -1    7.02    3.20
  -3  -8  -1    2.68    1.75
   3   8   1    3.29    2.44
   3   8   2   -0.21    0.89
  -3  -8  -2    0.04    1.11
  -3  -8  -2   -0.37    1.11
  -3  -8  -3    1.02    0.96
  -3  -8  -3   -0.82    1.33
   3   8   3    2.38    2.24
  -3  -8  -4   54.14    8.39
   3   8   4   81.34   14.97
  -3  -8  -4   74.78    9.27
  -3  -8  -5   -0.13    1.37
  -3  -8  -5    1.54    1.51
   3   8   5    2.68    2.37
  -3  -8  -6   -0.46    0.84
   3   8   6    2.30    3.14
  -3  -8  -7    1.60    1.39
   3   8   7    0.51    1.23
  -3  -8  -8    5.34    2.65
   3   8   8    8.40    4.93
  -3  -8  -9    1.14    1.31
   3   8   9   -0.22    1.51
   3   8  10    4.67    3.89
   3   8  11   21.79    8.63
  -3  -9   6    0.06    1.15
  -3  -9   5    6.69    3.36
  -3  -9   4    0.79    0.76
  -3  -9   3    4.63    2.58
   3   9  -3    3.87    2.98
   3   9  -2   45.55    9.26
  -3  -9   2   42.52    8.26
  -3  -9   2   38.66    6.91
  -3  -9   1   81.35   11.44
   3   9  -1   86.88   12.55
  -3  -9   0   19.50    5.60
   3   9   0   14.53    4.97
  -3  -9  -1    9.62    4.06
   3   9   1    9.77    3.95
  -3  -9  -2   27.78    6.94
   3   9   2   24.50    7.28
  -3  -9  -3  118.57   13.50
   3   9   3  145.64   18.88
   3   9   4    1.63    2.33
  -3  -9  -4    3.11    2.50
   3   9   5    9.37    5.36
  -3  -9  -5    7.29    3.35
  -3  -9  -6    0.35    1.58
   3   9   6   -0.01    1.40
   3   9   7    7.72    5.14
  -3  -9  -7    5.49    3.16
  -3  -9  -8   10.77    4.13
   3   9   8   23.62    9.33
   3   9   8   15.26    6.84
   3   9   9   10.92    6.14
   3   9  10   -0.35    1.26
   3   9  11    6.53    4.23
  -3 -10   2    3.65    2.63
  -3 -10   1   -0.26    0.61
  -3 -10   0   26.74    6.75
  -3 -10  -1   36.08    7.90
  -3 -10  -2   47.18    8.95
   3  10   2   56.39   10.99
  -3 -10  -3   13.41    5.03
   3  10   3   15.38    6.21
  -3 -10  -4   45.02    8.79
   3  10   4   56.58   12.21
  -3 -10  -5   22.04    6.14
   3  10   5   43.65   11.62
   3  10   6    1.28    2.33
  -3 -10  -6    1.43    1.56
   3  10   7    1.75    2.95
  -3 -10  -7    0.60    1.30
  -3 -10  -8    3.08    2.89
   3  10   8    2.67    3.13
   3  10   9   38.21   12.65
   3  10  10    2.95    4.56
  -3 -11  -2    1.70    2.25
  -3 -11  -3   17.13    5.90
  -3 -11  -4   52.71   10.40
  -3 -11  -5   31.58    8.03
  -3 -11  -6   56.97   10.67
  -3 -11  -7    9.68    4.86
  -3 -11  -8   41.56    9.43
   4  -8  -6   13.82   11.23
   4  -8  -5   43.98   24.25
   4  -8  -2   16.49   14.13
   4  -8  -1  -11.49   10.85
   4  -8   0  -10.19    9.95
   4  -8   1    2.73    3.29
   4  -8   2   -4.87    6.75
   4  -8   3   -7.90    8.60
   4  -8   4   -7.08    8.27
   4  -8   5    0.33    4.38
   4  -7  -6   25.73   11.97
   4  -7  -5   15.83   12.95
   4  -7  -3   -2.70    5.76
   4  -7  -2   -1.73    8.09
   4  -7  -1   15.23   10.53
   4  -7   0  -10.16    9.48
   4  -7   1   -5.18    7.15
   4  -7   2   -6.03    7.14
   4  -7   3    7.95    7.72
   4  -7   4    5.39    6.64
   4  -7   5   -1.58    5.29
   4  -7   6  -13.04   11.33
   4  -7   8    4.57    6.99
  -4   6   9    0.67    2.20
  -4   6   8   -0.29    1.68
  -4   6   7    0.32    0.40
   4  -6  -7   -0.92    1.92
  -4   6   6   -0.04    0.59
   4  -6  -6    2.31    1.90
  -4   6   5   51.05    8.30
   4  -6  -5   59.15   18.89
  -4   6   4    2.33    1.87
   4  -6  -4    9.70   10.34
  -4   6   3    5.39    2.31
   4  -6  -2   11.91   10.64
  -4   6   2   35.38    4.63
   4  -6  -1   -4.73   10.24
  -4   6   1   32.15    3.46
   4  -6   0    8.20    8.58
   4  -6   1    2.31    5.59
   4  -6   2   36.29   16.49
   4  -6   3   20.32   12.28
   4  -6   4  -11.85    9.70
   4  -6   5   -0.14    4.20
   4  -6   6   -1.25    1.69
   4  -6   7   -8.00   10.33
   4  -6   9   -1.73    4.16
  -4   5   9    1.99    2.16
  -4   5   8   21.34    6.73
   4  -5  -7   26.73    6.45
  -4   5   7   21.68    6.41
  -4   5   6   15.70    5.14
   4  -5  -6   17.37    5.21
  -4   5   5    6.29    3.20
   4  -5  -5    6.15    4.47
  -4   5   4   13.68    4.46
  -4   5   4   21.86    5.29
   4  -5  -3  174.51   39.62
  -4   5   3  166.66   13.43
  -4   5   2    1.86    1.60
  -4   5   2    1.18    1.32
  -4   5   1   17.37    3.78
  -4   5   1   16.20    3.22
  -4   5   0    1.08    0.78
  -4   5   0    1.36    0.88
  -4   5   0    0.85    0.49
   4  -5   1   62.22   25.01
  -4   5  -1  117.21    5.34
   4  -5   2   94.61   28.59
  -4   5  -3    3.02    1.02
   4  -5   3   -0.49    4.99
  -4   5  -4    1.07    0.95
   4  -5   4   -0.27    4.41
   4  -5   5   -2.24    4.38
   4  -5   6   -7.93    8.18
   4  -5   7   -0.23    0.80
   4  -5   9    7.75    8.00
  -4   4   9   37.51    9.44
  -4   4   8    4.73    3.60
   4  -4  -7   11.35    4.02
  -4   4   7   10.41    4.49
  -4   4   6   39.44    8.37
   4  -4  -6   49.64    8.20
  -4   4   5   17.64    5.27
   4  -4  -5   18.64    5.04
  -4   4   4    5.19    2.84
   4  -4  -4    5.25    3.30
  -4   4   4    5.12    2.88
  -4   4   3    1.83    1.41
  -4   4   3    3.21    2.11
  -4   4   2    0.78    1.20
  -4   4   2    1.16    0.79
  -4   4   1    1.31    1.24
  -4   4   1    1.77    1.22
  -4   4   0   13.54    3.20
   4  -4   1   -0.03    4.87
  -4   4  -1    1.62    0.97
   4  -4   2   73.35    4.75
  -4   4  -2   83.13    6.45
   4  -4   3 1422.04   23.81
  -4   4  -3 1316.33   25.85
   4  -4   4   41.86    5.05
  -4   4  -4   55.45    5.75
   4  -4   5   89.10    8.88
  -4   4  -5  105.35    9.33
   4  -4   6   86.48    8.96
   4  -4   6   81.16    9.15
  -4   4  -7   22.95    5.48
   4  -4   7   17.37    4.52
   4  -4   8    7.75    6.22
   4  -4   8    9.88    3.70
   4  -4   9   39.86    7.69
   4  -4   9   43.72   12.40
   4  -4  10   29.92    6.87
  -4   3   9    0.48    1.77
  -4   3   8   15.32    6.00
  -4   3   7    0.68    0.78
  -4   3   6    7.68    3.65
   4  -3  -6   10.03    3.21
  -4   3   6    4.87    2.70
  -4   3   5   66.15   10.86
  -4   3   5   63.31    9.92
   4  -3  -5   85.73   10.31
  -4   3   4   18.43    5.21
  -4   3   4   15.58    5.95
  -4   3   4   16.89    5.14
   4  -3  -4   17.99    4.93
  -4   3   3   -0.42    0.99
   4  -3  -3    2.13    3.56
  -4   3   3    0.52    1.49
  -4   3   3    0.05    0.31
   4  -3  -2   13.04    5.85
  -4   3   2    5.77    2.82
  -4   3   2    9.39    4.64
  -4   3   1   25.56    5.27
  -4   3   1   52.85   10.77
   4  -3  -1   44.43   13.09
   4  -3   0   39.66    6.18
  -4   3   0   33.03    5.56
  -4   3   0   68.55   12.18
   4  -3   0   41.47   15.49
   4  -3   1  253.83   14.44
  -4   3  -1  238.34   13.96
  -4   3  -2    3.50    3.32
  -4   3  -2    2.21    1.34
   4  -3   2    3.15    1.50
  -4   3  -3  108.72   13.99
  -4   3  -3   91.98    8.14
   4  -3   4 1000.01   30.26
  -4   3  -4  944.43   39.34
   4  -3   5  812.31   28.12
  -4   3  -5  885.19   26.81
   4  -3   6   64.45    8.60
   4  -3   6   33.72   13.32
   4  -3   7  370.68   21.74
   4  -3   7  321.37   36.18
   4  -3   8   70.99    9.75
   4  -3   8  103.41   16.58
   4  -3   9    1.28    1.93
   4  -3   9    1.76    1.83
   4  -3  10   16.86    4.32
   4  -3  10   16.84    5.22
   4  -3  11   30.66    7.33
   4  -3  12   20.46    6.13
  -4   2   9   33.12    8.71
  -4   2   8   26.38    7.77
  -4   2   7   -0.79    1.87
  -4   2   6    5.00    2.94
  -4   2   6    5.43    3.02
  -4   2   5    1.55    2.09
  -4   2   5    6.86    4.33
   4  -2  -5    3.77    2.08
   4  -2  -4   43.10    6.62
  -4   2   4   24.75    6.49
  -4   2   4   36.09    9.61
  -4   2   4   29.57    6.96
  -4   2   3   18.70    5.39
   4  -2  -3   31.74    5.95
  -4   2   3   31.56    7.23
  -4   2   3   23.56    8.75
   4  -2  -2   -0.02    0.84
   4  -2  -2    0.80    0.56
  -4   2   2    3.28    4.90
  -4   2   1    4.13    3.85
   4  -2  -1    5.26    2.70
   4  -2  -1    1.84    1.75
  -4   2   1    4.40    2.28
   4  -2   0   22.73    6.48
   4  -2   0   23.09    5.14
  -4   2   0   15.50    4.08
  -4   2   0   21.36    8.06
   4  -2   1  114.08   10.85
  -4   2  -1  147.10   12.37
  -4   2  -1  127.37   20.13
   4  -2   2  126.62   11.34
  -4   2  -2  101.01   16.83
  -4   2  -2   85.55    8.74
   4  -2   3  573.63   24.01
  -4   2  -3  555.12   36.37
   4  -2   4  192.20   14.65
  -4   2  -4  219.11   21.10
  -4   2  -4  183.61   12.74
  -4   2  -5   79.23   11.64
   4  -2   5   56.41   12.63
   4  -2   5   54.23    7.82
   4  -2   6  270.11   23.10
  -4   2  -6  316.40   17.86
   4  -2   6  294.58   19.18
  -4   2  -7   46.10    7.97
   4  -2   7   41.76    7.44
   4  -2   7   34.28    6.65
  -4   2  -7   44.38    7.48
  -4   2  -8    4.05    2.51
   4  -2   8    5.75    2.41
   4  -2   8    4.40    2.60
   4  -2   9   38.32    7.49
   4  -2   9   48.85    6.90
   4  -2  10   -0.24    0.60
   4  -2  10    0.17    1.22
   4  -2  11    7.58    3.60
   4  -2  12    2.60    2.25
  -4   1   9   32.82    8.87
  -4   1   8   16.63    6.24
  -4   1   7   25.50    7.34
  -4   1   7   26.33    7.35
  -4   1   6    0.20    1.47
  -4   1   6    0.38    4.06
  -4   1   5    4.17    4.79
  -4   1   5    3.73    2.74
  -4   1   4   12.84    5.32
  -4   1   4    1.78    3.02
  -4   1   4    7.71    3.50
  -4   1   3   -3.03    4.20
   4  -1  -3    1.70    1.65
  -4   1   3    1.76    1.74
   4  -1  -2   15.38    4.96
  -4   1   1   87.17   10.51
  -4   1   1   55.22   18.71
   4  -1   0   89.94   10.41
  -4   1   0   61.83    8.53
   4  -1   1  129.21   12.34
  -4   1  -1  148.89   13.87
  -4   1  -2   65.74   18.77
   4  -1   2  241.28   16.79
  -4   1  -2  231.92   16.64
  -4   1  -2  238.11   15.73
  -4   1  -3 1339.23   36.57
   4  -1   3 1345.83   36.90
  -4   1  -4    6.41    6.08
   4  -1   4    5.36    2.54
   4  -1   4    6.04    2.29
  -4   1  -4    4.20    1.92
   4  -1   5   -0.09    0.09
  -4   1  -5   -0.85    0.70
  -4   1  -6   62.15   11.42
   4  -1   6   38.29    7.10
  -4   1  -6   48.38    7.41
   4  -1   6   39.87    6.19
  -4   1  -7    8.97    3.27
   4  -1   7    7.67    3.17
  -4   1  -7    6.92    3.71
   4  -1   7    8.03    2.73
  -4   1  -8    0.28    0.61
   4  -1   8    2.19    1.64
   4  -1   8    1.63    1.82
  -4   1  -9   29.87    5.19
   4  -1   9   25.85    6.16
   4  -1   9   30.98    5.06
   4  -1  10   11.30    4.06
   4  -1  11   -0.15    1.14
   4  -1  12   -0.43    2.08
  -4   0   9   36.81    9.46
  -4   0   8   75.04   12.87
  -4   0   7    1.86    2.36
  -4   0   7   -0.01    1.15
  -4   0   6   16.77    5.71
  -4   0   6    0.48    2.74
  -4   0   5   -0.50    1.76
  -4   0   5   -0.61    3.09
   4   0  -4  188.88   19.37
  -4   0   4  129.61   18.44
  -4   0   4  159.12   16.35
   4   0  -3  107.96   13.97
  -4   0   3   75.23   11.76
  -4   0   3  100.39   13.84
   4   0  -2   32.97    7.59
  -4   0   2   24.59    6.05
  -4   0   2   32.94    6.44
  -4   0   1    1.93    1.99
   4   0  -1    2.44    1.89
   4   0   0  411.49   23.83
  -4   0   0  341.08   22.00
   4   0   1 2325.02   56.75
  -4   0  -1 2039.05   52.55
  -4   0  -2    7.19    3.09
   4   0   2   12.77    4.24
  -4   0  -2   12.70    5.61
   4   0   2    9.44    3.27
   4   0   3  477.17   26.20
  -4   0  -3  309.60   33.97
  -4   0  -3  541.00   25.14
   4   0   3  702.40   24.40
   4   0   4  236.03   17.30
   4   0   4  302.79   15.85
   4   0   5   94.19    8.76
   4   0   5   90.39   10.62
  -4   0  -6   38.14   13.15
   4   0   6   32.58    6.93
  -4   0  -6   46.91    7.46
   4   0   6   48.81    6.26
  -4   0  -7   22.38    5.58
  -4   0  -7   23.72    8.03
   4   0   7   22.71    4.21
   4   0   7   17.49    5.01
  -4   0  -8   70.76   10.10
   4   0   8   65.52    9.73
  -4   0  -9  121.99   10.52
   4   0   9  123.81   13.90
   4   0  10    0.65    0.73
   4   0  11    5.30    3.06
   4   0  12    3.78    2.19
  -4  -1   9  103.35   15.75
  -4  -1   8   46.88   10.45
  -4  -1   7   28.38    7.81
  -4  -1   7   10.79    5.72
  -4  -1   6   -3.70    2.65
  -4  -1   6   -0.12    1.46
  -4  -1   5  218.52   13.40
  -4  -1   5  286.10   25.37
  -4  -1   4    1.06    1.25
   4   1  -4    2.33    2.34
  -4  -1   4    2.30    1.26
  -4  -1   3    0.62    0.55
   4   1  -3    1.68    2.25
  -4  -1   3   -0.18    0.62
  -4  -1   2   21.38    6.14
  -4  -1   2   20.98    4.06
   4   1  -2   23.36    6.54
   4   1  -1   10.22    4.18
  -4  -1   1   11.44    3.22
  -4  -1   0    5.71    2.07
   4   1   0    1.84    1.63
   4   1   1  141.55   14.79
  -4  -1  -1  138.19   14.50
   4   1   2  114.30   12.95
  -4  -1  -2  113.57   12.31
   4   1   3 1274.65   44.63
  -4  -1  -3 1312.09   40.66
  -4  -1  -3 1365.04   30.63
   4   1   4   92.41   11.41
  -4  -1  -4  111.87    9.70
  -4  -1  -5    5.77    3.33
   4   1   5    3.28    2.10
  -4  -1  -5    3.04    2.20
   4   1   6   32.34    6.74
  -4  -1  -6   37.97    7.19
  -4  -1  -6   19.64    8.09
  -4  -1  -7   83.50   19.15
   4   1   7  187.94   16.46
  -4  -1  -8  194.69   22.63
   4   1   8  222.00   18.33
  -4  -1  -9   40.98    6.61
   4   1   9   39.46    8.03
   4   1  10   -0.97    1.71
   4   1  11    0.81    1.76
   4   1  12    9.97    4.47
  -4  -2   9    1.99    2.17
  -4  -2   8    0.36    1.07
  -4  -2   7    2.76    2.67
  -4  -2   6  106.43    9.57
  -4  -2   6  114.11   15.16
  -4  -2   5   26.78    8.64
   4   2  -5   26.75    7.98
  -4  -2   5   20.75    3.94
  -4  -2   4    3.07    1.55
   4   2  -4    4.88    3.39
   4   2  -3  119.66   15.67
  -4  -2   3   89.54   13.72
   4   2  -2   40.02    8.44
  -4  -2   2   13.27    5.09
   4   2  -1    0.24    1.27
   4   2   0   15.80    5.28
   4   2   1   57.52    9.86
   4   2   2  191.52   17.67
  -4  -2  -3   -0.24    0.94
   4   2   3    0.38    0.33
   4   2   4    9.65    3.80
  -4  -2  -4    9.28    2.34
  -4  -2  -5   19.86    4.99
  -4  -2  -5   18.18    3.41
   4   2   5   16.96    4.96
  -4  -2  -6  138.21    9.16
   4   2   6  160.47   16.12
  -4  -2  -7   20.78    5.01
   4   2   7   20.21    5.57
   4   2   8   -1.12    1.33
  -4  -2  -9  110.20   18.82
   4   2   9  211.83   19.33
   4   2  10    1.86    1.25
   4   2  11   -0.95    1.87
   4   2  12   24.76    7.91
  -4  -3   9    1.67    0.10
  -4  -3   8    2.47    2.22
  -4  -3   7    0.31    0.85
  -4  -3   6   10.20    4.85
  -4  -3   5    0.53    1.74
   4   3  -5    0.81    0.61
   4   3  -4   45.23   10.19
   4   3  -3  161.32   18.91
  -4  -3   3  132.99   17.38
   4   3  -2  189.37   19.48
  -4  -3   2  169.05   19.15
   4   3  -1   89.73   13.10
  -4  -3   1   91.39   13.30
  -4  -3   0    0.55    1.11
   4   3   0    7.78    3.94
   4   3   1   34.24    8.23
   4   3   2    0.79    1.22
   4   3   3   -1.07    0.88
   4   3   4   28.93    7.08
   4   3   5    4.09    2.55
  -4  -3  -5    2.94    2.23
  -4  -3  -6    2.03    1.94
  -4  -3  -6    1.29    0.64
   4   3   6    2.80    2.34
  -4  -3  -7    0.25    0.35
   4   3   7   -0.02    1.04
   4   3   8   32.00    7.62
  -4  -3  -8   25.56    3.94
   4   3   9  101.70   13.96
  -4  -3  -9   83.95   13.01
   4   3  10    2.84    1.84
   4   3  11   66.17   12.25
   4   3  12  115.85   17.22
  -4  -4   8    4.59    3.29
  -4  -4   7    2.35    2.16
  -4  -4   6   -0.47    0.95
  -4  -4   5    2.31    2.83
   4   4  -5   -0.54    0.73
   4   4  -4   46.85   10.62
   4   4  -3  278.92   24.43
   4   4  -2  225.61   21.50
  -4  -4   2  210.19   23.07
   4   4  -1  241.18   21.60
  -4  -4   1  244.03   22.73
   4   4   0  240.63   21.66
  -4  -4   0  242.40   22.07
  -4  -4  -1    0.21    0.35
   4   4   1    0.27    0.68
  -4  -4  -2   15.84    5.44
   4   4   2   14.10    5.48
   4   4   3   51.69   10.69
  -4  -4  -3   43.82    8.13
   4   4   4    4.37    3.19
  -4  -4  -4    2.21    2.06
   4   4   5    3.35    2.69
   4   4   5    3.15    2.31
  -4  -4  -5    3.29    1.93
  -4  -4  -6    0.12    1.45
   4   4   6    0.89    0.69
   4   4   7   47.89    9.67
  -4  -4  -8    3.72    1.55
   4   4   8    5.08    2.88
  -4  -4  -9   24.86    3.80
   4   4   9   25.25    7.31
   4   4  10    3.79    2.88
   4   4  11   49.03   10.92
   4   4  12   22.14    7.70
  -4  -5   8   17.82    6.45
  -4  -5   7    8.53    4.58
  -4  -5   6    6.64    4.10
  -4  -5   5    3.36    2.78
   4   5  -5   -0.92    2.07
   4   5  -4  266.99   25.22
   4   5  -3   88.23   13.93
   4   5  -2   74.68   12.78
   4   5  -1  105.14   14.85
  -4  -5   1   96.99   15.29
  -4  -5   0    0.64    2.07
   4   5   0   -0.28    1.29
   4   5   1  192.20   20.42
  -4  -5  -1  179.50   19.32
  -4  -5  -2    1.36    2.13
   4   5   2    0.75    0.68
   4   5   3   15.35    5.68
  -4  -5  -3   14.30    4.70
   4   5   4  164.43   19.78
  -4  -5  -4  131.90   13.81
   4   5   5   -0.42    0.89
  -4  -5  -5    0.26    1.29
   4   5   6    0.21    1.43
   4   5   7   11.43    5.10
   4   5   8   11.29    5.30
   4   5   9   58.29   11.78
   4   5  10   47.56   10.97
   4   5  11   23.59    7.95
   4   5  12   -0.16    1.26
  -4  -6   8    0.96    2.12
  -4  -6   7   29.08    6.15
  -4  -6   7   41.46    9.15
  -4  -6   6   83.85   12.85
  -4  -6   5   23.69    7.31
   4   6  -5   17.83    6.31
  -4  -6   4   26.82    7.00
   4   6  -4   33.49    9.02
   4   6  -3    4.73    2.89
   4   6  -2  162.89   19.52
  -4  -6   1   10.73    5.52
   4   6  -1    6.12    3.34
  -4  -6   0   26.20    8.10
   4   6   0   30.22    7.75
  -4  -6  -1    5.61    3.21
   4   6   1    7.03    4.14
   4   6   2   80.34   13.78
  -4  -6  -2   78.55   11.57
   4   6   3   45.27   10.65
  -4  -6  -3   29.10    6.85
   4   6   4   18.79    7.12
  -4  -6  -4   17.22    5.25
   4   6   5    4.83    3.66
  -4  -6  -5    1.89    2.13
   4   6   6   15.70    6.50
   4   6   7    8.74    4.55
   4   6   8   30.22    8.36
   4   6   9    0.39    1.05
   4   6  10    1.13    2.08
   4   6  11    1.02    1.85
   4   6  12   19.16    7.87
  -4  -7   7   39.85    7.74
  -4  -7   7   54.25   10.24
  -4  -7   6    0.17    0.45
  -4  -7   6   -2.27    2.72
   4   7  -5   69.20   13.00
  -4  -7   5   53.14   10.30
   4   7  -4  233.25   23.20
  -4  -7   4  213.05   21.51
   4   7  -3   81.82   14.00
   4   7  -2    6.77    4.07
   4   7  -1    1.72    1.88
   4   7   0    2.40    2.58
   4   7   1  246.57   24.14
  -4  -7  -1  193.85   18.72
  -4  -7  -2   12.52    4.71
   4   7   2   11.22    5.28
   4   7   3   -0.82    1.25
  -4  -7  -3   -0.71    1.83
   4   7   4   52.97   12.46
  -4  -7  -4   42.89    8.02
   4   7   5   81.26   15.46
   4   7   6    7.49    4.59
   4   7   7   20.14    8.03
   4   7   7   24.71    7.75
   4   7   8   49.43   11.36
  -4  -7  -9    9.83    3.12
   4   7   9   13.03    6.35
   4   7  10   -0.73    1.08
   4   7  11    9.25    4.98
  -4  -8   7   26.79    7.15
  -4  -8   6    1.84    1.96
  -4  -8   6    0.29    0.86
  -4  -8   5   23.56    6.42
  -4  -8   5   23.81    6.70
  -4  -8   4   11.07    4.40
   4   8  -4   14.60    5.72
  -4  -8   4   10.44    4.26
  -4  -8   3   21.03    5.77
   4   8  -3   32.81    8.80
   4   8  -2   28.00    7.94
   4   8  -1   10.79    4.74
   4   8   0   12.04    5.48
   4   8   1    3.91    3.14
  -4  -8  -1    1.59    1.97
   4   8   2    0.34    1.64
  -4  -8  -2   -0.22    1.26
  -4  -8  -3    6.59    3.24
   4   8   3    8.23    4.73
   4   8   4    2.24    2.75
   4   8   5   22.97    8.87
   4   8   6   46.86   12.68
   4   8   7   13.55    6.99
  -4  -8  -7   10.76    3.76
  -4  -8  -8    4.93    2.55
   4   8   8    9.87    6.12
   4   8   8    5.45    3.64
  -4  -8  -9    7.57    3.18
   4   8   9    5.36    3.49
   4   8  10    3.36    3.82
   4   8  11   -1.15    3.28
  -4  -9   5   21.50    6.12
  -4  -9   4    1.80    2.08
   4   9  -4    0.75    1.69
  -4  -9   3   16.63    5.81
  -4  -9   3   19.70    6.32
   4   9  -3   26.17    7.84
   4   9  -2    7.91    4.33
  -4  -9   2   11.63    4.45
   4   9  -1    7.59    4.35
  -4  -9   1    4.84    2.96
   4   9   0    0.44    1.51
  -4  -9   0   -0.34    0.62
   4   9   1    0.21    0.91
  -4  -9  -1   -0.82    1.54
   4   9   2   25.27    7.98
   4   9   3   15.91    6.81
  -4  -9  -3    6.27    3.16
  -4  -9  -4    4.49    2.24
   4   9   4    6.49    4.17
   4   9   5    4.83    3.70
  -4  -9  -5    0.94    1.40
  -4  -9  -6    6.00    3.01
   4   9   6   10.15    6.24
  -4  -9  -7   -1.74    1.63
   4   9   7    1.34    2.71
  -4  -9  -8    3.25    2.29
   4   9   8    4.53    4.17
  -4  -9  -9   -0.22    0.42
   4   9   9    0.88    2.50
   4   9  10   34.87   11.24
   4   9  11   13.62    7.48
  -4 -10   2    2.59    3.15
  -4 -10   1    2.81    2.25
  -4 -10   0    5.95    3.48
   4  10   0    3.73    2.25
  -4 -10  -1   33.71    7.83
   4  10   1   31.11    8.53
  -4 -10  -2   28.70    7.16
   4  10   2   23.80    7.64
  -4 -10  -3    6.37    3.45
   4  10   3    8.06    4.68
  -4 -10  -4   12.00    4.74
   4  10   4    7.44    4.97
   4  10   5    1.20    2.77
  -4 -10  -5    2.98    2.26
   4  10   6   -0.27    0.86
  -4 -10  -6    0.87    1.48
   4  10   7   -1.97    2.85
  -4 -10  -7    1.41    1.37
   4  10   8   24.58   10.19
  -4 -10  -8   14.98    5.01
   4  10   9   17.71    8.79
  -4 -11  -3  243.62   22.17
  -4 -11  -4   31.78    8.12
  -4 -11  -5   19.15    6.14
  -4 -11  -6   44.99    9.64
  -4 -11  -7    2.46    2.88
  -4 -11  -8    1.33    1.77
   5  -8  -5   19.25   10.48
   5  -8  -4   26.36   14.80
   5  -8  -3   25.13   18.26
   5  -8   0   -2.38    5.41
   5  -8   1    7.12   11.28
   5  -7  -6    9.07    4.37
   5  -7  -5   11.88    5.72
   5  -7  -4   54.25   18.96
   5  -7  -3   23.04   14.54
   5  -7  -2   27.41   17.47
   5  -7   1   -3.20    6.91
   5  -7   2   -1.92    7.81
   5  -7   3   -0.78    6.80
   5  -7   4   -0.76    9.85
   5  -6  -6    0.07    1.23
   5  -6  -5   -0.56    2.06
   5  -6  -4   -2.61    2.48
   5  -6  -3   27.76   13.53
   5  -6  -2    5.49    8.19
   5  -6  -1    9.70    9.81
   5  -6   7    4.95    7.41
   5  -6   8    4.88    5.54
   5  -6   9   20.92   11.02
  -5   5   8    3.13    2.32
  -5   5   7   -0.65    0.53
  -5   5   6   -0.43    1.38
   5  -5  -6    1.63    1.57
  -5   5   5    2.51    1.87
   5  -5  -5    1.03    1.08
   5  -5  -4  118.21   16.05
  -5   5   4  116.05   13.29
   5  -5  -3   41.47   10.97
  -5   5   3   34.18    6.62
  -5   5   2   11.96    3.64
   5  -5  -2   41.58   14.43
  -5   5   1    6.11    2.54
  -5   5   1    8.32    2.87
  -5   5   0   51.53    6.25
   5  -5   0   44.40   19.54
  -5   5   0   48.99    6.16
  -5   5  -1    6.84    1.93
   5  -5   1    5.51    8.88
  -5   5  -1    7.62    2.16
   5  -5   6    7.21    6.85
   5  -5   7   35.44   15.75
   5  -5   8   29.14   11.99
   5  -5   9    9.16    5.37
  -5   4   8    2.17    2.45
  -5   4   7   -0.02    0.71
  -5   4   6   18.48    6.25
   5  -4  -6   22.45    5.77
  -5   4   5   21.86    6.22
   5  -4  -5   30.43    6.92
  -5   4   4   19.31    5.87
   5  -4  -4   22.45    5.84
  -5   4   3   53.25    9.28
   5  -4  -3   90.91   13.09
  -5   4   3   73.08   10.73
  -5   4   2   77.70   10.87
  -5   4   2   92.93   11.62
   5  -4  -1   28.00   11.10
  -5   4   1    2.27    2.34
  -5   4   0  297.94   18.54
   5  -4   0  343.15   40.07
  -5   4  -1  198.37   13.72
   5  -4   1  177.32   30.83
  -5   4  -2  215.55   13.07
   5  -4   2  238.30   13.51
   5  -4   3   97.91    8.27
  -5   4  -3   65.28    6.95
   5  -4   4  687.31   21.90
  -5   4  -4  513.79   19.70
   5  -4   5   43.06    6.43
  -5   4  -5   34.85    5.35
   5  -4   6    1.21    1.55
   5  -4   6    6.14    6.51
   5  -4   7  107.81   11.93
   5  -4   7   91.26   18.69
   5  -4   8   47.64   11.34
   5  -4   9   10.71    4.97
   5  -4   9   15.84    5.33
  -5   3   8    2.51    3.37
  -5   3   7   -1.21    1.43
  -5   3   6    6.91    4.04
  -5   3   5   29.16    7.61
   5  -3  -5   43.30    7.87
  -5   3   4   60.11   10.38
   5  -3  -4   70.17   11.07
  -5   3   3   27.76    6.99
   5  -3  -3   53.03    9.02
  -5   3   3   43.74    9.01
  -5   3   2   16.20    5.22
  -5   3   2   23.55    6.17
   5  -3  -1  211.63   17.09
   5  -3  -1  282.31   22.08
   5  -3   0   45.39    7.72
  -5   3   0   28.17    6.00
   5  -3   1  323.35   19.59
  -5   3  -1  311.55   18.60
  -5   3  -2 1612.10   42.20
   5  -3   2 1500.53   68.38
   5  -3   3  242.11   30.11
  -5   3  -3  294.63   17.15
   5  -3   4  126.19   21.32
  -5   3  -4  166.79   12.71
   5  -3   5 1225.12   39.01
   5  -3   5  683.14   45.56
  -5   3  -6   19.90    4.52
   5  -3   6   35.88    9.31
   5  -3   6   23.06    5.65
  -5   3  -7   11.50    3.83
   5  -3   7    7.63    3.24
   5  -3   7    7.10    3.22
   5  -3   8   -0.02    0.37
   5  -3   8    1.44    1.28
   5  -3   9    4.84    2.73
   5  -3   9    7.33    3.38
   5  -3  10    0.40    1.20
   5  -3  10    1.25    1.55
   5  -3  11   -0.65    1.20
  -5   2   8    9.36    5.25
  -5   2   7    4.03    2.89
  -5   2   6   -0.94    1.95
  -5   2   5   14.86    5.66
  -5   2   5   16.94    7.24
  -5   2   4   67.35   15.49
  -5   2   4   70.82   11.77
   5  -2  -4   82.61   10.44
  -5   2   3   51.67    9.67
  -5   2   3   72.48   17.28
  -5   2   3   76.81   11.74
   5  -2  -3   94.86   11.45
   5  -2  -2    2.38    1.59
   5  -2  -2    5.68    3.02
  -5   2   2    4.40    2.64
   5  -2  -1    1.46    1.34
   5  -2  -1    4.02    2.33
  -5   2   1    1.59    1.79
  -5   2   1    6.10    5.81
   5  -2   0   98.81   12.32
  -5   2   0   91.93   19.92
   5  -2   0  130.04   12.83
  -5   2  -1    2.57    1.90
   5  -2   1    4.76    2.58
   5  -2   1    1.77    1.51
   5  -2   2   20.62    5.50
  -5   2  -2   10.96    3.62
   5  -2   2   14.40    4.44
  -5   2  -2   11.08    7.23
   5  -2   3    4.94    2.60
   5  -2   3    3.68    2.20
  -5   2  -3    4.36    2.17
   5  -2   4  270.09   18.96
   5  -2   4  180.18   16.63
   5  -2   5    0.95    0.14
   5  -2   5    1.56    2.21
   5  -2   6  100.88   12.10
  -5   2  -6  101.83   11.04
   5  -2   6   93.32   11.33
   5  -2   7  115.21   13.35
  -5   2  -7  132.06   12.91
   5  -2   7  122.90   12.37
   5  -2   8   43.53    8.47
   5  -2   8   55.19    8.16
   5  -2   9    5.17    2.83
   5  -2   9    2.08    1.92
   5  -2  10   18.20    4.61
   5  -2  10   13.50    4.95
   5  -2  11    5.42    3.12
   5  -2  12   17.82    6.45
  -5   1   8   17.31    6.47
  -5   1   7    2.50    2.50
  -5   1   6    5.59    3.26
  -5   1   6    1.75    3.11
  -5   1   5   -2.26    6.15
  -5   1   5    6.84    4.06
  -5   1   4   25.46    7.87
  -5   1   4    6.77    6.38
   5  -1  -3  421.41   29.16
  -5   1   3  128.43   30.97
   5  -1  -2  196.45   20.15
   5  -1  -2  210.92   15.94
   5  -1  -1   12.76    4.06
   5  -1  -1    7.64    3.64
  -5   1   1    7.42    3.46
   5  -1   0  225.23   19.64
   5  -1   0  354.99   21.70
   5  -1   1    2.53    2.07
  -5   1  -1   -0.98    2.94
   5  -1   1   -0.01    0.42
  -5   1  -2   23.67    5.81
   5  -1   2   31.29    6.22
   5  -1   2   18.01    5.52
   5  -1   3  358.57   23.09
   5  -1   3  426.76   22.23
   5  -1   4  115.06   13.09
   5  -1   4   86.79   10.06
   5  -1   5   44.39    8.71
  -5   1  -5   46.84    7.86
   5  -1   5   50.27    7.73
  -5   1  -5   42.89   13.38
  -5   1  -6  142.57   13.93
   5  -1   6  119.90   12.13
  -5   1  -7    0.78    1.12
   5  -1   7    0.89    1.55
  -5   1  -7    1.73    1.13
   5  -1   7    0.71    0.89
  -5   1  -8    1.26    2.56
   5  -1   8    0.20    1.12
   5  -1   8    4.83    2.39
   5  -1   9   -0.70    0.17
   5  -1   9    2.08    2.18
   5  -1  10   -0.52    0.40
   5  -1  11    0.86    1.67
   5  -1  12    0.53    1.05
  -5   0   8   32.32    9.02
  -5   0   7    2.03    2.82
  -5   0   6   36.37    9.22
  -5   0   5  168.72   21.05
   5   0  -4   68.71   12.59
  -5   0   4   63.95   11.11
   5   0  -3    4.99    3.50
  -5   0   3    1.50    2.67
  -5   0   2  194.99   19.20
  -5   0   2  222.77   26.55
   5   0  -1  436.99   29.07
  -5   0   1  338.56   24.62
  -5   0   1  439.04   34.14
   5   0   0    5.04    2.60
  -5   0   0    8.39    5.09
  -5   0   0    3.85    2.26
   5   0   1   82.58   11.81
  -5   0  -1   78.19   15.42
   5   0   2   58.39   10.12
  -5   0  -2   52.01   14.39
   5   0   2   53.73    7.68
   5   0   3   37.06    7.85
  -5   0  -3   18.16   10.37
   5   0   4   84.50   12.38
  -5   0  -4   92.98   11.06
   5   0   5   58.43    9.82
  -5   0  -5   64.12    9.34
   5   0   5   71.56    8.95
  -5   0  -6    4.36    4.54
   5   0   6   13.14    4.67
   5   0   6   18.43    4.33
  -5   0  -6   21.83    5.53
   5   0   6   13.30    4.80
   5   0   7    3.81    2.52
  -5   0  -7    9.36    7.77
  -5   0  -8   11.09    6.13
   5   0   8    7.86    3.72
  -5   0  -9   -0.73    1.56
   5   0   9   -0.11    0.88
   5   0  10    1.26    1.17
   5   0  11    3.70    3.23
   5   0  12    3.20    3.05
  -5  -1   8   11.98    6.23
  -5  -1   7   17.98    6.89
  -5  -1   6   21.86    7.75
  -5  -1   6   21.83    8.65
  -5  -1   5   -2.89    2.87
  -5  -1   5   -0.34    1.73
   5   1  -5    1.31    2.49
   5   1  -4   40.64   10.14
  -5  -1   4   31.02    5.73
   5   1  -3   75.74   13.57
  -5  -1   3   73.53    8.40
  -5  -1   2   18.59    4.18
  -5  -1   2   19.83    6.71
   5   1  -2   22.44    7.25
  -5  -1   1    6.79    3.69
   5   1  -1    5.16    3.52
  -5  -1   1    4.95    2.30
   5   1   0    4.78    2.80
  -5  -1   0    7.76    2.61
  -5  -1   0    4.95    2.81
  -5  -1  -1    4.33    2.75
   5   1   1    2.58    2.39
   5   1   2  545.44   32.50
  -5  -1  -2  586.11   22.08
   5   1   3  154.75   17.15
  -5  -1  -3  154.35   15.41
  -5  -1  -3  173.45   12.90
   5   1   4   30.63    7.78
  -5  -1  -4   33.08    6.96
  -5  -1  -4   33.82    6.26
   5   1   5   28.90    7.28
  -5  -1  -5   33.19    8.95
  -5  -1  -5   29.85    6.61
   5   1   6   35.26    8.12
   5   1   6   30.75    7.19
  -5  -1  -6   25.28   10.77
  -5  -1  -7   42.83   15.78
   5   1   7   81.71   12.33
  -5  -1  -8   14.53    9.57
   5   1   8   33.65    7.99
  -5  -1  -9    2.90    2.79
   5   1   9    0.92    2.23
   5   1  10   46.44    9.91
   5   1  11   30.66    8.19
   5   1  12   -1.01    1.11
  -5  -2   8   60.58   12.69
  -5  -2   7    0.59    1.60
  -5  -2   6   10.39    5.62
  -5  -2   6   13.19    3.50
  -5  -2   5    4.50    3.30
   5   2  -5    4.90    3.79
  -5  -2   5    6.06    2.48
   5   2  -4  205.78   23.02
  -5  -2   4  194.30   14.26
   5   2  -3    9.47    4.71
  -5  -2   3    6.79    2.62
  -5  -2   2    1.68    1.33
   5   2  -2    1.78    2.60
  -5  -2   1    2.62    1.57
   5   2  -1    1.96    2.29
  -5  -2   1    4.87    3.34
  -5  -2   0    1.04    1.74
  -5  -2   0    1.21    1.03
   5   2   0    2.09    1.72
   5   2   1  427.74   29.91
  -5  -2  -1  415.84   29.36
  -5  -2  -1  457.25   18.80
  -5  -2  -2    9.86    2.83
  -5  -2  -2    6.82    3.38
   5   2   2    4.99    2.77
   5   2   3   68.98   11.91
  -5  -2  -3   72.11   10.74
  -5  -2  -3   85.46    8.11
   5   2   4   71.98   12.47
  -5  -2  -4   71.06   10.79
  -5  -2  -4   68.62    7.26
   5   2   5  145.16   16.92
  -5  -2  -5  153.47   15.60
  -5  -2  -5  154.26   10.99
   5   2   6  101.61   14.32
   5   2   6   96.48   13.13
  -5  -2  -6  117.43   13.43
  -5  -2  -6   87.81    8.98
   5   2   7   30.63    7.52
  -5  -2  -7   49.97    9.76
   5   2   8   20.94    6.38
  -5  -2  -8    2.14    3.47
  -5  -2  -9    1.35    5.26
   5   2   9   12.37    5.08
   5   2  10   30.72    8.23
   5   2  11    4.89    3.77
   5   2  12   21.69    7.53
  -5  -3   8   48.52   11.66
  -5  -3   7   14.18    6.42
  -5  -3   6   32.22    9.74
   5   3  -5   61.54   13.23
  -5  -3   5   72.08   13.37
  -5  -3   5   48.76    6.99
   5   3  -4    0.98    0.88
  -5  -3   4    2.75    1.44
   5   3  -3    1.96    2.96
   5   3  -2    1.05    2.45
   5   3  -1   12.15    5.32
  -5  -3   1    7.07    4.05
  -5  -3   0    1.74    2.19
   5   3   0    1.97    2.34
  -5  -3  -1    0.69    1.43
   5   3   1   -0.92    1.79
   5   3   2   62.68   11.80
  -5  -3  -2   47.91    9.76
   5   3   3  175.93   19.72
  -5  -3  -3  151.62   16.10
   5   3   4    1.60    2.03
  -5  -3  -4    3.21    2.22
   5   3   5    4.15    3.36
  -5  -3  -5    3.19    2.36
  -5  -3  -5    3.53    1.81
   5   3   6    0.77    1.58
  -5  -3  -6    0.43    0.64
   5   3   6    1.52    2.51
   5   3   7  795.10   40.29
  -5  -3  -7  770.88   24.10
  -5  -3  -8   28.88    5.02
   5   3   8   28.63    7.54
  -5  -3  -9   -0.07    2.32
   5   3   9    2.18    2.53
   5   3  10    9.63    5.00
   5   3  11   15.48    6.28
   5   3  12   70.10   14.11
  -5  -4   8    3.98    3.44
  -5  -4   7    7.02    4.41
  -5  -4   6   59.65   13.30
   5   4  -5   75.45   14.59
  -5  -4   5   64.76   12.90
   5   4  -4    8.70    5.05
   5   4  -3   40.34   10.55
   5   4  -2    2.03    2.37
   5   4  -1    3.33    2.79
  -5  -4   0   15.56    6.12
   5   4   0   16.78    6.21
  -5  -4  -1   13.26    5.74
   5   4   1   11.09    5.42
  -5  -4  -2   17.55    6.23
   5   4   2    9.91    5.03
   5   4   3   29.90    8.64
  -5  -4  -3   25.44    6.75
   5   4   4   41.36   10.50
  -5  -4  -4   31.57    7.56
   5   4   5    3.89    2.86
  -5  -4  -5    4.57    2.77
   5   4   6   13.80    5.59
   5   4   7  255.62   23.82
  -5  -4  -7  226.07   13.01
  -5  -4  -8    4.96    1.97
   5   4   8    6.28    3.86
   5   4   9  407.12   31.68
  -5  -4  -9  364.54   16.49
   5   4  10  177.30   21.89
   5   4  11    0.53    0.21
   5   4  12   11.14    6.09
  -5  -5   7   -0.63    2.21
  -5  -5   6    3.61    3.23
  -5  -5   5   37.09   10.04
   5   5  -5   27.84    9.01
   5   5  -4   93.32   16.69
   5   5  -3   41.19   11.30
   5   5  -2    5.25    3.88
   5   5  -1    1.69    2.69
   5   5   0    6.36    4.20
   5   5   1   14.55    6.38
  -5  -5  -2    6.80    4.16
   5   5   2    5.78    3.91
   5   5   3   53.14   11.76
  -5  -5  -3   47.62    9.65
   5   5   4   17.78    7.12
  -5  -5  -4   11.01    4.52
   5   5   5   15.77    6.73
   5   5   6   34.49    9.66
   5   5   7   60.80   13.14
   5   5   7   49.09   10.80
   5   5   8  146.80   19.17
   5   5   9   79.39   14.52
  -5  -5  -9   72.42    7.58
   5   5  10   18.86    7.42
   5   5  11   60.21   13.68
   5   5  12   90.98   17.34
  -5  -6   7    5.69    3.66
  -5  -6   6    8.27    4.80
  -5  -6   5    2.37    2.72
   5   6  -5    2.62    2.98
   5   6  -4    1.31    2.35
   5   6  -3   74.27   14.39
   5   6  -2   48.77   11.88
   5   6  -1    0.71    1.24
   5   6   0   11.16    5.01
   5   6   1    1.21    1.10
   5   6   2  103.28   17.01
   5   6   3   -1.13    2.47
   5   6   4    5.75    4.71
   5   6   5    0.60    2.12
   5   6   6    3.66    3.99
   5   6   7   44.96   11.52
   5   6   8   12.51    5.89
   5   6   9   11.47    5.16
   5   6  10    9.65    5.46
   5   6  11    2.68    3.47
   5   6  12    2.91    2.59
  -5  -7   6   33.50    8.97
  -5  -7   5   11.98    5.69
   5   7  -5   12.03    5.78
   5   7  -4  203.07   24.44
  -5  -7   4  144.52   17.85
   5   7  -3   13.81    6.37
   5   7  -2   -0.73    1.22
   5   7  -1    0.84    2.26
   5   7   0  125.78   18.25
   5   7   1    0.48    1.90
   5   7   2    3.93    3.50
   5   7   3   26.50    8.93
   5   7   4    1.11    1.30
   5   7   5   88.79   17.34
   5   7   6   21.95    9.07
   5   7   7   -0.66    0.58
   5   7   8    3.06    3.58
   5   7   9   96.97   17.26
   5   7  10   19.91    8.08
   5   7  11    7.81    5.26
  -5  -8   6   21.27    6.02
  -5  -8   6   26.61    8.10
  -5  -8   5   36.89    9.77
   5   8  -5   49.94   12.06
  -5  -8   5   31.07    7.48
  -5  -8   4    1.27    2.79
   5   8  -4    1.75    2.50
   5   8  -3   14.61    6.36
   5   8  -2   23.99    8.25
   5   8  -1    3.85    2.61
   5   8   0    1.91    2.48
   5   8   1    9.19    5.47
   5   8   2  126.86   19.80
   5   8   3    9.33    5.31
   5   8   4    7.14    4.32
   5   8   5    0.44    1.44
   5   8   6    0.72    2.45
   5   8   7   66.84   16.03
   5   8   8   -1.05    2.73
   5   8   9   15.88    8.79
  -5  -8  -9   11.53    3.84
   5   8  10    2.39    3.26
   5   8  10   -2.06    3.29
   5   8  11    0.87    2.21
  -5  -9   4    4.00    3.14
   5   9  -4   -0.72    2.85
  -5  -9   4    0.44    1.79
  -5  -9   3   -0.88    2.37
  -5  -9   3    0.86    1.32
   5   9  -2   45.87   11.77
   5   9  -1    7.43    4.66
   5   9   0    9.42    5.07
   5   9   1   18.64    7.08
   5   9   2    2.03    2.44
   5   9   3    4.50    4.62
   5   9   4    0.18    0.64
   5   9   5   14.89    7.13
   5   9   6   14.19    7.05
   5   9   7    3.22    4.58
   5   9   8   20.32    9.41
  -5  -9  -8   13.98    4.69
  -5  -9  -9   16.46    5.24
   5   9   9   25.52   10.98
   5   9  10   25.80   11.26
   5  10  -1   -0.56    1.94
   5  10   0    3.43    3.36
  -5 -10   0    0.52    0.82
   5  10   1   13.70    6.34
  -5 -10  -1   13.27    5.32
   5  10   2   28.18    9.17
   5  10   3   27.16    9.31
   5  10   4   -4.11    4.25
  -5 -10  -4   -2.00    2.63
  -5 -10  -5   -0.86    1.35
   5  10   5    0.17    1.82
   5  10   6   -1.92    2.77
  -5 -10  -6   -2.30    2.05
  -5 -10  -7    1.29    1.96
   5  10   7    1.63    0.64
  -5 -10  -8    6.54    3.37
   5  10   8    6.50    5.16
   5  10   9    6.92    6.37
   5  11   4   22.14    8.97
  -5 -11  -5    1.67    2.12
   5  11   5    0.96    1.95
  -5 -11  -6    1.40    1.78
   5  11   6    3.74    4.11
   5  11   7   13.53    7.51
  -5 -11  -7    4.29    3.20
   5  11   8    2.28    2.78
  -5 -11  -8   -2.76    2.49
   6  -7  -5   60.03   11.86
   6  -7  -4    3.22    2.80
   6  -7  -3    6.91    5.43
   6  -7  -2   62.54   16.38
   6  -7  -1   28.13   14.47
   6  -7   0   41.22   17.56
   6  -7   1   48.21   19.98
   6  -7   2   54.66   22.77
   6  -6  -5   -0.33    1.10
   6  -6  -4   15.43    5.80
   6  -6  -3    4.67    4.66
   6  -6  -2    0.49    1.92
   6  -6  -1   38.15   12.23
   6  -6   0   78.79   20.69
   6  -6   1   18.04   11.56
   6  -6   2   37.94   16.45
   6  -6   3   12.94    9.93
   6  -6   4   33.63   14.98
   6  -6   5   24.67   13.99
   6  -6   6   13.21   10.89
   6  -6   7   34.56   12.66
   6  -5  -6    5.71    3.70
  -6   5   6    3.84    3.03
   6  -5  -5   37.08    8.74
  -6   5   5   37.14    8.76
   6  -5  -4   64.35   11.19
  -6   5   4   56.52    9.81
  -6   5   3    7.79    3.36
   6  -5  -3    7.71    3.34
  -6   5   2    3.49    2.22
   6  -5  -2    0.65    1.13
   6  -5  -1   95.34   15.95
  -6   5   1   64.57    9.10
   6  -5   0   38.70   11.60
  -6   5   0   21.01    4.63
   6  -5   1   59.46   15.74
   6  -5   2   21.81   10.68
   6  -5   3   14.73    9.13
   6  -5   4   11.74    8.03
   6  -5   5   12.14    9.09
   6  -5   6   10.65    6.83
   6  -5   7   35.59   10.04
   6  -5   8   -2.32    3.10
   6  -5   9    1.30    2.22
  -6   4   7    3.26    3.15
  -6   4   6    6.16    3.71
   6  -4  -6    0.31    1.45
  -6   4   5   74.53   12.75
   6  -4  -5   95.38   13.22
  -6   4   4    9.52    4.61
   6  -4  -4   15.53    5.89
   6  -4  -3  104.79   13.78
  -6   4   3   74.05   11.98
   6  -4  -2  296.12   22.87
  -6   4   2  239.37   20.61
  -6   4   1   99.33   12.46
  -6   4   1  120.64   14.04
   6  -4   0    7.29    4.84
   6  -4   1   86.24    9.84
   6  -4   1  139.25   19.67
   6  -4   2  332.54   19.39
   6  -4   2  362.17   31.20
   6  -4   3   10.81    6.12
   6  -4   3    3.49    1.95
   6  -4   4    6.34    4.33
   6  -4   4    8.19    2.83
   6  -4   5    1.95    3.07
   6  -4   6   -0.44    2.33
   6  -4   7   -1.37    1.31
   6  -4   8   28.33    7.89
   6  -4   9    2.01    2.79
  -6   3   7   34.28    9.51
  -6   3   6   15.50    6.22
  -6   3   5   14.01    5.94
  -6   3   4    3.54    3.03
   6  -3  -4    3.06    2.26
  -6   3   3  130.30   17.73
   6  -3  -3  155.00   16.40
  -6   3   2   24.86    6.98
   6  -3  -2   43.85    8.77
  -6   3   2   21.83    6.64
   6  -3  -1   23.66    6.32
   6  -3  -1   28.29    7.11
  -6   3   1   12.82    4.66
   6  -3   0 1282.05   46.68
   6  -3   0 1370.17   46.76
   6  -3   1    7.31    4.06
   6  -3   1   -0.48    1.18
   6  -3   2    5.61    3.51
   6  -3   2    3.23    2.25
   6  -3   3   43.36    7.60
   6  -3   3   41.34    9.17
   6  -3   4   16.67    6.21
   6  -3   4   22.26    5.54
  -6   3  -5    4.64    2.35
   6  -3   5    3.25    2.59
   6  -3   5    5.73    2.86
  -6   3  -6    3.07    1.86
   6  -3   6    2.21    2.08
   6  -3   6    2.64    1.83
   6  -3   7   15.62    5.35
   6  -3   7   13.12    4.65
   6  -3   8    6.66    3.53
   6  -3   8    9.53    3.99
   6  -3   9    3.54    2.65
   6  -3  10   17.00    5.81
   6  -3  10    6.58    3.95
  -6   2   7    8.31    4.88
  -6   2   6    3.07    2.81
  -6   2   5   15.22    6.48
  -6   2   4   46.93   11.00
  -6   2   3   22.51    7.03
   6  -2  -3   23.19    6.23
   6  -2  -2   -0.89    1.81
   6  -2  -2   -0.90    2.27
   6  -2  -1   87.57   13.52
   6  -2  -1  104.44   12.96
   6  -2   0   41.62    9.08
  -6   2   0   29.51    7.03
   6  -2   1    3.16    3.29
  -6   2  -1   -0.29    1.59
   6  -2   1    0.57    1.58
   6  -2   2  315.97   23.03
  -6   2  -2  319.97   21.79
   6  -2   3   35.40    8.07
  -6   2  -3   37.26    7.41
   6  -2   3   44.67    8.18
   6  -2   4   17.38    4.95
   6  -2   4   13.77    5.28
  -6   2  -4   11.39    3.72
   6  -2   5  161.25   16.55
  -6   2  -5  129.73   13.09
   6  -2   5  117.19   13.13
   6  -2   6  323.53   24.61
  -6   2  -6  297.66   20.74
   6  -2   6  273.10   19.97
   6  -2   7    8.61    4.03
   6  -2   7    5.56    3.48
   6  -2   8    3.19    2.29
   6  -2   8    4.84    2.51
   6  -2   9    1.18    1.66
   6  -2   9    1.92    2.01
   6  -2   9   -0.65    0.73
   6  -2  10    5.84    3.45
   6  -2  10    1.70    1.24
   6  -2  11    1.70    1.22
   6  -2  12   20.26    6.73
  -6   1   7   11.83    6.36
  -6   1   6    5.63    4.25
  -6   1   5   93.96   15.91
  -6   1   4    3.77    3.42
   6  -1  -3  104.87   15.98
   6  -1  -2  202.07   22.42
   6  -1  -1   -0.03    0.69
   6  -1  -1   -0.74    1.53
  -6   1   1    0.19    0.89
  -6   1   0   15.66    5.41
   6  -1   0   25.89    7.13
   6  -1   0   31.15    6.66
   6  -1   1  337.77   25.43
  -6   1  -1  264.32   22.45
   6  -1   2  108.66   13.96
  -6   1  -2   97.50   13.03
   6  -1   3    1.42    1.32
   6  -1   3    0.22    1.38
  -6   1  -3    1.65    1.54
  -6   1  -4   28.68    6.60
   6  -1   4   36.99    7.67
   6  -1   4   16.85    6.06
   6  -1   5   93.51   13.24
  -6   1  -5   90.80   11.66
   6  -1   5  101.35   12.31
  -6   1  -6   19.28    5.54
   6  -1   6   23.10    7.13
   6  -1   6   20.08    5.27
   6  -1   7   31.51    8.05
   6  -1   7   41.82    7.32
   6  -1   8   17.40    6.14
   6  -1   8   24.66    5.79
   6  -1   9    6.64    3.47
   6  -1   9    7.62    3.64
   6  -1  10   11.18    4.91
   6  -1  11    0.46    2.03
   6  -1  12    1.71    1.27
  -6   0   7    5.25    4.46
  -6   0   6   17.11    7.06
  -6   0   5    0.44    2.19
   6   0  -4   47.22   11.26
  -6   0   4   44.02   10.20
   6   0  -3    6.11    3.87
   6   0  -2   54.44   12.20
   6   0  -1  169.07   19.99
  -6   0   0    6.11    3.44
   6   0   0    4.56    2.62
  -6   0  -1    0.08    0.98
   6   0   1    0.16    0.24
   6   0   2   87.69   13.49
  -6   0  -2   67.53   10.96
   6   0   3   59.11   11.32
  -6   0  -3   60.82   10.29
   6   0   3   80.90   10.30
   6   0   4    4.14    2.34
  -6   0  -4    1.74    1.23
   6   0   4    1.52    1.52
   6   0   5    4.64    3.44
   6   0   5    4.65    2.23
  -6   0  -5    5.65    3.09
   6   0   6    0.89    1.45
   6   0   7   28.27    7.50
   6   0   8    8.08    4.50
   6   0   8    7.76    3.50
   6   0   9   12.63    5.31
   6   0  10    1.10    2.13
   6   0  11    3.82    2.84
   6   0  12   17.41    6.54
  -6  -1   7    0.57    2.06
  -6  -1   6    7.84    4.91
  -6  -1   5   12.46    6.58
   6   1  -5   10.28    5.96
   6   1  -4    4.11    3.03
   6   1  -3    1.34    0.65
   6   1  -2    0.50    1.76
   6   1  -1   29.18    8.55
  -6  -1   0    9.26    4.21
   6   1   0    8.94    4.66
  -6  -1  -1   22.49    7.43
   6   1   1   15.10    5.81
  -6  -1  -2   12.44    4.92
   6   1   2   10.50    4.77
  -6  -1  -3   17.22    5.69
   6   1   3   13.43    5.50
   6   1   4   50.00   10.57
  -6  -1  -4   51.19    9.84
   6   1   5  104.54   15.62
  -6  -1  -5  113.89   13.83
   6   1   6   25.70    7.72
   6   1   7    5.85    3.41
   6   1   8   37.89    9.50
   6   1   8   32.55    8.02
   6   1   9    3.60    2.41
   6   1  10    5.17    3.34
   6   1  11   68.89   13.01
   6   1  12    8.28    5.57
  -6  -2   7   14.18    6.81
  -6  -2   6   13.11    6.59
   6   2  -5   93.84   17.12
  -6  -2   5   60.14   13.96
   6   2  -4   41.69   11.34
   6   2  -3   42.97   11.19
   6   2  -2   11.80    5.72
   6   2  -1    0.07    0.48
   6   2   0   95.49   15.36
   6   2   1   37.96    9.81
  -6  -2  -1   37.18    9.38
  -6  -2  -2    2.38    2.45
   6   2   2    2.67    3.06
  -6  -2  -3    2.03    1.52
  -6  -2  -3    0.36    0.93
  -6  -2  -3    0.55    0.69
   6   2   3    1.56    2.03
   6   2   4    7.48    4.06
  -6  -2  -4    7.36    2.62
  -6  -2  -4    6.11    3.31
   6   2   5    6.66    3.81
  -6  -2  -5    3.31    1.45
   6   2   6   -0.09    1.47
  -6  -2  -6   -7.54    3.23
   6   2   7   11.57    5.49
  -6  -2  -7    8.17    4.90
   6   2   8   50.32   11.34
   6   2   8   44.00    9.82
  -6  -2  -8   30.69   12.04
   6   2   9   35.35    8.89
   6   2  10   11.41    5.19
   6   2  11   21.42    7.58
   6   2  12   74.42   14.75
  -6  -3   7   33.88   10.48
  -6  -3   6   -1.43    2.21
  -6  -3   5   28.88    9.43
   6   3  -5   38.51   11.12
   6   3  -4    3.21    3.22
   6   3  -3   11.11    5.88
   6   3  -2    1.40    0.96
   6   3  -1   17.32    6.97
   6   3   0    9.76    4.92
   6   3   1    0.62    2.46
   6   3   2  524.70   37.42
   6   3   3   76.35   14.28
   6   3   4   -0.47    1.79
   6   3   5  251.18   26.56
   6   3   6   16.51    6.40
   6   3   7  122.77   17.69
   6   3   8   58.26   12.57
   6   3   8   44.87   10.19
  -6  -3  -8   50.89    8.19
   6   3   9   49.42   11.17
  -6  -3  -9   29.03    9.65
   6   3  10   45.82   10.79
   6   3  11    0.77    0.24
   6   3  12   16.25    6.74
  -6  -4   6    7.86    5.11
   6   4  -5   87.66   17.40
  -6  -4   5   77.31   15.09
   6   4  -4   -0.47    1.22
   6   4  -3    2.81    3.98
   6   4  -2    0.04    1.32
   6   4  -1    0.35    1.86
   6   4   0   40.77   10.67
   6   4   1    2.85    2.80
   6   4   2  128.35   19.06
   6   4   3   21.51    8.15
   6   4   4  516.63   39.76
   6   4   5 1200.44   61.00
   6   4   6  138.08   19.92
   6   4   7  378.80   32.48
   6   4   8   16.27    6.96
   6   4   9   -0.10    1.09
   6   4  10   22.89    7.59
   6   4  11   66.50   14.03
   6   4  12   48.63   12.24
  -6  -5   6    2.85    3.06
  -6  -5   5    6.08    4.70
   6   5  -5   14.00    6.88
   6   5  -4   42.78   12.48
   6   5  -3   19.58    7.88
   6   5  -2    1.26    1.26
   6   5  -1    0.10    0.50
   6   5   0    4.16    3.47
   6   5   1   14.35    6.53
   6   5   2  103.09   17.92
   6   5   3   93.51   16.86
   6   5   4   15.15    6.85
   6   5   5  130.17   20.64
   6   5   6   93.37   17.91
   6   5   7  282.22   30.29
   6   5   8   98.57   17.74
   6   5   9   30.26   10.27
   6   5   9   28.08    9.04
   6   5  10    5.83    4.11
   6   5  11   44.56   11.60
  -6  -6   6    0.65    0.98
  -6  -6   5    2.26    3.29
   6   6  -5   -0.19    1.29
   6   6  -4    9.30    5.82
   6   6  -3   26.21    9.40
   6   6  -2    3.19    2.17
   6   6  -1   30.07    9.57
   6   6   0   34.28   10.93
   6   6   1   42.33   11.72
   6   6   2  123.21   19.86
   6   6   3   67.91   14.60
   6   6   4    4.77    3.28
   6   6   5    0.27    1.15
   6   6   6   17.59    8.42
   6   6   7    4.17    3.34
   6   6   8    5.48    4.53
   6   6   9    5.17    4.43
   6   6  10    5.80    4.32
   6   6  10    4.67    3.71
   6   6  11    2.77    2.43
   6   7  -5   69.82   15.39
  -6  -7   5   83.36   18.21
   6   7  -4    5.78    4.68
   6   7  -3   -1.10    2.96
   6   7  -2   11.70    6.31
   6   7  -1    0.68    0.96
   6   7   0   62.65   14.23
   6   7   1  107.37   18.50
   6   7   2    0.54    3.12
   6   7   3  138.17   21.91
   6   7   4   43.01   12.88
   6   7   5   22.98    9.53
   6   7   6   -0.28    1.78
   6   7   7   18.12    8.65
   6   7   8    2.95    4.14
   6   7   9   10.01    6.86
   6   7  10    6.77    4.58
   6   7  11    3.83    4.20
   6   7  11    5.17    4.92
  -6  -8   5    4.76    4.51
  -6  -8   4   -0.40    2.97
   6   8  -4    0.82    3.26
   6   8  -3   24.49    9.34
   6   8  -2    0.80    1.90
   6   8  -1   15.24    7.52
   6   8   0    5.36    4.34
   6   8   1   64.98   14.44
   6   8   2   27.43    9.88
   6   8   3   20.99    9.37
   6   8   4   -2.04    3.65
   6   8   5    5.19    4.44
   6   8   6    2.02    3.33
   6   8   7   46.41   15.27
   6   8   8    0.95    2.23
   6   8   9    7.99    5.97
   6   8  10    1.12    3.00
   6   9  -4   95.92   18.05
  -6  -9   4   89.72   17.90
   6   9  -3   -2.49    2.93
   6   9  -2    0.22    0.98
   6   9  -1    8.88    5.54
   6   9   0   50.28   12.97
   6   9   1    4.18    3.73
   6   9   2    0.98    1.14
   6   9   3    3.46    5.33
   6   9   4   -1.66    1.45
   6   9   5   27.28   10.69
   6   9   6    4.17    4.49
   6   9   7   12.95    7.96
   6   9   8   21.77   10.58
   6   9   9    9.21    6.58
   6  10  -2   10.28    5.69
   6  10  -1    5.52    4.94
   6  10   0    3.79    4.42
   6  10   1   -0.69    2.38
   6  10   2    0.40    2.45
   6  10   3    3.62    3.37
   6  10   4    3.84    3.24
   6  10   5    0.45    1.40
   6  10   6    7.65    5.53
   6  10   7   27.59   11.80
   6  10   8    6.23    4.92
  -6 -10  -8    4.11    2.77
  -6 -10  -9    2.60    2.18
   6  11   3    0.79    1.52
   6  11   4   -0.28    0.31
   6  11   5    7.94    6.26
   6  11   6   -0.94    2.64
   6  11   7   18.97    9.10
   7  -6  -3   -0.74    2.04
   7  -6  -2    0.93    1.72
   7  -6  -1    2.72    2.89
   7  -6   0   57.97   12.84
   7  -6   1   29.90    9.80
   7  -6   2   25.35    9.01
   7  -5  -5    8.37    4.76
   7  -5  -4    8.26    4.68
   7  -5  -3    1.19    1.60
   7  -5  -2    2.34    2.08
   7  -5  -1   41.97    9.48
   7  -5   0   42.74    9.75
   7  -5   1    3.96    3.31
   7  -5   2    1.13    0.24
   7  -5   3    6.13    4.07
   7  -5   4    0.98    0.85
   7  -5   5    1.29    1.95
   7  -5   6   38.29    9.45
   7  -5   7    1.41    1.13
  -7   4   6   27.66    8.38
  -7   4   5    7.68    3.92
   7  -4  -5    7.85    4.39
  -7   4   4   69.76   12.77
   7  -4  -4   99.98   14.53
  -7   4   3   78.11   12.96
   7  -4  -3  111.14   15.67
  -7   4   2    0.47    0.91
   7  -4  -2    6.79    4.64
  -7   4   1   26.69    7.02
   7  -4  -1   38.95    8.71
   7  -4   0    0.49    0.95
   7  -4   1    1.53    1.62
   7  -4   1    0.81    1.59
   7  -4   2   16.64    5.89
   7  -4   3    4.49    3.12
   7  -4   4    4.37    3.03
   7  -4   5    0.71    1.48
   7  -4   6    7.64    3.82
   7  -4   7   18.94    6.21
   7  -4   8   52.72   10.45
   7  -4   9   17.67    6.71
  -7   3   6   10.18    5.20
  -7   3   5   99.46   16.04
  -7   3   4   27.97    8.28
  -7   3   3   -0.34    3.17
   7  -3  -3    2.62    2.09
  -7   3   2   36.97    8.80
   7  -3  -2   57.91   10.46
   7  -3  -1    1.33    1.86
   7  -3  -1   -0.25    1.74
   7  -3   0   10.52    4.34
   7  -3   0    8.87    4.77
   7  -3   1    4.24    3.17
   7  -3   1    0.75    1.34
   7  -3   2   23.64    6.44
   7  -3   2   32.00    7.66
  -7   3  -2   17.84    5.31
   7  -3   3   14.28    4.74
   7  -3   3   24.17    6.82
  -7   3  -3   13.20    4.31
   7  -3   4   40.36    8.31
   7  -3   4   32.69    8.37
   7  -3   5    0.71    0.68
   7  -3   5    1.84    2.48
   7  -3   6   11.38    4.67
   7  -3   6    7.33    3.87
   7  -3   7    4.20    2.93
   7  -3   8   10.75    5.09
   7  -3   9   12.16    5.55
   7  -3  10   32.97    8.58
  -7   2   6   48.53   12.46
  -7   2   5    2.53    3.57
  -7   2   4    6.85    4.73
  -7   2   3    9.61    5.13
   7  -2  -2  118.09   17.06
   7  -2  -2  121.76   14.87
   7  -2  -1    3.81    2.99
   7  -2  -1    1.11    0.89
   7  -2   0    0.11    1.40
   7  -2   0    1.10    1.52
   7  -2   1  180.43   19.71
  -7   2  -1  129.48   15.77
  -7   2  -2   -0.89    1.83
   7  -2   2   -0.01    0.76
   7  -2   2   -1.17    2.49
  -7   2  -2    0.21    1.42
   7  -2   3   21.18    6.11
   7  -2   3   12.48    5.21
  -7   2  -3   12.14    4.58
   7  -2   4    7.68    3.49
   7  -2   4    4.76    3.33
  -7   2  -4    8.99    3.85
   7  -2   5   21.24    6.83
   7  -2   5   21.10    6.92
   7  -2   6    1.22    1.80
   7  -2   6    0.95    1.98
   7  -2   7    6.84    3.91
   7  -2   7    6.96    3.54
   7  -2   8    0.47    1.09
   7  -2   8    2.18    2.07
   7  -2   9    4.65    3.41
   7  -2   9    2.88    3.13
   7  -2  10   12.63    5.01
  -7   1   6    0.97    1.23
  -7   1   5    2.98    3.55
  -7   1   4   28.92    9.49
   7  -1  -3   31.06    9.17
   7  -1  -2    6.57    4.45
   7  -1  -1   24.95    8.10
   7  -1   0  344.34   29.35
   7  -1   0  476.55   28.24
   7  -1   1   92.26   14.22
   7  -1   1  128.43   14.67
  -7   1  -2    0.60    0.82
   7  -1   2   -1.44    1.76
   7  -1   3   27.42    7.64
   7  -1   3   37.84    8.17
   7  -1   4  122.14   16.65
   7  -1   4  146.51   15.77
   7  -1   5    0.51    1.19
   7  -1   5   -0.38    0.90
   7  -1   6   12.64    5.49
   7  -1   6   19.05    5.55
   7  -1   7    1.17    1.46
   7  -1   7    1.77    2.57
   7  -1   8    6.69    4.08
   7  -1   8    9.19    4.02
   7  -1   9    5.05    3.41
   7  -1  10    2.15    2.98
   7  -1  11    2.30    2.85
   7  -1  12   10.31    5.41
   7  -1  12   12.92    5.65
  -7   0   6   32.95   10.73
  -7   0   5    4.68    5.02
  -7   0   4    1.46    2.72
   7   0  -4    3.66    4.18
   7   0  -3    6.09    3.98
   7   0  -2  190.60   24.30
   7   0  -1   64.36   13.78
   7   0   0    2.00    2.60
   7   0   1    0.76    1.09
   7   0   2    2.69    2.10
   7   0   3   10.19    4.99
   7   0   4   46.16   10.31
   7   0   5    1.25    1.49
   7   0   6   78.75   14.07
   7   0   7   34.28    9.67
   7   0   8   26.25    8.27
   7   0   9    4.15    3.61
   7   0  10    4.46    3.42
   7   0  11   10.45    5.28
   7   0  11    8.89    4.48
   7   0  12   33.56   10.08
   7   0  12   25.56    8.37
  -7  -1   6    2.49    2.71
  -7  -1   5    3.86    4.42
   7   1  -5    9.05    5.71
   7   1  -4    6.32    4.77
   7   1  -3    1.68    2.36
   7   1  -2    2.90    2.37
   7   1  -1   18.13    7.80
   7   1   0  190.00   22.37
   7   1   1   30.96    8.49
   7   1   2    4.50    3.88
   7   1   3   -0.30    2.35
   7   1   4   36.48    9.69
   7   1   5    0.82    1.78
   7   1   6  223.34   24.63
   7   1   7   13.42    5.96
   7   1   8   41.23   10.56
   7   1   9   68.61   13.60
   7   1  10    6.81    4.27
   7   1  11    1.49    2.32
   7   1  11    0.72    1.00
   7   1  12   27.25    9.26
  -7  -2   6    2.40    4.12
  -7  -2   5    5.42    3.97
   7   2  -5    5.53    3.78
   7   2  -4    6.49    4.94
   7   2  -3    6.34    4.82
   7   2  -2    7.10    4.71
   7   2  -1    1.27    3.29
   7   2   0   11.28    6.08
   7   2   1    5.27    3.96
   7   2   2    1.66    2.82
   7   2   3   14.24    6.74
   7   2   4    1.75    2.63
   7   2   5   11.01    5.72
   7   2   6   44.53   11.50
   7   2   7   85.07   15.78
   7   2   8   14.47    6.46
   7   2   9    6.03    4.27
   7   2  10   11.23    5.83
   7   2  10   13.54    5.89
   7   2  11    9.04    5.34
   7   2  11    4.20    3.46
   7   2  12    2.31    2.32
  -7  -3   6    3.71    3.16
  -7  -3   5    1.83    2.22
   7   3  -5    4.88    4.08
   7   3  -4   71.19   16.53
   7   3  -3   52.77   13.84
   7   3  -2   40.91   11.79
   7   3  -1   17.05    7.79
   7   3   0  197.05   24.64
   7   3   1   23.91    8.86
   7   3   2    3.58    2.50
   7   3   3  285.69   31.35
   7   3   4  188.87   23.96
   7   3   5   14.83    6.73
   7   3   6   99.25   17.62
   7   3   7   72.29   15.07
   7   3   8   63.44   14.45
   7   3   9   12.93    6.33
   7   3  10   18.54    7.72
   7   3  11    4.06    4.86
   7   3  11   -1.06    3.03
  -7  -4   5    1.15    1.63
   7   4  -5    2.98    4.48
   7   4  -4   10.66    6.38
   7   4  -3    9.32    5.84
   7   4  -2   83.39   17.16
   7   4  -1   70.55   15.41
   7   4   0  354.14   36.56
   7   4   1  110.78   18.92
   7   4   2  478.38   39.16
   7   4   3  152.42   22.18
   7   4   4  424.01   36.99
   7   4   5  194.00   25.27
   7   4   6   86.00   17.17
   7   4   7   30.37   10.67
   7   4   8   27.37    9.63
   7   4   9    8.95    5.27
   7   4  10    4.50    4.29
   7   4  11    3.31    4.41
   7   4  11   -2.34    3.63
  -7  -5   5   16.61    7.96
   7   5  -5   18.76    8.56
   7   5  -4   65.71   16.59
   7   5  -3   17.45    8.63
   7   5  -2    2.43    3.21
   7   5  -1   29.43   10.18
   7   5   0   25.85    9.47
   7   5   1    2.24    1.95
   7   5   2   45.54   12.50
   7   5   3   20.33    8.18
   7   5   4   62.53   14.82
   7   5   5   18.78    9.10
   7   5   6  363.34   36.03
   7   5   7   33.65   11.21
   7   5   8    4.99    4.57
   7   5   9   10.98    6.29
   7   5  10   63.45   15.28
   7   5  11    5.02    4.58
   7   5  11    0.71    2.35
   7   6  -4   21.75    9.60
   7   6  -3  154.46   24.69
   7   6  -2   36.34   11.98
   7   6  -1   37.67   11.54
   7   6   0   14.52    7.12
   7   6   1    9.40    6.33
   7   6   2   68.28   15.51
   7   6   3   11.69    6.33
   7   6   4   59.89   15.40
   7   6   5  134.60   22.23
   7   6   6    4.73    4.21
   7   6   7    0.54    2.13
   7   6   8    6.81    5.61
   7   6   9    8.39    6.18
   7   6  10   13.40    7.57
   7   6  11    5.55    5.28
   7   7  -3   -1.66    3.92
   7   7  -2   93.38   19.20
   7   7  -1   67.74   16.17
   7   7   0    5.12    4.85
   7   7   1   37.10   12.07
   7   7   2    1.66    3.71
   7   7   3    8.85    5.51
   7   7   4    8.96    6.20
   7   7   5   23.65   10.00
   7   7   6   58.33   15.64
   7   7   7   13.42    7.58
   7   7   8    2.32    4.67
   7   7   9   -0.17    0.86
   7   7  10    5.13    5.62
   7   8  -3    6.38    4.50
   7   8  -2    7.04    5.86
   7   8  -1   -0.24    0.99
   7   8   0    1.68    2.65
   7   8   1   -0.63    2.13
   7   8   2   -0.65    2.24
   7   8   3    3.72    4.49
   7   8   4    0.80    3.22
   7   8   5    0.75    1.81
   7   8   6    2.98    3.62
   7   8   7    5.89    5.68
   7   8   8    5.39    6.51
   7   8   9    3.32    4.91
   7   9  -2    7.44    5.41
   7   9  -1   15.88    8.18
   7   9   0    3.53    3.80
   7   9   1    1.58    2.10
   7   9   2   15.70    7.93
   7   9   3    3.47    4.06
   7   9   4   13.15    7.70
   7   9   5   -0.31    1.51
   7   9   6   13.62    7.51
   7   9   7    5.19    5.48
   7   9   8    1.97    2.69
   7  10   0    6.74    5.61
   7  10   1   -2.20    4.17
   7  10   2    4.51    4.38
   7  10   3   15.64    7.92
   7  10   4    9.07    5.97
   7  10   5    5.85    4.83
   7  10   6   53.83   16.59
   7  10   7    9.73    7.78
   7  11   3   -1.74    1.85
   7  11   4   17.33    8.97
   8  -4  -3    2.72    2.74
   8  -4  -2   11.44    5.00
   8  -4  -1   19.56    6.76
   8  -4   0    4.98    4.01
   8  -4   1   25.61    7.64
   8  -4   2    7.82    4.28
   8  -4   3    1.85    2.44
   8  -4   4   80.48   13.12
   8  -4   5   54.97   10.82
   8  -4   6   11.40    4.80
  -8   3   5    7.40    4.61
  -8   3   4   10.87    5.55
  -8   3   3   -2.62    2.63
  -8   3   2   36.48    9.62
   8  -3  -2   50.98   10.83
   8  -3  -1   29.63    8.72
   8  -3  -1   39.31    9.41
   8  -3   0    0.48    2.31
   8  -3   0   -0.80    2.49
   8  -3   1    4.51    3.37
   8  -3   1    5.26    3.75
   8  -3   2   33.09    9.00
   8  -3   2   18.89    6.38
   8  -3   3    0.34    0.47
   8  -3   3    1.89    2.33
   8  -3   4   -0.84    1.56
   8  -3   5   89.69   13.96
   8  -3   6  221.33   22.71
   8  -3   7   12.05    4.98
   8  -3   8   59.24   11.45
   8  -3   9   10.19    5.10
  -8   2   5    4.62    4.34
  -8   2   4    0.18    0.59
  -8   2   3    4.04    3.48
   8  -2  -2   12.50    6.10
   8  -2  -1    4.41    4.31
   8  -2   0    3.17    3.40
   8  -2   0   -0.04    0.29
   8  -2   1    2.69    2.38
   8  -2   1    2.80    3.52
   8  -2   2   13.53    5.32
   8  -2   2    4.75    4.20
   8  -2   3   -0.50    1.88
   8  -2   3   -1.88    2.76
   8  -2   4   11.42    5.20
   8  -2   4    5.72    4.04
   8  -2   5    0.52    1.44
   8  -2   5    1.46    2.66
   8  -2   6    7.30    3.83
   8  -2   6   12.70    5.61
   8  -2   7  116.99   16.77
   8  -2   7   88.60   13.87
   8  -2   8   11.55    4.90
   8  -2   9    0.41    1.85
  -8   1   5   30.86   10.99
  -8   1   4    1.58    0.97
   8  -1  -3   10.40    5.63
   8  -1  -2    7.38    5.25
   8  -1  -1  223.62   26.73
   8  -1   0    1.34    2.81
   8  -1   1    7.17    4.81
   8  -1   2    2.00    3.00
   8  -1   3   -0.05    1.32
   8  -1   3    2.14    2.77
   8  -1   4    1.54    1.90
   8  -1   4    1.20    1.82
   8  -1   5    5.26    3.87
   8  -1   5    3.45    2.18
   8  -1   6   12.82    5.45
   8  -1   6    6.96    4.56
   8  -1   7    4.13    3.45
   8  -1   8    4.53    3.63
   8  -1   9   -0.40    1.05
   8  -1  10    1.94    2.80
  -8   0   5   -1.84    2.87
  -8   0   4   -2.00    3.07
   8   0  -4   -1.70    3.31
   8   0  -3   52.50   13.47
   8   0  -2    3.26    2.95
   8   0  -1   43.13   11.70
   8   0   0    1.52    2.53
   8   0   1  116.89   18.34
   8   0   2   20.62    7.24
   8   0   3    2.05    2.67
   8   0   4    1.54    1.99
   8   0   5   -2.70    2.70
   8   0   6    6.19    3.96
   8   0   7    2.18    1.67
   8   0   8    3.68    2.97
   8   0   9    0.37    1.95
   8   0  10   33.05   10.34
   8   0  11    9.28    5.50
   8   0  12   -0.15    2.65
  -8  -1   5   17.00    8.83
   8   1  -4    0.90    0.42
   8   1  -3    0.74    2.19
   8   1  -2    1.57    3.68
   8   1  -1  166.22   24.34
   8   1   0   45.86   12.65
   8   1   1   68.99   14.77
   8   1   2    3.06    1.84
   8   1   3    0.82    1.87
   8   1   4  224.20   26.24
   8   1   5   -0.95    2.81
   8   1   6   17.28    7.28
   8   1   7    1.31    1.50
   8   1   8   -0.43    1.34
   8   1   9   17.70    7.46
   8   1  10   -1.09    2.10
   8   1  11    2.77    3.58
   8   1  12   12.16    5.87
   8   2  -4   11.74    7.83
   8   2  -3    5.67    3.70
   8   2  -2  116.82   21.44
   8   2  -1   -2.12    2.52
   8   2   0   75.42   15.58
   8   2   1   35.44   10.35
   8   2   2    9.07    6.18
   8   2   3    7.82    5.16
   8   2   4    6.67    4.76
   8   2   5    1.26    0.61
   8   2   6    2.36    2.80
   8   2   7   22.13    8.19
   8   2   8   -0.20    2.78
   8   2   9   14.10    7.01
   8   2  10   11.31    6.70
   8   2  11    0.43    1.69
   8   3  -4    1.00    2.79
   8   3  -3   57.36   15.54
   8   3  -2  221.23   29.43
   8   3  -1  154.12   24.23
   8   3   0   56.57   14.28
   8   3   1  135.94   22.45
   8   3   2  138.66   21.76
   8   3   3   -0.13    2.35
   8   3   4    8.30    5.63
   8   3   5   30.79   10.30
   8   3   6    1.82    1.47
   8   3   7    5.31    3.75
   8   3   8   24.47    9.53
   8   3   9   -1.02    2.04
   8   3  10   24.09    9.48
   8   3  11    0.30    0.54
   8   4  -4   25.08   10.85
   8   4  -3   61.17   16.34
   8   4  -2   21.97    9.83
   8   4  -1  175.21   26.57
   8   4   0  292.00   33.70
   8   4   1   51.88   13.84
   8   4   2   29.28   10.71
   8   4   3   36.44   11.72
   8   4   4    1.74    3.49
   8   4   5    0.89    1.69
   8   4   6   11.42    6.17
   8   4   7   13.44    7.09
   8   4   8    2.52    1.94
   8   4   9    5.86    5.49
   8   4  10    5.07    4.40
   8   4  11   -0.29    1.70
   8   5  -3    5.19    4.94
   8   5  -2   13.45    7.69
   8   5  -1    1.93    4.73
   8   5   0   26.93   10.20
   8   5   1   64.35   15.65
   8   5   2   36.51   11.82
   8   5   3   -1.37    2.23
   8   5   4   -0.28    0.79
   8   5   5  187.45   27.28
   8   5   6   -2.58    3.25
   8   5   7    5.86    3.96
   8   5   8    2.00    4.21
   8   5   9    0.15    1.05
   8   5  10    1.35    0.76
   8   6  -2   17.14    8.49
   8   6  -1    0.87    2.41
   8   6   0  100.46   20.88
   8   6   1   -1.92    3.97
   8   6   2    0.72    1.50
   8   6   3   26.55   10.34
   8   6   4  106.36   21.78
   8   6   5   23.92    9.85
   8   6   6    1.50    3.35
   8   6   7   37.36   12.61
   8   6   8   24.88   10.22
   8   6   9    5.40    5.56
   8   6  10    1.42    1.05
   8   7  -2   34.80   12.88
   8   7  -1    2.79    2.69
   8   7   0    0.47    2.34
   8   7   1    9.72    6.77
   8   7   2   18.92    8.72
   8   7   3    6.29    5.67
   8   7   4    2.41    1.56
   8   7   5   46.37   14.68
   8   7   6   91.12   19.87
   8   7   7   -1.82    4.65
   8   7   8    4.87    5.29
   8   7   9   22.83   10.74
   8   8   0    7.58    6.47
   8   8   1    5.95    5.21
   8   8   2    6.41    5.24
   8   8   3    1.07    2.98
   8   8   4   68.57   18.78
   8   8   5    2.90    4.18
   8   8   6   56.06   16.06
   8   8   7   -2.14    4.33
   8   8   8   36.33   14.00
   8   9   1   -0.01    2.64
   8   9   2    1.35    1.52
   8   9   3    2.38    5.09
   8   9   4    4.43    4.05
   8   9   5   -0.73    0.32
   8   9   6    8.30    6.89
   9  -3   1   17.33    6.59
   9  -3   2    2.98    3.61
  -9   2   3   62.92   15.59
   9  -2  -2   15.54    7.42
   9  -2  -1    7.10    3.99
   9  -2   0    4.36    3.31
   9  -2   1   10.69    5.54
   9  -2   2   18.92    7.22
   9  -2   2   29.90    8.22
   9  -2   3    3.68    3.39
   9  -2   3    1.13    1.65
   9  -2   4    7.34    4.46
   9  -2   4    8.31    4.40
   9  -2   5   52.40   10.63
   9  -2   6   50.57   10.77
   9  -2   7   33.29    8.41
  -9   1   3    6.19    4.75
   9  -1  -3    6.51    5.71
   9  -1  -2   -0.40    2.04
   9  -1  -1   58.44   14.51
   9  -1   0    1.20    1.18
   9  -1   1    0.16    1.34
   9  -1   2   -0.62    1.83
   9  -1   3    4.62    4.00
   9  -1   4    1.57    1.82
   9  -1   5   -1.26    1.94
   9  -1   6   18.16    7.71
   9  -1   7   20.03    8.02
   9  -1   8    0.95    2.43
   9   0  -3   18.26    8.66
   9   0  -2   -0.54    1.57
   9   0  -1    0.29    0.22
   9   0   0    2.64    2.63
   9   0   1   12.18    6.55
   9   0   2    5.13    4.31
   9   0   3   24.43    8.47
   9   0   4   33.91   10.30
   9   0   5    0.26    2.19
   9   0   6    4.83    3.96
   9   0   7    0.49    2.10
   9   0   8    0.01    0.68
   9   0   9    1.19    1.53
   9   0  10    1.95    3.17
   9   1  -3   -1.42    3.19
   9   1  -2   13.90    8.08
   9   1  -1  154.96   24.53
   9   1   0    4.17    4.45
   9   1   1   16.54    7.41
   9   1   2   30.73   10.45
   9   1   3    0.33    0.84
   9   1   4   12.25    6.44
   9   1   5    5.20    4.08
   9   1   6    7.74    5.52
   9   1   7    3.57    4.01
   9   1   8   28.74    9.90
   9   1   9    2.22    3.19
   9   1  10   -0.54    1.97
   9   1  11   20.62    8.96
   9   2  -3   39.18   13.32
   9   2  -2   89.16   19.95
   9   2  -1   17.27    8.80
   9   2   0   15.03    7.62
   9   2   1    0.18    2.35
   9   2   2    2.37    2.91
   9   2   3   25.59    9.84
   9   2   4    9.16    6.39
   9   2   5    5.17    4.33
   9   2   6    7.19    5.54
   9   2   7    0.91    2.84
   9   2   8   26.55    9.86
   9   2   9    3.59    3.62
   9   2  10   20.16    8.97
   9   3  -2   13.25    8.08
   9   3  -1    4.17    5.23
   9   3   0   45.79   14.17
   9   3   1   13.46    6.82
   9   3   2   -1.27    1.17
   9   3   3   22.38    9.30
   9   3   4    5.58    4.69
   9   3   5   16.97    8.40
   9   3   6    1.58    2.55
   9   3   7    7.17    5.64
   9   3   8   42.49   12.69
   9   3   9   15.14    8.39
   9   3  10    7.13    5.57
   9   4  -2  136.72   25.17
   9   4  -1    2.24    1.59
   9   4   0    0.33    0.30
   9   4   1    5.28    5.01
   9   4   2   33.64   11.48
   9   4   3   40.11   13.00
   9   4   4    5.26    4.74
   9   4   5   10.17    6.86
   9   4   6   12.22    7.02
   9   4   7    1.65    2.62
   9   4   8    2.89    3.27
   9   4   9   13.59    7.94
   9   4  10   91.28   20.36
   9   5  -1    1.91    3.24
   9   5   0   -0.05    2.93
   9   5   1    2.59    3.19
   9   5   2    0.38    1.61
   9   5   3    4.26    5.27
   9   5   4    2.73    2.67
   9   5   5    9.19    6.99
   9   5   6    1.47    3.36
   9   5   7    2.64    3.34
   9   5   8    4.70    5.47
   9   5   9   13.87    8.06
   9   6   0    2.75    4.56
   9   6   1    5.42    4.56
   9   6   2   -1.41    3.77
   9   6   3   78.07   19.19
   9   6   4   12.46    7.67
   9   6   5   -0.78    1.36
   9   6   6    3.25    3.04
   9   6   7    7.99    5.89
   9   6   8    0.14    1.97
   9   7   1    2.09    5.39
   9   7   2   -0.73    1.66
   9   7   3   16.76    8.89
   9   7   4   50.03   15.69
   9   7   5   58.42   17.32
   9   7   6   10.64    7.28
   9   7   7   45.53   15.48
  10  -1  -1   -0.24    0.80
  10  -1   0   22.10    8.99
  10  -1   1   25.23    9.38
  10  -1   2   29.68   10.30
  10  -1   3    2.51    3.12
  10  -1   4    1.87    1.55
  10   0  -1   25.41    9.97
  10   0   0    3.77    3.26
  10   0   1    5.83    4.98
  10   0   2    1.76    0.22
  10   0   3   -0.91    1.17
  10   0   4   11.43    6.39
  10   0   5    0.75    1.19
  10   0   6    7.33    5.16
  10   0   7    1.75    1.95
  10   0   8   42.59   12.62
  10   1  -1   21.20    9.30
  10   1   0   39.23   12.87
  10   1   1   12.16    7.25
  10   1   2   -0.48    1.61
  10   1   3   -0.90    2.88
  10   1   4    5.71    4.33
  10   1   5    3.53    2.76
  10   1   6    0.23    1.95
  10   1   7    0.25    1.17
  10   1   8    0.97    2.31
  10   1   9   37.26   11.60
  10   1  10   14.28    6.00
  10   2   0    5.87    5.97
  10   2   1   11.80    7.45
  10   2   2    0.38    2.07
  10   2   3   -0.71    2.53
  10   2   4   20.87    9.19
  10   2   5    1.30    1.24
  10   2   6    1.79    2.03
  10   2   7    2.96    3.52
  10   2   8   10.35    6.01
  10   2   9    4.21    3.52
  10   3   0   12.83    7.69
  10   3   1    9.74    6.74
  10   3   2    0.13    2.06
  10   3   3    4.11    4.59
  10   3   4   13.76    7.68
  10   3   5    2.58    4.08
  10   3   6   42.94   13.86
  10   3   7   11.04    6.97
  10   3   8   14.46    7.78
  10   4   1   35.38   12.36
  10   4   2    0.61    2.90
  10   4   3   -3.31    3.71
  10   4   4   13.77    7.61
  10   4   5   50.20   15.18
  10   4   6   49.39   14.81
  10   4   7   12.59    7.52
  10   4   8   63.32   16.95
  10   5   2    1.78    3.97
  10   5   3    8.33    6.47
  10   5   4   28.52   12.05
  10   5   5   -2.43    3.38
  10   5   6   45.59   15.73
  11   0   2   -3.62    3.78
  11   0   3   11.12    6.87
  11   0   4   52.29   13.59
  11   0   5   15.74    8.10
  11   1   3    0.22    2.06
  11   1   4    8.02    6.67
  11   1   5    6.64    5.55
  11   1   6    6.04    5.54
  11   1   7  128.83   23.05
  11   2   4    0.27    3.26
  11   2   5    1.92    0.90
  11   2   6   -0.57    1.86
   0   0   0    0.00    0.00


TITL 127-3 in P-1
REM P-1 (#2 in standard setting)
CELL 0.71073   8.331337   8.806798  10.262488  77.5371  72.0551  75.2999
ZERR    3.00   0.001661   0.001470   0.001502   0.0138   0.0159   0.0158
LATT  1
SFAC C H N O
UNIT 33.00 30.00 3.00 3.00
TREF
HKLF 4
END
_computing_structure_solution     'SHELXT 2018/2 (Sheldrick, 2018)'
;
_shelx_hkl_checksum              29211
_olex2_submission_special_instructions 'No special instructions were received'
_oxdiff_exptl_absorpt_empirical_details
;
Empirical correction (ABSPACK) includes:
- Absorption correction using spherical harmonics
- Frame scaling
;
_oxdiff_exptl_absorpt_empirical_full_max 4.499
_oxdiff_exptl_absorpt_empirical_full_min 0.436
loop_
_space_group_symop_operation_xyz
'x, y, z'
'-x, -y, -z'
loop_
_atom_site_label
_atom_site_type_symbol
_atom_site_fract_x
_atom_site_fract_y
_atom_site_fract_z
_atom_site_U_iso_or_equiv
_atom_site_adp_type
_atom_site_occupancy
_atom_site_site_symmetry_order
_atom_site_calc_flag
_atom_site_refinement_flags_posn
_atom_site_refinement_flags_adp
_atom_site_refinement_flags_occupancy
_atom_site_disorder_assembly
_atom_site_disorder_group
O2 O 0.6230(2) 0.1089(2) 0.84322(18) 0.0273(6) Uani 1 1 d . . . . .
O1 O 0.3356(2) 0.1832(2) 0.96336(19) 0.0301(6) Uani 1 1 d . . . . .
H1 H 0.323697 0.099877 1.015851 0.045 Uiso 1 1 calc R U . . .
C11 C 0.6916(4) 0.2317(3) 0.8531(3) 0.0245(7) Uani 1 1 d . . . . .
C12 C 0.6170(4) 0.3921(3) 0.8249(3) 0.0256(7) Uani 1 1 d . . . . .
C10 C 0.4462(4) 0.1496(3) 0.8339(3) 0.0273(7) Uani 1 1 d . . . . .
C8 C 0.4659(4) 0.4357(3) 0.7681(3) 0.0260(7) Uani 1 1 d . . . . .
C16 C 0.8456(4) 0.1863(3) 0.8919(3) 0.0290(7) Uani 1 1 d . . . . .
H16 H 0.894250 0.079071 0.909313 0.035 Uiso 1 1 calc R U . . .
C13 C 0.7007(4) 0.5024(3) 0.8418(3) 0.0303(7) Uani 1 1 d . . . . .
H13 H 0.652908 0.609958 0.825556 0.036 Uiso 1 1 calc R U . . .
C1 C 0.2379(4) 0.6469(3) 0.6817(3) 0.0277(7) Uani 1 1 d . . . . .
C2 C 0.2306(4) 0.5894(3) 0.5677(3) 0.0300(8) Uani 1 1 d . . . . .
H2 H 0.317463 0.507244 0.532327 0.036 Uiso 1 1 calc R U . . .
C15 C 0.9255(4) 0.2980(3) 0.9044(3) 0.0323(8) Uani 1 1 d . . . . .
H15 H 1.029372 0.267119 0.928130 0.039 Uiso 1 1 calc R U . . .
C7 C 0.3769(4) 0.5856(3) 0.7499(3) 0.0281(7) Uani 1 1 d . . . . .
H7 H 0.407564 0.659628 0.785141 0.034 Uiso 1 1 calc R U . . .
C4 C -0.0358(4) 0.7728(3) 0.5559(3) 0.0318(8) Uani 1 1 d . . . . .
C9 C 0.4224(4) 0.2982(3) 0.7297(3) 0.0290(7) Uani 1 1 d . . . . .
H9A H 0.495780 0.277691 0.638882 0.035 Uiso 1 1 calc R U . . .
H9B H 0.303882 0.325800 0.724821 0.035 Uiso 1 1 calc R U . . .
C3 C 0.0968(4) 0.6519(3) 0.5061(3) 0.0301(7) Uani 1 1 d . . . . .
H3 H 0.096263 0.611623 0.429681 0.036 Uiso 1 1 calc R U . . .
C6 C 0.1073(4) 0.7739(3) 0.7274(3) 0.0297(7) Uani 1 1 d . . . . .
H6 H 0.110743 0.818815 0.800418 0.036 Uiso 1 1 calc R U . . .
C17 C 0.4186(4) 0.0062(3) 0.7930(3) 0.0322(8) Uani 1 1 d . . . . .
H17A H 0.492902 -0.009323 0.702493 0.048 Uiso 1 1 calc R U . . .
H17B H 0.300756 0.022072 0.791583 0.048 Uiso 1 1 calc R U . . .
H17C H 0.444485 -0.085692 0.858658 0.048 Uiso 1 1 calc R U . . .
C5 C -0.0274(4) 0.8345(3) 0.6664(3) 0.0336(8) Uani 1 1 d . . . . .
H5 H -0.113613 0.918029 0.700124 0.040 Uiso 1 1 calc R U . . .
C14 C 0.8510(4) 0.4576(4) 0.8815(3) 0.0337(8) Uani 1 1 d . . . . .
H14 H 0.902695 0.534060 0.892963 0.040 Uiso 1 1 calc R U . . .
C18 C -0.1848(4) 0.8348(4) 0.4915(3) 0.0416(9) Uani 1 1 d . . . . .
H18A H -0.145814 0.823714 0.395045 0.062 Uiso 1 1 calc R U . . .
H18B H -0.229395 0.944843 0.500792 0.062 Uiso 1 1 calc R U . . .
H18C H -0.273722 0.775352 0.537580 0.062 Uiso 1 1 calc R U . . .
loop_
_atom_site_aniso_label
_atom_site_aniso_U_11
_atom_site_aniso_U_22
_atom_site_aniso_U_33
_atom_site_aniso_U_23
_atom_site_aniso_U_13
_atom_site_aniso_U_12
O2 0.0185(11) 0.0250(10) 0.0384(12) -0.0039(8) -0.0109(9) -0.0013(9)
O1 0.0239(12) 0.0306(11) 0.0330(12) -0.0001(8) -0.0067(9) -0.0054(9)
C11 0.0170(15) 0.0279(15) 0.0261(15) -0.0022(10) -0.0042(11) -0.0037(12)
C12 0.0208(16) 0.0291(15) 0.0240(14) -0.0017(11) -0.0023(12) -0.0063(13)
C10 0.0166(15) 0.0305(15) 0.0371(16) -0.0034(12) -0.0136(13) -0.0023(12)
C8 0.0198(15) 0.0304(16) 0.0267(15) -0.0014(11) -0.0054(12) -0.0068(13)
C16 0.0203(16) 0.0303(15) 0.0345(16) 0.0005(12) -0.0096(13) -0.0033(13)
C13 0.0252(17) 0.0338(16) 0.0337(16) -0.0047(12) -0.0077(13) -0.0100(14)
C1 0.0250(16) 0.0272(14) 0.0305(16) 0.0001(11) -0.0072(12) -0.0088(13)
C2 0.0239(17) 0.0267(15) 0.0352(17) -0.0019(12) -0.0048(13) -0.0040(13)
C15 0.0191(16) 0.0440(18) 0.0318(16) -0.0006(12) -0.0079(13) -0.0055(15)
C7 0.0258(17) 0.0267(15) 0.0320(16) -0.0033(11) -0.0090(13) -0.0054(13)
C4 0.0277(17) 0.0367(16) 0.0298(16) 0.0018(12) -0.0076(13) -0.0102(14)
C9 0.0213(16) 0.0281(15) 0.0375(17) 0.0008(11) -0.0107(13) -0.0060(13)
C3 0.0292(18) 0.0323(16) 0.0277(15) -0.0015(11) -0.0069(13) -0.0079(14)
C6 0.0285(17) 0.0293(15) 0.0331(16) -0.0059(12) -0.0103(13) -0.0056(14)
C17 0.0311(18) 0.0288(15) 0.0396(17) -0.0008(12) -0.0160(14) -0.0067(14)
C5 0.0268(17) 0.0321(16) 0.0395(18) -0.0061(13) -0.0091(14) -0.0008(14)
C14 0.0260(17) 0.0429(18) 0.0365(17) -0.0072(13) -0.0090(14) -0.0126(14)
C18 0.0326(19) 0.0495(19) 0.0418(19) -0.0033(14) -0.0151(15) -0.0032(15)
loop_
_atom_type_symbol
_atom_type_description
_atom_type_scat_dispersion_real
_atom_type_scat_dispersion_imag
_atom_type_scat_source
C C 0.0033 0.0016 'International Tables Vol C Tables 4.2.6.8 and 6.1.1.4'
H H 0.0000 0.0000 'International Tables Vol C Tables 4.2.6.8 and 6.1.1.4'
O O 0.0106 0.0060 'International Tables Vol C Tables 4.2.6.8 and 6.1.1.4'
loop_
_geom_angle_atom_site_label_1
_geom_angle_atom_site_label_2
_geom_angle_atom_site_label_3
_geom_angle
_geom_angle_site_symmetry_1
_geom_angle_site_symmetry_3
_geom_angle_publ_flag
C11 O2 C10 116.43(19) . . ?
C10 O1 H1 109.5 . . ?
O2 C11 C12 123.7(3) . . ?
O2 C11 C16 115.5(2) . . ?
C16 C11 C12 120.8(3) . . ?
C11 C12 C8 119.1(3) . . ?
C13 C12 C11 116.9(3) . . ?
C13 C12 C8 123.8(2) . . ?
O2 C10 C9 109.6(2) . . ?
O2 C10 C17 105.1(2) . . ?
O1 C10 O2 108.9(2) . . ?
O1 C10 C9 107.6(2) . . ?
O1 C10 C17 112.4(2) . . ?
C17 C10 C9 113.2(2) . . ?
C12 C8 C9 114.1(2) . . ?
C7 C8 C12 122.9(3) . . ?
C7 C8 C9 122.9(3) . . ?
C11 C16 H16 119.7 . . ?
C15 C16 C11 120.5(3) . . ?
C15 C16 H16 119.7 . . ?
C12 C13 H13 118.8 . . ?
C14 C13 C12 122.3(3) . . ?
C14 C13 H13 118.8 . . ?
C2 C1 C7 123.5(2) . . ?
C2 C1 C6 116.8(3) . . ?
C6 C1 C7 119.6(3) . . ?
C1 C2 H2 119.3 . . ?
C3 C2 C1 121.4(3) . . ?
C3 C2 H2 119.3 . . ?
C16 C15 H15 120.1 . . ?
C16 C15 C14 119.8(3) . . ?
C14 C15 H15 120.1 . . ?
C8 C7 C1 128.3(3) . . ?
C8 C7 H7 115.9 . . ?
C1 C7 H7 115.9 . . ?
C3 C4 C5 117.8(3) . . ?
C3 C4 C18 120.7(3) . . ?
C5 C4 C18 121.5(3) . . ?
C10 C9 H9A 109.3 . . ?
C10 C9 H9B 109.3 . . ?
C8 C9 C10 111.6(2) . . ?
C8 C9 H9A 109.3 . . ?
C8 C9 H9B 109.3 . . ?
H9A C9 H9B 108.0 . . ?
C2 C3 H3 119.3 . . ?
C4 C3 C2 121.4(3) . . ?
C4 C3 H3 119.3 . . ?
C1 C6 H6 119.3 . . ?
C5 C6 C1 121.4(3) . . ?
C5 C6 H6 119.3 . . ?
C10 C17 H17A 109.5 . . ?
C10 C17 H17B 109.5 . . ?
C10 C17 H17C 109.5 . . ?
H17A C17 H17B 109.5 . . ?
H17A C17 H17C 109.5 . . ?
H17B C17 H17C 109.5 . . ?
C4 C5 C6 121.1(3) . . ?
C4 C5 H5 119.4 . . ?
C6 C5 H5 119.4 . . ?
C13 C14 C15 119.7(3) . . ?
C13 C14 H14 120.1 . . ?
C15 C14 H14 120.1 . . ?
C4 C18 H18A 109.5 . . ?
C4 C18 H18B 109.5 . . ?
C4 C18 H18C 109.5 . . ?
H18A C18 H18B 109.5 . . ?
H18A C18 H18C 109.5 . . ?
H18B C18 H18C 109.5 . . ?
loop_
_geom_bond_atom_site_label_1
_geom_bond_atom_site_label_2
_geom_bond_distance
_geom_bond_site_symmetry_2
_geom_bond_publ_flag
O2 C11 1.380(3) . ?
O2 C10 1.453(3) . ?
O1 H1 0.8200 . ?
O1 C10 1.406(3) . ?
C11 C12 1.398(4) . ?
C11 C16 1.396(4) . ?
C12 C8 1.477(4) . ?
C12 C13 1.397(4) . ?
C10 C9 1.513(4) . ?
C10 C17 1.504(4) . ?
C8 C7 1.345(4) . ?
C8 C9 1.506(4) . ?
C16 H16 0.9300 . ?
C16 C15 1.367(4) . ?
C13 H13 0.9300 . ?
C13 C14 1.373(4) . ?
C1 C2 1.394(4) . ?
C1 C7 1.463(4) . ?
C1 C6 1.396(4) . ?
C2 H2 0.9300 . ?
C2 C3 1.385(4) . ?
C15 H15 0.9300 . ?
C15 C14 1.386(4) . ?
C7 H7 0.9300 . ?
C4 C3 1.380(4) . ?
C4 C5 1.386(4) . ?
C4 C18 1.510(4) . ?
C9 H9A 0.9700 . ?
C9 H9B 0.9700 . ?
C3 H3 0.9300 . ?
C6 H6 0.9300 . ?
C6 C5 1.387(4) . ?
C17 H17A 0.9600 . ?
C17 H17B 0.9600 . ?
C17 H17C 0.9600 . ?
C5 H5 0.9300 . ?
C14 H14 0.9300 . ?
C18 H18A 0.9600 . ?
C18 H18B 0.9600 . ?
C18 H18C 0.9600 . ?
loop_
_geom_torsion_atom_site_label_1
_geom_torsion_atom_site_label_2
_geom_torsion_atom_site_label_3
_geom_torsion_atom_site_label_4
_geom_torsion
_geom_torsion_site_symmetry_1
_geom_torsion_site_symmetry_2
_geom_torsion_site_symmetry_3
_geom_torsion_site_symmetry_4
_geom_torsion_publ_flag
O2 C11 C12 C8 -6.2(4) . . . . ?
O2 C11 C12 C13 179.0(2) . . . . ?
O2 C11 C16 C15 179.7(2) . . . . ?
O2 C10 C9 C8 -58.2(3) . . . . ?
O1 C10 C9 C8 60.1(3) . . . . ?
C11 O2 C10 O1 -71.5(3) . . . . ?
C11 O2 C10 C9 45.9(3) . . . . ?
C11 O2 C10 C17 167.8(2) . . . . ?
C11 C12 C8 C7 173.8(3) . . . . ?
C11 C12 C8 C9 -7.5(4) . . . . ?
C11 C12 C13 C14 1.3(4) . . . . ?
C11 C16 C15 C14 1.5(4) . . . . ?
C12 C11 C16 C15 0.7(4) . . . . ?
C12 C8 C7 C1 172.8(3) . . . . ?
C12 C8 C9 C10 39.2(3) . . . . ?
C12 C13 C14 C15 0.8(4) . . . . ?
C10 O2 C11 C12 -14.4(4) . . . . ?
C10 O2 C11 C16 166.7(2) . . . . ?
C8 C12 C13 C14 -173.2(2) . . . . ?
C16 C11 C12 C8 172.7(2) . . . . ?
C16 C11 C12 C13 -2.0(4) . . . . ?
C16 C15 C14 C13 -2.2(4) . . . . ?
C13 C12 C8 C7 -11.9(4) . . . . ?
C13 C12 C8 C9 166.9(2) . . . . ?
C1 C2 C3 C4 -0.6(4) . . . . ?
C1 C6 C5 C4 -1.1(4) . . . . ?
C2 C1 C7 C8 -34.4(4) . . . . ?
C2 C1 C6 C5 3.0(4) . . . . ?
C7 C8 C9 C10 -142.1(3) . . . . ?
C7 C1 C2 C3 -179.7(2) . . . . ?
C7 C1 C6 C5 -179.4(2) . . . . ?
C9 C8 C7 C1 -5.9(4) . . . . ?
C3 C4 C5 C6 -1.8(4) . . . . ?
C6 C1 C2 C3 -2.1(4) . . . . ?
C6 C1 C7 C8 148.2(3) . . . . ?
C17 C10 C9 C8 -175.1(2) . . . . ?
C5 C4 C3 C2 2.6(4) . . . . ?
C18 C4 C3 C2 -177.3(3) . . . . ?
C18 C4 C5 C6 178.2(3) . . . . ?
