#------------------------------------------------------------------------------
#$Date: 2021-09-06 12:40:45 +0300 (Mon, 06 Sep 2021) $
#$Revision: 268608 $
#$URL: file:///home/coder/svn-repositories/cod/cif/7/12/87/7128714.cif $
#------------------------------------------------------------------------------
#
# This file is available in the Crystallography Open Database (COD),
# http://www.crystallography.net/
#
# All data on this site have been placed in the public domain by the
# contributors.
#
data_7128714
loop_
_publ_author_name
'Kubo, Haruka'
'Oketani, Ryusei'
'Hisaki, Ichiro'
_publ_section_title
;
 Quasi single-crystalline transformation of porous frameworks accompanied
 by interlayer rearrangements of hydrogen bonds.
;
_journal_issue                   69
_journal_name_full
'Chemical communications (Cambridge, England)'
_journal_page_first              8568
_journal_page_last               8571
_journal_paper_doi               10.1039/d1cc03287a
_journal_volume                  57
_journal_year                    2021
_chemical_formula_moiety         'C38 H20.28 Br1.72 N4 O8, 4(C6 H4 Cl2)'
_chemical_formula_sum            'C62 H36.28 Br1.72 Cl8 N4 O8'
_chemical_formula_weight         1386.33
_chemical_name_common            BrPQ-1
_chemical_name_systematic
'4,4',4'',4'''-(5,10-dibromopyrazino[2,3-g]quinoxaline-2,3,7,8-tetrayl)tetrabenzoic acid'
_space_group_crystal_system      triclinic
_space_group_IT_number           2
_space_group_name_Hall           '-P 1'
_space_group_name_H-M_alt        'P -1'
_atom_sites_solution_hydrogens   geom
_atom_sites_solution_primary     direct
_atom_sites_solution_secondary   difmap
_audit_update_record
;
2021-07-28 deposited with the CCDC.	2021-08-02 downloaded from the CCDC.
;
_cell_angle_alpha                79.089(2)
_cell_angle_beta                 84.670(2)
_cell_angle_gamma                88.069(2)
_cell_formula_units_Z            1
_cell_length_a                   5.48306(15)
_cell_length_b                   15.3486(4)
_cell_length_c                   17.9094(5)
_cell_measurement_reflns_used    10350
_cell_measurement_temperature    113
_cell_measurement_theta_max      31.55
_cell_measurement_theta_min      3.26
_cell_volume                     1473.36(7)
_computing_cell_refinement       'CrysAlisPro 1.171.38.41 (Rigaku OD, 2015)'
_computing_data_collection       'CrysAlisPro 1.171.38.41 (Rigaku OD, 2015)'
_computing_data_reduction        'CrysAlisPro 1.171.38.41 (Rigaku OD, 2015)'
_computing_molecular_graphics    'CrystalStructure 4.3'
_computing_publication_material  'CrystalStructure 4.3 (Rigaku, 2019)'
_computing_structure_refinement  'SHELXL Version 2018/3 (Sheldrick, 2008)'
_computing_structure_solution    'SHELXT Version 2018/2 (Sheldrick, 2014)'
_diffrn_ambient_temperature      113
_diffrn_measured_fraction_theta_full 0.990
_diffrn_measured_fraction_theta_max 0.856
_diffrn_measurement_device_type  PILATUS200K
_diffrn_radiation_type           'Mo K\a'
_diffrn_radiation_wavelength     0.71073
_diffrn_reflns_av_R_equivalents  0.0221
_diffrn_reflns_av_unetI/netI     0.0248
_diffrn_reflns_Laue_measured_fraction_full 0.990
_diffrn_reflns_Laue_measured_fraction_max 0.856
_diffrn_reflns_limit_h_max       7
_diffrn_reflns_limit_h_min       -8
_diffrn_reflns_limit_k_max       21
_diffrn_reflns_limit_k_min       -22
_diffrn_reflns_limit_l_max       26
_diffrn_reflns_limit_l_min       -26
_diffrn_reflns_number            23839
_diffrn_reflns_point_group_measured_fraction_full 0.990
_diffrn_reflns_point_group_measured_fraction_max 0.856
_diffrn_reflns_theta_full        25.242
_diffrn_reflns_theta_max         31.454
_diffrn_reflns_theta_min         3.220
_diffrn_standards_number         0
_exptl_absorpt_coefficient_mu    1.611
_exptl_absorpt_correction_T_max  0.851
_exptl_absorpt_correction_T_min  0.580
_exptl_absorpt_correction_type   multi-scan
_exptl_absorpt_process_details
;
CrysAlisPro 1.171.38.41 (Rigaku Oxford Diffraction, 2015)
Empirical absorption correction using spherical harmonics,
 implemented in SCALE3 ABSPACK scaling algorithm.
;
_exptl_crystal_colour            orange
_exptl_crystal_density_diffrn    1.562
_exptl_crystal_density_method    'not measured'
_exptl_crystal_description       prism
_exptl_crystal_F_000             696.48
_exptl_crystal_recrystallization_method
'Re-crystallisation from solvent: DMF, o-dichlorobenzene'
_exptl_crystal_size_max          0.700
_exptl_crystal_size_mid          0.190
_exptl_crystal_size_min          0.100
_refine_diff_density_max         0.45
_refine_diff_density_min         -0.51
_refine_ls_extinction_method     none
_refine_ls_goodness_of_fit_ref   1.071
_refine_ls_hydrogen_treatment    constr
_refine_ls_number_parameters     235
_refine_ls_number_reflns         8344
_refine_ls_number_restraints     0
_refine_ls_R_factor_all          0.0338
_refine_ls_R_factor_gt           0.0305
_refine_ls_shift/su_max          0.002
_refine_ls_structure_factor_coef Fsqd
_refine_ls_weighting_details
'w = 1/[\s^2^(Fo^2^)+(0.0556P)^2^+0.3580P] where P=(Fo^2^+2Fc^2^)/3'
_refine_ls_weighting_scheme      calc
_refine_ls_wR_factor_gt          0.0919
_refine_ls_wR_factor_ref         0.0933
_reflns_Friedel_coverage         0.000
_reflns_number_gt                7547
_reflns_number_total             8344
_reflns_threshold_expression     F^2^>2.0\s(F^2^)
_cod_data_source_file            d1cc03287a2.cif
_cod_data_source_block           BrPQ-1
_cod_depositor_comments
'Adding full bibliography for 7128714--7128717.cif.'
_cod_database_code               7128714
_shelx_res_file
;
TITL BPQ-1
    shelxl.res
    created by SHELXL-2018/3 at 14:30:24 on 13-Jul-2021
CELL  0.71073 5.48306 15.34860 17.90940 79.089 84.670 88.069
ZERR  1 0.00015 0.00040 0.00050 0.002 0.002 0.002
LATT 1
SFAC H N O C BR CL
UNIT 36.280000 4 8 62 1.720000 8
OMIT      0  -2   2
OMIT      1  -2   1
OMIT      0   2   0
OMIT      0   1   5
OMIT      0  -2   6
OMIT      0   0   3
OMIT      0   1   3
OMIT      0  -3   7
OMIT     -1   1   1
L.S. 20
FMAP 2
PLAN -25
WPDB -2
BOND $H
CONF
LIST 4
TEMP -160.0
ACTA
SIZE 0.700 0.190 0.100
ABIN
REM HTAB
HTAB
WGHT    0.055600    0.358000
FVAR       0.55543
PART 1
BR1   5    0.617779    0.497602    0.653350    10.86000    0.02694    0.02404 =
         0.01811    0.00475    0.00567    0.01070
PART 0
O1    3   -0.234142    0.997521    0.438460    11.00000    0.03029    0.02323 =
         0.04532   -0.00579   -0.00969    0.01720
AFIX  83
H1O   1   -0.361175    1.025836    0.450246    10.50000   -1.20000
AFIX   0
O2    3   -0.373160    0.901643    0.543648    11.00000    0.02724    0.03448 =
         0.03813   -0.00970   -0.00333    0.01751
AFIX  83
H2O   1   -0.472576    0.943667    0.547797    10.50000   -1.20000
AFIX   0
O3    3    1.240423    0.029675    0.943644    11.00000    0.03093    0.06386 =
         0.04042    0.03914   -0.01243   -0.00728
AFIX  83
H3O   1    1.284084   -0.002595    0.983653    11.00000   -1.20000
AFIX   0
O4    3    1.618963    0.082622    0.937954    11.00000    0.02960    0.06345 =
         0.03956    0.03398   -0.01519   -0.00424
N1    2    0.614770    0.621803    0.501587    11.00000    0.01587    0.01596 =
         0.01658    0.00206   -0.00201    0.00771
N2    2    1.063599    0.373335    0.631169    11.00000    0.01806    0.01697 =
         0.01427    0.00500   -0.00182    0.00686
C1    4    0.585647    0.681786    0.439702    11.00000    0.01533    0.01450 =
         0.01727    0.00196   -0.00320    0.00619
C2    4    0.802785    0.560999    0.500069    11.00000    0.01466    0.01485 =
         0.01471    0.00253   -0.00132    0.00671
C3    4    0.834133    0.496855    0.565984    11.00000    0.01600    0.01659 =
         0.01399    0.00332    0.00035    0.00683
PART 2
AFIX  43
H3    1    0.722551    0.494943    0.610118    10.14000   -1.20000
AFIX   0
PART 0
C4    4    1.030591    0.435613    0.566507    11.00000    0.01586    0.01464 =
         0.01346    0.00343   -0.00110    0.00602
C5    4    1.251947    0.318169    0.629542    11.00000    0.01698    0.01637 =
         0.01604    0.00394   -0.00324    0.00584
C6    4    0.381849    0.747188    0.448530    11.00000    0.01709    0.01599 =
         0.01976   -0.00010   -0.00482    0.00815
C7    4    0.371512    0.832491    0.403337    11.00000    0.02158    0.01730 =
         0.02376    0.00074   -0.00385    0.00758
AFIX  43
H7    1    0.497866    0.850942    0.364049    11.00000   -1.20000
AFIX   0
C8    4    0.176093    0.890282    0.415964    11.00000    0.02482    0.01684 =
         0.02818   -0.00127   -0.00795    0.01018
AFIX  43
H8    1    0.169802    0.947763    0.385062    11.00000   -1.20000
AFIX   0
C9    4   -0.009395    0.864013    0.473611    11.00000    0.02077    0.01967 =
         0.02841   -0.00651   -0.00828    0.01137
C10   4    0.001885    0.780031    0.520145    11.00000    0.01849    0.02115 =
         0.02693   -0.00437   -0.00223    0.00795
AFIX  43
H10   1   -0.122789    0.762421    0.560181    11.00000   -1.20000
AFIX   0
C11   4    0.196104    0.722408    0.507628    11.00000    0.01845    0.01779 =
         0.02268   -0.00095   -0.00251    0.00824
AFIX  43
H11   1    0.203343    0.665513    0.539456    11.00000   -1.20000
AFIX   0
C12   4   -0.219944    0.924887    0.486494    11.00000    0.02224    0.02137 =
         0.03118   -0.00869   -0.00868    0.01179
C13   4    1.291057    0.257724    0.703545    11.00000    0.01876    0.01932 =
         0.01699    0.00684   -0.00236    0.00881
C14   4    1.499284    0.266171    0.740475    11.00000    0.02176    0.02416 =
         0.02165    0.00892   -0.00566    0.00379
AFIX  43
H14   1    1.616588    0.310068    0.718748    11.00000   -1.20000
AFIX   0
C15   4    1.534306    0.209901    0.809381    11.00000    0.02258    0.03199 =
         0.02236    0.01051   -0.00725    0.00348
AFIX  43
H15   1    1.675345    0.215826    0.834960    11.00000   -1.20000
AFIX   0
C16   4    1.364193    0.145038    0.841056    11.00000    0.02135    0.03398 =
         0.02232    0.01519   -0.00408    0.00649
C17   4    1.153551    0.137365    0.804871    11.00000    0.02099    0.03605 =
         0.02857    0.01822   -0.00554    0.00015
AFIX  43
H17   1    1.035679    0.093792    0.826897    11.00000   -1.20000
AFIX   0
C18   4    1.117462    0.194102    0.736194    11.00000    0.02046    0.03033 =
         0.02375    0.01106   -0.00630    0.00341
AFIX  43
H18   1    0.973818    0.189448    0.711446    11.00000   -1.20000
AFIX   0
C19   4    1.417843    0.082774    0.912463    11.00000    0.02379    0.04376 =
         0.02764    0.02126   -0.00608    0.00243
HKLF 4




REM  BPQ-1
REM wR2 = 0.0933, GooF = S = 1.071, Restrained GooF = 1.071 for all data
REM R1 = 0.0305 for 7547 Fo > 4sig(Fo) and 0.0338 for all 8344 data
REM 235 parameters refined using 0 restraints

END

WGHT      0.0555      0.3544

REM Instructions for potential hydrogen bonds
EQIV $2 -x-1, -y+2, -z+1
HTAB O1 O2_$2
HTAB O2 O1_$2
EQIV $3 -x+3, -y, -z+2
HTAB O3 O4_$3

REM Highest difference peak  0.450,  deepest hole -0.510,  1-sigma level  0.064
Q1    1   0.8919  0.5602  0.4700  11.00000  0.05    0.45
Q2    1  -0.0038  0.8228  0.4964  11.00000  0.05    0.44
Q3    1   0.6660  0.6827  0.4052  11.00000  0.05    0.43
Q4    1   0.3658  0.7845  0.4275  11.00000  0.05    0.42
Q5    1   0.6563  0.4676  0.6138  11.00000  0.05    0.42
Q6    1   1.2040  0.2273  0.7166  11.00000  0.05    0.41
Q7    1   1.2581  0.1452  0.8208  11.00000  0.05    0.41
Q8    1   0.3051  0.7388  0.4789  11.00000  0.05    0.41
Q9    1   0.6016  0.5398  0.6795  11.00000  0.05    0.40
Q10   1   0.7388  0.5211  0.6551  11.00000  0.05    0.40
Q11   1   0.8057  0.5255  0.5285  11.00000  0.05    0.40
Q12   1   1.5038  0.2358  0.7727  11.00000  0.05    0.40
Q13   1   0.9269  0.4630  0.5637  11.00000  0.05    0.39
Q14   1   1.0458  0.4002  0.6002  11.00000  0.05    0.38
Q15   1   0.0875  0.8760  0.4463  11.00000  0.05    0.38
Q16   1   1.4372  0.1780  0.8251  11.00000  0.05    0.38
Q17   1   1.1321  0.1647  0.7680  11.00000  0.05    0.37
Q18   1  -0.3277  0.9038  0.5089  11.00000  0.05    0.36
Q19   1   0.6107  0.6521  0.4706  11.00000  0.05    0.36
Q20   1   1.3957  0.2586  0.7194  11.00000  0.05    0.36
Q21   1   0.0997  0.7544  0.5131  11.00000  0.05    0.36
Q22   1   1.2777  0.2848  0.6719  11.00000  0.05    0.35
Q23   1   1.1427  0.3463  0.6247  11.00000  0.05    0.34
Q24   1   0.6985  0.5920  0.4991  11.00000  0.05    0.33
Q25   1   1.3872  0.1199  0.8730  11.00000  0.05    0.33
;
_shelx_res_checksum              40353
_shelx_fab_file
;
    1    0    0      9.10      0.00
    2    0    0     16.87      0.00
    3    0    0      2.05      0.00
    4    0    0      0.50      0.00
    5    0    0     -0.06      0.00
    6    0    0     -0.08      0.00
    7    0    0      0.24      0.00
   -7    1    0     -0.31      0.00
   -6    1    0      0.00      0.00
   -5    1    0     -0.62      0.00
   -4    1    0     -4.25      0.00
   -3    1    0     -3.32      0.00
   -2    1    0     -7.74      0.00
   -1    1    0    -16.49      0.00
    1    1    0    -35.95      0.00
    2    1    0     -5.49      0.00
    3    1    0      1.73      0.00
    4    1    0      0.27      0.00
    5    1    0      1.15      0.00
    6    1    0      0.33      0.00
    7    1    0      0.12      0.00
   -7    2    0      0.42      0.00
   -6    2    0      0.17      0.00
   -5    2    0      0.40      0.00
   -4    2    0      0.41      0.00
   -3    2    0      0.95      0.00
   -2    2    0      6.61      0.00
   -1    2    0      1.21      0.00
    0    2    0    -20.34      0.00
    1    2    0    -19.86      0.00
    2    2    0     -5.31      0.00
    3    2    0     -0.39      0.00
    4    2    0     -1.77      0.00
    5    2    0     -0.90      0.00
    6    2    0     -0.38      0.00
    7    2    0     -0.28      0.00
   -7    3    0     -1.01      0.00
   -6    3    0      0.15      0.00
   -5    3    0      0.71      0.00
   -4    3    0     -0.01      0.00
   -3    3    0      5.20      0.00
   -2    3    0      2.42      0.00
   -1    3    0      4.82      0.00
    0    3    0      2.84      0.00
    1    3    0     -3.38      0.00
    2    3    0      1.05      0.00
    3    3    0      3.25      0.00
    4    3    0      1.92      0.00
    5    3    0      1.50      0.00
    6    3    0      0.51      0.00
    7    3    0     -0.48      0.00
   -7    4    0      0.42      0.00
   -6    4    0     -0.66      0.00
   -5    4    0     -1.18      0.00
   -4    4    0     -0.85      0.00
   -3    4    0     -0.63      0.00
   -2    4    0      1.25      0.00
   -1    4    0     -8.93      0.00
    0    4    0      4.45      0.00
    1    4    0    -21.77      0.00
    2    4    0     -5.91      0.00
    3    4    0     -0.97      0.00
    4    4    0     -3.16      0.00
    5    4    0     -0.71      0.00
    6    4    0      0.30      0.00
    7    4    0     -0.30      0.00
   -7    5    0      0.26      0.00
   -6    5    0      0.17      0.00
   -5    5    0      0.99      0.00
   -4    5    0      0.78      0.00
   -3    5    0      2.19      0.00
   -2    5    0      1.81      0.00
   -1    5    0     -4.85      0.00
    0    5    0     -2.64      0.00
    1    5    0      3.50      0.00
    2    5    0      4.58      0.00
    3    5    0      4.05      0.00
    4    5    0      0.34      0.00
    5    5    0     -0.10      0.00
    6    5    0     -0.24      0.00
    7    5    0      0.34      0.00
   -7    6    0      0.61      0.00
   -6    6    0     -0.88      0.00
   -5    6    0     -0.64      0.00
   -4    6    0     -1.18      0.00
   -3    6    0     -3.75      0.00
   -2    6    0     -1.87      0.00
   -1    6    0    -19.08      0.00
    0    6    0      1.87      0.00
    1    6    0     -4.13      0.00
    2    6    0     -0.69      0.00
    3    6    0      1.75      0.00
    4    6    0     -0.17      0.00
    5    6    0      0.33      0.00
    6    6    0      0.37      0.00
    7    6    0     -0.14      0.00
   -6    7    0      0.69      0.00
   -5    7    0      1.02      0.00
   -4    7    0      0.11      0.00
   -3    7    0      0.37      0.00
   -2    7    0     -0.11      0.00
   -1    7    0     -2.82      0.00
    0    7    0     10.77      0.00
    1    7    0     -3.35      0.00
    2    7    0      3.07      0.00
    3    7    0     -1.93      0.00
    4    7    0     -0.67      0.00
    5    7    0     -0.92      0.00
    6    7    0     -0.30      0.00
    7    7    0     -0.62      0.00
   -6    8    0     -0.58      0.00
   -5    8    0      0.90      0.00
   -4    8    0     -0.18      0.00
   -3    8    0      0.16      0.00
   -2    8    0     -0.41      0.00
   -1    8    0      7.43      0.00
    0    8    0     -2.02      0.00
    1    8    0      4.88      0.00
    2    8    0      2.87      0.00
    3    8    0      1.40      0.00
    4    8    0      0.13      0.00
    5    8    0      0.84      0.00
    6    8    0      0.13      0.00
   -6    9    0      0.30      0.00
   -5    9    0     -1.38      0.00
   -4    9    0     -1.89      0.00
   -3    9    0     -2.91      0.00
   -2    9    0     -2.93      0.00
   -1    9    0      3.28      0.00
    0    9    0    -10.12      0.00
    1    9    0      1.96      0.00
    2    9    0     -0.41      0.00
    3    9    0      0.08      0.00
    4    9    0      0.47      0.00
    5    9    0      0.27      0.00
    6    9    0      0.10      0.00
   -6   10    0      0.08      0.00
   -5   10    0      0.87      0.00
   -4   10    0      1.49      0.00
   -3   10    0      1.47      0.00
   -2   10    0      1.19      0.00
   -1   10    0      4.20      0.00
    0   10    0     -1.69      0.00
    1   10    0      2.52      0.00
    2   10    0     -2.92      0.00
    3   10    0     -2.73      0.00
    4   10    0     -0.92      0.00
    5   10    0     -0.34      0.00
    6   10    0     -0.27      0.00
   -6   11    0      0.16      0.00
   -5   11    0     -0.45      0.00
   -4   11    0     -0.20      0.00
   -3   11    0      0.09      0.00
   -2   11    0      0.39      0.00
   -1   11    0      4.85      0.00
    0   11    0     -3.81      0.00
    1   11    0      2.50      0.00
    2   11    0      1.51      0.00
    3   11    0      1.37      0.00
    4   11    0      1.39      0.00
    5   11    0      1.06      0.00
    6   11    0      0.21      0.00
   -5   12    0     -0.26      0.00
   -4   12    0     -0.28      0.00
   -3   12    0      0.19      0.00
   -2   12    0     -0.30      0.00
   -1   12    0      1.28      0.00
    0   12    0     -6.71      0.00
    1   12    0      1.50      0.00
    2   12    0     -2.28      0.00
    3   12    0     -2.35      0.00
    4   12    0     -0.19      0.00
    5   12    0     -0.52      0.00
   -5   13    0     -0.26      0.00
   -4   13    0      0.71      0.00
   -3   13    0      0.11      0.00
   -2   13    0      0.58      0.00
   -1   13    0      4.39      0.00
    0   13    0     -5.29      0.00
    1   13    0      4.24      0.00
    2   13    0     -0.10      0.00
    3   13    0      0.74      0.00
    4   13    0      0.57      0.00
    5   13    0     -0.16      0.00
   -5   14    0     -0.23      0.00
   -4   14    0      0.22      0.00
   -3   14    0     -0.18      0.00
   -2   14    0      0.72      0.00
   -1   14    0     -0.06      0.00
    0   14    0     -2.32      0.00
    1   14    0      1.03      0.00
    2   14    0      0.25      0.00
    3   14    0      0.43      0.00
    4   14    0      1.30      0.00
    5   14    0     -0.01      0.00
   -4   15    0      0.26      0.00
   -3   15    0      0.05      0.00
   -2   15    0     -1.67      0.00
   -1   15    0      1.65      0.00
    0   15    0     -2.68      0.00
    1   15    0      2.57      0.00
    2   15    0      1.22      0.00
    3   15    0     -0.90      0.00
    4   15    0     -0.36      0.00
   -4   16    0      0.54      0.00
   -3   16    0      0.31      0.00
   -2   16    0     -0.95      0.00
   -1   16    0      2.01      0.00
    0   16    0     -2.39      0.00
    1   16    0      2.82      0.00
    2   16    0     -0.04      0.00
    3   16    0     -0.22      0.00
    4   16    0      0.29      0.00
   -4   17    0     -0.51      0.00
   -3   17    0     -0.18      0.00
   -2   17    0     -0.42      0.00
   -1   17    0      2.79      0.00
    0   17    0     -2.78      0.00
    1   17    0      1.25      0.00
    2   17    0     -0.39      0.00
    3   17    0     -0.65      0.00
    4   17    0      0.19      0.00
   -3   18    0     -0.01      0.00
   -2   18    0     -0.81      0.00
   -1   18    0      1.55      0.00
    0   18    0     -1.63      0.00
    1   18    0      2.02      0.00
    2   18    0      0.29      0.00
    3   18    0     -0.71      0.00
   -3   19    0     -0.50      0.00
   -2   19    0     -0.10      0.00
   -1   19    0      1.12      0.00
    0   19    0     -1.75      0.00
    1   19    0      0.22      0.00
    2   19    0     -0.44      0.00
   -2   20    0     -0.24      0.00
   -1   20    0      0.14      0.00
    0   20    0     -1.03      0.00
    1   20    0     -0.01      0.00
   -1   21    0      0.08      0.00
    0   21    0      0.42      0.00
    0  -21    1     -1.08      0.00
    1  -21    1      1.04      0.00
   -1  -20    1      0.49      0.00
    0  -20    1     -1.83      0.00
    1  -20    1      0.88      0.00
    2  -20    1     -0.01      0.00
   -2  -19    1     -0.21      0.00
   -1  -19    1      0.66      0.00
    0  -19    1     -1.44      0.00
    1  -19    1      1.22      0.00
    2  -19    1     -0.19      0.00
   -2  -18    1      1.36      0.00
   -1  -18    1      1.42      0.00
    0  -18    1     -0.32      0.00
    1  -18    1      0.70      0.00
    2  -18    1      0.06      0.00
    3  -18    1     -0.18      0.00
   -3  -17    1     -0.39      0.00
   -2  -17    1     -0.80      0.00
   -1  -17    1      0.71      0.00
    0  -17    1     -0.87      0.00
    1  -17    1      1.55      0.00
    2  -17    1      0.18      0.00
    3  -17    1      0.29      0.00
   -4  -16    1      0.36      0.00
   -3  -16    1      0.36      0.00
   -2  -16    1      1.05      0.00
   -1  -16    1     -0.16      0.00
    0  -16    1      0.31      0.00
    1  -16    1     -1.22      0.00
    2  -16    1      0.07      0.00
    3  -16    1      0.09      0.00
    4  -16    1      0.08      0.00
   -4  -15    1     -0.11      0.00
   -3  -15    1      0.83      0.00
   -2  -15    1      1.38      0.00
   -1  -15    1      1.40      0.00
    0  -15    1      0.42      0.00
    1  -15    1     -0.15      0.00
    2  -15    1      0.32      0.00
    3  -15    1     -0.20      0.00
    4  -15    1     -0.31      0.00
   -5  -14    1     -0.40      0.00
   -4  -14    1      0.24      0.00
   -3  -14    1      0.09      0.00
   -2  -14    1     -1.43      0.00
   -1  -14    1     -1.38      0.00
    0  -14    1     -0.80      0.00
    1  -14    1     -2.12      0.00
    2  -14    1      0.84      0.00
    3  -14    1      0.27      0.00
    4  -14    1      0.22      0.00
    5  -14    1      0.02      0.00
   -5  -13    1      0.14      0.00
   -4  -13    1      0.90      0.00
   -3  -13    1      1.40      0.00
   -2  -13    1      0.93      0.00
   -1  -13    1     -0.75      0.00
    0  -13    1      0.21      0.00
    1  -13    1      0.69      0.00
    2  -13    1      1.29      0.00
    3  -13    1     -0.59      0.00
    4  -13    1     -0.50      0.00
    5  -13    1      0.07      0.00
   -5  -12    1     -0.27      0.00
   -4  -12    1     -1.35      0.00
   -3  -12    1     -1.47      0.00
   -2  -12    1      0.06      0.00
   -1  -12    1     -4.09      0.00
    0  -12    1      2.97      0.00
    1  -12    1     -3.95      0.00
    2  -12    1      0.84      0.00
    3  -12    1      1.32      0.00
    4  -12    1     -0.44      0.00
    5  -12    1      0.20      0.00
   -6  -11    1     -0.37      0.00
   -5  -11    1      0.78      0.00
   -4  -11    1      0.40      0.00
   -3  -11    1      0.96      0.00
   -2  -11    1     -0.54      0.00
   -1  -11    1     -4.86      0.00
    0  -11    1      3.57      0.00
    1  -11    1     -1.66      0.00
    2  -11    1      0.87      0.00
    3  -11    1     -0.89      0.00
    4  -11    1     -0.31      0.00
    5  -11    1     -0.12      0.00
    6  -11    1      0.19      0.00
   -6  -10    1     -0.06      0.00
   -5  -10    1      0.22      0.00
   -4  -10    1     -0.59      0.00
   -3  -10    1      0.69      0.00
   -2  -10    1      0.10      0.00
   -1  -10    1     -1.31      0.00
    0  -10    1      4.08      0.00
    1  -10    1     -2.03      0.00
    2  -10    1      0.67      0.00
    3  -10    1      0.77      0.00
    4  -10    1     -0.09      0.00
    5  -10    1      0.61      0.00
    6  -10    1      0.48      0.00
   -6   -9    1      0.29      0.00
   -5   -9    1     -1.05      0.00
   -4   -9    1     -1.90      0.00
   -3   -9    1     -2.06      0.00
   -2   -9    1      0.00      0.00
   -1   -9    1     -7.21      0.00
    0   -9    1      5.84      0.00
    1   -9    1     -1.80      0.00
    2   -9    1      0.36      0.00
    3   -9    1     -0.83      0.00
    4   -9    1     -1.97      0.00
    5   -9    1     -0.19      0.00
    6   -9    1      0.25      0.00
   -6   -8    1      0.45      0.00
   -5   -8    1      1.34      0.00
   -4   -8    1      0.49      0.00
   -3   -8    1      4.04      0.00
   -2   -8    1      2.15      0.00
   -1   -8    1     -8.55      0.00
    0   -8    1     12.86      0.00
    1   -8    1    -12.00      0.00
    2   -8    1     -2.45      0.00
    3   -8    1     -1.27      0.00
    4   -8    1     -1.58      0.00
    5   -8    1     -0.18      0.00
    6   -8    1     -0.59      0.00
   -7   -7    1     -0.64      0.00
   -6   -7    1     -0.31      0.00
   -5   -7    1     -1.21      0.00
   -4   -7    1     -1.21      0.00
   -3   -7    1      0.41      0.00
   -2   -7    1      4.12      0.00
   -1   -7    1     -1.92      0.00
    0   -7    1     24.41      0.00
    1   -7    1     -7.26      0.00
    2   -7    1      2.05      0.00
    3   -7    1      2.14      0.00
    4   -7    1      1.15      0.00
    5   -7    1      1.07      0.00
    6   -7    1      0.42      0.00
   -7   -6    1     -0.14      0.00
   -6   -6    1     -0.01      0.00
   -5   -6    1      0.49      0.00
   -4   -6    1     -1.04      0.00
   -3   -6    1     -0.64      0.00
   -2   -6    1     -2.29      0.00
   -1   -6    1    -14.38      0.00
    0   -6    1     -2.32      0.00
    1   -6    1    -22.68      0.00
    2   -6    1      2.56      0.00
    3   -6    1     -0.93      0.00
    4   -6    1     -0.55      0.00
    5   -6    1     -0.74      0.00
    6   -6    1     -0.45      0.00
    7   -6    1      0.52      0.00
   -7   -5    1      0.50      0.00
   -6   -5    1      0.35      0.00
   -5   -5    1      0.54      0.00
   -4   -5    1      0.79      0.00
   -3   -5    1      5.78      0.00
   -2   -5    1      4.73      0.00
   -1   -5    1     -2.43      0.00
    0   -5    1      6.58      0.00
    1   -5    1     -2.11      0.00
    2   -5    1      0.18      0.00
    3   -5    1      1.64      0.00
    4   -5    1      0.08      0.00
    5   -5    1      0.17      0.00
    6   -5    1      0.20      0.00
    7   -5    1      0.11      0.00
   -7   -4    1     -0.59      0.00
   -6   -4    1     -0.11      0.00
   -5   -4    1     -0.23      0.00
   -4   -4    1     -1.43      0.00
   -3   -4    1     -2.64      0.00
   -2   -4    1     -1.79      0.00
   -1   -4    1    -14.14      0.00
    0   -4    1     18.82      0.00
    1   -4    1     -1.82      0.00
    2   -4    1      6.69      0.00
    3   -4    1      3.54      0.00
    4   -4    1      1.65      0.00
    5   -4    1     -0.02      0.00
    6   -4    1      0.22      0.00
    7   -4    1     -0.08      0.00
   -7   -3    1      0.11      0.00
   -6   -3    1     -0.14      0.00
   -5   -3    1      0.20      0.00
   -4   -3    1      1.22      0.00
   -3   -3    1      1.64      0.00
   -2   -3    1     -4.24      0.00
   -1   -3    1     -1.52      0.00
    0   -3    1     -3.05      0.00
    1   -3    1      3.05      0.00
    2   -3    1     -2.36      0.00
    3   -3    1      1.70      0.00
    4   -3    1     -3.28      0.00
    5   -3    1     -0.40      0.00
    6   -3    1     -0.01      0.00
    7   -3    1     -0.20      0.00
   -7   -2    1      0.44      0.00
   -6   -2    1     -0.26      0.00
   -5   -2    1      0.58      0.00
   -4   -2    1     -0.18      0.00
   -3   -2    1     -0.08      0.00
   -2   -2    1      2.00      0.00
   -1   -2    1    -20.28      0.00
    1   -2    1      1.75      0.00
    2   -2    1     11.47      0.00
    3   -2    1      2.24      0.00
    4   -2    1      1.62      0.00
    5   -2    1      1.18      0.00
    6   -2    1      0.15      0.00
    7   -2    1      0.11      0.00
   -7   -1    1      0.03      0.00
   -6   -1    1     -0.45      0.00
   -5   -1    1     -0.94      0.00
   -4   -1    1     -0.84      0.00
   -3   -1    1     -2.62      0.00
   -2   -1    1     -3.51      0.00
   -1   -1    1    -16.66      0.00
    1   -1    1    -33.25      0.00
    2   -1    1    -14.35      0.00
    3   -1    1     -6.20      0.00
    4   -1    1     -3.41      0.00
    5   -1    1     -0.71      0.00
    6   -1    1      0.57      0.00
    7   -1    1      0.25      0.00
   -7    0    1      0.72      0.00
   -6    0    1      0.95      0.00
   -5    0    1      1.18      0.00
   -4    0    1      0.69      0.00
   -3    0    1     -2.64      0.00
   -2    0    1      8.15      0.00
   -1    0    1     28.68      0.00
    1    0    1     16.65      0.00
    2    0    1      7.93      0.00
    3    0    1      4.52      0.00
    4    0    1      1.34      0.00
    5    0    1     -0.57      0.00
    6    0    1     -0.61      0.00
    7    0    1     -0.40      0.00
   -7    1    1     -0.52      0.00
   -6    1    1     -0.86      0.00
   -5    1    1     -1.31      0.00
   -4    1    1     -0.80      0.00
   -3    1    1      2.83      0.00
   -2    1    1      0.98      0.00
   -1    1    1     40.96      0.00
    1    1    1     -7.89      0.00
    2    1    1     -3.38      0.00
    3    1    1     -0.17      0.00
    4    1    1      1.42      0.00
    5    1    1      1.62      0.00
    6    1    1      1.06      0.00
    7    1    1      0.18      0.00
    8    1    1      0.14      0.00
   -7    2    1      0.13      0.00
   -6    2    1      0.47      0.00
   -5    2    1      0.06      0.00
   -4    2    1     -0.81      0.00
   -3    2    1     -3.84      0.00
   -2    2    1     -9.96      0.00
   -1    2    1    -16.08      0.00
    1    2    1    -15.21      0.00
    2    2    1     -9.73      0.00
    3    2    1     -1.53      0.00
    4    2    1     -0.46      0.00
    5    2    1     -0.80      0.00
    6    2    1     -0.31      0.00
    7    2    1     -0.35      0.00
   -7    3    1     -0.46      0.00
   -6    3    1     -0.39      0.00
   -5    3    1      0.94      0.00
   -4    3    1      3.20      0.00
   -3    3    1      5.09      0.00
   -2    3    1      7.27      0.00
   -1    3    1     18.73      0.00
    1    3    1      0.78      0.00
    2    3    1      1.05      0.00
    3    3    1     -0.57      0.00
    4    3    1     -0.06      0.00
    5    3    1      0.69      0.00
    6    3    1      0.13      0.00
    7    3    1     -0.33      0.00
   -7    4    1      0.39      0.00
   -6    4    1     -0.42      0.00
   -5    4    1     -1.24      0.00
   -4    4    1     -2.20      0.00
   -3    4    1     -2.17      0.00
   -2    4    1     -6.06      0.00
   -1    4    1      2.14      0.00
    0    4    1    -23.92      0.00
    1    4    1      9.26      0.00
    2    4    1     -2.72      0.00
    3    4    1      1.65      0.00
    4    4    1     -0.06      0.00
    5    4    1     -0.78      0.00
    6    4    1      0.26      0.00
    7    4    1      0.16      0.00
   -7    5    1     -0.03      0.00
   -6    5    1     -0.04      0.00
   -5    5    1      0.60      0.00
   -4    5    1      1.62      0.00
   -3    5    1     -1.53      0.00
   -2    5    1     -1.44      0.00
   -1    5    1     -2.45      0.00
    0    5    1    -13.84      0.00
    1    5    1      7.99      0.00
    2    5    1      3.62      0.00
    3    5    1     -1.67      0.00
    4    5    1     -0.06      0.00
    5    5    1     -0.64      0.00
    6    5    1     -0.38      0.00
    7    5    1      0.17      0.00
   -7    6    1      0.19      0.00
   -6    6    1      0.19      0.00
   -5    6    1      0.09      0.00
   -4    6    1      0.40      0.00
   -3    6    1     -2.02      0.00
   -2    6    1     -4.11      0.00
   -1    6    1      3.10      0.00
    0    6    1      1.27      0.00
    1    6    1     13.28      0.00
    2    6    1      6.23      0.00
    3    6    1      2.35      0.00
    4    6    1      1.91      0.00
    5    6    1      0.34      0.00
    6    6    1      0.18      0.00
    7    6    1      0.04      0.00
   -6    7    1      0.19      0.00
   -5    7    1      0.62      0.00
   -4    7    1     -0.08      0.00
   -3    7    1     -0.95      0.00
   -2    7    1     -2.64      0.00
   -1    7    1     11.41      0.00
    0    7    1    -13.97      0.00
    1    7    1      2.76      0.00
    2    7    1      1.95      0.00
    3    7    1     -4.69      0.00
    4    7    1      0.30      0.00
    5    7    1      0.22      0.00
    6    7    1     -0.27      0.00
    7    7    1     -0.92      0.00
   -6    8    1     -0.17      0.00
   -5    8    1      0.20      0.00
   -4    8    1      1.27      0.00
   -3    8    1      1.21      0.00
   -2    8    1     -2.20      0.00
   -1    8    1     17.65      0.00
    0    8    1     -6.45      0.00
    1    8    1     15.24      0.00
    2    8    1     -0.14      0.00
    3    8    1     -1.26      0.00
    4    8    1     -0.57      0.00
    5    8    1     -0.43      0.00
    6    8    1     -0.21      0.00
   -6    9    1     -0.07      0.00
   -5    9    1     -1.55      0.00
   -4    9    1     -0.94      0.00
   -3    9    1     -1.23      0.00
   -2    9    1     -2.17      0.00
   -1    9    1      4.37      0.00
    0    9    1     -9.83      0.00
    1    9    1      4.43      0.00
    2    9    1      0.09      0.00
    3    9    1      1.30      0.00
    4    9    1      2.04      0.00
    5    9    1      0.93      0.00
    6    9    1      0.36      0.00
   -6   10    1     -0.13      0.00
   -5   10    1     -0.26      0.00
   -4   10    1      1.06      0.00
   -3   10    1      0.64      0.00
   -2   10    1      0.01      0.00
   -1   10    1      6.21      0.00
    0   10    1     -3.27      0.00
    1   10    1      1.27      0.00
    2   10    1     -4.95      0.00
    3   10    1     -5.11      0.00
    4   10    1     -1.14      0.00
    5   10    1     -1.04      0.00
    6   10    1     -0.02      0.00
   -6   11    1      0.27      0.00
   -5   11    1      0.26      0.00
   -4   11    1      0.49      0.00
   -3   11    1      1.33      0.00
   -2   11    1      0.47      0.00
   -1   11    1      6.08      0.00
    0   11    1     -5.83      0.00
    1   11    1      5.02      0.00
    2   11    1      1.04      0.00
    3   11    1      1.08      0.00
    4   11    1      1.19      0.00
    5   11    1      0.73      0.00
    6   11    1      0.29      0.00
   -5   12    1     -0.54      0.00
   -4   12    1      0.34      0.00
   -3   12    1     -0.77      0.00
   -2   12    1     -0.60      0.00
   -1   12    1     -0.47      0.00
    0   12    1     -4.58      0.00
    1   12    1     -0.45      0.00
    2   12    1     -2.17      0.00
    3   12    1     -0.69      0.00
    4   12    1      0.65      0.00
    5   12    1     -0.17      0.00
    6   12    1     -0.24      0.00
   -5   13    1      0.14      0.00
   -4   13    1      0.47      0.00
   -3   13    1      0.71      0.00
   -2   13    1      0.39      0.00
   -1   13    1      0.11      0.00
    0   13    1     -0.72      0.00
    1   13    1     -0.27      0.00
    2   13    1      1.27      0.00
    3   13    1     -0.11      0.00
    4   13    1     -0.24      0.00
    5   13    1     -0.20      0.00
   -5   14    1     -0.21      0.00
   -4   14    1      0.61      0.00
   -3   14    1     -0.65      0.00
   -2   14    1     -0.64      0.00
   -1   14    1     -0.72      0.00
    0   14    1      1.05      0.00
    1   14    1      1.28      0.00
    2   14    1      1.90      0.00
    3   14    1      1.05      0.00
    4   14    1      0.65      0.00
    5   14    1      0.59      0.00
   -4   15    1      0.15      0.00
   -3   15    1      0.39      0.00
   -2   15    1     -2.47      0.00
   -1   15    1      0.56      0.00
    0   15    1     -1.38      0.00
    1   15    1      0.54      0.00
    2   15    1     -0.23      0.00
    3   15    1     -0.96      0.00
    4   15    1     -0.76      0.00
    5   15    1      1.04      0.00
   -4   16    1      0.05      0.00
   -3   16    1     -0.10      0.00
   -2   16    1     -0.77      0.00
   -1   16    1      1.32      0.00
    0   16    1     -0.06      0.00
    1   16    1      1.48      0.00
    2   16    1     -0.86      0.00
    3   16    1      0.23      0.00
    4   16    1     -0.71      0.00
   -4   17    1     -0.51      0.00
   -3   17    1     -0.33      0.00
   -2   17    1      0.45      0.00
   -1   17    1      0.31      0.00
    0   17    1      0.94      0.00
    1   17    1     -1.03      0.00
    2   17    1      0.27      0.00
    3   17    1      0.51      0.00
    4   17    1      0.06      0.00
   -3   18    1      0.01      0.00
   -2   18    1     -0.48      0.00
   -1   18    1     -0.70      0.00
    0   18    1      1.05      0.00
    1   18    1     -0.22      0.00
    2   18    1     -1.18      0.00
    3   18    1      0.13      0.00
   -3   19    1     -0.45      0.00
   -2   19    1      1.13      0.00
   -1   19    1     -1.24      0.00
    0   19    1      1.58      0.00
    1   19    1     -1.35      0.00
    2   19    1      0.29      0.00
   -2   20    1      0.16      0.00
   -1   20    1     -1.58      0.00
    0   20    1      1.67      0.00
    1   20    1     -0.87      0.00
   -1   21    1     -1.04      0.00
    0   21    1      1.01      0.00
    0  -21    2     -0.35      0.00
    1  -21    2      0.35      0.00
   -1  -20    2     -0.17      0.00
    0  -20    2      0.99      0.00
    1  -20    2      0.09      0.00
    2  -20    2      0.68      0.00
   -2  -19    2     -0.02      0.00
   -1  -19    2     -0.36      0.00
    0  -19    2      1.83      0.00
    1  -19    2     -0.47      0.00
    2  -19    2     -0.08      0.00
   -3  -18    2      0.21      0.00
   -2  -18    2      0.98      0.00
   -1  -18    2     -1.29      0.00
    0  -18    2      2.09      0.00
    1  -18    2     -1.25      0.00
    2  -18    2      0.38      0.00
    3  -18    2      0.00      0.00
   -3  -17    2      0.70      0.00
   -2  -17    2     -0.08      0.00
   -1  -17    2     -1.06      0.00
    0  -17    2      2.43      0.00
    1  -17    2     -0.70      0.00
    2  -17    2      0.23      0.00
    3  -17    2      0.19      0.00
   -4  -16    2     -0.16      0.00
   -3  -16    2      0.67      0.00
   -2  -16    2      0.68      0.00
   -1  -16    2     -2.53      0.00
    0  -16    2      2.34      0.00
    1  -16    2     -3.18      0.00
    2  -16    2      0.38      0.00
    3  -16    2     -0.06      0.00
    4  -16    2     -0.58      0.00
   -4  -15    2      0.18      0.00
   -3  -15    2      1.54      0.00
   -2  -15    2      1.02      0.00
   -1  -15    2     -1.00      0.00
    0  -15    2      2.01      0.00
    1  -15    2     -1.46      0.00
    2  -15    2     -0.35      0.00
    3  -15    2     -0.38      0.00
    4  -15    2     -0.12      0.00
   -5  -14    2     -0.27      0.00
   -4  -14    2     -0.58      0.00
   -3  -14    2     -0.63      0.00
   -2  -14    2     -0.48      0.00
   -1  -14    2     -3.55      0.00
    0  -14    2      2.83      0.00
    1  -14    2     -2.94      0.00
    2  -14    2      0.43      0.00
    3  -14    2      0.52      0.00
    4  -14    2      0.24      0.00
    5  -14    2      0.45      0.00
   -5  -13    2      0.26      0.00
   -4  -13    2      0.78      0.00
   -3  -13    2      0.52      0.00
   -2  -13    2      0.90      0.00
   -1  -13    2     -6.31      0.00
    0  -13    2      4.65      0.00
    1  -13    2     -2.27      0.00
    2  -13    2      1.22      0.00
    3  -13    2     -0.55      0.00
    4  -13    2     -0.84      0.00
    5  -13    2     -0.04      0.00
   -5  -12    2      0.06      0.00
   -4  -12    2     -1.42      0.00
   -3  -12    2      0.00      0.00
   -2  -12    2     -0.21      0.00
   -1  -12    2     -2.46      0.00
    0  -12    2      4.19      0.00
    1  -12    2     -3.07      0.00
    2  -12    2      0.15      0.00
    3  -12    2      0.87      0.00
    4  -12    2      0.41      0.00
    5  -12    2      0.00      0.00
   -6  -11    2     -0.09      0.00
   -5  -11    2     -0.24      0.00
   -4  -11    2     -0.32      0.00
   -3  -11    2     -1.00      0.00
   -2  -11    2     -1.72      0.00
   -1  -11    2     -3.77      0.00
    0  -11    2      3.36      0.00
    1  -11    2     -0.54      0.00
    2  -11    2     -0.18      0.00
    3  -11    2     -0.63      0.00
    4  -11    2     -0.37      0.00
    5  -11    2      0.13      0.00
    6  -11    2     -0.03      0.00
   -6  -10    2      0.29      0.00
   -5  -10    2     -0.02      0.00
   -4  -10    2     -0.33      0.00
   -3  -10    2      1.01      0.00
   -2  -10    2      1.76      0.00
   -1  -10    2     -2.36      0.00
    0  -10    2      4.36      0.00
    1  -10    2     -1.83      0.00
    2  -10    2     -0.50      0.00
    3  -10    2      0.45      0.00
    4  -10    2     -1.33      0.00
    5  -10    2     -0.13      0.00
    6  -10    2      0.17      0.00
   -6   -9    2      0.39      0.00
   -5   -9    2     -1.18      0.00
   -4   -9    2     -1.69      0.00
   -3   -9    2     -1.81      0.00
   -2   -9    2      0.16      0.00
   -1   -9    2     -2.44      0.00
    0   -9    2     10.64      0.00
    1   -9    2      0.08      0.00
    2   -9    2      0.05      0.00
    3   -9    2      1.26      0.00
    4   -9    2     -0.03      0.00
    5   -9    2      0.61      0.00
    6   -9    2      0.24      0.00
   -6   -8    2     -0.33      0.00
   -5   -8    2      0.81      0.00
   -4   -8    2      0.58      0.00
   -3   -8    2      2.66      0.00
   -2   -8    2     -0.42      0.00
   -1   -8    2     -1.11      0.00
    0   -8    2      3.93      0.00
    1   -8    2     -8.86      0.00
    2   -8    2     -5.05      0.00
    3   -8    2     -3.21      0.00
    4   -8    2     -0.43      0.00
    5   -8    2     -1.24      0.00
    6   -8    2     -0.55      0.00
   -7   -7    2     -0.40      0.00
   -6   -7    2     -0.11      0.00
   -5   -7    2      0.03      0.00
   -4   -7    2      1.17      0.00
   -3   -7    2      0.55      0.00
   -2   -7    2      5.65      0.00
   -1   -7    2      8.12      0.00
    0   -7    2      2.99      0.00
    1   -7    2      3.88      0.00
    2   -7    2      3.70      0.00
    3   -7    2      2.78      0.00
    4   -7    2      1.88      0.00
    5   -7    2      1.09      0.00
    6   -7    2      0.39      0.00
    7   -7    2      0.28      0.00
   -7   -6    2     -0.29      0.00
   -6   -6    2     -0.05      0.00
   -5   -6    2     -0.73      0.00
   -4   -6    2     -0.48      0.00
   -3   -6    2     -2.83      0.00
   -2   -6    2     -2.04      0.00
   -1   -6    2     -4.44      0.00
    0   -6    2    -10.55      0.00
    1   -6    2     -5.62      0.00
    2   -6    2      3.99      0.00
    3   -6    2      1.73      0.00
    4   -6    2      1.91      0.00
    5   -6    2     -0.21      0.00
    6   -6    2      0.46      0.00
    7   -6    2      0.36      0.00
   -7   -5    2      0.73      0.00
   -6   -5    2      0.28      0.00
   -5   -5    2      0.76      0.00
   -4   -5    2      0.87      0.00
   -3   -5    2      2.76      0.00
   -2   -5    2     -2.97      0.00
   -1   -5    2      5.69      0.00
    0   -5    2     -8.68      0.00
    1   -5    2      8.64      0.00
    2   -5    2     -3.65      0.00
    3   -5    2     -2.64      0.00
    4   -5    2     -0.95      0.00
    5   -5    2     -0.59      0.00
    6   -5    2     -0.26      0.00
    7   -5    2     -0.18      0.00
   -7   -4    2      0.04      0.00
   -6   -4    2     -0.47      0.00
   -5   -4    2     -0.33      0.00
   -4   -4    2      1.70      0.00
   -3   -4    2     -1.82      0.00
   -2   -4    2      1.89      0.00
   -1   -4    2     10.61      0.00
    0   -4    2      6.32      0.00
    1   -4    2     14.31      0.00
    2   -4    2      3.04      0.00
    3   -4    2      4.41      0.00
    4   -4    2      1.78      0.00
    5   -4    2      0.30      0.00
    6   -4    2      0.56      0.00
    7   -4    2      0.10      0.00
   -7   -3    2      0.46      0.00
   -6   -3    2     -0.78      0.00
   -5   -3    2     -0.76      0.00
   -4   -3    2     -1.53      0.00
   -3   -3    2     -2.65      0.00
   -2   -3    2     -9.63      0.00
   -1   -3    2     -5.92      0.00
    0   -3    2    -10.39      0.00
    1   -3    2      9.68      0.00
    2   -3    2     -0.77      0.00
    3   -3    2     -1.96      0.00
    4   -3    2     -2.92      0.00
    5   -3    2     -0.64      0.00
    6   -3    2     -0.32      0.00
    7   -3    2      0.19      0.00
   -7   -2    2      0.46      0.00
   -6   -2    2      0.63      0.00
   -5   -2    2      1.49      0.00
   -4   -2    2      2.63      0.00
   -3   -2    2     -0.91      0.00
   -2   -2    2      1.30      0.00
   -1   -2    2      8.52      0.00
    0   -2    2     10.17      0.00
    1   -2    2      2.20      0.00
    2   -2    2     -1.79      0.00
    3   -2    2     -1.19      0.00
    4   -2    2      2.17      0.00
    5   -2    2      0.65      0.00
    6   -2    2      0.38      0.00
    7   -2    2     -0.36      0.00
   -7   -1    2     -0.09      0.00
   -6   -1    2     -0.23      0.00
   -5   -1    2     -1.84      0.00
   -4   -1    2     -1.52      0.00
   -3   -1    2     -4.90      0.00
   -2   -1    2     -4.12      0.00
   -1   -1    2     28.96      0.00
    1   -1    2     -3.95      0.00
    2   -1    2     -5.98      0.00
    3   -1    2     -4.64      0.00
    4   -1    2      0.41      0.00
    5   -1    2     -0.54      0.00
    6   -1    2      0.21      0.00
    7   -1    2      0.50      0.00
   -7    0    2      0.65      0.00
   -6    0    2      0.50      0.00
   -5    0    2      1.36      0.00
   -4    0    2      2.02      0.00
   -3    0    2     -0.71      0.00
   -2    0    2     -1.04      0.00
    1    0    2      9.71      0.00
    2    0    2     -6.55      0.00
    3    0    2     -0.74      0.00
    4    0    2      0.11      0.00
    5    0    2     -0.27      0.00
    6    0    2     -0.12      0.00
    7    0    2     -0.38      0.00
    8    0    2      0.08      0.00
   -7    1    2     -0.30      0.00
   -6    1    2     -0.53      0.00
   -5    1    2     -1.08      0.00
   -4    1    2      0.45      0.00
   -3    1    2      5.08      0.00
   -2    1    2      6.18      0.00
    1    1    2     18.32      0.00
    2    1    2     10.47      0.00
    3    1    2     -2.86      0.00
    4    1    2      2.05      0.00
    5    1    2      0.41      0.00
    6    1    2     -0.19      0.00
    7    1    2     -0.01      0.00
   -7    2    2     -0.23      0.00
   -6    2    2      0.17      0.00
   -5    2    2      0.25      0.00
   -4    2    2     -1.10      0.00
   -3    2    2     -4.73      0.00
   -2    2    2    -12.65      0.00
   -1    2    2    -31.39      0.00
    0    2    2    -71.33      0.00
    1    2    2    -13.60      0.00
    2    2    2     -9.62      0.00
    3    2    2      1.67      0.00
    4    2    2      1.53      0.00
    5    2    2      0.69      0.00
    6    2    2      0.08      0.00
    7    2    2      0.20      0.00
   -7    3    2      0.23      0.00
   -6    3    2     -0.18      0.00
   -5    3    2     -0.10      0.00
   -4    3    2      2.66      0.00
   -3    3    2      2.39      0.00
   -2    3    2      5.51      0.00
   -1    3    2     15.02      0.00
    0    3    2      6.43      0.00
    1    3    2      8.70      0.00
    2    3    2      1.35      0.00
    3    3    2     -4.79      0.00
    4    3    2     -1.74      0.00
    5    3    2     -1.01      0.00
    6    3    2     -0.68      0.00
    7    3    2     -0.10      0.00
   -7    4    2     -0.46      0.00
   -6    4    2      0.33      0.00
   -5    4    2      0.14      0.00
   -4    4    2     -0.38      0.00
   -3    4    2      0.68      0.00
   -2    4    2     -2.82      0.00
   -1    4    2      6.54      0.00
    0    4    2     -5.76      0.00
    1    4    2     27.32      0.00
    2    4    2      7.63      0.00
    3    4    2      4.59      0.00
    4    4    2      2.98      0.00
    5    4    2      0.21      0.00
    6    4    2      0.28      0.00
    7    4    2      0.13      0.00
   -7    5    2      0.43      0.00
   -6    5    2     -0.28      0.00
   -5    5    2     -1.10      0.00
   -4    5    2      0.41      0.00
   -3    5    2     -4.36      0.00
   -2    5    2     -4.77      0.00
   -1    5    2    -11.41      0.00
    0    5    2     -1.76      0.00
    1    5    2     -3.96      0.00
    2    5    2      4.05      0.00
    3    5    2     -3.57      0.00
    4    5    2     -0.86      0.00
    5    5    2     -0.52      0.00
    6    5    2     -0.05      0.00
    7    5    2      0.37      0.00
   -7    6    2      0.02      0.00
   -6    6    2      0.96      0.00
   -5    6    2      1.27      0.00
   -4    6    2      1.40      0.00
   -3    6    2      1.37      0.00
   -2    6    2     -0.97      0.00
   -1    6    2     13.38      0.00
    0    6    2      8.96      0.00
    1    6    2     16.22      0.00
    2    6    2      5.88      0.00
    3    6    2      1.14      0.00
    4    6    2      1.41      0.00
    5    6    2      0.35      0.00
    6    6    2     -0.33      0.00
    7    6    2     -0.13      0.00
   -6    7    2     -0.57      0.00
   -5    7    2     -0.62      0.00
   -4    7    2     -0.84      0.00
   -3    7    2     -0.10      0.00
   -2    7    2     -1.23      0.00
   -1    7    2      5.37      0.00
    0    7    2     -5.32      0.00
    1    7    2      1.39      0.00
    2    7    2     -1.28      0.00
    3    7    2     -3.18      0.00
    4    7    2      0.28      0.00
    5    7    2      0.47      0.00
    6    7    2      0.50      0.00
    7    7    2     -0.84      0.00
   -6    8    2      0.61      0.00
   -5    8    2     -0.42      0.00
   -4    8    2      0.49      0.00
   -3    8    2      1.14      0.00
   -2    8    2      0.03      0.00
   -1    8    2      2.65      0.00
    0    8    2      8.64      0.00
    1    8    2      1.67      0.00
    2    8    2     -5.16      0.00
    3    8    2     -1.93      0.00
    4    8    2     -1.52      0.00
    5    8    2     -0.88      0.00
    6    8    2     -0.24      0.00
   -6    9    2     -0.50      0.00
   -5    9    2     -0.92      0.00
   -4    9    2     -0.25      0.00
   -3    9    2      1.08      0.00
   -2    9    2      3.00      0.00
   -1    9    2      0.45      0.00
    0    9    2      2.10      0.00
    1    9    2     -1.68      0.00
    2    9    2     -0.21      0.00
    3    9    2      1.81      0.00
    4    9    2      1.06      0.00
    5    9    2      0.44      0.00
    6    9    2      0.30      0.00
   -6   10    2      0.21      0.00
   -5   10    2     -0.63      0.00
   -4   10    2     -0.55      0.00
   -3   10    2     -1.41      0.00
   -2   10    2     -0.49      0.00
   -1   10    2     -2.95      0.00
    0   10    2      0.86      0.00
    1   10    2     -5.45      0.00
    2   10    2     -5.04      0.00
    3   10    2     -2.09      0.00
    4   10    2     -0.58      0.00
    5   10    2     -0.51      0.00
    6   10    2     -0.04      0.00
   -6   11    2     -0.26      0.00
   -5   11    2      1.83      0.00
   -4   11    2      1.19      0.00
   -3   11    2      2.00      0.00
   -2   11    2      2.53      0.00
   -1   11    2     -3.41      0.00
    0   11    2      2.93      0.00
    1   11    2     -3.92      0.00
    2   11    2     -0.63      0.00
    3   11    2      0.78      0.00
    4   11    2     -0.33      0.00
    5   11    2      0.03      0.00
    6   11    2     -0.47      0.00
   -5   12    2     -0.56      0.00
   -4   12    2     -0.04      0.00
   -3   12    2     -0.46      0.00
   -2   12    2      0.98      0.00
   -1   12    2     -7.00      0.00
    0   12    2      5.24      0.00
    1   12    2     -5.27      0.00
    2   12    2      1.72      0.00
    3   12    2      2.63      0.00
    4   12    2      0.86      0.00
    5   12    2      0.11      0.00
    6   12    2     -0.77      0.00
   -5   13    2      0.17      0.00
   -4   13    2     -0.45      0.00
   -3   13    2     -0.36      0.00
   -2   13    2     -0.29      0.00
   -1   13    2     -5.38      0.00
    0   13    2      3.55      0.00
    1   13    2     -2.65      0.00
    2   13    2      1.82      0.00
    3   13    2     -0.42      0.00
    4   13    2     -0.99      0.00
    5   13    2     -0.37      0.00
   -5   14    2     -0.18      0.00
   -4   14    2      0.68      0.00
   -3   14    2     -0.24      0.00
   -2   14    2     -1.01      0.00
   -1   14    2     -1.25      0.00
    0   14    2      3.72      0.00
    1   14    2      2.13      0.00
    2   14    2      0.32      0.00
    3   14    2      1.34      0.00
    4   14    2     -0.58      0.00
    5   14    2      0.23      0.00
   -4   15    2     -0.79      0.00
   -3   15    2      0.25      0.00
   -2   15    2      0.16      0.00
   -1   15    2     -1.10      0.00
    0   15    2      2.34      0.00
    1   15    2     -1.75      0.00
    2   15    2     -0.52      0.00
    3   15    2      0.27      0.00
    4   15    2      0.04      0.00
    5   15    2      0.10      0.00
   -4   16    2     -0.09      0.00
   -3   16    2     -0.40      0.00
   -2   16    2      0.21      0.00
   -1   16    2     -1.64      0.00
    0   16    2      2.45      0.00
    1   16    2     -1.19      0.00
    2   16    2     -0.99      0.00
    3   16    2      0.19      0.00
    4   16    2     -0.82      0.00
   -4   17    2     -0.32      0.00
   -3   17    2     -0.15      0.00
   -2   17    2      2.27      0.00
   -1   17    2     -1.53      0.00
    0   17    2      3.95      0.00
    1   17    2     -1.68      0.00
    2   17    2      0.47      0.00
    3   17    2      0.67      0.00
    4   17    2      0.35      0.00
   -3   18    2      0.05      0.00
   -2   18    2      0.20      0.00
   -1   18    2     -1.93      0.00
    0   18    2      2.10      0.00
    1   18    2     -1.76      0.00
    2   18    2     -0.79      0.00
    3   18    2      0.21      0.00
   -3   19    2     -0.02      0.00
   -2   19    2      1.67      0.00
   -1   19    2     -1.77      0.00
    0   19    2      1.56      0.00
    1   19    2     -1.16      0.00
    2   19    2      0.94      0.00
    3   19    2     -1.11      0.00
   -2   20    2     -0.23      0.00
   -1   20    2     -1.03      0.00
    0   20    2      0.81      0.00
    1   20    2     -0.14      0.00
   -2   21    2     -0.22      0.00
   -1   21    2      0.32      0.00
    0   21    2     -0.90      0.00
    0  -21    3      1.10      0.00
   -1  -20    3     -0.44      0.00
    0  -20    3      1.85      0.00
    1  -20    3     -0.37      0.00
   -2  -19    3      0.01      0.00
   -1  -19    3     -0.17      0.00
    0  -19    3      1.69      0.00
    1  -19    3     -0.71      0.00
    2  -19    3     -0.64      0.00
   -3  -18    3      0.19      0.00
   -2  -18    3      0.13      0.00
   -1  -18    3     -1.22      0.00
    0  -18    3      0.46      0.00
    1  -18    3     -1.38      0.00
    2  -18    3     -0.11      0.00
    3  -18    3      0.00      0.00
   -3  -17    3      0.51      0.00
   -2  -17    3      0.25      0.00
   -1  -17    3      0.30      0.00
    0  -17    3      1.20      0.00
    1  -17    3     -0.49      0.00
    2  -17    3     -0.48      0.00
    3  -17    3     -0.37      0.00
   -4  -16    3      0.08      0.00
   -3  -16    3      0.14      0.00
   -2  -16    3     -0.45      0.00
   -1  -16    3     -0.69      0.00
    0  -16    3     -0.67      0.00
    1  -16    3     -0.97      0.00
    2  -16    3     -0.43      0.00
    3  -16    3      0.34      0.00
    4  -16    3     -0.07      0.00
   -4  -15    3      0.79      0.00
   -3  -15    3      0.35      0.00
   -2  -15    3      0.69      0.00
   -1  -15    3     -0.71      0.00
    0  -15    3     -0.37      0.00
    1  -15    3      0.20      0.00
    2  -15    3     -1.50      0.00
    3  -15    3     -0.58      0.00
    4  -15    3      0.36      0.00
   -5  -14    3     -0.50      0.00
   -4  -14    3     -0.46      0.00
   -3  -14    3     -0.80      0.00
   -2  -14    3     -0.51      0.00
   -1  -14    3      0.12      0.00
    0  -14    3      1.09      0.00
    1  -14    3      0.16      0.00
    2  -14    3      1.11      0.00
    3  -14    3      0.76      0.00
    4  -14    3      0.37      0.00
    5  -14    3     -0.44      0.00
   -5  -13    3     -0.14      0.00
   -4  -13    3      0.15      0.00
   -3  -13    3     -0.96      0.00
   -2  -13    3     -2.27      0.00
   -1  -13    3     -1.86      0.00
    0  -13    3     -1.49      0.00
    1  -13    3      1.40      0.00
    2  -13    3      0.09      0.00
    3  -13    3     -0.38      0.00
    4  -13    3      0.27      0.00
    5  -13    3     -0.44      0.00
   -5  -12    3      0.22      0.00
   -4  -12    3     -0.12      0.00
   -3  -12    3      0.46      0.00
   -2  -12    3     -0.96      0.00
   -1  -12    3      4.97      0.00
    0  -12    3     -3.70      0.00
    1  -12    3      2.67      0.00
    2  -12    3     -0.61      0.00
    3  -12    3     -0.02      0.00
    4  -12    3      0.16      0.00
    5  -12    3     -0.15      0.00
   -6  -11    3     -0.10      0.00
   -5  -11    3     -0.89      0.00
   -4  -11    3     -0.44      0.00
   -3  -11    3     -2.29      0.00
   -2  -11    3     -0.32      0.00
   -1  -11    3      2.99      0.00
    0  -11    3     -0.57      0.00
    1  -11    3      3.85      0.00
    2  -11    3     -0.76      0.00
    3  -11    3      0.41      0.00
    4  -11    3     -0.14      0.00
    5  -11    3      0.42      0.00
    6  -11    3     -0.46      0.00
   -6  -10    3      0.10      0.00
   -5  -10    3     -0.08      0.00
   -4  -10    3      0.21      0.00
   -3  -10    3      0.47      0.00
   -2  -10    3     -0.64      0.00
   -1  -10    3      2.96      0.00
    0  -10    3     -3.75      0.00
    1  -10    3      2.38      0.00
    2  -10    3     -0.85      0.00
    3  -10    3      0.14      0.00
    4  -10    3     -0.32      0.00
    5  -10    3     -0.41      0.00
    6  -10    3      0.02      0.00
   -6   -9    3     -0.01      0.00
   -5   -9    3     -0.10      0.00
   -4   -9    3      0.49      0.00
   -3   -9    3      0.83      0.00
   -2   -9    3     -0.13      0.00
   -1   -9    3     11.99      0.00
    0   -9    3     -2.20      0.00
    1   -9    3      6.35      0.00
    2   -9    3     -2.09      0.00
    3   -9    3     -0.74      0.00
    4   -9    3      1.61      0.00
    5   -9    3      0.55      0.00
    6   -9    3      0.20      0.00
   -6   -8    3     -0.91      0.00
   -5   -8    3     -0.37      0.00
   -4   -8    3      0.62      0.00
   -3   -8    3     -1.83      0.00
   -2   -8    3     -0.90      0.00
   -1   -8    3      7.95      0.00
    0   -8    3    -11.75      0.00
    1   -8    3      1.47      0.00
    2   -8    3     -0.26      0.00
    3   -8    3     -2.31      0.00
    4   -8    3      0.88      0.00
    5   -8    3     -0.67      0.00
    6   -8    3     -0.49      0.00
   -7   -7    3      0.27      0.00
   -6   -7    3      0.71      0.00
   -5   -7    3      0.91      0.00
   -4   -7    3      3.20      0.00
   -3   -7    3      2.40      0.00
   -2   -7    3      3.27      0.00
   -1   -7    3      7.15      0.00
    0   -7    3    -14.34      0.00
    1   -7    3      5.01      0.00
    2   -7    3      2.05      0.00
    3   -7    3      0.90      0.00
    4   -7    3      0.91      0.00
    5   -7    3      0.38      0.00
    6   -7    3      0.19      0.00
    7   -7    3      0.49      0.00
   -7   -6    3     -0.46      0.00
   -6   -6    3     -0.15      0.00
   -5   -6    3     -1.81      0.00
   -4   -6    3     -1.29      0.00
   -3   -6    3     -2.87      0.00
   -2   -6    3     -3.99      0.00
   -1   -6    3      6.73      0.00
    0   -6    3     -8.48      0.00
    1   -6    3      6.88      0.00
    2   -6    3      2.71      0.00
    3   -6    3      1.63      0.00
    4   -6    3      2.03      0.00
    5   -6    3      0.67      0.00
    6   -6    3      0.38      0.00
    7   -6    3      0.32      0.00
   -7   -5    3      1.10      0.00
   -6   -5    3     -0.38      0.00
   -5   -5    3      1.09      0.00
   -4   -5    3     -0.15      0.00
   -3   -5    3      0.60      0.00
   -2   -5    3     -8.58      0.00
   -1   -5    3      3.85      0.00
    0   -5    3    -19.85      0.00
    1   -5    3      8.22      0.00
    2   -5    3     -3.36      0.00
    3   -5    3     -3.87      0.00
    4   -5    3     -1.87      0.00
    5   -5    3     -1.09      0.00
    6   -5    3     -0.63      0.00
    7   -5    3     -0.21      0.00
   -7   -4    3      0.09      0.00
   -6   -4    3      0.16      0.00
   -5   -4    3     -0.30      0.00
   -4   -4    3      2.13      0.00
   -3   -4    3      0.24      0.00
   -2   -4    3      4.24      0.00
   -1   -4    3      9.35      0.00
    0   -4    3     -3.64      0.00
    1   -4    3     12.06      0.00
    2   -4    3     -3.91      0.00
    3   -4    3      1.07      0.00
    4   -4    3     -0.82      0.00
    5   -4    3     -0.32      0.00
    6   -4    3      0.01      0.00
    7   -4    3     -0.08      0.00
   -7   -3    3     -0.50      0.00
   -6   -3    3     -0.60      0.00
   -5   -3    3     -0.06      0.00
   -4   -3    3     -2.14      0.00
   -3   -3    3     -2.93      0.00
   -2   -3    3     -8.96      0.00
   -1   -3    3     -1.66      0.00
    0   -3    3    -12.31      0.00
    1   -3    3      8.75      0.00
    2   -3    3      6.14      0.00
    3   -3    3     -0.34      0.00
    4   -3    3      0.85      0.00
    5   -3    3      0.45      0.00
    6   -3    3      0.20      0.00
    7   -3    3      0.07      0.00
   -7   -2    3     -0.02      0.00
   -6   -2    3      1.02      0.00
   -5   -2    3      0.27      0.00
   -4   -2    3      1.69      0.00
   -3   -2    3     -1.62      0.00
   -2   -2    3     -3.13      0.00
   -1   -2    3     25.76      0.00
    0   -2    3    -32.42      0.00
    1   -2    3     -4.43      0.00
    2   -2    3    -10.57      0.00
    3   -2    3     -4.97      0.00
    4   -2    3      0.08      0.00
    5   -2    3     -0.29      0.00
    6   -2    3     -0.29      0.00
    7   -2    3     -0.29      0.00
   -7   -1    3      0.15      0.00
   -6   -1    3      0.14      0.00
   -5   -1    3     -0.16      0.00
   -4   -1    3     -0.50      0.00
   -3   -1    3     -0.27      0.00
   -2   -1    3      7.75      0.00
   -1   -1    3     16.13      0.00
    0   -1    3    -25.32      0.00
    1   -1    3     -0.12      0.00
    2   -1    3      7.69      0.00
    3   -1    3     -0.96      0.00
    4   -1    3      1.83      0.00
    5   -1    3      0.37      0.00
    6   -1    3     -0.01      0.00
    7   -1    3      0.15      0.00
   -7    0    3     -0.12      0.00
   -6    0    3     -0.49      0.00
   -5    0    3     -0.34      0.00
   -4    0    3     -0.26      0.00
   -3    0    3      2.92      0.00
   -2    0    3      1.17      0.00
    0    0    3    -10.32      0.00
    1    0    3     -4.46      0.00
    2    0    3    -10.06      0.00
    3    0    3     -3.33      0.00
    4    0    3     -1.89      0.00
    5    0    3     -0.35      0.00
    6    0    3     -0.02      0.00
    7    0    3      0.00      0.00
    8    0    3      0.53      0.00
   -7    1    3     -0.16      0.00
   -6    1    3      0.57      0.00
   -5    1    3      0.81      0.00
   -4    1    3     -0.66      0.00
   -3    1    3      1.94      0.00
   -2    1    3      6.27      0.00
    0    1    3     43.73      0.00
    1    1    3     16.97      0.00
    2    1    3     17.01      0.00
    3    1    3      1.47      0.00
    4    1    3      1.58      0.00
    5    1    3     -0.60      0.00
    6    1    3     -1.35      0.00
    7    1    3     -0.41      0.00
   -7    2    3     -0.51      0.00
   -6    2    3     -0.44      0.00
   -5    2    3     -0.75      0.00
   -4    2    3     -0.09      0.00
   -3    2    3      0.24      0.00
   -2    2    3     -0.29      0.00
   -1    2    3    -19.78      0.00
    0    2    3    -43.43      0.00
    1    2    3     -7.23      0.00
    2    2    3     -5.59      0.00
    3    2    3      6.76      0.00
    4    2    3      2.29      0.00
    5    2    3      1.80      0.00
    6    2    3      0.71      0.00
    7    2    3      0.51      0.00
   -7    3    3      0.15      0.00
   -6    3    3      0.30      0.00
   -5    3    3     -0.17      0.00
   -4    3    3     -0.25      0.00
   -3    3    3     -2.01      0.00
   -2    3    3     -1.34      0.00
   -1    3    3    -24.06      0.00
    0    3    3     17.99      0.00
    1    3    3     -7.16      0.00
    2    3    3      1.10      0.00
    3    3    3     -4.82      0.00
    4    3    3     -2.65      0.00
    5    3    3     -1.35      0.00
    6    3    3     -0.74      0.00
    7    3    3     -0.09      0.00
   -7    4    3      0.08      0.00
   -6    4    3      0.09      0.00
   -5    4    3      0.74      0.00
   -4    4    3      1.98      0.00
   -3    4    3      4.27      0.00
   -2    4    3      7.20      0.00
   -1    4    3      4.36      0.00
    0    4    3     46.17      0.00
    1    4    3     19.32      0.00
    2    4    3      8.08      0.00
    3    4    3      5.43      0.00
    4    4    3      1.14      0.00
    5    4    3      0.09      0.00
    6    4    3      0.49      0.00
    7    4    3     -0.13      0.00
   -7    5    3      0.90      0.00
   -6    5    3     -0.25      0.00
   -5    5    3     -1.42      0.00
   -4    5    3     -2.70      0.00
   -3    5    3     -4.01      0.00
   -2    5    3     -4.11      0.00
   -1    5    3    -19.38      0.00
    0    5    3      4.80      0.00
    1    5    3     -9.85      0.00
    2    5    3      1.61      0.00
    3    5    3     -0.52      0.00
    4    5    3     -1.01      0.00
    5    5    3     -0.05      0.00
    6    5    3      0.07      0.00
    7    5    3      0.42      0.00
   -7    6    3     -0.09      0.00
   -6    6    3      0.52      0.00
   -5    6    3      1.35      0.00
   -4    6    3      0.86      0.00
   -3    6    3      1.01      0.00
   -2    6    3      3.00      0.00
   -1    6    3      2.08      0.00
    0    6    3     18.68      0.00
    1    6    3      1.60      0.00
    2    6    3     -4.26      0.00
    3    6    3     -1.46      0.00
    4    6    3     -0.83      0.00
    5    6    3      0.02      0.00
    6    6    3     -0.19      0.00
    7    6    3     -0.13      0.00
   -6    7    3     -0.16      0.00
   -5    7    3     -0.74      0.00
   -4    7    3     -1.50      0.00
   -3    7    3      1.64      0.00
   -2    7    3      4.62      0.00
   -1    7    3     -7.11      0.00
    0    7    3     13.26      0.00
    1    7    3     -5.65      0.00
    2    7    3     -2.47      0.00
    3    7    3      0.88      0.00
    4    7    3      0.35      0.00
    5    7    3      0.39      0.00
    6    7    3      0.57      0.00
    7    7    3     -0.20      0.00
   -6    8    3      0.40      0.00
   -5    8    3     -0.05      0.00
   -4    8    3     -0.01      0.00
   -3    8    3     -1.00      0.00
   -2    8    3      2.82      0.00
   -1    8    3     -6.53      0.00
    0    8    3      8.82      0.00
    1    8    3    -13.83      0.00
    2    8    3     -8.11      0.00
    3    8    3     -0.73      0.00
    4    8    3     -1.54      0.00
    5    8    3     -0.06      0.00
    6    8    3     -0.36      0.00
    7    8    3      1.29      0.00
   -6    9    3     -0.36      0.00
   -4    9    3     -0.35      0.00
   -3    9    3      1.57      0.00
   -2    9    3      4.01      0.00
   -1    9    3     -1.40      0.00
    0    9    3      2.74      0.00
    1    9    3     -3.17      0.00
    2    9    3     -1.03      0.00
    3    9    3      2.15      0.00
    4    9    3     -0.36      0.00
    5    9    3     -0.44      0.00
    6    9    3     -0.14      0.00
   -6   10    3      0.01      0.00
   -4   10    3     -0.59      0.00
   -3   10    3     -1.85      0.00
   -2   10    3      0.40      0.00
   -1   10    3     -9.21      0.00
    0   10    3      2.76      0.00
    1   10    3     -8.52      0.00
    2   10    3     -1.75      0.00
    3   10    3      2.51      0.00
    4   10    3      0.82      0.00
    5   10    3      0.57      0.00
    6   10    3      0.22      0.00
   -6   11    3     -0.16      0.00
   -5   11    3      1.29      0.00
   -4   11    3      0.58      0.00
   -3   11    3      1.14      0.00
   -2   11    3      1.95      0.00
   -1   11    3     -8.55      0.00
    0   11    3      3.61      0.00
    1   11    3     -7.87      0.00
    2   11    3     -0.36      0.00
    3   11    3     -0.70      0.00
    4   11    3     -1.14      0.00
    5   11    3     -0.93      0.00
    6   11    3     -0.40      0.00
   -5   12    3     -0.22      0.00
   -4   12    3     -0.15      0.00
   -3   12    3      0.21      0.00
   -2   12    3      1.41      0.00
   -1   12    3     -3.14      0.00
    0   12    3      3.10      0.00
    1   12    3      1.60      0.00
    2   12    3      4.77      0.00
    3   12    3      3.46      0.00
    4   12    3      0.86      0.00
    5   12    3      0.10      0.00
    6   12    3      0.20      0.00
   -5   13    3     -0.34      0.00
   -4   13    3     -0.84      0.00
   -3   13    3     -1.69      0.00
   -2   13    3     -2.23      0.00
   -1   13    3     -2.96      0.00
    0   13    3      0.47      0.00
    1   13    3      2.21      0.00
    2   13    3      0.58      0.00
    3   13    3     -0.92      0.00
    4   13    3     -0.52      0.00
    5   13    3     -0.33      0.00
   -5   14    3      0.46      0.00
   -4   14    3      0.07      0.00
   -3   14    3      0.65      0.00
   -2   14    3      0.00      0.00
   -1   14    3      1.96      0.00
    0   14    3      1.84      0.00
    1   14    3      2.24      0.00
    2   14    3     -1.68      0.00
    3   14    3      0.16      0.00
    4   14    3     -0.45      0.00
    5   14    3     -0.30      0.00
   -4   15    3     -0.58      0.00
   -3   15    3     -0.06      0.00
   -2   15    3      2.07      0.00
   -1   15    3      0.46      0.00
    0   15    3      1.53      0.00
    1   15    3     -1.04      0.00
    2   15    3      1.14      0.00
    3   15    3      0.60      0.00
    4   15    3      0.93      0.00
    5   15    3     -0.12      0.00
   -4   16    3      0.00      0.00
   -3   16    3     -0.10      0.00
   -2   16    3     -0.21      0.00
   -1   16    3     -0.97      0.00
    0   16    3     -0.32      0.00
    1   16    3     -1.05      0.00
    2   16    3     -1.16      0.00
    3   16    3     -1.06      0.00
    4   16    3     -0.56      0.00
   -4   17    3     -0.37      0.00
   -3   17    3     -0.04      0.00
   -2   17    3      1.74      0.00
   -1   17    3      0.97      0.00
    0   17    3      1.05      0.00
    1   17    3      0.17      0.00
    2   17    3      0.61      0.00
    3   17    3      0.02      0.00
    4   17    3      0.28      0.00
   -3   18    3      0.53      0.00
   -2   18    3     -0.33      0.00
   -1   18    3      0.35      0.00
    0   18    3     -1.23      0.00
    1   18    3     -0.74      0.00
    2   18    3      0.22      0.00
    3   18    3     -0.33      0.00
   -3   19    3      0.13      0.00
   -2   19    3      0.03      0.00
   -1   19    3      0.27      0.00
    0   19    3     -2.46      0.00
    1   19    3      1.01      0.00
    2   19    3      0.40      0.00
    3   19    3     -1.59      0.00
   -2   20    3     -1.13      0.00
   -1   20    3      1.17      0.00
    0   20    3     -1.31      0.00
    1   20    3      1.04      0.00
    2   20    3     -0.54      0.00
   -2   21    3     -0.43      0.00
   -1   21    3      1.75      0.00
    0   21    3     -1.83      0.00
    0  -21    4      0.26      0.00
   -1  -20    4      0.74      0.00
    0  -20    4     -0.66      0.00
    1  -20    4     -0.30      0.00
   -2  -19    4      0.03      0.00
   -1  -19    4      1.39      0.00
    0  -19    4     -0.75      0.00
    1  -19    4      0.13      0.00
    2  -19    4     -0.75      0.00
   -3  -18    4     -0.95      0.00
   -2  -18    4     -0.67      0.00
   -1  -18    4      0.95      0.00
    0  -18    4     -2.21      0.00
    1  -18    4     -0.42      0.00
    2  -18    4      0.00      0.00
   -3  -17    4      0.21      0.00
   -2  -17    4      0.10      0.00
   -1  -17    4      1.82      0.00
    0  -17    4     -1.80      0.00
    1  -17    4      1.14      0.00
    2  -17    4     -0.96      0.00
    3  -17    4     -0.41      0.00
   -4  -16    4      0.19      0.00
   -3  -16    4     -0.11      0.00
   -2  -16    4     -0.36      0.00
   -1  -16    4      1.57      0.00
    0  -16    4     -3.17      0.00
    1  -16    4      1.60      0.00
    2  -16    4     -0.02      0.00
    3  -16    4      0.80      0.00
    4  -16    4      0.64      0.00
   -4  -15    4      0.63      0.00
   -3  -15    4     -0.73      0.00
   -2  -15    4     -0.68      0.00
   -1  -15    4      0.87      0.00
    0  -15    4     -1.93      0.00
    1  -15    4      1.31      0.00
    2  -15    4     -0.41      0.00
    3  -15    4     -0.45      0.00
    4  -15    4      0.20      0.00
   -5  -14    4     -0.57      0.00
   -4  -14    4     -0.27      0.00
   -3  -14    4      0.08      0.00
   -2  -14    4     -1.25      0.00
   -1  -14    4      4.07      0.00
    0  -14    4     -2.75      0.00
    1  -14    4      2.15      0.00
    2  -14    4      1.67      0.00
    3  -14    4      0.69      0.00
    4  -14    4      0.29      0.00
    5  -14    4     -0.91      0.00
   -5  -13    4     -0.29      0.00
   -4  -13    4     -0.44      0.00
   -3  -13    4     -1.70      0.00
   -2  -13    4     -2.81      0.00
   -1  -13    4      2.49      0.00
    0  -13    4     -4.30      0.00
    1  -13    4      3.56      0.00
    2  -13    4     -0.35      0.00
    3  -13    4     -0.09      0.00
    4  -13    4      0.52      0.00
    5  -13    4      0.16      0.00
   -5  -12    4      0.44      0.00
   -4  -12    4      1.03      0.00
   -3  -12    4      0.46      0.00
   -2  -12    4      0.41      0.00
   -1  -12    4      3.87      0.00
    0  -12    4     -4.30      0.00
    1  -12    4      1.79      0.00
    2  -12    4      0.28      0.00
    3  -12    4     -0.19      0.00
    4  -12    4     -0.78      0.00
    5  -12    4     -0.07      0.00
    6  -12    4     -0.03      0.00
   -6  -11    4     -0.57      0.00
   -5  -11    4     -0.39      0.00
   -4  -11    4     -0.47      0.00
   -3  -11    4     -0.24      0.00
   -2  -11    4      0.71      0.00
   -1  -11    4      5.98      0.00
    0  -11    4     -0.47      0.00
    1  -11    4      3.33      0.00
    2  -11    4     -0.88      0.00
    3  -11    4      0.23      0.00
    4  -11    4      0.46      0.00
    5  -11    4      0.37      0.00
    6  -11    4     -0.30      0.00
   -6  -10    4      0.01      0.00
   -5  -10    4     -0.05      0.00
   -4  -10    4      0.50      0.00
   -3  -10    4      0.11      0.00
   -2  -10    4     -1.97      0.00
   -1  -10    4      3.36      0.00
    0  -10    4     -7.05      0.00
    1  -10    4      2.18      0.00
    2  -10    4     -0.07      0.00
    3  -10    4     -0.43      0.00
    4  -10    4      0.80      0.00
    5  -10    4     -0.13      0.00
    6  -10    4      0.00      0.00
   -6   -9    4     -0.17      0.00
   -5   -9    4      0.62      0.00
   -4   -9    4      1.25      0.00
   -3   -9    4      1.95      0.00
   -2   -9    4      2.00      0.00
   -1   -9    4      8.39      0.00
    0   -9    4     -4.52      0.00
    1   -9    4      1.80      0.00
    2   -9    4     -0.93      0.00
    3   -9    4     -2.56      0.00
    4   -9    4      0.22      0.00
    5   -9    4      0.02      0.00
    6   -9    4     -0.11      0.00
   -6   -8    4     -0.36      0.00
   -5   -8    4     -0.78      0.00
   -4   -8    4      0.05      0.00
   -3   -8    4     -3.11      0.00
   -2   -8    4      1.33      0.00
   -1   -8    4     -2.13      0.00
    0   -8    4     -3.49      0.00
    1   -8    4     -3.27      0.00
    2   -8    4      3.77      0.00
    3   -8    4      1.29      0.00
    4   -8    4      0.86      0.00
    5   -8    4      0.11      0.00
    6   -8    4     -0.26      0.00
   -7   -7    4      0.30      0.00
   -6   -7    4      0.56      0.00
   -5   -7    4      1.07      0.00
   -4   -7    4      1.18      0.00
   -3   -7    4      4.90      0.00
   -2   -7    4     -1.08      0.00
   -1   -7    4     -6.28      0.00
    0   -7    4     -6.20      0.00
    1   -7    4     -3.45      0.00
    2   -7    4     -2.06      0.00
    3   -7    4     -1.81      0.00
    4   -7    4     -1.04      0.00
    5   -7    4     -0.48      0.00
    6   -7    4     -0.16      0.00
    7   -7    4      0.25      0.00
   -7   -6    4     -0.18      0.00
   -6   -6    4     -0.12      0.00
   -5   -6    4     -0.71      0.00
   -4   -6    4     -1.58      0.00
   -3   -6    4     -2.28      0.00
   -2   -6    4     -1.65      0.00
   -1   -6    4      1.55      0.00
    0   -6    4      2.84      0.00
    1   -6    4      2.42      0.00
    2   -6    4      1.69      0.00
    3   -6    4      2.69      0.00
    4   -6    4     -0.18      0.00
    5   -6    4      0.72      0.00
    6   -6    4      0.13      0.00
    7   -6    4      0.09      0.00
   -7   -5    4      0.23      0.00
   -6   -5    4     -0.56      0.00
   -5   -5    4      0.64      0.00
   -4   -5    4     -1.45      0.00
   -3   -5    4      0.46      0.00
   -2   -5    4     -3.89      0.00
   -1   -5    4    -10.74      0.00
    0   -5    4     -3.80      0.00
    1   -5    4     -1.71      0.00
    2   -5    4      0.72      0.00
    3   -5    4     -0.92      0.00
    4   -5    4     -0.20      0.00
    5   -5    4     -0.58      0.00
    6   -5    4     -0.28      0.00
    7   -5    4      0.05      0.00
   -7   -4    4     -0.35      0.00
   -6   -4    4      0.82      0.00
   -5   -4    4      0.18      0.00
   -4   -4    4      1.31      0.00
   -3   -4    4      0.21      0.00
   -2   -4    4      3.02      0.00
   -1   -4    4     -4.06      0.00
    0   -4    4      0.96      0.00
    1   -4    4     -1.72      0.00
    2   -4    4     -7.47      0.00
    3   -4    4     -1.62      0.00
    4   -4    4     -3.49      0.00
    5   -4    4     -0.74      0.00
    6   -4    4     -0.43      0.00
    7   -4    4     -0.55      0.00
   -7   -3    4     -1.02      0.00
   -6   -3    4     -0.29      0.00
   -5   -3    4      0.42      0.00
   -4   -3    4     -0.70      0.00
   -3   -3    4      0.02      0.00
   -2   -3    4      0.98      0.00
   -1   -3    4      2.81      0.00
    0   -3    4     11.61      0.00
    1   -3    4      1.32      0.00
    2   -3    4      9.87      0.00
    3   -3    4      3.20      0.00
    4   -3    4      3.57      0.00
    5   -3    4      1.50      0.00
    6   -3    4      0.65      0.00
    7   -3    4      0.55      0.00
   -7   -2    4      0.18      0.00
   -6   -2    4      0.37      0.00
   -5   -2    4     -1.41      0.00
   -4   -2    4     -2.18      0.00
   -3   -2    4     -3.38      0.00
   -2   -2    4      1.84      0.00
   -1   -2    4     -4.72      0.00
    0   -2    4     -3.26      0.00
    1   -2    4    -15.24      0.00
    2   -2    4     -5.37      0.00
    3   -2    4     -3.52      0.00
    4   -2    4     -2.65      0.00
    5   -2    4     -0.43      0.00
    6   -2    4     -0.71      0.00
    7   -2    4     -0.38      0.00
   -7   -1    4      0.06      0.00
   -6   -1    4      0.60      0.00
   -5   -1    4      1.61      0.00
   -4   -1    4      1.40      0.00
   -3   -1    4      5.68      0.00
   -2   -1    4     18.27      0.00
   -1   -1    4    -25.28      0.00
    0   -1    4     44.74      0.00
    1   -1    4     -9.76      0.00
    2   -1    4      4.53      0.00
    3   -1    4      1.52      0.00
    4   -1    4      1.28      0.00
    5   -1    4      0.19      0.00
    6   -1    4      0.42      0.00
    7   -1    4     -0.09      0.00
    8   -1    4      0.37      0.00
   -7    0    4     -0.69      0.00
   -6    0    4     -0.82      0.00
   -5    0    4     -1.52      0.00
   -4    0    4     -3.84      0.00
   -3    0    4      1.83      0.00
   -2    0    4     -0.91      0.00
    0    0    4     31.19      0.00
    1    0    4      1.55      0.00
    2    0    4     -2.09      0.00
    3    0    4      1.89      0.00
    4    0    4     -1.85      0.00
    5    0    4     -0.48      0.00
    6    0    4     -0.33      0.00
    7    0    4      0.15      0.00
   -7    1    4      0.12      0.00
   -6    1    4      0.50      0.00
   -5    1    4      1.65      0.00
   -4    1    4      1.25      0.00
   -3    1    4     -0.65      0.00
    0    1    4     16.28      0.00
    1    1    4     -3.78      0.00
    2    1    4      4.21      0.00
    3    1    4      4.21      0.00
    4    1    4      0.57      0.00
    5    1    4     -0.32      0.00
    6    1    4     -0.57      0.00
    7    1    4     -0.29      0.00
   -7    2    4     -0.37      0.00
   -6    2    4     -0.40      0.00
   -5    2    4     -1.35      0.00
   -4    2    4      0.18      0.00
   -3    2    4      2.92      0.00
   -1    2    4     -4.61      0.00
    0    2    4     -0.96      0.00
    1    2    4      3.75      0.00
    2    2    4      0.54      0.00
    3    2    4      5.75      0.00
    4    2    4      0.97      0.00
    5    2    4      1.28      0.00
    6    2    4      0.43      0.00
    7    2    4      0.02      0.00
   -7    3    4      0.14      0.00
   -6    3    4     -0.11      0.00
   -5    3    4      0.61      0.00
   -4    3    4     -1.04      0.00
   -3    3    4     -3.74      0.00
   -2    3    4     -8.54      0.00
   -1    3    4    -43.08      0.00
    0    3    4     12.04      0.00
    1    3    4    -23.11      0.00
    2    3    4     -5.34      0.00
    3    3    4     -2.07      0.00
    4    3    4     -2.40      0.00
    5    3    4     -0.56      0.00
    6    3    4      0.41      0.00
    7    3    4      0.19      0.00
   -7    4    4      0.78      0.00
   -6    4    4     -0.01      0.00
   -5    4    4      0.00      0.00
   -4    4    4      1.44      0.00
   -3    4    4      3.32      0.00
   -2    4    4      8.28      0.00
   -1    4    4     17.73      0.00
    0    4    4     50.78      0.00
    1    4    4     17.04      0.00
    2    4    4      0.39      0.00
    3    4    4      0.21      0.00
    4    4    4     -2.38      0.00
    5    4    4     -1.43      0.00
    6    4    4     -0.06      0.00
    7    4    4     -0.05      0.00
   -7    5    4     -0.07      0.00
   -6    5    4     -0.05      0.00
   -5    5    4      0.26      0.00
   -4    5    4     -2.82      0.00
   -3    5    4     -1.62      0.00
   -2    5    4     -1.20      0.00
   -1    5    4     -6.22      0.00
    0    5    4     -8.08      0.00
    1    5    4     -3.44      0.00
    2    5    4      2.12      0.00
    3    5    4      2.28      0.00
    4    5    4      1.09      0.00
    5    5    4      0.94      0.00
    6    5    4     -0.14      0.00
    7    5    4      0.46      0.00
   -6    6    4     -0.09      0.00
   -5    6    4     -0.08      0.00
   -4    6    4      0.13      0.00
   -3    6    4     -2.39      0.00
   -2    6    4     -0.15      0.00
   -1    6    4     -6.97      0.00
    0    6    4      7.08      0.00
    1    6    4    -14.19      0.00
    2    6    4    -10.03      0.00
    3    6    4     -3.54      0.00
    4    6    4     -0.97      0.00
    5    6    4     -0.11      0.00
    6    6    4      0.08      0.00
    7    6    4     -0.03      0.00
   -6    7    4      0.28      0.00
   -5    7    4      0.72      0.00
   -4    7    4      0.14      0.00
   -3    7    4      2.41      0.00
   -2    7    4      4.83      0.00
   -1    7    4      5.13      0.00
    0    7    4      2.39      0.00
    1    7    4     -3.92      0.00
    2    7    4     -0.99      0.00
    3    7    4      2.21      0.00
    4    7    4      0.34      0.00
    5    7    4      0.25      0.00
    6    7    4     -0.22      0.00
    7    7    4     -0.35      0.00
   -6    8    4     -0.30      0.00
   -5    8    4     -0.24      0.00
   -4    8    4      0.15      0.00
   -3    8    4     -1.45      0.00
   -2    8    4     -0.39      0.00
   -1    8    4      3.30      0.00
    0    8    4     -8.99      0.00
    1    8    4     -7.69      0.00
    2    8    4     -4.37      0.00
    3    8    4      0.84      0.00
    4    8    4      0.18      0.00
    5    8    4      0.72      0.00
    6    8    4     -0.01      0.00
    7    8    4      0.03      0.00
   -6    9    4      0.12      0.00
   -5    9    4      0.24      0.00
   -4    9    4     -0.49      0.00
   -3    9    4      1.04      0.00
   -2    9    4      0.12      0.00
   -1    9    4     -0.13      0.00
    0    9    4     -7.24      0.00
    1    9    4     -0.76      0.00
    2    9    4      0.36      0.00
    3    9    4      0.26      0.00
    4    9    4     -1.02      0.00
    5    9    4     -0.80      0.00
    6    9    4     -0.15      0.00
   -5   10    4      0.68      0.00
   -4   10    4      0.67      0.00
   -3   10    4     -0.33      0.00
   -2   10    4     -0.01      0.00
   -1   10    4     -1.61      0.00
    0   10    4     -2.71      0.00
    1   10    4     -0.32      0.00
    2   10    4      4.15      0.00
    3   10    4      3.14      0.00
    4   10    4      1.96      0.00
    5   10    4      0.65      0.00
    6   10    4      0.47      0.00
   -5   11    4     -0.20      0.00
   -4   11    4     -0.71      0.00
   -3   11    4     -0.70      0.00
   -2   11    4     -2.04      0.00
   -1   11    4     -2.90      0.00
    0   11    4     -7.68      0.00
    1   11    4     -0.06      0.00
    2   11    4      2.22      0.00
    3   11    4     -2.63      0.00
    4   11    4     -0.87      0.00
    5   11    4     -0.99      0.00
    6   11    4     -0.13      0.00
   -5   12    4      0.48      0.00
   -4   12    4      0.75      0.00
   -3   12    4      1.02      0.00
   -2   12    4     -0.67      0.00
   -1   12    4      7.18      0.00
    0   12    4     -2.55      0.00
    1   12    4     10.09      0.00
    2   12    4      3.57      0.00
    3   12    4      1.24      0.00
    4   12    4      0.57      0.00
    5   12    4      0.75      0.00
    6   12    4      0.67      0.00
   -5   13    4     -0.62      0.00
   -4   13    4     -0.80      0.00
   -3   13    4     -1.48      0.00
   -2   13    4     -2.90      0.00
   -1   13    4      2.03      0.00
    0   13    4     -0.59      0.00
    1   13    4      3.74      0.00
    2   13    4     -0.12      0.00
    3   13    4     -0.89      0.00
    4   13    4      0.35      0.00
    5   13    4      0.36      0.00
    6   13    4      0.07      0.00
   -5   14    4      0.44      0.00
   -4   14    4     -0.14      0.00
   -3   14    4      0.49      0.00
   -2   14    4      0.09      0.00
   -1   14    4      4.88      0.00
    0   14    4     -1.93      0.00
    1   14    4      0.08      0.00
    2   14    4     -1.82      0.00
    3   14    4     -1.25      0.00
    4   14    4     -0.42      0.00
    5   14    4      0.22      0.00
   -4   15    4      0.41      0.00
   -3   15    4      0.30      0.00
   -2   15    4      0.95      0.00
   -1   15    4      2.81      0.00
    0   15    4     -2.06      0.00
    1   15    4      0.82      0.00
    2   15    4      1.52      0.00
    3   15    4      0.03      0.00
    4   15    4      0.07      0.00
    5   15    4      0.32      0.00
   -4   16    4     -0.33      0.00
   -3   16    4      0.06      0.00
   -2   16    4     -1.53      0.00
   -1   16    4      2.07      0.00
    0   16    4     -2.97      0.00
    1   16    4     -0.02      0.00
    2   16    4     -1.18      0.00
    3   16    4     -1.39      0.00
    4   16    4      0.01      0.00
   -4   17    4      0.17      0.00
   -3   17    4      0.15      0.00
   -2   17    4     -0.22      0.00
   -1   17    4      2.46      0.00
    0   17    4     -2.78      0.00
    1   17    4      0.92      0.00
    2   17    4      0.19      0.00
    3   17    4     -0.30      0.00
    4   17    4      0.20      0.00
   -3   18    4      0.55      0.00
   -2   18    4     -0.85      0.00
   -1   18    4      1.58      0.00
    0   18    4     -2.35      0.00
    1   18    4      0.57      0.00
    2   18    4      0.34      0.00
    3   18    4     -0.47      0.00
    4   18    4      0.96      0.00
   -3   19    4      0.01      0.00
   -2   19    4     -1.38      0.00
   -1   19    4      0.32      0.00
    0   19    4     -2.70      0.00
    1   19    4      1.50      0.00
    2   19    4     -0.19      0.00
    3   19    4      0.01      0.00
   -2   20    4     -0.62      0.00
   -1   20    4      1.09      0.00
    0   20    4      0.03      0.00
    1   20    4      0.54      0.00
    2   20    4     -0.50      0.00
   -2   21    4      0.08      0.00
   -1   21    4      0.77      0.00
    0   21    4     -0.23      0.00
   -1  -20    5      1.25      0.00
    0  -20    5     -1.15      0.00
   -2  -19    5     -0.24      0.00
   -1  -19    5      0.91      0.00
    0  -19    5     -0.61      0.00
    1  -19    5      0.44      0.00
   -3  -18    5     -0.81      0.00
   -2  -18    5     -0.34      0.00
   -1  -18    5      0.47      0.00
    0  -18    5     -1.83      0.00
    1  -18    5      0.19      0.00
    2  -18    5      0.51      0.00
   -3  -17    5      0.25      0.00
   -2  -17    5      0.52      0.00
   -1  -17    5     -0.23      0.00
    0  -17    5     -1.09      0.00
    1  -17    5      0.90      0.00
    2  -17    5     -0.72      0.00
    3  -17    5      0.03      0.00
   -4  -16    5     -0.20      0.00
   -3  -16    5      0.17      0.00
   -2  -16    5      0.36      0.00
   -1  -16    5      0.60      0.00
    0  -16    5     -0.36      0.00
    1  -16    5      0.62      0.00
    2  -16    5      1.52      0.00
    3  -16    5      0.71      0.00
    4  -16    5      0.26      0.00
   -4  -15    5     -0.24      0.00
   -3  -15    5     -0.71      0.00
   -2  -15    5     -1.48      0.00
   -1  -15    5     -0.25      0.00
    0  -15    5      0.36      0.00
    1  -15    5     -0.30      0.00
    2  -15    5      0.22      0.00
    3  -15    5     -0.14      0.00
    4  -15    5     -0.21      0.00
   -5  -14    5      0.11      0.00
   -4  -14    5      0.05      0.00
   -3  -14    5      0.57      0.00
   -2  -14    5      0.61      0.00
   -1  -14    5      0.88      0.00
    0  -14    5     -0.71      0.00
    1  -14    5      0.10      0.00
    2  -14    5      0.98      0.00
    3  -14    5      0.16      0.00
    4  -14    5     -0.31      0.00
    5  -14    5     -0.05      0.00
   -5  -13    5     -0.22      0.00
   -4  -13    5     -0.64      0.00
   -3  -13    5     -0.81      0.00
   -2  -13    5      0.00      0.00
   -1  -13    5     -0.69      0.00
    0  -13    5      2.66      0.00
    1  -13    5      0.26      0.00
    2  -13    5      0.15      0.00
    3  -13    5      0.14      0.00
    4  -13    5      0.00      0.00
    5  -13    5      0.32      0.00
   -5  -12    5      0.52      0.00
   -4  -12    5      0.73      0.00
   -3  -12    5      0.72      0.00
   -2  -12    5      1.48      0.00
   -1  -12    5     -3.34      0.00
    0  -12    5      0.65      0.00
    1  -12    5     -2.65      0.00
    2  -12    5      0.68      0.00
    3  -12    5     -0.09      0.00
    4  -12    5     -0.78      0.00
    5  -12    5      0.15      0.00
    6  -12    5      0.01      0.00
   -6  -11    5     -0.06      0.00
   -5  -11    5      0.43      0.00
   -4  -11    5     -0.50      0.00
   -3  -11    5      1.80      0.00
   -2  -11    5      1.55      0.00
   -1  -11    5      1.97      0.00
    0  -11    5      2.48      0.00
    1  -11    5      0.28      0.00
    2  -11    5     -2.06      0.00
    3  -11    5     -0.78      0.00
    4  -11    5     -0.04      0.00
    5  -11    5     -0.09      0.00
    6  -11    5     -0.17      0.00
   -6  -10    5      0.17      0.00
   -5  -10    5     -0.38      0.00
   -4  -10    5      0.02      0.00
   -3  -10    5     -1.23      0.00
   -2  -10    5      2.13      0.00
   -1  -10    5     -4.97      0.00
    0  -10    5      2.02      0.00
    1  -10    5     -3.08      0.00
    2  -10    5      1.08      0.00
    3  -10    5      0.41      0.00
    4  -10    5      0.43      0.00
    5  -10    5      0.36      0.00
    6  -10    5     -0.01      0.00
   -6   -9    5     -0.03      0.00
   -5   -9    5      0.86      0.00
   -4   -9    5     -0.18      0.00
   -3   -9    5      1.36      0.00
   -2   -9    5      2.30      0.00
   -1   -9    5     -7.76      0.00
    0   -9    5      6.06      0.00
    1   -9    5     -7.44      0.00
    2   -9    5      0.00      0.00
    3   -9    5     -0.94      0.00
    4   -9    5     -1.18      0.00
    5   -9    5     -0.66      0.00
    6   -9    5     -0.08      0.00
   -6   -8    5      0.09      0.00
   -5   -8    5      0.07      0.00
   -4   -8    5     -0.23      0.00
   -3   -8    5     -0.19      0.00
   -2   -8    5      2.67      0.00
   -1   -8    5     -9.93      0.00
    0   -8    5      7.98      0.00
    1   -8    5     -7.37      0.00
    2   -8    5      0.47      0.00
    3   -8    5      2.06      0.00
    4   -8    5      0.25      0.00
    5   -8    5      0.26      0.00
    6   -8    5      0.21      0.00
   -7   -7    5     -0.36      0.00
   -6   -7    5     -0.24      0.00
   -5   -7    5      0.30      0.00
   -4   -7    5     -1.08      0.00
   -3   -7    5      2.44      0.00
   -2   -7    5     -2.47      0.00
   -1   -7    5    -10.80      0.00
    0   -7    5      4.39      0.00
    1   -7    5     -2.50      0.00
    2   -7    5     -1.38      0.00
    3   -7    5     -0.83      0.00
    4   -7    5     -1.13      0.00
    5   -7    5     -0.45      0.00
    6   -7    5      0.02      0.00
    7   -7    5     -0.26      0.00
   -7   -6    5      0.22      0.00
   -6   -6    5      0.56      0.00
   -5   -6    5      0.61      0.00
   -4   -6    5      0.23      0.00
   -3   -6    5     -1.69      0.00
   -2   -6    5      2.55      0.00
   -1   -6    5     -5.70      0.00
    0   -6    5      7.22      0.00
    1   -6    5     -4.30      0.00
    2   -6    5      0.15      0.00
    3   -6    5      3.56      0.00
    4   -6    5     -0.79      0.00
    5   -6    5      0.19      0.00
    6   -6    5      0.01      0.00
    7   -6    5      0.19      0.00
   -7   -5    5     -0.79      0.00
   -6   -5    5     -0.59      0.00
   -5   -5    5     -0.55      0.00
   -4   -5    5     -2.04      0.00
   -3   -5    5     -0.34      0.00
   -2   -5    5      0.76      0.00
   -1   -5    5     -8.20      0.00
    0   -5    5     14.80      0.00
    1   -5    5      2.06      0.00
    2   -5    5      3.51      0.00
    3   -5    5      0.69      0.00
    4   -5    5      1.90      0.00
    5   -5    5      0.69      0.00
    6   -5    5      0.31      0.00
    7   -5    5      0.34      0.00
   -7   -4    5      0.40      0.00
   -6   -4    5      0.49      0.00
   -5   -4    5      0.46      0.00
   -4   -4    5      1.07      0.00
   -3   -4    5     -1.85      0.00
   -2   -4    5     -1.30      0.00
   -1   -4    5     -7.24      0.00
    0   -4    5      2.55      0.00
    1   -4    5     -3.91      0.00
    2   -4    5     -6.82      0.00
    3   -4    5     -1.20      0.00
    4   -4    5     -3.89      0.00
    5   -4    5     -0.92      0.00
    6   -4    5     -0.29      0.00
    7   -4    5     -0.60      0.00
   -7   -3    5     -0.52      0.00
   -6   -3    5      0.14      0.00
   -5   -3    5      0.04      0.00
   -4   -3    5      0.36      0.00
   -3   -3    5      1.70      0.00
   -2   -3    5     12.44      0.00
   -1   -3    5      0.34      0.00
    0   -3    5     33.34      0.00
    1   -3    5     -2.22      0.00
    2   -3    5      5.54      0.00
    3   -3    5      1.91      0.00
    4   -3    5      2.56      0.00
    5   -3    5      0.87      0.00
    6   -3    5      0.40      0.00
    7   -3    5      0.65      0.00
   -7   -2    5      0.37      0.00
   -6   -2    5     -0.53      0.00
   -5   -2    5     -1.39      0.00
   -4   -2    5     -3.38      0.00
   -3   -2    5     -3.20      0.00
   -2   -2    5      0.94      0.00
   -1   -2    5    -18.90      0.00
    0   -2    5     23.23      0.00
    1   -2    5     -9.25      0.00
    2   -2    5      3.09      0.00
    3   -2    5      1.99      0.00
    4   -2    5     -0.72      0.00
    5   -2    5      0.26      0.00
    6   -2    5      0.10      0.00
    7   -2    5     -0.39      0.00
   -7   -1    5     -0.02      0.00
   -6   -1    5      0.54      0.00
   -5   -1    5      1.15      0.00
   -4   -1    5      2.13      0.00
   -3   -1    5      6.80      0.00
   -2   -1    5      5.25      0.00
   -1   -1    5    -13.10      0.00
    0   -1    5     20.78      0.00
    1   -1    5     -4.40      0.00
    2   -1    5     -9.48      0.00
    3   -1    5     -1.69      0.00
    4   -1    5      0.03      0.00
    5   -1    5     -0.83      0.00
    6   -1    5      0.33      0.00
    7   -1    5     -0.02      0.00
   -7    0    5     -0.08      0.00
   -6    0    5     -0.60      0.00
   -5    0    5     -0.40      0.00
   -4    0    5     -1.58      0.00
   -3    0    5     -0.95      0.00
   -2    0    5     -5.87      0.00
    0    0    5    -13.64      0.00
    1    0    5      6.05      0.00
    2    0    5      6.18      0.00
    3    0    5      5.05      0.00
    4    0    5     -0.36      0.00
    5    0    5      0.35      0.00
    6    0    5     -0.28      0.00
    7    0    5      0.08      0.00
   -7    1    5      0.11      0.00
   -6    1    5     -0.17      0.00
   -5    1    5     -0.06      0.00
   -4    1    5      2.87      0.00
   -3    1    5     -0.51      0.00
   -1    1    5      0.89      0.00
    0    1    5    -17.08      0.00
    1    1    5     -8.67      0.00
    2    1    5     -9.48      0.00
    3    1    5     -1.02      0.00
    4    1    5     -0.44      0.00
    5    1    5      0.10      0.00
    6    1    5      0.27      0.00
    7    1    5     -0.01      0.00
   -7    2    5      0.07      0.00
   -6    2    5      0.36      0.00
   -5    2    5      0.18      0.00
   -4    2    5     -0.29      0.00
   -3    2    5      0.14      0.00
   -1    2    5      6.34      0.00
    0    2    5     11.82      0.00
    1    2    5     12.67      0.00
    2    2    5      5.18      0.00
    3    2    5      1.10      0.00
    4    2    5     -0.33      0.00
    5    2    5     -0.08      0.00
    6    2    5     -0.20      0.00
    7    2    5     -0.34      0.00
   -7    3    5     -0.13      0.00
   -6    3    5     -0.66      0.00
   -5    3    5     -0.09      0.00
   -4    3    5      0.36      0.00
   -3    3    5     -0.45      0.00
   -1    3    5     -9.73      0.00
    0    3    5    -19.46      0.00
    1    3    5    -12.40      0.00
    2    3    5     -6.47      0.00
    3    3    5     -0.80      0.00
    4    3    5     -0.06      0.00
    5    3    5      0.44      0.00
    6    3    5      1.21      0.00
    7    3    5      0.87      0.00
   -7    4    5      0.29      0.00
   -6    4    5      0.40      0.00
   -5    4    5     -0.07      0.00
   -4    4    5     -0.42      0.00
   -3    4    5     -2.80      0.00
   -2    4    5     -0.49      0.00
   -1    4    5     25.28      0.00
    0    4    5     15.32      0.00
    1    4    5     12.58      0.00
    2    4    5      0.09      0.00
    3    4    5     -5.80      0.00
    4    4    5     -2.78      0.00
    5    4    5     -1.79      0.00
    6    4    5     -0.91      0.00
    7    4    5      0.28      0.00
   -6    5    5     -0.08      0.00
   -5    5    5      0.95      0.00
   -4    5    5      0.41      0.00
   -3    5    5      3.04      0.00
   -2    5    5      1.13      0.00
   -1    5    5     15.01      0.00
    0    5    5    -11.31      0.00
    1    5    5      3.47      0.00
    2    5    5      4.96      0.00
    3    5    5      2.50      0.00
    4    5    5      3.31      0.00
    5    5    5      1.10      0.00
    6    5    5     -0.02      0.00
    7    5    5     -0.18      0.00
   -6    6    5     -0.25      0.00
   -5    6    5     -0.90      0.00
   -4    6    5     -0.37      0.00
   -3    6    5     -4.13      0.00
   -2    6    5     -7.26      0.00
   -1    6    5     -2.80      0.00
    0    6    5    -21.63      0.00
    1    6    5    -15.45      0.00
    2    6    5     -5.34      0.00
    3    6    5     -2.42      0.00
    4    6    5      0.42      0.00
    5    6    5      0.36      0.00
    6    6    5      0.35      0.00
    7    6    5     -0.55      0.00
   -6    7    5     -0.04      0.00
   -5    7    5      0.81      0.00
   -4    7    5      1.58      0.00
   -3    7    5      2.31      0.00
   -2    7    5     -0.52      0.00
   -1    7    5     19.32      0.00
    0    7    5    -11.87      0.00
    1    7    5      2.67      0.00
    2    7    5     -0.97      0.00
    3    7    5     -0.54      0.00
    4    7    5     -1.04      0.00
    5    7    5     -0.15      0.00
    6    7    5     -0.34      0.00
    7    7    5     -0.36      0.00
   -6    8    5      0.13      0.00
   -5    8    5     -0.39      0.00
   -4    8    5     -0.25      0.00
   -3    8    5      1.30      0.00
   -2    8    5     -0.97      0.00
   -1    8    5      8.62      0.00
    0    8    5    -12.31      0.00
    1    8    5      7.14      0.00
    2    8    5      4.72      0.00
    3    8    5      1.51      0.00
    4    8    5      1.58      0.00
    5    8    5      0.67      0.00
    6    8    5      0.12      0.00
    7    8    5     -0.57      0.00
   -6    9    5     -0.18      0.00
   -5    9    5     -0.29      0.00
   -4    9    5      0.09      0.00
   -3    9    5     -0.16      0.00
   -2    9    5     -2.21      0.00
   -1    9    5     -1.37      0.00
    0    9    5    -10.84      0.00
    1    9    5     -1.67      0.00
    2    9    5      1.87      0.00
    3    9    5     -1.80      0.00
    4    9    5     -1.07      0.00
    5    9    5     -0.45      0.00
    6    9    5     -0.10      0.00
   -5   10    5      0.07      0.00
   -4   10    5      0.62      0.00
   -3   10    5      0.73      0.00
   -2   10    5     -1.52      0.00
   -1   10    5      4.94      0.00
    0   10    5     -5.37      0.00
    1   10    5     10.00      0.00
    2   10    5      6.89      0.00
    3   10    5      1.02      0.00
    4   10    5      1.26      0.00
    5   10    5     -0.29      0.00
    6   10    5     -0.27      0.00
   -5   11    5     -0.43      0.00
   -4   11    5     -0.33      0.00
   -3   11    5     -1.25      0.00
   -2   11    5     -3.34      0.00
   -1   11    5     -0.73      0.00
    0   11    5     -5.18      0.00
    1   11    5      3.81      0.00
    2   11    5      2.89      0.00
    3   11    5     -1.87      0.00
    4   11    5     -0.43      0.00
    5   11    5      0.28      0.00
    6   11    5     -0.12      0.00
   -5   12    5      0.26      0.00
   -4   12    5      0.68      0.00
   -3   12    5      1.05      0.00
   -2   12    5     -1.63      0.00
   -1   12    5      6.86      0.00
    0   12    5      3.23      0.00
    1   12    5      5.33      0.00
    2   12    5     -1.53      0.00
    3   12    5     -0.82      0.00
    4   12    5      0.03      0.00
    5   12    5      1.08      0.00
    6   12    5      0.30      0.00
   -5   13    5     -0.39      0.00
   -4   13    5     -0.12      0.00
   -3   13    5     -0.70      0.00
   -2   13    5     -0.19      0.00
   -1   13    5      1.94      0.00
    0   13    5      2.78      0.00
    1   13    5      0.04      0.00
    2   13    5     -0.08      0.00
    3   13    5      0.29      0.00
    4   13    5      0.03      0.00
    5   13    5      0.28      0.00
    6   13    5     -0.51      0.00
   -5   14    5     -0.48      0.00
   -4   14    5     -0.26      0.00
   -3   14    5     -0.22      0.00
   -2   14    5     -0.82      0.00
   -1   14    5      2.37      0.00
    0   14    5     -3.18      0.00
    1   14    5     -1.90      0.00
    2   14    5     -1.45      0.00
    3   14    5     -1.33      0.00
    4   14    5     -0.67      0.00
    5   14    5      0.27      0.00
   -4   15    5      0.61      0.00
   -3   15    5      0.89      0.00
   -2   15    5      0.20      0.00
   -1   15    5      1.42      0.00
    0   15    5     -1.50      0.00
    1   15    5      0.15      0.00
    2   15    5     -0.60      0.00
    3   15    5     -0.41      0.00
    4   15    5     -0.40      0.00
    5   15    5     -0.35      0.00
   -4   16    5     -0.17      0.00
   -3   16    5     -0.22      0.00
   -2   16    5     -0.58      0.00
   -1   16    5      1.07      0.00
    0   16    5     -0.05      0.00
    1   16    5     -0.73      0.00
    2   16    5     -0.15      0.00
    3   16    5     -0.11      0.00
    4   16    5      0.87      0.00
    5   16    5     -0.40      0.00
   -4   17    5      0.74      0.00
   -3   17    5      0.25      0.00
   -2   17    5     -0.13      0.00
   -1   17    5     -1.56      0.00
    0   17    5     -1.58      0.00
    1   17    5     -0.70      0.00
    2   17    5     -0.75      0.00
    3   17    5      0.04      0.00
    4   17    5     -0.31      0.00
   -3   18    5     -0.20      0.00
   -2   18    5     -0.19      0.00
   -1   18    5     -0.67      0.00
    0   18    5      1.92      0.00
    1   18    5      0.15      0.00
    2   18    5      0.21      0.00
    3   18    5      0.56      0.00
    4   18    5      0.10      0.00
   -3   19    5     -0.07      0.00
   -2   19    5     -0.32      0.00
   -1   19    5     -1.88      0.00
    0   19    5      0.75      0.00
    1   19    5      0.17      0.00
    2   19    5     -0.24      0.00
    3   19    5      1.01      0.00
   -2   20    5      0.58      0.00
   -1   20    5     -0.31      0.00
    0   20    5      1.65      0.00
    1   20    5     -0.50      0.00
    2   20    5     -0.15      0.00
   -2   21    5      0.47      0.00
   -1   21    5     -0.62      0.00
    0   21    5      1.13      0.00
    1   21    5     -0.79      0.00
    2   21    5      0.53      0.00
   -1  -20    6     -0.19      0.00
    0  -20    6      0.69      0.00
   -2  -19    6     -0.11      0.00
   -1  -19    6     -1.12      0.00
    0  -19    6      0.76      0.00
    1  -19    6     -0.08      0.00
   -3  -18    6     -0.15      0.00
   -2  -18    6      0.77      0.00
   -1  -18    6     -1.42      0.00
    0  -18    6      0.28      0.00
    1  -18    6     -0.15      0.00
    2  -18    6      0.42      0.00
   -3  -17    6     -0.15      0.00
   -2  -17    6      0.27      0.00
   -1  -17    6     -2.14      0.00
    0  -17    6      1.89      0.00
    1  -17    6     -0.79      0.00
    2  -17    6     -0.51      0.00
    3  -17    6      0.22      0.00
   -4  -16    6     -0.12      0.00
   -3  -16    6      0.53      0.00
   -2  -16    6      0.40      0.00
   -1  -16    6     -0.96      0.00
    0  -16    6      2.21      0.00
    1  -16    6     -1.02      0.00
    2  -16    6      1.35      0.00
    3  -16    6     -0.03      0.00
    4  -16    6     -0.56      0.00
   -4  -15    6     -0.57      0.00
   -3  -15    6     -0.31      0.00
   -2  -15    6     -0.26      0.00
   -1  -15    6     -1.82      0.00
    0  -15    6      2.64      0.00
    1  -15    6     -1.10      0.00
    2  -15    6     -0.63      0.00
    3  -15    6      0.13      0.00
    4  -15    6     -0.07      0.00
   -5  -14    6      0.43      0.00
   -4  -14    6      0.18      0.00
   -3  -14    6      0.26      0.00
   -2  -14    6      2.00      0.00
   -1  -14    6     -3.44      0.00
    0  -14    6      2.43      0.00
    1  -14    6     -1.62      0.00
    2  -14    6      0.48      0.00
    3  -14    6     -0.45      0.00
    4  -14    6     -0.66      0.00
    5  -14    6      0.04      0.00
   -5  -13    6     -0.03      0.00
   -4  -13    6     -0.55      0.00
   -3  -13    6      0.72      0.00
   -2  -13    6      0.98      0.00
   -1  -13    6     -1.98      0.00
    0  -13    6      4.73      0.00
    1  -13    6     -1.52      0.00
    2  -13    6     -0.10      0.00
    3  -13    6      0.16      0.00
    4  -13    6     -0.09      0.00
    5  -13    6     -0.12      0.00
   -5  -12    6      0.20      0.00
   -4  -12    6     -0.08      0.00
   -3  -12    6     -0.24      0.00
   -2  -12    6      0.84      0.00
   -1  -12    6     -4.40      0.00
    0  -12    6      0.65      0.00
    1  -12    6     -1.27      0.00
    2  -12    6     -0.44      0.00
    3  -12    6      0.28      0.00
    4  -12    6     -0.39      0.00
    5  -12    6      0.65      0.00
   -6  -11    6      1.09      0.00
   -5  -11    6      0.56      0.00
   -4  -11    6      0.09      0.00
   -3  -11    6      1.19      0.00
   -2  -11    6      1.63      0.00
   -1  -11    6     -1.83      0.00
    0  -11    6      3.21      0.00
    1  -11    6     -1.14      0.00
    2  -11    6     -2.83      0.00
    3  -11    6     -1.12      0.00
    4  -11    6     -0.61      0.00
    5  -11    6     -0.67      0.00
    6  -11    6     -0.12      0.00
   -6  -10    6     -0.10      0.00
   -5  -10    6     -0.67      0.00
   -4  -10    6     -0.57      0.00
   -3  -10    6     -1.10      0.00
   -2  -10    6      3.79      0.00
   -1  -10    6     -5.01      0.00
    0  -10    6      7.95      0.00
    1  -10    6     -4.36      0.00
    2  -10    6      1.55      0.00
    3  -10    6      1.57      0.00
    4  -10    6      0.44      0.00
    5  -10    6      0.54      0.00
    6  -10    6      0.21      0.00
   -6   -9    6      0.02      0.00
   -5   -9    6      0.52      0.00
   -4   -9    6     -0.71      0.00
   -3   -9    6      0.50      0.00
   -2   -9    6     -2.80      0.00
   -1   -9    6     -8.31      0.00
    0   -9    6      3.64      0.00
    1   -9    6     -4.19      0.00
    2   -9    6     -0.57      0.00
    3   -9    6      0.28      0.00
    4   -9    6     -0.04      0.00
    5   -9    6     -0.47      0.00
    6   -9    6      0.21      0.00
   -6   -8    6      0.27      0.00
   -5   -8    6      0.40      0.00
   -4   -8    6      0.92      0.00
   -3   -8    6      1.39      0.00
   -2   -8    6      1.54      0.00
   -1   -8    6      0.80      0.00
    0   -8    6     -0.08      0.00
    1   -8    6      0.48      0.00
    2   -8    6     -1.45      0.00
    3   -8    6     -0.14      0.00
    4   -8    6     -0.57      0.00
    5   -8    6      0.07      0.00
    6   -8    6      0.38      0.00
   -7   -7    6     -0.47      0.00
   -6   -7    6     -0.23      0.00
   -5   -7    6     -1.02      0.00
   -4   -7    6     -0.82      0.00
   -3   -7    6     -2.12      0.00
   -2   -7    6     -2.85      0.00
   -1   -7    6     -1.05      0.00
    0   -7    6      2.60      0.00
    1   -7    6      5.69      0.00
    2   -7    6      2.52      0.00
    3   -7    6      2.05      0.00
    4   -7    6      1.23      0.00
    5   -7    6      0.24      0.00
    6   -7    6      0.03      0.00
    7   -7    6     -0.12      0.00
   -7   -6    6      0.44      0.00
   -6   -6    6      0.60      0.00
   -5   -6    6      1.03      0.00
   -4   -6    6      0.88      0.00
   -3   -6    6      0.29      0.00
   -2   -6    6     -0.02      0.00
   -1   -6    6      1.34      0.00
    0   -6    6     -2.63      0.00
    1   -6    6     -0.19      0.00
    2   -6    6     -1.61      0.00
    3   -6    6      0.61      0.00
    4   -6    6     -0.90      0.00
    5   -6    6     -0.08      0.00
    6   -6    6     -0.24      0.00
    7   -6    6      0.32      0.00
   -7   -5    6     -0.30      0.00
   -6   -5    6     -0.41      0.00
   -5   -5    6     -0.97      0.00
   -4   -5    6     -1.11      0.00
   -3   -5    6     -2.37      0.00
   -2   -5    6     -1.00      0.00
   -1   -5    6      8.81      0.00
    0   -5    6     10.25      0.00
    1   -5    6     12.53      0.00
    2   -5    6      2.87      0.00
    3   -5    6     -0.29      0.00
    4   -5    6      1.19      0.00
    5   -5    6      0.63      0.00
    6   -5    6      0.49      0.00
    7   -5    6      0.18      0.00
   -7   -4    6      0.91      0.00
   -6   -4    6     -0.11      0.00
   -5   -4    6      0.13      0.00
   -4   -4    6      0.88      0.00
   -3   -4    6     -1.55      0.00
   -2   -4    6     -2.69      0.00
   -1   -4    6     -2.86      0.00
    0   -4    6     -7.14      0.00
    1   -4    6     -1.42      0.00
    2   -4    6     -2.85      0.00
    3   -4    6     -0.22      0.00
    4   -4    6     -1.51      0.00
    5   -4    6     -0.56      0.00
    6   -4    6      0.00      0.00
    7   -4    6     -0.42      0.00
   -7   -3    6      0.00      0.00
   -6   -3    6      0.57      0.00
   -5   -3    6     -0.10      0.00
   -4   -3    6      0.80      0.00
   -3   -3    6      2.28      0.00
   -2   -3    6      9.18      0.00
   -1   -3    6      8.21      0.00
    0   -3    6     14.53      0.00
    1   -3    6     -4.60      0.00
    2   -3    6     -1.96      0.00
    3   -3    6     -2.82      0.00
    4   -3    6      0.29      0.00
    5   -3    6     -0.59      0.00
    6   -3    6     -0.23      0.00
    7   -3    6      0.07      0.00
   -7   -2    6      0.21      0.00
   -6   -2    6     -1.08      0.00
   -5   -2    6     -0.51      0.00
   -4   -2    6     -1.07      0.00
   -3   -2    6      0.81      0.00
   -2   -2    6     -9.71      0.00
   -1   -2    6      9.15      0.00
    0   -2    6     -8.76      0.00
    1   -2    6      4.10      0.00
    2   -2    6      6.99      0.00
    3   -2    6      3.80      0.00
    4   -2    6      3.20      0.00
    5   -2    6      1.43      0.00
    6   -2    6      0.62      0.00
    7   -2    6      0.03      0.00
   -7   -1    6      0.33      0.00
   -6   -1    6      0.32      0.00
   -5   -1    6     -0.51      0.00
   -4   -1    6      1.53      0.00
   -3   -1    6      1.91      0.00
   -2   -1    6     -7.47      0.00
   -1   -1    6     14.52      0.00
    0   -1    6    -43.39      0.00
    1   -1    6      1.95      0.00
    2   -1    6    -12.07      0.00
    3   -1    6     -5.66      0.00
    4   -1    6     -2.01      0.00
    5   -1    6     -1.19      0.00
    6   -1    6     -0.14      0.00
    7   -1    6     -0.17      0.00
   -7    0    6     -0.13      0.00
   -6    0    6      0.26      0.00
   -5    0    6      1.46      0.00
   -4    0    6      2.99      0.00
   -3    0    6     -0.10      0.00
    0    0    6    -25.33      0.00
    1    0    6     -1.32      0.00
    2    0    6      6.10      0.00
    3    0    6      1.57      0.00
    4    0    6      0.16      0.00
    5    0    6      0.76      0.00
    6    0    6     -0.36      0.00
    7    0    6      0.12      0.00
   -7    1    6      0.00      0.00
   -6    1    6     -0.35      0.00
   -5    1    6     -1.58      0.00
   -4    1    6     -0.31      0.00
   -3    1    6     -0.54      0.00
   -1    1    6      9.73      0.00
    0    1    6     -8.03      0.00
    1    1    6      9.00      0.00
    2    1    6     -4.30      0.00
    3    1    6     -2.59      0.00
    4    1    6      0.01      0.00
    5    1    6     -0.13      0.00
    6    1    6      0.13      0.00
    7    1    6     -0.03      0.00
   -7    2    6      0.55      0.00
   -6    2    6      0.38      0.00
   -5    2    6      1.28      0.00
   -4    2    6      0.29      0.00
   -3    2    6     -3.25      0.00
   -1    2    6      9.37      0.00
    0    2    6     -6.29      0.00
    1    2    6      3.72      0.00
    2    2    6      4.43      0.00
    3    2    6     -0.99      0.00
    4    2    6      0.44      0.00
    5    2    6     -0.33      0.00
    6    2    6      0.04      0.00
    7    2    6      0.15      0.00
   -7    3    6     -0.64      0.00
   -6    3    6     -0.44      0.00
   -5    3    6     -1.04      0.00
   -4    3    6      0.41      0.00
   -3    3    6      2.40      0.00
   -2    3    6     -0.15      0.00
   -1    3    6     13.27      0.00
    0    3    6    -18.97      0.00
    1    3    6      4.37      0.00
    2    3    6      2.49      0.00
    3    3    6     -0.93      0.00
    4    3    6      1.57      0.00
    5    3    6      0.87      0.00
    6    3    6      0.74      0.00
    7    3    6      0.63      0.00
   -6    4    6      0.36      0.00
   -5    4    6      0.45      0.00
   -4    4    6     -0.87      0.00
   -3    4    6     -5.51      0.00
   -2    4    6     -6.29      0.00
   -1    4    6      4.87      0.00
    0    4    6      2.12      0.00
    1    4    6     -3.41      0.00
    2    4    6      2.03      0.00
    3    4    6     -3.92      0.00
    4    4    6     -0.90      0.00
    5    4    6     -0.81      0.00
    6    4    6     -0.46      0.00
    7    4    6      0.09      0.00
   -6    5    6      0.12      0.00
   -5    5    6      0.02      0.00
   -4    5    6      1.28      0.00
   -3    5    6      6.35      0.00
   -2    5    6      4.39      0.00
   -1    5    6     19.93      0.00
    0    5    6      1.65      0.00
    1    5    6      7.66      0.00
    2    5    6      2.54      0.00
    3    5    6      0.14      0.00
    4    5    6      1.58      0.00
    5    5    6     -0.10      0.00
    6    5    6      0.07      0.00
    7    5    6     -1.12      0.00
   -6    6    6     -0.25      0.00
   -5    6    6     -0.27      0.00
   -4    6    6     -0.40      0.00
   -3    6    6     -3.09      0.00
   -2    6    6     -5.43      0.00
   -1    6    6     -3.23      0.00
    0    6    6    -29.23      0.00
    1    6    6     -8.86      0.00
    2    6    6      2.33      0.00
    3    6    6      1.93      0.00
    4    6    6      0.67      0.00
    5    6    6      1.50      0.00
    6    6    6      0.49      0.00
    7    6    6     -0.14      0.00
   -6    7    6     -0.08      0.00
   -5    7    6     -0.68      0.00
   -4    7    6      0.39      0.00
   -3    7    6      0.97      0.00
   -2    7    6     -0.85      0.00
   -1    7    6      3.60      0.00
    0    7    6      0.32      0.00
    1    7    6      1.26      0.00
    2    7    6     -4.90      0.00
    3    7    6     -3.30      0.00
    4    7    6     -2.38      0.00
    5    7    6     -0.83      0.00
    6    7    6     -0.26      0.00
    7    7    6      0.50      0.00
   -6    8    6      0.61      0.00
   -5    8    6      0.60      0.00
   -4    8    6     -0.16      0.00
   -3    8    6      3.05      0.00
   -2    8    6      4.61      0.00
   -1    8    6      2.85      0.00
    0    8    6      1.46      0.00
    1    8    6     12.15      0.00
    2    8    6      8.39      0.00
    3    8    6      2.01      0.00
    4    8    6      1.62      0.00
    5    8    6     -0.07      0.00
    6    8    6     -0.34      0.00
    7    8    6     -0.25      0.00
   -6    9    6     -0.65      0.00
   -5    9    6     -1.17      0.00
   -4    9    6      0.26      0.00
   -3    9    6     -1.63      0.00
   -2    9    6     -1.06      0.00
   -1    9    6     -8.64      0.00
    0    9    6     -2.30      0.00
    1    9    6     -3.46      0.00
    2    9    6      0.18      0.00
    3    9    6     -0.56      0.00
    4    9    6     -0.40      0.00
    5    9    6      0.17      0.00
    6    9    6      0.05      0.00
    7    9    6      1.45      0.00
   -6   10    6     -0.07      0.00
   -5   10    6      0.47      0.00
   -4   10    6      0.00      0.00
   -3   10    6     -0.08      0.00
   -2   10    6     -1.14      0.00
   -1   10    6     -3.24      0.00
    0   10    6      4.69      0.00
    1   10    6      8.13      0.00
    2   10    6      3.10      0.00
    3   10    6     -0.66      0.00
    4   10    6     -0.53      0.00
    5   10    6     -1.13      0.00
    6   10    6     -0.33      0.00
   -5   11    6     -0.43      0.00
   -4   11    6      0.86      0.00
   -3   11    6     -0.36      0.00
   -2   11    6      0.32      0.00
   -1   11    6     -5.60      0.00
    0   11    6     10.99      0.00
    1   11    6     -0.90      0.00
    2   11    6     -0.38      0.00
    3   11    6      0.55      0.00
    4   11    6      0.30      0.00
    5   11    6      0.71      0.00
    6   11    6      0.02      0.00
   -5   12    6      0.18      0.00
   -4   12    6     -0.86      0.00
   -3   12    6     -0.45      0.00
   -2   12    6      0.26      0.00
   -1   12    6      0.92      0.00
    0   12    6      6.41      0.00
    1   12    6     -3.71      0.00
    2   12    6     -5.15      0.00
    3   12    6     -1.12      0.00
    4   12    6     -0.17      0.00
    5   12    6     -0.10      0.00
    6   12    6      0.30      0.00
   -5   13    6     -0.24      0.00
   -4   13    6      0.71      0.00
   -3   13    6      0.24      0.00
   -2   13    6      1.90      0.00
   -1   13    6      0.01      0.00
    0   13    6      2.27      0.00
    1   13    6     -0.95      0.00
    2   13    6     -0.50      0.00
    3   13    6      1.04      0.00
    4   13    6     -0.54      0.00
    5   13    6     -0.51      0.00
    6   13    6     -0.32      0.00
   -5   14    6     -0.78      0.00
   -4   14    6     -0.86      0.00
   -3   14    6     -0.29      0.00
   -2   14    6     -0.06      0.00
   -1   14    6     -2.28      0.00
    0   14    6     -0.81      0.00
    1   14    6     -2.09      0.00
    2   14    6     -0.64      0.00
    3   14    6     -0.55      0.00
    4   14    6      0.22      0.00
    5   14    6      0.16      0.00
   -5   15    6      0.38      0.00
   -4   15    6      0.42      0.00
   -3   15    6      0.51      0.00
   -2   15    6      1.38      0.00
   -1   15    6     -2.23      0.00
    0   15    6      1.38      0.00
    1   15    6     -2.39      0.00
    2   15    6     -2.10      0.00
    3   15    6     -0.17      0.00
    4   15    6     -0.08      0.00
    5   15    6     -0.57      0.00
   -4   16    6      0.33      0.00
   -3   16    6     -0.26      0.00
   -2   16    6      1.85      0.00
   -1   16    6     -2.35      0.00
    0   16    6      3.30      0.00
    1   16    6     -1.33      0.00
    2   16    6      1.25      0.00
    3   16    6      1.35      0.00
    4   16    6      0.56      0.00
    5   16    6     -0.09      0.00
   -4   17    6      0.12      0.00
   -3   17    6      0.07      0.00
   -2   17    6      0.57      0.00
   -1   17    6     -4.54      0.00
    0   17    6      0.92      0.00
    1   17    6     -1.09      0.00
    2   17    6     -0.93      0.00
    3   17    6      0.67      0.00
    4   17    6     -0.35      0.00
   -3   18    6     -0.84      0.00
   -2   18    6      0.31      0.00
   -1   18    6     -1.28      0.00
    0   18    6      3.41      0.00
    1   18    6     -0.16      0.00
    2   18    6      0.30      0.00
    3   18    6      0.70      0.00
    4   18    6     -0.14      0.00
   -3   19    6     -0.04      0.00
   -2   19    6      0.98      0.00
   -1   19    6     -1.47      0.00
    0   19    6      0.80      0.00
    1   19    6      0.02      0.00
    2   19    6      0.14      0.00
    3   19    6      0.24      0.00
   -2   20    6      0.45      0.00
   -1   20    6     -0.01      0.00
    0   20    6      0.34      0.00
    1   20    6     -0.40      0.00
    2   20    6      0.08      0.00
   -2   21    6      0.29      0.00
   -1   21    6     -0.46      0.00
    0   21    6      0.52      0.00
    1   21    6     -0.20      0.00
    2   21    6     -0.02      0.00
    2   22    6     -0.13      0.00
   -2  -19    7      0.28      0.00
   -1  -19    7     -0.85      0.00
    0  -19    7      0.71      0.00
   -2  -18    7      0.38      0.00
   -1  -18    7     -0.76      0.00
    0  -18    7      0.81      0.00
    1  -18    7     -0.17      0.00
    2  -18    7      0.01      0.00
   -3  -17    7     -0.36      0.00
   -2  -17    7     -0.71      0.00
   -1  -17    7     -0.36      0.00
    0  -17    7      1.49      0.00
    1  -17    7     -0.81      0.00
    2  -17    7     -0.61      0.00
    3  -17    7      0.04      0.00
   -4  -16    7      0.26      0.00
   -3  -16    7      0.47      0.00
   -2  -16    7      0.12      0.00
   -1  -16    7     -0.42      0.00
    0  -16    7     -0.01      0.00
    1  -16    7     -0.35      0.00
    2  -16    7      0.27      0.00
    3  -16    7     -0.49      0.00
    4  -16    7     -0.67      0.00
   -4  -15    7     -0.45      0.00
   -3  -15    7      0.00      0.00
   -2  -15    7      0.52      0.00
   -1  -15    7      0.18      0.00
    0  -15    7      1.22      0.00
    1  -15    7      0.39      0.00
    2  -15    7     -0.68      0.00
    3  -15    7      0.31      0.00
    4  -15    7      0.33      0.00
   -5  -14    7      0.45      0.00
   -4  -14    7     -0.10      0.00
   -3  -14    7     -0.34      0.00
   -2  -14    7     -0.18      0.00
   -1  -14    7     -1.12      0.00
    0  -14    7     -0.78      0.00
    1  -14    7      0.01      0.00
    2  -14    7      0.37      0.00
    3  -14    7     -0.62      0.00
    4  -14    7     -0.43      0.00
    5  -14    7     -0.37      0.00
   -5  -13    7      0.15      0.00
   -4  -13    7      0.32      0.00
   -3  -13    7      0.79      0.00
   -2  -13    7     -0.66      0.00
   -1  -13    7      2.39      0.00
    0  -13    7     -1.24      0.00
    1  -13    7      0.68      0.00
    2  -13    7     -1.23      0.00
    3  -13    7      0.05      0.00
    4  -13    7      0.11      0.00
    5  -13    7     -0.04      0.00
   -5  -12    7     -0.55      0.00
   -4  -12    7     -0.07      0.00
   -3  -12    7     -1.12      0.00
   -2  -12    7     -0.64      0.00
   -1  -12    7      0.47      0.00
    0  -12    7     -1.27      0.00
    1  -12    7      2.75      0.00
    2  -12    7     -0.41      0.00
    3  -12    7      0.49      0.00
    4  -12    7      0.21      0.00
    5  -12    7      0.56      0.00
   -6  -11    7      1.44      0.00
   -5  -11    7      0.07      0.00
   -4  -11    7      0.80      0.00
   -3  -11    7      0.63      0.00
   -2  -11    7     -0.62      0.00
   -1  -11    7      0.77      0.00
    0  -11    7     -0.10      0.00
    1  -11    7     -1.45      0.00
    2  -11    7     -1.19      0.00
    3  -11    7     -0.97      0.00
    4  -11    7      0.43      0.00
    5  -11    7     -0.66      0.00
    6  -11    7      0.06      0.00
   -6  -10    7     -0.60      0.00
   -5  -10    7     -0.48      0.00
   -4  -10    7     -0.35      0.00
   -3  -10    7      0.45      0.00
   -2  -10    7      0.39      0.00
   -1  -10    7      5.40      0.00
    0  -10    7      0.36      0.00
    1  -10    7      0.41      0.00
    2  -10    7      1.69      0.00
    3  -10    7      0.95      0.00
    4  -10    7      0.54      0.00
    5  -10    7      0.34      0.00
    6  -10    7      0.00      0.00
   -6   -9    7      0.24      0.00
   -5   -9    7     -0.32      0.00
   -4   -9    7      0.50      0.00
   -3   -9    7     -0.98      0.00
   -2   -9    7     -5.80      0.00
   -1   -9    7      2.04      0.00
    0   -9    7     -7.59      0.00
    1   -9    7      4.30      0.00
    2   -9    7      0.88      0.00
    3   -9    7     -0.08      0.00
    4   -9    7      1.08      0.00
    5   -9    7      0.32      0.00
    6   -9    7      0.26      0.00
   -6   -8    7      0.36      0.00
   -5   -8    7      0.24      0.00
   -4   -8    7      0.94      0.00
   -3   -8    7      0.78      0.00
   -2   -8    7     -1.30      0.00
   -1   -8    7      9.25      0.00
    0   -8    7     -9.79      0.00
    1   -8    7      4.89      0.00
    2   -8    7      0.67      0.00
    3   -8    7     -0.80      0.00
    4   -8    7     -0.93      0.00
    5   -8    7     -0.39      0.00
    6   -8    7     -0.01      0.00
   -6   -7    7     -0.12      0.00
   -5   -7    7     -1.04      0.00
   -4   -7    7      0.10      0.00
   -3   -7    7     -2.03      0.00
   -2   -7    7     -2.75      0.00
   -1   -7    7      7.04      0.00
    0   -7    7     -1.25      0.00
    1   -7    7      5.86      0.00
    2   -7    7      1.32      0.00
    3   -7    7      1.26      0.00
    4   -7    7      1.80      0.00
    5   -7    7      0.48      0.00
    6   -7    7     -0.48      0.00
    7   -7    7     -0.07      0.00
   -6   -6    7     -0.06      0.00
   -5   -6    7      0.63      0.00
   -4   -6    7     -0.39      0.00
   -3   -6    7      1.16      0.00
   -2   -6    7     -3.74      0.00
   -1   -6    7      7.25      0.00
    0   -6    7     -9.41      0.00
    1   -6    7      3.82      0.00
    2   -6    7     -0.30      0.00
    3   -6    7     -1.54      0.00
    4   -6    7     -1.70      0.00
    5   -6    7     -0.22      0.00
    6   -6    7     -0.14      0.00
    7   -6    7      0.24      0.00
   -7   -5    7      0.45      0.00
   -6   -5    7      0.49      0.00
   -5   -5    7     -0.54      0.00
   -4   -5    7      0.72      0.00
   -3   -5    7     -2.82      0.00
   -2   -5    7     -0.77      0.00
   -1   -5    7      9.32      0.00
    0   -5    7     -0.34      0.00
    1   -5    7      5.24      0.00
    2   -5    7     -0.42      0.00
    3   -5    7     -1.77      0.00
    4   -5    7     -0.20      0.00
    5   -5    7     -0.35      0.00
    6   -5    7      0.10      0.00
    7   -5    7     -0.17      0.00
   -7   -4    7      0.15      0.00
   -6   -4    7     -0.66      0.00
   -5   -4    7     -0.39      0.00
   -4   -4    7     -0.23      0.00
   -3   -4    7      1.91      0.00
   -2   -4    7      0.36      0.00
   -1   -4    7      1.80      0.00
    0   -4    7    -10.45      0.00
    1   -4    7     -4.09      0.00
    2   -4    7      1.70      0.00
    3   -4    7     -0.01      0.00
    4   -4    7      1.26      0.00
    5   -4    7      0.51      0.00
    6   -4    7      0.15      0.00
    7   -4    7     -0.20      0.00
   -7   -3    7      0.35      0.00
   -6   -3    7      0.78      0.00
   -5   -3    7      0.07      0.00
   -4   -3    7      0.97      0.00
   -3   -3    7      1.93      0.00
   -2   -3    7     -2.57      0.00
   -1   -3    7     13.12      0.00
    0   -3    7    -14.94      0.00
    1   -3    7     -7.65      0.00
    2   -3    7     -5.70      0.00
    3   -3    7     -4.22      0.00
    4   -3    7     -0.81      0.00
    5   -3    7     -1.19      0.00
    6   -3    7     -0.59      0.00
    7   -3    7     -0.28      0.00
   -7   -2    7     -0.37      0.00
   -6   -2    7     -0.72      0.00
   -5   -2    7      0.14      0.00
   -4   -2    7      0.92      0.00
   -3   -2    7      2.93      0.00
   -2   -2    7     -5.01      0.00
   -1   -2    7     16.95      0.00
    0   -2    7    -20.70      0.00
    1   -2    7      5.89      0.00
    2   -2    7      7.22      0.00
    3   -2    7      1.26      0.00
    4   -2    7      2.36      0.00
    5   -2    7      1.45      0.00
    6   -2    7      0.19      0.00
    7   -2    7      0.27      0.00
   -7   -1    7     -0.03      0.00
   -6   -1    7      0.24      0.00
   -5   -1    7     -0.87      0.00
   -4   -1    7     -0.18      0.00
   -3   -1    7     -3.42      0.00
   -2   -1    7     -3.26      0.00
   -1   -1    7     -0.12      0.00
    0   -1    7    -23.38      0.00
    1   -1    7      4.62      0.00
    2   -1    7     -1.96      0.00
    3   -1    7     -1.14      0.00
    4   -1    7     -1.59      0.00
    5   -1    7     -0.61      0.00
    6   -1    7     -0.02      0.00
    7   -1    7     -0.10      0.00
   -7    0    7     -0.65      0.00
   -6    0    7      0.52      0.00
   -5    0    7      1.93      0.00
   -4    0    7      2.27      0.00
   -3    0    7      2.51      0.00
   -1    0    7     -5.57      0.00
    0    0    7      6.66      0.00
    1    0    7     -9.45      0.00
    2    0    7     -2.00      0.00
    3    0    7     -2.46      0.00
    4    0    7     -0.89      0.00
    5    0    7     -0.17      0.00
    6    0    7     -0.71      0.00
    7    0    7      0.12      0.00
   -7    1    7      1.01      0.00
   -6    1    7     -0.29      0.00
   -5    1    7     -0.97      0.00
   -4    1    7     -2.53      0.00
   -3    1    7     -2.90      0.00
   -1    1    7      7.49      0.00
    0    1    7      7.61      0.00
    1    1    7     17.44      0.00
    2    1    7      8.13      0.00
    3    1    7      3.79      0.00
    4    1    7      2.11      0.00
    5    1    7      0.07      0.00
    6    1    7      0.18      0.00
    7    1    7     -0.14      0.00
   -6    2    7     -0.34      0.00
   -5    2    7      0.11      0.00
   -4    2    7      0.12      0.00
   -2    2    7     -0.76      0.00
   -1    2    7    -10.17      0.00
    0    2    7     -4.48      0.00
    1    2    7    -11.10      0.00
    2    2    7     -1.78      0.00
    3    2    7     -1.46      0.00
    4    2    7      0.47      0.00
    5    2    7      0.26      0.00
    6    2    7      0.57      0.00
    7    2    7      0.40      0.00
   -6    3    7      0.47      0.00
   -5    3    7      0.15      0.00
   -4    3    7     -0.60      0.00
   -2    3    7      9.89      0.00
   -1    3    7     -0.75      0.00
    0    3    7     15.25      0.00
    1    3    7      8.57      0.00
    2    3    7      6.98      0.00
    3    3    7      0.05      0.00
    4    3    7      0.17      0.00
    5    3    7      0.11      0.00
    6    3    7     -0.16      0.00
    7    3    7     -0.21      0.00
   -6    4    7     -0.04      0.00
   -5    4    7     -0.05      0.00
   -4    4    7     -0.48      0.00
   -3    4    7     -1.09      0.00
   -2    4    7     -3.00      0.00
   -1    4    7    -11.32      0.00
    0    4    7      7.59      0.00
    1    4    7    -11.63      0.00
    2    4    7     -1.74      0.00
    3    4    7      1.70      0.00
    4    4    7     -0.03      0.00
    5    4    7      0.02      0.00
    6    4    7      0.16      0.00
    7    4    7     -0.18      0.00
   -6    5    7      0.26      0.00
   -5    5    7     -0.27      0.00
   -4    5    7     -0.33      0.00
   -3    5    7      2.17      0.00
   -2    5    7      7.01      0.00
   -1    5    7      7.72      0.00
    0    5    7      9.41      0.00
    1    5    7      6.12      0.00
    2    5    7     -3.37      0.00
    3    5    7     -2.57      0.00
    4    5    7     -1.93      0.00
    5    5    7     -0.70      0.00
    6    5    7     -0.26      0.00
    7    5    7     -0.73      0.00
   -6    6    7     -0.15      0.00
   -5    6    7      0.33      0.00
   -4    6    7      0.37      0.00
   -3    6    7      0.23      0.00
   -2    6    7      3.55      0.00
   -1    6    7    -10.48      0.00
    0    6    7    -11.02      0.00
    1    6    7     -3.26      0.00
    2    6    7      3.52      0.00
    3    6    7      5.04      0.00
    4    6    7      0.85      0.00
    5    6    7      1.38      0.00
    6    6    7      0.05      0.00
    7    6    7      0.42      0.00
   -6    7    7      0.08      0.00
   -5    7    7     -1.00      0.00
   -4    7    7     -0.98      0.00
   -3    7    7     -1.76      0.00
   -2    7    7      1.11      0.00
   -1    7    7    -16.68      0.00
    0    7    7     11.03      0.00
    1    7    7     -3.76      0.00
    2    7    7     -8.69      0.00
    3    7    7     -2.31      0.00
    4    7    7     -0.83      0.00
    5    7    7     -0.94      0.00
    6    7    7     -0.02      0.00
    7    7    7      0.34      0.00
   -6    8    7      0.28      0.00
   -5    8    7      1.14      0.00
   -4    8    7      0.24      0.00
   -3    8    7      1.62      0.00
   -2    8    7      5.68      0.00
   -1    8    7     -0.50      0.00
    0    8    7      9.73      0.00
    1    8    7      7.67      0.00
    2    8    7      3.47      0.00
    3    8    7      0.96      0.00
    4    8    7      0.77      0.00
    5    8    7     -0.66      0.00
    6    8    7     -0.27      0.00
    7    8    7     -0.32      0.00
   -6    9    7     -0.11      0.00
   -5    9    7     -0.58      0.00
   -4    9    7      0.28      0.00
   -3    9    7     -1.67      0.00
   -2    9    7      1.41      0.00
   -1    9    7    -13.80      0.00
    0    9    7      8.07      0.00
    1    9    7     -1.66      0.00
    2    9    7      0.05      0.00
    3    9    7      1.97      0.00
    4    9    7      0.25      0.00
    5    9    7      0.69      0.00
    6    9    7      0.47      0.00
    7    9    7      0.53      0.00
   -6   10    7     -0.16      0.00
   -5   10    7      0.56      0.00
   -4   10    7      0.00      0.00
   -3   10    7     -1.36      0.00
   -2   10    7     -0.88      0.00
   -1   10    7     -9.46      0.00
    0   10    7     10.87      0.00
    1   10    7     -1.69      0.00
    2   10    7     -2.25      0.00
    3   10    7     -1.59      0.00
    4   10    7     -0.82      0.00
    5   10    7     -1.27      0.00
    6   10    7      0.29      0.00
   -5   11    7     -0.13      0.00
   -4   11    7      0.17      0.00
   -3   11    7      0.60      0.00
   -2   11    7      1.99      0.00
   -1   11    7     -0.13      0.00
    0   11    7      9.36      0.00
    1   11    7     -2.06      0.00
    2   11    7     -3.00      0.00
    3   11    7      1.02      0.00
    4   11    7      0.46      0.00
    5   11    7     -0.11      0.00
    6   11    7     -0.36      0.00
   -5   12    7      0.55      0.00
   -4   12    7     -1.38      0.00
   -3   12    7     -0.94      0.00
   -2   12    7      0.81      0.00
   -1   12    7      3.08      0.00
    0   12    7     -2.02      0.00
    1   12    7     -4.38      0.00
    2   12    7     -2.78      0.00
    3   12    7     -0.02      0.00
    4   12    7      0.21      0.00
    5   12    7     -0.26      0.00
    6   12    7      0.69      0.00
   -5   13    7     -0.66      0.00
   -4   13    7      0.50      0.00
   -3   13    7      0.90      0.00
   -2   13    7      0.62      0.00
   -1   13    7     -0.81      0.00
    0   13    7     -1.73      0.00
    1   13    7      0.68      0.00
    2   13    7     -1.41      0.00
    3   13    7     -0.03      0.00
    4   13    7     -0.54      0.00
    5   13    7      0.08      0.00
    6   13    7     -0.49      0.00
   -5   14    7      0.01      0.00
   -4   14    7     -0.56      0.00
   -3   14    7     -0.37      0.00
   -2   14    7      2.13      0.00
   -1   14    7     -2.38      0.00
    0   14    7      1.27      0.00
    1   14    7     -1.20      0.00
    2   14    7      1.85      0.00
    3   14    7      0.53      0.00
    4   14    7      0.86      0.00
    5   14    7      0.93      0.00
   -5   15    7      0.07      0.00
   -4   15    7      0.20      0.00
   -3   15    7     -0.05      0.00
   -2   15    7      0.54      0.00
   -1   15    7     -2.41      0.00
    0   15    7     -0.64      0.00
    1   15    7     -2.73      0.00
    2   15    7     -1.78      0.00
    3   15    7      0.36      0.00
    4   15    7     -0.19      0.00
    5   15    7     -0.67      0.00
   -4   16    7      0.55      0.00
   -3   16    7      0.18      0.00
   -2   16    7      1.60      0.00
   -1   16    7     -1.06      0.00
    0   16    7      1.20      0.00
    1   16    7      0.57      0.00
    2   16    7      1.79      0.00
    3   16    7      0.94      0.00
    4   16    7      0.20      0.00
    5   16    7      0.04      0.00
   -4   17    7     -0.73      0.00
   -3   17    7     -0.04      0.00
   -2   17    7     -0.62      0.00
   -1   17    7     -1.12      0.00
    0   17    7     -0.28      0.00
    1   17    7      0.95      0.00
    2   17    7      0.50      0.00
    3   17    7      0.39      0.00
    4   17    7      0.15      0.00
   -3   18    7     -0.69      0.00
   -2   18    7     -0.43      0.00
   -1   18    7      1.65      0.00
    0   18    7     -0.62      0.00
    1   18    7      0.14      0.00
    2   18    7      0.37      0.00
    3   18    7     -0.31      0.00
    4   18    7     -0.69      0.00
   -3   19    7      0.56      0.00
   -2   19    7      0.30      0.00
   -1   19    7      0.90      0.00
    0   19    7     -1.20      0.00
    1   19    7      1.06      0.00
    2   19    7      0.35      0.00
    3   19    7     -0.25      0.00
   -2   20    7     -0.45      0.00
   -1   20    7      1.06      0.00
    0   20    7     -1.16      0.00
    1   20    7      0.30      0.00
    2   20    7      0.26      0.00
   -2   21    7     -0.27      0.00
    0   21    7     -0.43      0.00
    1   21    7      0.04      0.00
    2   21    7      0.25      0.00
   -1  -19    8      1.05      0.00
   -2  -18    8     -0.71      0.00
   -1  -18    8      0.70      0.00
    0  -18    8     -0.54      0.00
    1  -18    8      0.36      0.00
    2  -18    8      0.18      0.00
   -3  -17    8     -0.13      0.00
   -2  -17    8     -0.39      0.00
   -1  -17    8      1.60      0.00
    0  -17    8     -1.09      0.00
    1  -17    8      0.07      0.00
    2  -17    8     -0.35      0.00
    3  -17    8      0.07      0.00
   -4  -16    8     -0.08      0.00
   -3  -16    8     -0.09      0.00
   -2  -16    8     -0.29      0.00
   -1  -16    8      0.52      0.00
    0  -16    8     -2.33      0.00
    1  -16    8      0.79      0.00
    2  -16    8     -0.02      0.00
    3  -16    8     -0.36      0.00
    4  -16    8     -0.19      0.00
   -4  -15    8     -0.04      0.00
   -3  -15    8      0.25      0.00
   -2  -15    8     -0.38      0.00
   -1  -15    8      3.00      0.00
    0  -15    8     -1.17      0.00
    1  -15    8      1.43      0.00
    2  -15    8     -0.22      0.00
    3  -15    8     -0.24      0.00
    4  -15    8      0.28      0.00
   -4  -14    8      0.04      0.00
   -3  -14    8     -0.66      0.00
   -2  -14    8     -1.78      0.00
   -1  -14    8      2.03      0.00
    0  -14    8     -3.46      0.00
    1  -14    8      1.68      0.00
    2  -14    8      0.24      0.00
    3  -14    8     -0.34      0.00
    4  -14    8      0.11      0.00
    5  -14    8     -0.06      0.00
   -5  -13    8     -0.32      0.00
   -4  -13    8      0.86      0.00
   -3  -13    8      0.05      0.00
   -2  -13    8     -1.07      0.00
   -1  -13    8      2.81      0.00
    0  -13    8     -2.39      0.00
    1  -13    8      0.90      0.00
    2  -13    8     -0.98      0.00
    3  -13    8     -0.19      0.00
    4  -13    8      0.20      0.00
    5  -13    8     -0.02      0.00
   -5  -12    8     -0.49      0.00
   -4  -12    8      0.14      0.00
   -3  -12    8      0.13      0.00
   -2  -12    8     -0.50      0.00
   -1  -12    8      2.75      0.00
    0  -12    8     -0.20      0.00
    1  -12    8      2.24      0.00
    2  -12    8      1.19      0.00
    3  -12    8      0.53      0.00
    4  -12    8      0.80      0.00
    5  -12    8      0.09      0.00
   -6  -11    8      0.73      0.00
   -5  -11    8     -0.09      0.00
   -4  -11    8      0.49      0.00
   -3  -11    8      0.11      0.00
   -2  -11    8     -1.36      0.00
   -1  -11    8      3.17      0.00
    0  -11    8     -3.28      0.00
    1  -11    8     -1.88      0.00
    2  -11    8      0.60      0.00
    3  -11    8     -0.47      0.00
    4  -11    8      0.88      0.00
    5  -11    8     -0.10      0.00
    6  -11    8      0.06      0.00
   -6  -10    8     -0.42      0.00
   -5  -10    8      0.36      0.00
   -4  -10    8      0.32      0.00
   -3  -10    8      0.60      0.00
   -2  -10    8     -0.72      0.00
   -1  -10    8      6.45      0.00
    0  -10    8     -5.90      0.00
    1  -10    8      2.14      0.00
    2  -10    8      1.17      0.00
    3  -10    8     -0.21      0.00
    4  -10    8     -0.65      0.00
    5  -10    8     -0.25      0.00
    6  -10    8     -0.43      0.00
   -6   -9    8      0.10      0.00
   -5   -9    8     -0.67      0.00
   -4   -9    8      0.47      0.00
   -3   -9    8     -1.56      0.00
   -2   -9    8     -2.57      0.00
   -1   -9    8      1.52      0.00
    0   -9    8     -3.78      0.00
    1   -9    8      3.43      0.00
    2   -9    8      1.79      0.00
    3   -9    8      0.26      0.00
    4   -9    8      0.75      0.00
    5   -9    8      0.47      0.00
    6   -9    8      0.23      0.00
   -6   -8    8     -0.15      0.00
   -5   -8    8      0.49      0.00
   -4   -8    8     -0.61      0.00
   -3   -8    8      0.40      0.00
   -2   -8    8     -2.03      0.00
   -1   -8    8      0.90      0.00
    0   -8    8     -5.37      0.00
    1   -8    8     -0.37      0.00
    2   -8    8      0.35      0.00
    3   -8    8      0.05      0.00
    4   -8    8     -0.50      0.00
    5   -8    8     -0.53      0.00
    6   -8    8     -0.21      0.00
   -6   -7    8     -0.17      0.00
   -5   -7    8     -0.31      0.00
   -4   -7    8      0.70      0.00
   -3   -7    8      0.04      0.00
   -2   -7    8      1.95      0.00
   -1   -7    8      3.20      0.00
    0   -7    8      2.84      0.00
    1   -7    8     -2.00      0.00
    2   -7    8     -3.41      0.00
    3   -7    8     -1.63      0.00
    4   -7    8     -0.55      0.00
    5   -7    8     -0.13      0.00
    6   -7    8     -0.65      0.00
    7   -7    8     -0.21      0.00
   -6   -6    8     -0.09      0.00
   -5   -6    8     -0.16      0.00
   -4   -6    8     -1.37      0.00
   -3   -6    8     -0.33      0.00
   -2   -6    8     -0.50      0.00
   -1   -6    8     -1.98      0.00
    0   -6    8     -0.36      0.00
    1   -6    8      1.55      0.00
    2   -6    8      2.98      0.00
    3   -6    8      0.64      0.00
    4   -6    8     -0.48      0.00
    5   -6    8      0.12      0.00
    6   -6    8      0.30      0.00
    7   -6    8      0.25      0.00
   -6   -5    8      0.70      0.00
   -5   -5    8      0.29      0.00
   -4   -5    8      0.92      0.00
   -3   -5    8     -0.56      0.00
   -2   -5    8      2.57      0.00
   -1   -5    8     -2.94      0.00
    0   -5    8     -0.02      0.00
    1   -5    8     -7.43      0.00
    2   -5    8     -3.62      0.00
    3   -5    8     -2.25      0.00
    4   -5    8     -0.61      0.00
    5   -5    8     -0.54      0.00
    6   -5    8     -0.11      0.00
    7   -5    8     -0.28      0.00
   -6   -4    8     -0.94      0.00
   -5   -4    8     -0.48      0.00
   -4   -4    8     -0.89      0.00
   -3   -4    8      2.74      0.00
   -2   -4    8      3.69      0.00
   -1   -4    8      1.89      0.00
    0   -4    8     -0.51      0.00
    1   -4    8     -2.65      0.00
    2   -4    8      3.33      0.00
    3   -4    8      0.77      0.00
    4   -4    8      1.77      0.00
    5   -4    8      0.72      0.00
    6   -4    8      0.22      0.00
    7   -4    8     -0.04      0.00
   -6   -3    8      0.65      0.00
   -5   -3    8      0.41      0.00
   -4   -3    8      0.70      0.00
   -3   -3    8      0.11      0.00
   -2   -3    8     -3.45      0.00
   -1   -3    8     -4.04      0.00
    0   -3    8    -10.12      0.00
    1   -3    8     -6.89      0.00
    2   -3    8     -3.79      0.00
    3   -3    8     -0.76      0.00
    4   -3    8     -0.54      0.00
    5   -3    8     -0.49      0.00
    6   -3    8     -0.37      0.00
    7   -3    8     -0.10      0.00
   -6   -2    8     -0.32      0.00
   -5   -2    8      0.77      0.00
   -4   -2    8      0.40      0.00
   -3   -2    8      0.59      0.00
   -2   -2    8      8.63      0.00
   -1   -2    8     -5.69      0.00
    0   -2    8     14.26      0.00
    1   -2    8      1.74      0.00
    2   -2    8      3.46      0.00
    3   -2    8     -0.42      0.00
    4   -2    8     -1.03      0.00
    5   -2    8      0.00      0.00
    6   -2    8     -0.24      0.00
    7   -2    8      0.33      0.00
   -6   -1    8     -0.28      0.00
   -5   -1    8     -0.18      0.00
   -4   -1    8     -1.71      0.00
   -3   -1    8     -3.18      0.00
   -2   -1    8      0.28      0.00
   -1   -1    8    -19.21      0.00
    0   -1    8     20.17      0.00
    1   -1    8     10.42      0.00
    2   -1    8      4.45      0.00
    3   -1    8      6.09      0.00
    4   -1    8      1.93      0.00
    5   -1    8      0.72      0.00
    6   -1    8      0.50      0.00
    7   -1    8      0.19      0.00
   -6    0    8      0.27      0.00
   -5    0    8      0.48      0.00
   -4    0    8     -0.82      0.00
   -3    0    8      0.44      0.00
   -1    0    8    -14.70      0.00
    0    0    8      4.25      0.00
    1    0    8    -13.93      0.00
    2    0    8     -9.60      0.00
    3    0    8     -3.55      0.00
    4    0    8     -2.55      0.00
    5    0    8     -1.17      0.00
    6    0    8     -0.50      0.00
    7    0    8     -0.04      0.00
   -6    1    8      0.25      0.00
   -5    1    8      0.81      0.00
   -4    1    8      0.30      0.00
   -1    1    8     -0.40      0.00
    0    1    8     14.21      0.00
    1    1    8      9.32      0.00
    2    1    8      9.31      0.00
    3    1    8      5.58      0.00
    4    1    8      2.41      0.00
    5    1    8      0.62      0.00
    6    1    8      0.05      0.00
    7    1    8     -0.16      0.00
   -6    2    8     -0.79      0.00
   -5    2    8     -1.33      0.00
   -4    2    8     -2.21      0.00
   -2    2    8      5.26      0.00
   -1    2    8    -20.12      0.00
    0    2    8     13.62      0.00
    1    2    8     -6.01      0.00
    2    2    8     -4.14      0.00
    3    2    8     -0.68      0.00
    4    2    8     -0.87      0.00
    5    2    8      0.03      0.00
    6    2    8      0.55      0.00
    7    2    8      0.06      0.00
   -6    3    8      0.93      0.00
   -5    3    8      1.49      0.00
   -4    3    8      0.49      0.00
   -2    3    8      5.61      0.00
   -1    3    8     -6.28      0.00
    0    3    8     20.08      0.00
    1    3    8      1.78      0.00
    2    3    8      0.34      0.00
    3    3    8     -0.46      0.00
    4    3    8     -1.33      0.00
    5    3    8     -0.60      0.00
    6    3    8     -0.72      0.00
    7    3    8     -0.15      0.00
   -6    4    8     -0.45      0.00
   -5    4    8     -0.84      0.00
   -4    4    8     -0.34      0.00
   -3    4    8      2.24      0.00
   -2    4    8      3.10      0.00
   -1    4    8      0.71      0.00
    0    4    8      0.35      0.00
    1    4    8     -4.97      0.00
    2    4    8     -3.88      0.00
    3    4    8      2.55      0.00
    4    4    8     -0.21      0.00
    5    4    8      0.24      0.00
    6    4    8      0.05      0.00
    7    4    8     -0.24      0.00
   -6    5    8      0.10      0.00
   -5    5    8      0.20      0.00
   -4    5    8     -0.34      0.00
   -3    5    8     -3.43      0.00
   -2    5    8      1.50      0.00
   -1    5    8     -3.38      0.00
    0    5    8      1.43      0.00
    1    5    8      0.80      0.00
    2    5    8     -5.62      0.00
    3    5    8     -2.59      0.00
    4    5    8     -1.38      0.00
    5    5    8     -0.22      0.00
    6    5    8     -0.10      0.00
    7    5    8      0.07      0.00
   -6    6    8      0.04      0.00
   -5    6    8      0.28      0.00
   -4    6    8      0.62      0.00
   -3    6    8      3.67      0.00
   -2    6    8      5.75      0.00
   -1    6    8     -6.03      0.00
    0    6    8     -1.92      0.00
    1    6    8      0.89      0.00
    2    6    8      0.79      0.00
    3    6    8      2.66      0.00
    4    6    8      1.26      0.00
    5    6    8     -0.11      0.00
    6    6    8     -0.52      0.00
    7    6    8     -0.37      0.00
   -6    7    8     -0.26      0.00
   -5    7    8     -0.12      0.00
   -4    7    8     -0.16      0.00
   -3    7    8     -3.66      0.00
   -2    7    8     -2.10      0.00
   -1    7    8    -12.31      0.00
    0    7    8      2.13      0.00
    1    7    8     -4.98      0.00
    2    7    8     -4.76      0.00
    3    7    8      1.46      0.00
    4    7    8      1.43      0.00
    5    7    8      0.57      0.00
    6    7    8      0.48      0.00
    7    7    8      0.28      0.00
   -6    8    8      0.14      0.00
   -5    8    8      0.54      0.00
   -4    8    8     -0.44      0.00
   -3    8    8     -0.01      0.00
   -2    8    8     -0.44      0.00
   -1    8    8      0.97      0.00
    0    8    8      6.82      0.00
    1    8    8      1.63      0.00
    2    8    8     -0.87      0.00
    3    8    8     -2.79      0.00
    4    8    8     -0.86      0.00
    5    8    8     -0.72      0.00
    6    8    8     -0.13      0.00
   -6    9    8      0.27      0.00
   -5    9    8      0.61      0.00
   -4    9    8      1.14      0.00
   -3    9    8      0.58      0.00
   -2    9    8      1.24      0.00
   -1    9    8     -3.36      0.00
    0    9    8      6.36      0.00
    1    9    8      3.26      0.00
    2    9    8      3.79      0.00
    3    9    8      2.87      0.00
    4    9    8      0.28      0.00
    5    9    8      0.67      0.00
    6    9    8      0.19      0.00
    7    9    8      0.50      0.00
   -6   10    8     -0.26      0.00
   -5   10    8     -0.41      0.00
   -4   10    8     -0.72      0.00
   -3   10    8     -1.26      0.00
   -2   10    8     -3.79      0.00
   -1   10    8      1.50      0.00
    0   10    8     -0.84      0.00
    1   10    8     -6.17      0.00
    2   10    8     -3.02      0.00
    3   10    8     -1.75      0.00
    4   10    8      0.39      0.00
    5   10    8     -0.38      0.00
    6   10    8      0.23      0.00
   -6   11    8      0.39      0.00
   -5   11    8      0.48      0.00
   -4   11    8     -1.04      0.00
   -3   11    8      1.03      0.00
   -2   11    8     -1.52      0.00
   -1   11    8     11.83      0.00
    0   11    8     -6.38      0.00
    1   11    8      1.46      0.00
    2   11    8     -2.09      0.00
    3   11    8     -0.27      0.00
    4   11    8     -0.85      0.00
    5   11    8     -0.12      0.00
    6   11    8     -0.08      0.00
   -6   12    8     -0.36      0.00
   -5   12    8      0.01      0.00
   -4   12    8     -0.13      0.00
   -3   12    8      0.47      0.00
   -2   12    8      0.87      0.00
   -1   12    8      4.76      0.00
    0   12    8     -5.40      0.00
    1   12    8     -0.60      0.00
    2   12    8      2.09      0.00
    3   12    8      1.04      0.00
    4   12    8      0.91      0.00
    5   12    8      1.01      0.00
    6   12    8      0.61      0.00
   -6   13    8     -0.48      0.00
   -5   13    8     -0.28      0.00
   -4   13    8      0.09      0.00
   -3   13    8     -0.08      0.00
   -2   13    8     -1.14      0.00
   -1   13    8     -1.09      0.00
    0   13    8     -3.32      0.00
    1   13    8      0.19      0.00
    2   13    8     -1.87      0.00
    3   13    8     -1.18      0.00
    4   13    8     -0.49      0.00
    5   13    8      0.58      0.00
    6   13    8     -0.50      0.00
   -5   14    8      0.44      0.00
   -4   14    8      0.57      0.00
   -3   14    8     -0.06      0.00
   -2   14    8      1.59      0.00
   -1   14    8      1.58      0.00
    0   14    8     -0.50      0.00
    1   14    8      0.26      0.00
    2   14    8      3.75      0.00
    3   14    8      1.07      0.00
    4   14    8      0.34      0.00
    5   14    8      0.72      0.00
   -5   15    8      0.06      0.00
   -4   15    8     -0.20      0.00
   -3   15    8      0.31      0.00
   -2   15    8     -2.24      0.00
   -1   15    8      0.39      0.00
    0   15    8     -4.06      0.00
    1   15    8     -0.31      0.00
    2   15    8     -0.79      0.00
    3   15    8     -0.05      0.00
    4   15    8      0.03      0.00
    5   15    8     -1.63      0.00
   -4   16    8      0.60      0.00
   -3   16    8      0.25      0.00
   -2   16    8     -0.44      0.00
   -1   16    8      2.25      0.00
    0   16    8     -1.54      0.00
    1   16    8      1.98      0.00
    2   16    8      1.67      0.00
    3   16    8     -0.69      0.00
    4   16    8     -0.10      0.00
    5   16    8     -0.05      0.00
   -4   17    8     -0.94      0.00
   -3   17    8      0.22      0.00
   -2   17    8     -1.72      0.00
   -1   17    8      2.35      0.00
    0   17    8     -1.19      0.00
    1   17    8      1.91      0.00
    2   17    8      1.51      0.00
    3   17    8      0.00      0.00
    4   17    8     -0.31      0.00
   -3   18    8     -0.08      0.00
   -2   18    8     -1.01      0.00
   -1   18    8      2.65      0.00
    0   18    8     -2.37      0.00
    1   18    8      0.23      0.00
    2   18    8     -0.28      0.00
    3   18    8     -0.31      0.00
    4   18    8     -0.33      0.00
   -3   19    8      0.89      0.00
   -2   19    8     -0.58      0.00
   -1   19    8      0.58      0.00
    0   19    8     -0.41      0.00
    1   19    8      1.22      0.00
    2   19    8     -0.15      0.00
    3   19    8     -1.02      0.00
   -2   20    8     -0.46      0.00
   -1   20    8      0.91      0.00
    0   20    8     -0.30      0.00
    1   20    8     -0.13      0.00
    2   20    8      0.61      0.00
    3   20    8     -0.44      0.00
    1   21    8     -0.80      0.00
    2   21    8     -0.09      0.00
   -1  -18    9      0.01      0.00
    0  -18    9     -1.01      0.00
    1  -18    9      0.42      0.00
   -3  -17    9     -0.12      0.00
   -2  -17    9      0.52      0.00
   -1  -17    9      0.79      0.00
    0  -17    9     -1.10      0.00
    1  -17    9      0.02      0.00
    2  -17    9     -0.11      0.00
    3  -17    9      0.28      0.00
   -3  -16    9     -0.26      0.00
   -2  -16    9     -0.60      0.00
   -1  -16    9     -0.02      0.00
    0  -16    9     -0.75      0.00
    1  -16    9      0.64      0.00
    2  -16    9     -0.04      0.00
    3  -16    9     -0.64      0.00
   -4  -15    9      0.54      0.00
   -3  -15    9      0.42      0.00
   -2  -15    9     -0.17      0.00
   -1  -15    9      1.34      0.00
    0  -15    9     -0.09      0.00
    1  -15    9      0.07      0.00
    2  -15    9      0.18      0.00
    3  -15    9     -0.74      0.00
    4  -15    9      0.06      0.00
   -4  -14    9     -0.18      0.00
   -3  -14    9     -0.37      0.00
   -2  -14    9      0.34      0.00
   -1  -14    9     -0.43      0.00
    0  -14    9      0.26      0.00
    1  -14    9      0.66      0.00
    2  -14    9      0.28      0.00
    3  -14    9      0.35      0.00
    4  -14    9      0.25      0.00
    5  -14    9      0.24      0.00
   -5  -13    9     -0.20      0.00
   -4  -13    9      0.09      0.00
   -3  -13    9     -0.26      0.00
   -2  -13    9      0.32      0.00
   -1  -13    9     -1.39      0.00
    0  -13    9      1.43      0.00
    1  -13    9     -1.62      0.00
    2  -13    9      0.06      0.00
    3  -13    9      0.17      0.00
    4  -13    9      0.09      0.00
    5  -13    9     -0.16      0.00
   -5  -12    9      0.46      0.00
   -4  -12    9      0.26      0.00
   -3  -12    9      1.29      0.00
   -2  -12    9      1.25      0.00
   -1  -12    9      0.66      0.00
    0  -12    9      0.81      0.00
    1  -12    9     -0.54      0.00
    2  -12    9      0.95      0.00
    3  -12    9      0.45      0.00
    4  -12    9      0.33      0.00
    5  -12    9     -0.01      0.00
   -5  -11    9     -0.01      0.00
   -4  -11    9     -0.36      0.00
   -3  -11    9     -1.16      0.00
   -2  -11    9      1.14      0.00
   -1  -11    9     -1.03      0.00
    0  -11    9     -1.00      0.00
    1  -11    9     -2.05      0.00
    2  -11    9      0.24      0.00
    3  -11    9      0.02      0.00
    4  -11    9     -0.19      0.00
    5  -11    9      0.05      0.00
    6  -11    9     -0.19      0.00
   -5  -10    9      0.82      0.00
   -4  -10    9      0.28      0.00
   -3  -10    9      0.12      0.00
   -2  -10    9      0.99      0.00
   -1  -10    9     -3.76      0.00
    0  -10    9     -0.59      0.00
    1  -10    9     -0.91      0.00
    2  -10    9     -0.47      0.00
    3  -10    9     -0.42      0.00
    4  -10    9     -1.24      0.00
    5  -10    9     -0.44      0.00
    6  -10    9     -0.14      0.00
   -6   -9    9     -0.70      0.00
   -5   -9    9     -0.36      0.00
   -4   -9    9     -0.87      0.00
   -3   -9    9     -0.70      0.00
   -2   -9    9      1.41      0.00
   -1   -9    9     -5.02      0.00
    0   -9    9      7.70      0.00
    1   -9    9     -0.62      0.00
    2   -9    9     -0.25      0.00
    3   -9    9      0.63      0.00
    4   -9    9      0.16      0.00
    5   -9    9      0.14      0.00
    6   -9    9      0.16      0.00
   -6   -8    9     -0.28      0.00
   -5   -8    9      0.45      0.00
   -4   -8    9     -0.94      0.00
   -3   -8    9     -0.20      0.00
   -2   -8    9      0.78      0.00
   -1   -8    9     -7.38      0.00
    0   -8    9      0.65      0.00
    1   -8    9     -2.90      0.00
    2   -8    9     -0.81      0.00
    3   -8    9      0.51      0.00
    4   -8    9      0.20      0.00
    5   -8    9      0.11      0.00
    6   -8    9      0.18      0.00
   -6   -7    9      0.16      0.00
   -5   -7    9      0.15      0.00
   -4   -7    9      0.39      0.00
   -3   -7    9      0.07      0.00
   -2   -7    9      4.95      0.00
   -1   -7    9     -2.35      0.00
    0   -7    9      6.68      0.00
    1   -7    9     -4.87      0.00
    2   -7    9     -4.44      0.00
    3   -7    9     -1.80      0.00
    4   -7    9     -1.84      0.00
    5   -7    9     -0.61      0.00
    6   -7    9     -0.41      0.00
    7   -7    9     -0.04      0.00
   -6   -6    9     -0.12      0.00
   -5   -6    9     -0.13      0.00
   -4   -6    9     -0.84      0.00
   -3   -6    9     -0.44      0.00
   -2   -6    9      3.10      0.00
   -1   -6    9     -7.01      0.00
    0   -6    9      8.25      0.00
    1   -6    9      2.49      0.00
    2   -6    9      4.16      0.00
    3   -6    9      2.43      0.00
    4   -6    9      1.37      0.00
    5   -6    9      0.66      0.00
    6   -6    9      0.50      0.00
    7   -6    9      0.04      0.00
   -6   -5    9     -0.37      0.00
   -5   -5    9      0.50      0.00
   -4   -5    9     -0.36      0.00
   -3   -5    9      0.40      0.00
   -2   -5    9      1.25      0.00
   -1   -5    9     -5.27      0.00
    0   -5    9      1.80      0.00
    1   -5    9     -5.85      0.00
    2   -5    9     -2.94      0.00
    3   -5    9     -0.85      0.00
    4   -5    9     -0.61      0.00
    5   -5    9     -0.26      0.00
    6   -5    9      0.15      0.00
    7   -5    9     -0.08      0.00
   -6   -4    9     -0.25      0.00
   -5   -4    9      0.02      0.00
   -4   -4    9      0.56      0.00
   -3   -4    9      0.14      0.00
   -2   -4    9      4.73      0.00
   -1   -4    9     -2.92      0.00
    0   -4    9      7.21      0.00
    1   -4    9      1.35      0.00
    2   -4    9      1.45      0.00
    3   -4    9      0.63      0.00
    4   -4    9      0.67      0.00
    5   -4    9     -0.02      0.00
    6   -4    9     -0.06      0.00
    7   -4    9     -0.17      0.00
   -6   -3    9     -0.11      0.00
   -5   -3    9      0.52      0.00
   -4   -3    9     -0.58      0.00
   -3   -3    9     -0.18      0.00
   -2   -3    9      0.97      0.00
   -1   -3    9    -14.39      0.00
    0   -3    9      7.99      0.00
    1   -3    9     -1.80      0.00
    2   -3    9     -0.77      0.00
    3   -3    9      2.16      0.00
    4   -3    9      0.52      0.00
    5   -3    9      0.71      0.00
    6   -3    9      0.06      0.00
    7   -3    9      0.26      0.00
   -6   -2    9      0.08      0.00
   -5   -2    9      0.68      0.00
   -4   -2    9     -0.27      0.00
   -3   -2    9     -1.56      0.00
   -2   -2    9      4.52      0.00
   -1   -2    9     -8.31      0.00
    0   -2    9     18.92      0.00
    1   -2    9      1.92      0.00
    2   -2    9     -2.18      0.00
    3   -2    9     -0.90      0.00
    4   -2    9     -1.63      0.00
    5   -2    9     -1.07      0.00
    6   -2    9     -0.14      0.00
    7   -2    9      0.28      0.00
   -6   -1    9     -0.42      0.00
   -5   -1    9     -0.26      0.00
   -4   -1    9     -0.73      0.00
   -3   -1    9      0.21      0.00
   -2   -1    9     -1.43      0.00
   -1   -1    9     -4.21      0.00
    0   -1    9      7.81      0.00
    1   -1    9     10.99      0.00
    2   -1    9      3.70      0.00
    3   -1    9      5.45      0.00
    4   -1    9      2.69      0.00
    5   -1    9      1.44      0.00
    6   -1    9      0.51      0.00
    7   -1    9      0.16      0.00
   -6    0    9      0.43      0.00
   -5    0    9     -0.94      0.00
   -4    0    9     -1.37      0.00
   -3    0    9     -3.23      0.00
   -2    0    9     -0.79      0.00
   -1    0    9     -3.05      0.00
    0    0    9    -16.72      0.00
    1    0    9    -11.91      0.00
    2    0    9     -7.54      0.00
    3    0    9     -1.99      0.00
    4    0    9     -2.55      0.00
    5    0    9     -1.14      0.00
    6    0    9     -0.07      0.00
    7    0    9     -0.10      0.00
   -6    1    9      0.42      0.00
   -5    1    9      1.94      0.00
   -4    1    9      2.84      0.00
   -2    1    9      2.98      0.00
   -1    1    9      0.58      0.00
    0    1    9     13.95      0.00
    1    1    9      1.03      0.00
    2    1    9      1.77      0.00
    3    1    9     -1.34      0.00
    4    1    9      0.17      0.00
    5    1    9      0.22      0.00
    6    1    9     -0.55      0.00
    7    1    9     -0.41      0.00
   -6    2    9     -0.79      0.00
   -5    2    9     -1.81      0.00
   -4    2    9     -3.08      0.00
   -2    2    9     -1.16      0.00
   -1    2    9      2.67      0.00
    0    2    9     10.36      0.00
    1    2    9      9.72      0.00
    2    2    9      1.47      0.00
    3    2    9      1.97      0.00
    4    2    9      0.04      0.00
    5    2    9     -0.44      0.00
    6    2    9      0.60      0.00
    7    2    9     -0.15      0.00
   -6    3    9      0.34      0.00
   -5    3    9      0.79      0.00
   -4    3    9      1.97      0.00
   -3    3    9      1.71      0.00
   -2    3    9     -2.47      0.00
   -1    3    9      4.66      0.00
    0    3    9     -8.97      0.00
    1    3    9     -8.73      0.00
    2    3    9     -5.90      0.00
    3    3    9     -3.79      0.00
    4    3    9     -0.87      0.00
    5    3    9      0.27      0.00
    6    3    9     -0.41      0.00
    7    3    9      0.57      0.00
   -6    4    9     -0.18      0.00
   -5    4    9     -0.31      0.00
   -4    4    9     -0.31      0.00
   -3    4    9      1.41      0.00
   -2    4    9      1.97      0.00
   -1    4    9     14.96      0.00
    0    4    9    -11.12      0.00
    1    4    9      2.20      0.00
    2    4    9     -0.01      0.00
    3    4    9      0.28      0.00
    4    4    9     -0.10      0.00
    5    4    9     -0.36      0.00
    6    4    9     -0.02      0.00
    7    4    9     -0.37      0.00
   -6    5    9      0.07      0.00
   -5    5    9     -0.03      0.00
   -4    5    9      0.84      0.00
   -3    5    9     -1.72      0.00
   -2    5    9     -6.19      0.00
   -1    5    9     -4.04      0.00
    0    5    9     -7.91      0.00
    1    5    9     -1.42      0.00
    2    5    9     -1.35      0.00
    3    5    9     -0.06      0.00
    4    5    9      1.47      0.00
    5    5    9      0.89      0.00
    6    5    9      0.29      0.00
    7    5    9      0.45      0.00
   -6    6    9     -0.22      0.00
   -5    6    9     -0.08      0.00
   -4    6    9     -0.14      0.00
   -3    6    9      2.36      0.00
   -2    6    9      0.40      0.00
   -1    6    9      4.38      0.00
    0    6    9     -6.21      0.00
    1    6    9      0.32      0.00
    2    6    9      0.55      0.00
    3    6    9     -1.52      0.00
    4    6    9     -0.33      0.00
    5    6    9     -0.70      0.00
    6    6    9     -0.78      0.00
    7    6    9     -0.46      0.00
   -6    7    9     -0.21      0.00
   -5    7    9      0.35      0.00
   -4    7    9      1.13      0.00
   -3    7    9     -1.49      0.00
   -2    7    9     -4.68      0.00
   -1    7    9      1.03      0.00
    0    7    9     -4.00      0.00
    1    7    9     -1.51      0.00
    2    7    9      3.02      0.00
    3    7    9      4.05      0.00
    4    7    9      1.39      0.00
    5    7    9      1.51      0.00
    6    7    9      0.23      0.00
    7    7    9      1.00      0.00
   -6    8    9      0.21      0.00
   -5    8    9     -0.17      0.00
   -4    8    9     -1.48      0.00
   -3    8    9     -0.37      0.00
   -2    8    9     -5.39      0.00
   -1    8    9      2.72      0.00
    0    8    9      1.26      0.00
    1    8    9     -0.77      0.00
    2    8    9     -0.59      0.00
    3    8    9     -5.36      0.00
    4    8    9     -1.28      0.00
    5    8    9     -0.89      0.00
    6    8    9      0.23      0.00
    7    8    9      0.26      0.00
   -6    9    9      0.10      0.00
   -5    9    9      0.44      0.00
   -4    9    9      1.45      0.00
   -3    9    9      2.44      0.00
   -2    9    9     -1.05      0.00
   -1    9    9     12.38      0.00
    0    9    9     -2.06      0.00
    1    9    9      5.84      0.00
    2    9    9      4.97      0.00
    3    9    9      1.94      0.00
    4    9    9     -0.17      0.00
    5    9    9     -0.01      0.00
    6    9    9     -0.41      0.00
    7    9    9      0.04      0.00
   -6   10    9      0.04      0.00
   -5   10    9     -0.76      0.00
   -4   10    9     -1.39      0.00
   -3   10    9     -0.62      0.00
   -2   10    9     -3.48      0.00
   -1   10    9      9.06      0.00
    0   10    9     -9.19      0.00
    1   10    9     -4.34      0.00
    2   10    9      0.53      0.00
    3   10    9      0.00      0.00
    4   10    9      1.03      0.00
    5   10    9      0.95      0.00
    6   10    9      0.56      0.00
   -6   11    9     -0.40      0.00
   -5   11    9      0.16      0.00
   -4   11    9     -0.65      0.00
   -3   11    9      0.63      0.00
   -2   11    9     -2.89      0.00
   -1   11    9      6.89      0.00
    0   11    9     -7.47      0.00
    1   11    9      1.34      0.00
    2   11    9     -1.83      0.00
    3   11    9     -1.20      0.00
    4   11    9     -1.52      0.00
    5   11    9      0.04      0.00
    6   11    9      0.72      0.00
   -6   12    9     -0.10      0.00
   -5   12    9     -0.15      0.00
   -4   12    9      1.04      0.00
   -3   12    9      1.12      0.00
   -2   12    9      3.66      0.00
   -1   12    9     -0.30      0.00
    0   12    9      0.84      0.00
    1   12    9      0.91      0.00
    2   12    9      3.50      0.00
    3   12    9      1.06      0.00
    4   12    9      0.97      0.00
    5   12    9      0.67      0.00
    6   12    9     -0.79      0.00
   -5   13    9      0.39      0.00
   -4   13    9      0.39      0.00
   -3   13    9     -0.93      0.00
   -2   13    9     -1.93      0.00
   -1   13    9     -0.69      0.00
    0   13    9     -1.82      0.00
    1   13    9     -1.30      0.00
    2   13    9     -1.58      0.00
    3   13    9     -0.61      0.00
    4   13    9     -0.48      0.00
    5   13    9     -0.47      0.00
   -5   14    9     -0.11      0.00
   -4   14    9      0.23      0.00
   -3   14    9      0.49      0.00
   -2   14    9     -0.42      0.00
   -1   14    9      1.37      0.00
    0   14    9     -2.26      0.00
    1   14    9      1.11      0.00
    2   14    9      2.57      0.00
    3   14    9      0.09      0.00
    4   14    9     -0.34      0.00
    5   14    9      0.31      0.00
    6   14    9      0.40      0.00
   -4   15    9     -0.15      0.00
   -3   15    9      0.30      0.00
   -2   15    9     -1.65      0.00
   -1   15    9      0.08      0.00
    0   15    9     -0.46      0.00
    1   15    9      1.26      0.00
    2   15    9      0.16      0.00
    3   15    9     -0.41      0.00
    4   15    9      0.41      0.00
    5   15    9     -1.88      0.00
   -4   16    9      0.17      0.00
   -3   16    9     -0.17      0.00
   -2   16    9     -0.76      0.00
   -1   16    9      0.97      0.00
    0   16    9     -0.31      0.00
    1   16    9      0.68      0.00
    2   16    9      0.16      0.00
    3   16    9     -0.90      0.00
    4   16    9     -0.65      0.00
    5   16    9      0.10      0.00
   -3   17    9      0.36      0.00
   -2   17    9     -0.59      0.00
   -1   17    9      0.63      0.00
    0   17    9      1.17      0.00
    1   17    9      1.21      0.00
    2   17    9      0.26      0.00
    3   17    9      0.04      0.00
    4   17    9     -0.13      0.00
   -3   18    9      0.00      0.00
   -2   18    9      0.28      0.00
   -1   18    9     -0.05      0.00
    0   18    9      0.45      0.00
    1   18    9     -0.01      0.00
    2   18    9     -0.80      0.00
    3   18    9      0.29      0.00
    4   18    9      1.01      0.00
   -3   19    9     -0.01      0.00
   -2   19    9     -0.22      0.00
   -1   19    9     -1.65      0.00
    0   19    9      1.42      0.00
    1   19    9     -0.27      0.00
    2   19    9     -0.92      0.00
    3   19    9     -1.76      0.00
   -2   20    9      0.40      0.00
   -1   20    9      0.12      0.00
    0   20    9      1.02      0.00
    1   20    9     -0.94      0.00
    2   20    9      0.18      0.00
    1   21    9     -0.48      0.00
    2   21    9     -0.72      0.00
   -1  -18   10     -1.04      0.00
   -2  -17   10      0.46      0.00
   -1  -17   10     -0.71      0.00
    0  -17   10      0.73      0.00
    1  -17   10     -0.63      0.00
    2  -17   10     -0.08      0.00
   -3  -16   10      0.35      0.00
   -2  -16   10      0.17      0.00
   -1  -16   10     -0.96      0.00
    0  -16   10      1.59      0.00
    1  -16   10     -0.10      0.00
    2  -16   10      0.04      0.00
    3  -16   10     -0.72      0.00
   -3  -15   10     -0.01      0.00
   -2  -15   10      0.96      0.00
   -1  -15   10     -1.69      0.00
    0  -15   10      1.70      0.00
    1  -15   10     -1.41      0.00
    2  -15   10      0.13      0.00
    3  -15   10      0.05      0.00
    4  -15   10     -0.03      0.00
   -4  -14   10     -0.64      0.00
   -3  -14   10      0.13      0.00
   -2  -14   10      1.47      0.00
   -1  -14   10     -2.12      0.00
    0  -14   10      2.38      0.00
    1  -14   10     -0.05      0.00
    2  -14   10     -0.25      0.00
    3  -14   10      0.64      0.00
    4  -14   10     -0.18      0.00
   -4  -13   10     -0.09      0.00
   -3  -13   10     -0.26      0.00
   -2  -13   10      0.58      0.00
   -1  -13   10     -1.88      0.00
    0  -13   10      1.65      0.00
    1  -13   10     -2.10      0.00
    2  -13   10      0.18      0.00
    3  -13   10      0.56      0.00
    4  -13   10      0.18      0.00
    5  -13   10      0.03      0.00
   -5  -12   10      0.29      0.00
   -4  -12   10      0.30      0.00
   -3  -12   10      0.83      0.00
   -2  -12   10      1.64      0.00
   -1  -12   10     -2.03      0.00
    0  -12   10      0.38      0.00
    1  -12   10     -0.94      0.00
    2  -12   10     -0.60      0.00
    3  -12   10     -0.25      0.00
    4  -12   10     -0.58      0.00
    5  -12   10     -0.03      0.00
   -5  -11   10     -0.09      0.00
   -4  -11   10     -0.69      0.00
   -3  -11   10     -1.13      0.00
   -2  -11   10      2.03      0.00
   -1  -11   10     -3.94      0.00
    0  -11   10      2.60      0.00
    1  -11   10     -0.86      0.00
    2  -11   10     -0.48      0.00
    3  -11   10      0.43      0.00
    4  -11   10     -0.44      0.00
    5  -11   10      0.03      0.00
   -5  -10   10      0.39      0.00
   -4  -10   10     -0.34      0.00
   -3  -10   10      0.16      0.00
   -2  -10   10     -0.16      0.00
   -1  -10   10     -5.77      0.00
    0  -10   10      3.39      0.00
    1  -10   10     -0.90      0.00
    2  -10   10     -1.22      0.00
    3  -10   10     -0.37      0.00
    4  -10   10     -0.25      0.00
    5  -10   10      0.07      0.00
    6  -10   10      0.42      0.00
   -5   -9   10      0.14      0.00
   -4   -9   10     -0.86      0.00
   -3   -9   10      0.11      0.00
   -2   -9   10      0.73      0.00
   -1   -9   10     -1.59      0.00
    0   -9   10      5.39      0.00
    1   -9   10      0.77      0.00
    2   -9   10     -0.64      0.00
    3   -9   10      0.11      0.00
    4   -9   10     -0.17      0.00
    5   -9   10     -0.03      0.00
    6   -9   10     -0.21      0.00
   -6   -8   10      0.30      0.00
   -5   -8   10     -0.26      0.00
   -4   -8   10     -0.21      0.00
   -3   -8   10     -0.54      0.00
   -2   -8   10      1.38      0.00
   -1   -8   10     -1.93      0.00
    0   -8   10     -1.35      0.00
    1   -8   10      0.86      0.00
    2   -8   10      1.00      0.00
    3   -8   10      1.09      0.00
    4   -8   10      0.72      0.00
    5   -8   10      0.73      0.00
    6   -8   10      0.58      0.00
   -6   -7   10      0.19      0.00
   -5   -7   10      0.47      0.00
   -4   -7   10     -0.14      0.00
   -3   -7   10     -0.16      0.00
   -2   -7   10     -0.15      0.00
   -1   -7   10      0.40      0.00
    0   -7   10      2.15      0.00
    1   -7   10     -1.64      0.00
    2   -7   10     -2.15      0.00
    3   -7   10     -0.56      0.00
    4   -7   10     -0.99      0.00
    5   -7   10     -0.46      0.00
    6   -7   10     -0.22      0.00
   -6   -6   10     -0.47      0.00
   -5   -6   10     -0.19      0.00
   -4   -6   10      0.87      0.00
   -3   -6   10      1.17      0.00
   -2   -6   10      2.29      0.00
   -1   -6   10      1.79      0.00
    0   -6   10      4.83      0.00
    1   -6   10      4.87      0.00
    2   -6   10      2.55      0.00
    3   -6   10      0.36      0.00
    4   -6   10      0.64      0.00
    5   -6   10      0.24      0.00
    6   -6   10      0.21      0.00
   -6   -5   10     -0.45      0.00
   -5   -5   10     -0.21      0.00
   -4   -5   10     -1.07      0.00
   -3   -5   10     -0.69      0.00
   -2   -5   10     -3.15      0.00
   -1   -5   10     -0.46      0.00
    0   -5   10     -1.89      0.00
    1   -5   10      0.44      0.00
    2   -5   10      0.73      0.00
    3   -5   10      0.99      0.00
    4   -5   10      0.31      0.00
    5   -5   10      0.12      0.00
    6   -5   10      0.20      0.00
    7   -5   10     -0.02      0.00
   -6   -4   10      0.79      0.00
   -5   -4   10      0.67      0.00
   -4   -4   10      1.88      0.00
   -3   -4   10     -0.14      0.00
   -2   -4   10      1.44      0.00
   -1   -4   10     -1.58      0.00
    0   -4   10     -0.18      0.00
    1   -4   10     -0.32      0.00
    2   -4   10     -1.87      0.00
    3   -4   10     -1.54      0.00
    4   -4   10     -0.43      0.00
    5   -4   10     -0.45      0.00
    6   -4   10     -0.26      0.00
    7   -4   10     -0.37      0.00
   -6   -3   10     -0.47      0.00
   -5   -3   10     -0.17      0.00
   -4   -3   10     -1.52      0.00
   -3   -3   10      1.62      0.00
   -2   -3   10     -2.32      0.00
   -1   -3   10      2.52      0.00
    0   -3   10      3.05      0.00
    1   -3   10      2.43      0.00
    2   -3   10      0.34      0.00
    3   -3   10      1.42      0.00
    4   -3   10      1.12      0.00
    5   -3   10      0.85      0.00
    6   -3   10      0.11      0.00
    7   -3   10      0.41      0.00
   -6   -2   10      0.73      0.00
   -5   -2   10     -0.22      0.00
   -4   -2   10      0.99      0.00
   -3   -2   10     -0.99      0.00
   -2   -2   10     -7.14      0.00
   -1   -2   10      7.49      0.00
    0   -2   10    -12.55      0.00
    1   -2   10      0.88      0.00
    2   -2   10     -1.74      0.00
    3   -2   10     -0.33      0.00
    4   -2   10     -0.52      0.00
    5   -2   10     -0.59      0.00
    6   -2   10      0.21      0.00
    7   -2   10      0.05      0.00
   -6   -1   10     -0.38      0.00
   -5   -1   10     -0.56      0.00
   -4   -1   10      0.56      0.00
   -3   -1   10      1.42      0.00
   -2   -1   10     -0.18      0.00
   -1   -1   10     11.88      0.00
    0   -1   10     -8.42      0.00
    1   -1   10      3.17      0.00
    2   -1   10      1.59      0.00
    3   -1   10      0.30      0.00
    4   -1   10     -0.40      0.00
    5   -1   10      0.38      0.00
    6   -1   10     -0.19      0.00
    7   -1   10     -0.03      0.00
   -6    0   10      0.40      0.00
   -5    0   10     -0.78      0.00
   -4    0   10     -1.04      0.00
   -3    0   10     -1.46      0.00
   -2    0   10     -6.87      0.00
   -1    0   10      4.10      0.00
    0    0   10    -12.28      0.00
    1    0   10     -1.70      0.00
    2    0   10      0.64      0.00
    3    0   10      0.67      0.00
    4    0   10      0.23      0.00
    5    0   10     -0.12      0.00
    6    0   10      0.42      0.00
    7    0   10     -0.42      0.00
   -6    1   10      0.04      0.00
   -5    1   10      1.05      0.00
   -4    1   10      1.94      0.00
   -2    1   10      0.02      0.00
   -1    1   10      7.91      0.00
    0    1   10      4.22      0.00
    1    1   10     -4.99      0.00
    2    1   10     -3.36      0.00
    3    1   10     -7.11      0.00
    4    1   10     -1.54      0.00
    5    1   10     -0.65      0.00
    6    1   10     -0.54      0.00
    7    1   10     -0.53      0.00
   -6    2   10     -0.19      0.00
   -5    2   10     -1.07      0.00
   -4    2   10     -0.81      0.00
   -2    2   10     -5.27      0.00
   -1    2   10     17.04      0.00
    0    2   10     -3.15      0.00
    1    2   10     11.41      0.00
    2    2   10      6.79      0.00
    3    2   10      3.64      0.00
    4    2   10      1.82      0.00
    5    2   10      0.13      0.00
    6    2   10      0.60      0.00
    7    2   10      0.27      0.00
   -6    3   10     -0.40      0.00
   -5    3   10     -0.54      0.00
   -4    3   10      0.30      0.00
   -3    3   10     -0.37      0.00
   -2    3   10     -1.80      0.00
   -1    3   10      3.93      0.00
    0    3   10    -18.57      0.00
    1    3   10    -11.98      0.00
    2    3   10     -3.38      0.00
    3    3   10     -3.30      0.00
    4    3   10      0.08      0.00
    5    3   10      1.34      0.00
    6    3   10      0.21      0.00
    7    3   10      1.05      0.00
   -6    4   10      0.90      0.00
   -5    4   10      0.73      0.00
   -4    4   10      0.52      0.00
   -3    4   10      0.98      0.00
   -2    4   10     -3.15      0.00
   -1    4   10      6.17      0.00
    0    4   10     -8.90      0.00
    1    4   10      1.11      0.00
    2    4   10      0.77      0.00
    3    4   10     -0.61      0.00
    4    4   10     -0.32      0.00
    5    4   10     -1.12      0.00
    6    4   10     -0.33      0.00
    7    4   10     -0.40      0.00
   -6    5   10     -0.22      0.00
   -5    5   10     -0.71      0.00
   -4    5   10      0.71      0.00
   -3    5   10      1.57      0.00
   -2    5   10     -2.41      0.00
   -1    5   10     -0.25      0.00
    0    5   10     -2.35      0.00
    1    5   10      2.02      0.00
    2    5   10      4.16      0.00
    3    5   10      2.54      0.00
    4    5   10      1.40      0.00
    5    5   10      1.75      0.00
    6    5   10      0.26      0.00
    7    5   10      0.62      0.00
   -6    6   10     -0.39      0.00
   -5    6   10     -0.39      0.00
   -4    6   10     -0.79      0.00
   -3    6   10     -1.97      0.00
   -2    6   10     -3.06      0.00
   -1    6   10      1.00      0.00
    0    6   10     -4.03      0.00
    1    6   10     -2.41      0.00
    2    6   10      0.15      0.00
    3    6   10     -2.34      0.00
    4    6   10     -1.43      0.00
    5    6   10     -0.94      0.00
    6    6   10     -0.37      0.00
    7    6   10     -0.32      0.00
   -6    7   10      0.31      0.00
   -5    7   10      0.70      0.00
   -4    7   10      0.87      0.00
   -3    7   10      1.95      0.00
   -2    7   10     -0.32      0.00
   -1    7   10      3.54      0.00
    0    7   10      1.58      0.00
    1    7   10      3.24      0.00
    2    7   10      4.89      0.00
    3    7   10      2.76      0.00
    4    7   10      0.52      0.00
    5    7   10      0.02      0.00
    6    7   10     -0.06      0.00
    7    7   10      0.22      0.00
   -6    8   10     -0.11      0.00
   -5    8   10     -0.49      0.00
   -4    8   10     -1.07      0.00
   -3    8   10     -1.56      0.00
   -2    8   10     -3.85      0.00
   -1    8   10      0.83      0.00
    0    8   10      1.74      0.00
    1    8   10     -0.87      0.00
    2    8   10      0.23      0.00
    3    8   10     -3.04      0.00
    4    8   10      0.14      0.00
    5    8   10     -0.81      0.00
    6    8   10      1.11      0.00
    7    8   10     -0.28      0.00
   -6    9   10      0.24      0.00
   -5    9   10     -0.11      0.00
   -4    9   10      0.41      0.00
   -3    9   10      1.38      0.00
   -2    9   10      0.42      0.00
   -1    9   10      9.82      0.00
    0    9   10     -1.83      0.00
    1    9   10      3.12      0.00
    2    9   10      0.81      0.00
    3    9   10      0.35      0.00
    4    9   10     -0.89      0.00
    5    9   10     -0.18      0.00
    6    9   10     -0.72      0.00
    7    9   10     -0.81      0.00
   -5   10   10     -0.29      0.00
   -4   10   10     -0.27      0.00
   -3   10   10     -0.21      0.00
   -2   10   10      3.04      0.00
   -1   10   10     -0.80      0.00
    0   10   10     -1.49      0.00
    1   10   10     -1.30      0.00
    2   10   10      2.56      0.00
    3   10   10      2.56      0.00
    4   10   10      0.74      0.00
    5   10   10      1.16      0.00
    6   10   10      0.62      0.00
    7   10   10     -0.51      0.00
   -5   11   10     -0.38      0.00
   -4   11   10     -0.03      0.00
   -3   11   10     -0.38      0.00
   -2   11   10     -0.11      0.00
   -1   11   10     -6.83      0.00
    0   11   10      1.68      0.00
    1   11   10     -1.57      0.00
    2   11   10     -3.97      0.00
    3   11   10     -1.62      0.00
    4   11   10     -0.41      0.00
    5   11   10     -0.39      0.00
    6   11   10      0.21      0.00
   -5   12   10      0.45      0.00
   -4   12   10      0.96      0.00
   -3   12   10      0.21      0.00
   -2   12   10      4.44      0.00
   -1   12   10     -2.28      0.00
    0   12   10      3.28      0.00
    1   12   10      0.77      0.00
    2   12   10      1.55      0.00
    3   12   10      0.30      0.00
    4   12   10     -0.54      0.00
    5   12   10     -0.77      0.00
    6   12   10     -1.88      0.00
   -5   13   10     -0.13      0.00
   -4   13   10      0.34      0.00
   -3   13   10     -0.01      0.00
   -2   13   10     -0.91      0.00
   -1   13   10     -1.39      0.00
    0   13   10      0.96      0.00
    1   13   10     -0.73      0.00
    2   13   10     -0.66      0.00
    3   13   10      0.44      0.00
    4   13   10      0.30      0.00
    5   13   10     -0.66      0.00
    6   13   10      0.38      0.00
   -5   14   10     -0.29      0.00
   -4   14   10     -0.74      0.00
   -3   14   10     -0.66      0.00
   -2   14   10     -0.32      0.00
   -1   14   10     -3.50      0.00
    0   14   10     -0.94      0.00
    1   14   10      0.30      0.00
    2   14   10     -0.06      0.00
    3   14   10     -0.89      0.00
    4   14   10     -0.34      0.00
    5   14   10      1.03      0.00
   -4   15   10      0.47      0.00
   -3   15   10      0.04      0.00
   -2   15   10      0.97      0.00
   -1   15   10     -1.92      0.00
    0   15   10      5.08      0.00
    1   15   10      1.20      0.00
    2   15   10      0.11      0.00
    3   15   10      0.09      0.00
    4   15   10      0.50      0.00
    5   15   10     -1.51      0.00
   -4   16   10     -0.63      0.00
   -3   16   10     -0.20      0.00
   -2   16   10      0.24      0.00
   -1   16   10     -1.52      0.00
    0   16   10      0.91      0.00
    1   16   10     -0.59      0.00
    2   16   10     -1.46      0.00
    3   16   10     -0.01      0.00
    4   16   10     -0.20      0.00
   -3   17   10     -0.03      0.00
   -2   17   10      1.18      0.00
   -1   17   10     -1.67      0.00
    0   17   10      2.64      0.00
    1   17   10      0.10      0.00
    2   17   10     -0.80      0.00
    3   17   10     -0.05      0.00
    4   17   10      0.15      0.00
   -3   18   10     -0.38      0.00
   -2   18   10      1.57      0.00
   -1   18   10     -1.23      0.00
    0   18   10      1.94      0.00
    1   18   10     -0.52      0.00
    2   18   10     -0.46      0.00
    3   18   10      0.81      0.00
    4   18   10      0.44      0.00
   -3   19   10     -0.75      0.00
   -2   19   10     -0.27      0.00
   -1   19   10     -1.33      0.00
    0   19   10      0.35      0.00
    1   19   10     -1.34      0.00
    2   19   10     -1.27      0.00
    3   19   10     -0.89      0.00
   -2   20   10      0.92      0.00
   -1   20   10      0.13      0.00
    0   20   10      0.34      0.00
    1   20   10     -0.43      0.00
    2   20   10     -0.07      0.00
    3   20   10      1.72      0.00
    2   21   10      0.49      0.00
   -1  -17   11     -0.60      0.00
    0  -17   11      0.76      0.00
    1  -17   11     -0.52      0.00
    2  -17   11     -0.16      0.00
   -2  -16   11      0.68      0.00
   -1  -16   11     -0.10      0.00
    0  -16   11      0.65      0.00
    1  -16   11     -0.06      0.00
    2  -16   11     -0.14      0.00
    3  -16   11      0.06      0.00
   -3  -15   11     -0.65      0.00
   -2  -15   11     -0.11      0.00
   -1  -15   11     -0.51      0.00
    0  -15   11      0.21      0.00
    1  -15   11     -0.70      0.00
    2  -15   11     -0.40      0.00
    3  -15   11      0.40      0.00
    4  -15   11     -0.14      0.00
   -3  -14   11      0.48      0.00
   -2  -14   11     -0.25      0.00
   -1  -14   11      0.20      0.00
    0  -14   11     -0.39      0.00
    1  -14   11      0.83      0.00
    2  -14   11     -0.44      0.00
    3  -14   11     -0.08      0.00
    4  -14   11     -0.21      0.00
   -4  -13   11      0.38      0.00
   -3  -13   11     -0.10      0.00
   -2  -13   11      0.05      0.00
   -1  -13   11      0.80      0.00
    0  -13   11     -0.40      0.00
    1  -13   11     -0.48      0.00
    2  -13   11      0.27      0.00
    3  -13   11      0.49      0.00
    4  -13   11      0.36      0.00
   -4  -12   11     -0.18      0.00
   -3  -12   11      0.07      0.00
   -2  -12   11     -0.62      0.00
   -1  -12   11     -1.54      0.00
    0  -12   11     -0.73      0.00
    1  -12   11      0.55      0.00
    2  -12   11     -0.62      0.00
    3  -12   11     -0.37      0.00
    4  -12   11     -0.44      0.00
    5  -12   11      0.03      0.00
   -5  -11   11     -0.04      0.00
   -4  -11   11     -0.12      0.00
   -3  -11   11      0.44      0.00
   -2  -11   11     -0.95      0.00
   -1  -11   11      1.34      0.00
    0  -11   11      0.39      0.00
    1  -11   11      0.85      0.00
    2  -11   11     -0.06      0.00
    3  -11   11      0.40      0.00
    4  -11   11      0.29      0.00
    5  -11   11      0.02      0.00
   -5  -10   11     -0.02      0.00
   -4  -10   11     -0.37      0.00
   -3  -10   11     -0.03      0.00
   -2  -10   11     -2.76      0.00
   -1  -10   11      2.17      0.00
    0  -10   11     -0.43      0.00
    1  -10   11      1.83      0.00
    2  -10   11      0.35      0.00
    3  -10   11     -0.73      0.00
    4  -10   11      0.44      0.00
    5  -10   11      0.29      0.00
   -5   -9   11     -0.08      0.00
   -4   -9   11      0.22      0.00
   -3   -9   11      0.42      0.00
   -2   -9   11     -1.88      0.00
   -1   -9   11      4.78      0.00
    0   -9   11     -3.76      0.00
    1   -9   11      1.77      0.00
    2   -9   11      1.14      0.00
    3   -9   11      0.18      0.00
    4   -9   11     -0.31      0.00
    5   -9   11     -0.09      0.00
    6   -9   11     -0.23      0.00
   -5   -8   11     -0.81      0.00
   -4   -8   11      0.27      0.00
   -3   -8   11      0.14      0.00
   -2   -8   11     -0.19      0.00
   -1   -8   11      4.89      0.00
    0   -8   11     -2.80      0.00
    1   -8   11      2.46      0.00
    2   -8   11      1.60      0.00
    3   -8   11      1.05      0.00
    4   -8   11      0.74      0.00
    5   -8   11      0.37      0.00
    6   -8   11      0.56      0.00
   -5   -7   11      0.15      0.00
   -4   -7   11      0.13      0.00
   -3   -7   11      0.08      0.00
   -2   -7   11     -4.24      0.00
   -1   -7   11      3.55      0.00
    0   -7   11     -3.06      0.00
    1   -7   11     -1.02      0.00
    2   -7   11     -0.76      0.00
    3   -7   11     -0.99      0.00
    4   -7   11     -0.09      0.00
    5   -7   11     -0.22      0.00
    6   -7   11     -0.19      0.00
   -6   -6   11     -0.04      0.00
   -5   -6   11     -0.61      0.00
   -4   -6   11      1.46      0.00
   -3   -6   11      1.88      0.00
   -2   -6   11      1.48      0.00
   -1   -6   11      6.48      0.00
    0   -6   11     -0.88      0.00
    1   -6   11      2.25      0.00
    2   -6   11      0.23      0.00
    3   -6   11     -2.01      0.00
    4   -6   11     -0.90      0.00
    5   -6   11     -0.57      0.00
    6   -6   11     -0.29      0.00
   -6   -5   11      0.32      0.00
   -5   -5   11     -0.16      0.00
   -4   -5   11     -0.87      0.00
   -3   -5   11     -0.34      0.00
   -2   -5   11     -4.17      0.00
   -1   -5   11      1.43      0.00
    0   -5   11     -5.04      0.00
    1   -5   11      0.81      0.00
    2   -5   11      2.59      0.00
    3   -5   11      1.79      0.00
    4   -5   11      1.49      0.00
    5   -5   11      0.52      0.00
    6   -5   11      0.11      0.00
   -6   -4   11      0.63      0.00
   -5   -4   11      0.61      0.00
   -4   -4   11      0.96      0.00
   -3   -4   11      0.85      0.00
   -2   -4   11     -3.54      0.00
   -1   -4   11      4.71      0.00
    0   -4   11     -9.54      0.00
    1   -4   11     -3.79      0.00
    2   -4   11     -3.15      0.00
    3   -4   11     -2.34      0.00
    4   -4   11     -0.85      0.00
    5   -4   11     -0.31      0.00
    6   -4   11      0.05      0.00
    7   -4   11      0.15      0.00
   -6   -3   11      0.09      0.00
   -5   -3   11     -0.68      0.00
   -4   -3   11     -0.37      0.00
   -3   -3   11      1.71      0.00
   -2   -3   11     -3.36      0.00
   -1   -3   11     12.10      0.00
    0   -3   11     -5.32      0.00
    1   -3   11      1.15      0.00
    2   -3   11      0.65      0.00
    3   -3   11     -0.24      0.00
    4   -3   11      0.20      0.00
    5   -3   11      0.14      0.00
    6   -3   11     -0.42      0.00
    7   -3   11      0.12      0.00
   -6   -2   11      0.09      0.00
   -5   -2   11     -0.71      0.00
   -4   -2   11      1.22      0.00
   -3   -2   11     -0.15      0.00
   -2   -2   11     -4.54      0.00
   -1   -2   11      4.18      0.00
    0   -2   11    -14.42      0.00
    1   -2   11     -0.84      0.00
    2   -2   11      2.87      0.00
    3   -2   11      2.29      0.00
    4   -2   11      0.20      0.00
    5   -2   11      0.45      0.00
    6   -2   11      0.59      0.00
    7   -2   11     -0.05      0.00
   -6   -1   11     -0.22      0.00
   -5   -1   11     -0.06      0.00
   -4   -1   11     -0.44      0.00
   -3   -1   11     -0.80      0.00
   -2   -1   11      2.13      0.00
   -1   -1   11      2.73      0.00
    0   -1   11      4.64      0.00
    1   -1   11     -0.15      0.00
    2   -1   11     -1.11      0.00
    3   -1   11     -2.41      0.00
    4   -1   11     -1.79      0.00
    5   -1   11     -1.05      0.00
    6   -1   11     -0.60      0.00
    7   -1   11     -0.15      0.00
   -6    0   11      0.41      0.00
   -5    0   11     -0.08      0.00
   -4    0   11     -0.66      0.00
   -3    0   11      1.52      0.00
   -2    0   11     -3.57      0.00
   -1    0   11      1.27      0.00
    0    0   11      0.02      0.00
    1    0   11      4.20      0.00
    2    0   11      5.43      0.00
    3    0   11      1.50      0.00
    4    0   11      2.14      0.00
    5    0   11      0.88      0.00
    6    0   11      0.87      0.00
    7    0   11     -0.54      0.00
   -6    1   11     -0.02      0.00
   -5    1   11     -0.29      0.00
   -4    1   11      0.32      0.00
   -2    1   11      1.74      0.00
   -1    1   11      2.65      0.00
    0    1   11     -2.07      0.00
    1    1   11    -10.82      0.00
    2    1   11     -3.44      0.00
    3    1   11     -5.02      0.00
    4    1   11     -1.36      0.00
    5    1   11     -0.67      0.00
    6    1   11     -0.55      0.00
    7    1   11      0.09      0.00
   -6    2   11      0.17      0.00
   -5    2   11      0.67      0.00
   -3    2   11      2.36      0.00
   -2    2   11      1.70      0.00
   -1    2   11      1.98      0.00
    0    2   11      0.70      0.00
    1    2   11      3.55      0.00
    2    2   11      3.30      0.00
    3    2   11      2.54      0.00
    4    2   11      0.77      0.00
    5    2   11      0.40      0.00
    6    2   11     -0.10      0.00
    7    2   11      0.68      0.00
   -6    3   11     -0.40      0.00
   -5    3   11     -1.16      0.00
   -3    3   11     -2.44      0.00
   -2    3   11      1.30      0.00
   -1    3   11     -4.58      0.00
    0    3   11     -1.57      0.00
    1    3   11     -0.80      0.00
    2    3   11      1.42      0.00
    3    3   11      2.25      0.00
    4    3   11      0.79      0.00
    5    3   11      0.92      0.00
    6    3   11      0.38      0.00
    7    3   11      0.60      0.00
   -6    4   11      1.05      0.00
   -5    4   11      0.95      0.00
   -4    4   11      1.64      0.00
   -3    4   11      0.82      0.00
   -2    4   11     -1.53      0.00
   -1    4   11    -10.30      0.00
    0    4   11     -2.94      0.00
    1    4   11     -3.67      0.00
    2    4   11     -4.52      0.00
    3    4   11     -1.39      0.00
    4    4   11     -0.92      0.00
    5    4   11     -0.82      0.00
    6    4   11     -0.45      0.00
    7    4   11     -0.46      0.00
   -6    5   11     -0.56      0.00
   -5    5   11     -0.40      0.00
   -4    5   11     -0.43      0.00
   -3    5   11      0.27      0.00
   -2    5   11      5.35      0.00
   -1    5   11      2.57      0.00
    0    5   11      9.23      0.00
    1    5   11      6.28      0.00
    2    5   11      5.31      0.00
    3    5   11      2.61      0.00
    4    5   11     -0.35      0.00
    5    5   11      0.53      0.00
    6    5   11      0.21      0.00
    7    5   11     -0.21      0.00
   -6    6   11     -0.13      0.00
   -5    6   11     -0.25      0.00
   -4    6   11     -0.37      0.00
   -3    6   11     -2.99      0.00
   -2    6   11     -1.17      0.00
   -1    6   11     -9.40      0.00
    0    6   11      2.80      0.00
    1    6   11     -1.31      0.00
    2    6   11     -1.43      0.00
    3    6   11     -0.57      0.00
    4    6   11      0.67      0.00
    5    6   11     -1.01      0.00
    6    6   11      0.47      0.00
    7    6   11     -0.90      0.00
   -6    7   11     -0.10      0.00
   -5    7   11      0.99      0.00
   -4    7   11      0.02      0.00
   -3    7   11      1.03      0.00
   -2    7   11      3.75      0.00
   -1    7   11     -0.40      0.00
    0    7   11      5.10      0.00
    1    7   11      2.16      0.00
    2    7   11      0.50      0.00
    3    7   11      0.03      0.00
    4    7   11     -0.66      0.00
    5    7   11     -1.14      0.00
    6    7   11     -0.29      0.00
    7    7   11     -0.41      0.00
   -5    8   11     -0.45      0.00
   -4    8   11      0.17      0.00
   -3    8   11     -1.86      0.00
   -2    8   11      1.07      0.00
   -1    8   11     -2.88      0.00
    0    8   11      6.61      0.00
    1    8   11      0.43      0.00
    2    8   11     -0.26      0.00
    3    8   11      1.24      0.00
    4    8   11      1.03      0.00
    5    8   11      0.40      0.00
    6    8   11      0.70      0.00
    7    8   11      0.28      0.00
   -5    9   11     -0.21      0.00
   -4    9   11     -0.63      0.00
   -3    9   11     -0.51      0.00
   -2    9   11      3.05      0.00
   -1    9   11     -2.52      0.00
    0    9   11      1.35      0.00
    1    9   11     -0.54      0.00
    2    9   11     -3.12      0.00
    3    9   11     -1.22      0.00
    4    9   11     -1.07      0.00
    5    9   11      0.43      0.00
    6    9   11     -0.70      0.00
    7    9   11     -0.30      0.00
   -5   10   11     -0.04      0.00
   -4   10   11      0.90      0.00
   -3   10   11      0.73      0.00
   -2   10   11      5.74      0.00
   -1   10   11     -7.11      0.00
    0   10   11      2.92      0.00
    1   10   11      0.80      0.00
    2   10   11      0.70      0.00
    3   10   11      2.63      0.00
    4   10   11      0.01      0.00
    5   10   11      0.11      0.00
    6   10   11     -0.21      0.00
   -5   11   11      0.07      0.00
   -4   11   11     -0.15      0.00
   -3   11   11     -1.17      0.00
   -2   11   11      0.20      0.00
   -1   11   11     -5.85      0.00
    0   11   11      2.65      0.00
    1   11   11     -2.01      0.00
    2   11   11     -3.02      0.00
    3   11   11     -1.51      0.00
    4   11   11      0.83      0.00
    5   11   11     -0.04      0.00
    6   11   11      0.22      0.00
   -5   12   11      0.06      0.00
   -4   12   11      0.06      0.00
   -3   12   11     -0.47      0.00
   -2   12   11      0.30      0.00
   -1   12   11     -0.19      0.00
    0   12   11     -1.26      0.00
    1   12   11      0.38      0.00
    2   12   11     -0.69      0.00
    3   12   11     -0.93      0.00
    4   12   11     -1.67      0.00
    5   12   11     -1.08      0.00
    6   12   11     -1.43      0.00
   -5   13   11     -0.51      0.00
   -4   13   11      0.21      0.00
   -3   13   11      0.93      0.00
   -2   13   11      1.76      0.00
   -1   13   11     -1.45      0.00
    0   13   11      2.84      0.00
    1   13   11      0.92      0.00
    2   13   11      1.01      0.00
    3   13   11      0.92      0.00
    4   13   11      1.63      0.00
    5   13   11      0.53      0.00
    6   13   11      0.76      0.00
   -5   14   11     -0.02      0.00
   -4   14   11     -0.27      0.00
   -3   14   11     -1.64      0.00
   -2   14   11     -0.78      0.00
   -1   14   11     -4.28      0.00
    0   14   11     -0.18      0.00
    1   14   11     -1.11      0.00
    2   14   11     -1.25      0.00
    3   14   11     -0.40      0.00
    4   14   11     -0.36      0.00
    5   14   11      1.03      0.00
    6   14   11      0.31      0.00
   -4   15   11      0.13      0.00
   -3   15   11      0.53      0.00
   -2   15   11      0.74      0.00
   -1   15   11     -0.18      0.00
    0   15   11      3.78      0.00
    1   15   11      1.03      0.00
    2   15   11     -0.09      0.00
    3   15   11      0.17      0.00
    4   15   11      0.27      0.00
    5   15   11     -0.81      0.00
   -4   16   11     -0.76      0.00
   -3   16   11      0.19      0.00
   -2   16   11      0.64      0.00
   -1   16   11      0.19      0.00
    0   16   11     -0.26      0.00
    1   16   11     -0.74      0.00
    2   16   11     -0.53      0.00
    3   16   11      0.69      0.00
    4   16   11      0.28      0.00
    5   16   11      1.14      0.00
   -3   17   11     -0.50      0.00
   -2   17   11      0.64      0.00
   -1   17   11      0.06      0.00
    0   17   11      0.39      0.00
    1   17   11     -0.74      0.00
    2   17   11     -0.51      0.00
    3   17   11      0.05      0.00
    4   17   11     -0.61      0.00
   -3   18   11     -0.12      0.00
   -2   18   11      0.54      0.00
   -1   18   11      0.90      0.00
    0   18   11     -0.37      0.00
    1   18   11     -0.60      0.00
    2   18   11      0.12      0.00
    3   18   11      0.59      0.00
    4   18   11     -0.12      0.00
   -3   19   11     -0.26      0.00
   -2   19   11     -0.93      0.00
   -1   19   11      0.89      0.00
    0   19   11     -1.74      0.00
    1   19   11     -0.83      0.00
    2   19   11     -0.29      0.00
    3   19   11     -0.10      0.00
   -1   20   11      0.11      0.00
    0   20   11     -0.66      0.00
    1   20   11      0.35      0.00
    2   20   11      0.74      0.00
    3   20   11      0.22      0.00
   -1  -17   12      0.19      0.00
    0  -17   12     -0.76      0.00
    1  -17   12      0.27      0.00
    2  -17   12     -0.12      0.00
   -1  -16   12      1.11      0.00
    0  -16   12     -1.13      0.00
    1  -16   12     -0.03      0.00
    2  -16   12     -0.40      0.00
   -2  -15   12     -1.31      0.00
   -1  -15   12      1.43      0.00
    0  -15   12     -1.28      0.00
    1  -15   12      0.50      0.00
    2  -15   12     -0.13      0.00
    3  -15   12     -0.29      0.00
   -3  -14   12      0.33      0.00
   -2  -14   12     -0.74      0.00
   -1  -14   12      0.85      0.00
    0  -14   12     -1.60      0.00
    1  -14   12      1.01      0.00
    2  -14   12      0.10      0.00
    3  -14   12     -0.45      0.00
    4  -14   12      0.17      0.00
   -3  -13   12      0.35      0.00
   -2  -13   12     -0.19      0.00
   -1  -13   12      1.88      0.00
    0  -13   12     -0.80      0.00
    1  -13   12      0.33      0.00
    2  -13   12      0.76      0.00
    3  -13   12      0.64      0.00
    4  -13   12      0.27      0.00
   -4  -12   12     -0.26      0.00
   -3  -12   12     -0.17      0.00
   -2  -12   12     -2.60      0.00
   -1  -12   12      0.84      0.00
    0  -12   12     -1.50      0.00
    1  -12   12      0.94      0.00
    2  -12   12      0.20      0.00
    3  -12   12     -0.20      0.00
    4  -12   12      0.33      0.00
   -4  -11   12      0.61      0.00
   -3  -11   12      0.91      0.00
   -2  -11   12     -1.79      0.00
   -1  -11   12      4.67      0.00
    0  -11   12     -2.63      0.00
    1  -11   12      0.33      0.00
    2  -11   12      0.51      0.00
    3  -11   12     -0.34      0.00
    4  -11   12      0.03      0.00
    5  -11   12     -0.45      0.00
   -4  -10   12      0.01      0.00
   -3  -10   12     -0.81      0.00
   -2  -10   12     -0.71      0.00
   -1  -10   12      3.32      0.00
    0  -10   12     -1.26      0.00
    1  -10   12      1.48      0.00
    2  -10   12      1.03      0.00
    3  -10   12     -0.43      0.00
    4  -10   12      0.13      0.00
    5  -10   12      0.04      0.00
   -5   -9   12     -0.78      0.00
   -4   -9   12      0.38      0.00
   -3   -9   12      0.30      0.00
   -2   -9   12     -1.13      0.00
   -1   -9   12      1.88      0.00
    0   -9   12     -3.63      0.00
    1   -9   12     -0.56      0.00
    2   -9   12      0.68      0.00
    3   -9   12      0.71      0.00
    4   -9   12     -0.06      0.00
    5   -9   12     -0.21      0.00
   -5   -8   12     -0.14      0.00
   -4   -8   12      0.43      0.00
   -3   -8   12      0.42      0.00
   -2   -8   12      0.90      0.00
   -1   -8   12      2.07      0.00
    0   -8   12      0.38      0.00
    1   -8   12      0.21      0.00
    2   -8   12     -0.63      0.00
    3   -8   12     -0.41      0.00
    4   -8   12      0.28      0.00
    5   -8   12     -0.22      0.00
    6   -8   12     -0.01      0.00
   -5   -7   12     -0.20      0.00
   -4   -7   12      0.10      0.00
   -3   -7   12     -0.16      0.00
   -2   -7   12     -0.96      0.00
   -1   -7   12      0.17      0.00
    0   -7   12     -1.37      0.00
    1   -7   12     -2.22      0.00
    2   -7   12     -0.41      0.00
    3   -7   12     -1.13      0.00
    4   -7   12      0.17      0.00
    5   -7   12      0.18      0.00
    6   -7   12     -0.13      0.00
   -5   -6   12      0.10      0.00
   -4   -6   12      0.42      0.00
   -3   -6   12      1.05      0.00
   -2   -6   12      1.52      0.00
   -1   -6   12      0.06      0.00
    0   -6   12     -0.77      0.00
    1   -6   12     -0.82      0.00
    2   -6   12     -1.07      0.00
    3   -6   12     -1.26      0.00
    4   -6   12     -0.84      0.00
    5   -6   12     -0.44      0.00
    6   -6   12     -0.39      0.00
   -5   -5   12      0.39      0.00
   -4   -5   12     -0.20      0.00
   -3   -5   12      0.32      0.00
   -2   -5   12     -0.84      0.00
   -1   -5   12     -0.10      0.00
    0   -5   12     -1.36      0.00
    1   -5   12     -0.81      0.00
    2   -5   12      1.25      0.00
    3   -5   12      1.57      0.00
    4   -5   12      1.22      0.00
    5   -5   12      0.40      0.00
    6   -5   12      0.18      0.00
   -5   -4   12     -0.10      0.00
   -4   -4   12     -0.63      0.00
   -3   -4   12     -1.05      0.00
   -2   -4   12     -2.60      0.00
   -1   -4   12      0.56      0.00
    0   -4   12     -4.56      0.00
    1   -4   12     -2.02      0.00
    2   -4   12     -0.90      0.00
    3   -4   12     -0.35      0.00
    4   -4   12     -0.37      0.00
    5   -4   12      0.31      0.00
    6   -4   12      0.16      0.00
    7   -4   12      1.04      0.00
   -5   -3   12     -0.17      0.00
   -4   -3   12      0.98      0.00
   -3   -3   12     -0.32      0.00
   -2   -3   12      3.65      0.00
   -1   -3   12     -2.07      0.00
    0   -3   12      1.61      0.00
    1   -3   12     -1.58      0.00
    2   -3   12     -0.73      0.00
    3   -3   12     -0.58      0.00
    4   -3   12     -1.15      0.00
    5   -3   12     -0.51      0.00
    6   -3   12     -0.65      0.00
    7   -3   12     -0.53      0.00
   -6   -2   12     -1.11      0.00
   -5   -2   12     -0.39      0.00
   -4   -2   12     -0.53      0.00
   -3   -2   12     -0.48      0.00
   -2   -2   12      3.64      0.00
   -1   -2   12     -7.57      0.00
    0   -2   12      7.75      0.00
    1   -2   12      3.42      0.00
    2   -2   12      3.86      0.00
    3   -2   12      3.35      0.00
    4   -2   12      1.07      0.00
    5   -2   12      0.62      0.00
    6   -2   12      0.68      0.00
    7   -2   12      0.20      0.00
   -6   -1   12      0.74      0.00
   -5   -1   12      0.63      0.00
   -4   -1   12     -1.13      0.00
   -3   -1   12     -3.44      0.00
   -2   -1   12      1.39      0.00
   -1   -1   12     -7.71      0.00
    0   -1   12      7.77      0.00
    1   -1   12      0.28      0.00
    2   -1   12     -2.25      0.00
    3   -1   12     -2.05      0.00
    4   -1   12     -0.49      0.00
    5   -1   12     -0.89      0.00
    6   -1   12     -0.30      0.00
   -6    0   12      0.27      0.00
   -5    0   12      0.26      0.00
   -4    0   12      0.47      0.00
   -3    0   12      1.58      0.00
   -2    0   12      5.03      0.00
   -1    0   12     -1.78      0.00
    0    0   12      4.03      0.00
    1    0   12     -0.69      0.00
    2    0   12      2.87      0.00
    3    0   12      0.00      0.00
    4    0   12      0.56      0.00
    5    0   12      0.61      0.00
    6    0   12      0.27      0.00
   -6    1   12     -0.42      0.00
   -5    1   12     -0.21      0.00
   -4    1   12     -0.48      0.00
   -3    1   12     -3.47      0.00
   -2    1   12      2.64      0.00
   -1    1   12     -7.71      0.00
    0    1   12      1.75      0.00
    1    1   12     -5.51      0.00
    2    1   12     -2.45      0.00
    3    1   12      0.31      0.00
    4    1   12      0.01      0.00
    5    1   12      0.03      0.00
    6    1   12     -0.66      0.00
   -6    2   12     -0.12      0.00
   -5    2   12      1.09      0.00
   -3    2   12      3.25      0.00
   -2    2   12      6.61      0.00
   -1    2   12     -7.61      0.00
    0    2   12      6.75      0.00
    1    2   12      1.46      0.00
    2    2   12     -4.11      0.00
    3    2   12     -0.49      0.00
    4    2   12     -1.44      0.00
    5    2   12     -0.66      0.00
    6    2   12     -0.58      0.00
    7    2   12      0.39      0.00
   -6    3   12     -0.04      0.00
   -5    3   12     -0.79      0.00
   -3    3   12     -2.70      0.00
   -2    3   12     -0.98      0.00
   -1    3   12     -1.83      0.00
    0    3   12      5.25      0.00
    1    3   12     10.39      0.00
    2    3   12      3.97      0.00
    3    3   12      5.06      0.00
    4    3   12      1.29      0.00
    5    3   12      0.28      0.00
    6    3   12      0.53      0.00
    7    3   12     -0.36      0.00
   -6    4   12     -0.23      0.00
   -5    4   12      0.36      0.00
   -4    4   12      1.40      0.00
   -3    4   12     -0.65      0.00
   -2    4   12      2.50      0.00
   -1    4   12    -11.77      0.00
    0    4   12     -3.26      0.00
    1    4   12     -7.70      0.00
    2    4   12     -6.18      0.00
    3    4   12     -2.40      0.00
    4    4   12     -0.42      0.00
    5    4   12      0.20      0.00
    6    4   12      0.08      0.00
    7    4   12     -0.29      0.00
   -6    5   12      0.21      0.00
   -5    5   12      0.70      0.00
   -4    5   12     -0.57      0.00
   -3    5   12     -0.69      0.00
   -2    5   12      2.84      0.00
   -1    5   12      3.46      0.00
    0    5   12      8.67      0.00
    1    5   12      4.96      0.00
    2    5   12      2.26      0.00
    3    5   12      0.24      0.00
    4    5   12     -1.10      0.00
    5    5   12     -1.32      0.00
    6    5   12     -0.12      0.00
   -6    6   12     -0.49      0.00
   -5    6   12     -0.30      0.00
   -4    6   12      0.43      0.00
   -3    6   12     -0.79      0.00
   -2    6   12      1.70      0.00
   -1    6   12     -7.13      0.00
    0    6   12      4.21      0.00
    1    6   12      2.48      0.00
    2    6   12     -0.35      0.00
    3    6   12      1.25      0.00
    4    6   12      2.07      0.00
    5    6   12      0.48      0.00
    6    6   12      0.61      0.00
   -5    7   12      0.46      0.00
   -4    7   12     -0.74      0.00
   -3    7   12     -1.42      0.00
   -2    7   12      0.06      0.00
   -1    7   12     -1.06      0.00
    0    7   12      0.48      0.00
    1    7   12     -3.82      0.00
    2    7   12     -3.24      0.00
    3    7   12     -1.10      0.00
    4    7   12     -1.68      0.00
    5    7   12     -0.40      0.00
    6    7   12     -0.92      0.00
   -5    8   12     -0.12      0.00
   -4    8   12      0.54      0.00
   -3    8   12      0.75      0.00
   -2    8   12      2.83      0.00
   -1    8   12     -0.09      0.00
    0    8   12      5.15      0.00
    1    8   12      2.97      0.00
    2    8   12      0.32      0.00
    3    8   12      1.55      0.00
    4    8   12      0.67      0.00
    5    8   12      1.04      0.00
    6    8   12     -0.12      0.00
   -5    9   12     -0.32      0.00
   -4    9   12     -0.57      0.00
   -3    9   12     -0.45      0.00
   -2    9   12      0.09      0.00
   -1    9   12     -2.03      0.00
    0    9   12     -2.44      0.00
    1    9   12     -2.13      0.00
    2    9   12     -2.36      0.00
    3    9   12     -1.69      0.00
    4    9   12     -0.27      0.00
    5    9   12      0.35      0.00
    6    9   12      0.25      0.00
   -5   10   12      0.24      0.00
   -4   10   12      0.37      0.00
   -3   10   12      1.43      0.00
   -2   10   12      0.59      0.00
   -1   10   12     -0.12      0.00
    0   10   12     -3.61      0.00
    1   10   12      0.74      0.00
    2   10   12     -1.01      0.00
    3   10   12      0.40      0.00
    4   10   12     -0.66      0.00
    5   10   12     -0.42      0.00
    6   10   12     -0.48      0.00
   -5   11   12      0.30      0.00
   -4   11   12      0.23      0.00
   -3   11   12     -0.80      0.00
   -2   11   12     -1.99      0.00
   -1   11   12      3.19      0.00
    0   11   12     -0.31      0.00
    1   11   12     -0.62      0.00
    2   11   12      1.54      0.00
    3   11   12     -0.51      0.00
    4   11   12      1.37      0.00
    5   11   12      0.97      0.00
    6   11   12      0.94      0.00
   -5   12   12     -0.63      0.00
   -4   12   12     -0.77      0.00
   -3   12   12     -0.14      0.00
   -2   12   12     -2.93      0.00
   -1   12   12     -0.81      0.00
    0   12   12     -4.19      0.00
    1   12   12     -0.67      0.00
    2   12   12     -1.90      0.00
    3   12   12     -1.59      0.00
    4   12   12     -1.04      0.00
    5   12   12     -0.55      0.00
    6   12   12     -0.92      0.00
   -5   13   12      0.20      0.00
   -4   13   12      0.62      0.00
   -3   13   12      0.92      0.00
   -2   13   12      2.59      0.00
   -1   13   12      1.87      0.00
    0   13   12      2.88      0.00
    1   13   12      1.29      0.00
    2   13   12      2.41      0.00
    3   13   12      1.38      0.00
    4   13   12      0.83      0.00
    5   13   12      0.39      0.00
    6   13   12      0.66      0.00
   -4   14   12      0.24      0.00
   -3   14   12     -0.23      0.00
   -2   14   12     -2.45      0.00
   -1   14   12     -0.29      0.00
    0   14   12     -1.29      0.00
    1   14   12     -1.10      0.00
    2   14   12     -0.35      0.00
    3   14   12      0.45      0.00
    4   14   12     -0.46      0.00
    5   14   12     -0.04      0.00
   -4   15   12     -0.73      0.00
   -3   15   12      0.23      0.00
   -2   15   12     -1.47      0.00
   -1   15   12      3.09      0.00
    0   15   12     -0.95      0.00
    1   15   12      0.72      0.00
    2   15   12      0.20      0.00
    3   15   12     -0.27      0.00
    4   15   12      0.18      0.00
    5   15   12     -0.08      0.00
   -3   16   12      0.56      0.00
   -2   16   12      0.41      0.00
   -1   16   12      2.71      0.00
    0   16   12     -1.04      0.00
    1   16   12     -0.49      0.00
    2   16   12      0.99      0.00
    3   16   12      0.61      0.00
    4   16   12      0.21      0.00
    5   16   12      0.14      0.00
   -3   17   12     -0.57      0.00
   -2   17   12     -1.29      0.00
   -1   17   12      2.18      0.00
    0   17   12     -2.14      0.00
    1   17   12     -0.51      0.00
    2   17   12     -0.10      0.00
    3   17   12      0.25      0.00
    4   17   12     -0.37      0.00
    5   17   12      0.05      0.00
   -3   18   12      0.71      0.00
   -2   18   12     -0.23      0.00
   -1   18   12      1.26      0.00
    0   18   12     -1.96      0.00
    1   18   12     -0.46      0.00
    2   18   12      0.48      0.00
    3   18   12     -0.42      0.00
    4   18   12      0.48      0.00
   -3   19   12      0.16      0.00
   -2   19   12     -0.71      0.00
   -1   19   12      0.88      0.00
    0   19   12     -0.82      0.00
    1   19   12      0.28      0.00
    2   19   12      0.62      0.00
    3   19   12      0.12      0.00
   -1   20   12     -0.71      0.00
    0   20   12     -0.25      0.00
    1   20   12      0.66      0.00
    2   20   12      0.50      0.00
   -1  -16   13      0.42      0.00
    0  -16   13     -0.43      0.00
    1  -16   13     -0.28      0.00
    2  -16   13     -0.44      0.00
   -2  -15   13     -0.24      0.00
   -1  -15   13      0.51      0.00
    0  -15   13     -0.28      0.00
    1  -15   13      0.49      0.00
    2  -15   13      0.55      0.00
   -2  -14   13      0.16      0.00
   -1  -14   13     -0.94      0.00
    0  -14   13      0.32      0.00
    1  -14   13      0.12      0.00
    2  -14   13      0.34      0.00
    3  -14   13     -0.32      0.00
   -3  -13   13      0.64      0.00
   -2  -13   13      0.15      0.00
   -1  -13   13      0.67      0.00
    0  -13   13     -0.21      0.00
    1  -13   13     -0.31      0.00
    2  -13   13      0.87      0.00
    3  -13   13      0.60      0.00
   -3  -12   13     -0.77      0.00
   -2  -12   13     -0.53      0.00
   -1  -12   13      0.27      0.00
    0  -12   13      0.05      0.00
    1  -12   13     -0.15      0.00
    2  -12   13     -0.20      0.00
    3  -12   13     -0.54      0.00
    4  -12   13      0.07      0.00
   -4  -11   13      0.19      0.00
   -3  -11   13     -0.48      0.00
   -2  -11   13      1.19      0.00
   -1  -11   13     -0.23      0.00
    0  -11   13     -0.58      0.00
    1  -11   13     -1.12      0.00
    2  -11   13      0.04      0.00
    3  -11   13     -0.13      0.00
    4  -11   13     -0.72      0.00
   -4  -10   13      0.11      0.00
   -3  -10   13     -0.67      0.00
   -2  -10   13      2.78      0.00
   -1  -10   13     -2.16      0.00
    0  -10   13      2.45      0.00
    1  -10   13     -0.19      0.00
    2  -10   13     -0.62      0.00
    3  -10   13      0.09      0.00
    4  -10   13     -0.03      0.00
   -4   -9   13     -0.26      0.00
   -3   -9   13     -0.07      0.00
   -2   -9   13      0.94      0.00
   -1   -9   13     -3.08      0.00
    0   -9   13      1.25      0.00
    1   -9   13     -1.08      0.00
    2   -9   13     -0.37      0.00
    3   -9   13      0.39      0.00
    4   -9   13      0.22      0.00
    5   -9   13      0.13      0.00
   -5   -8   13      0.89      0.00
   -4   -8   13      0.33      0.00
   -3   -8   13     -0.20      0.00
   -2   -8   13      2.22      0.00
   -1   -8   13     -3.05      0.00
    0   -8   13      1.94      0.00
    1   -8   13     -0.94      0.00
    2   -8   13     -1.51      0.00
    3   -8   13     -0.88      0.00
    4   -8   13     -0.18      0.00
    5   -8   13      0.03      0.00
   -5   -7   13     -0.01      0.00
   -4   -7   13     -0.34      0.00
   -3   -7   13     -0.29      0.00
   -2   -7   13      2.63      0.00
   -1   -7   13     -2.89      0.00
    0   -7   13      2.66      0.00
    1   -7   13     -0.63      0.00
    2   -7   13      0.20      0.00
    3   -7   13      0.27      0.00
    4   -7   13      0.20      0.00
    5   -7   13      0.46      0.00
    6   -7   13      0.12      0.00
   -5   -6   13      0.64      0.00
   -4   -6   13     -0.31      0.00
   -3   -6   13     -0.42      0.00
   -2   -6   13     -0.24      0.00
   -1   -6   13     -4.84      0.00
    0   -6   13      1.17      0.00
    1   -6   13     -0.93      0.00
    2   -6   13     -0.73      0.00
    3   -6   13      0.23      0.00
    4   -6   13     -0.05      0.00
    5   -6   13      0.07      0.00
    6   -6   13     -0.22      0.00
   -5   -5   13      0.18      0.00
   -4   -5   13      0.37      0.00
   -3   -5   13     -0.26      0.00
   -2   -5   13      2.85      0.00
   -1   -5   13     -1.50      0.00
    0   -5   13      2.90      0.00
    1   -5   13     -0.24      0.00
    2   -5   13     -0.53      0.00
    3   -5   13      0.88      0.00
    4   -5   13      0.00      0.00
    5   -5   13     -0.33      0.00
    6   -5   13      0.00      0.00
   -5   -4   13     -0.32      0.00
   -4   -4   13     -1.09      0.00
   -3   -4   13     -2.59      0.00
   -2   -4   13      0.97      0.00
   -1   -4   13     -6.46      0.00
    0   -4   13      3.25      0.00
    1   -4   13      2.38      0.00
    2   -4   13      1.81      0.00
    3   -4   13      1.32      0.00
    4   -4   13      0.50      0.00
    5   -4   13      0.82      0.00
    6   -4   13     -0.08      0.00
   -5   -3   13      0.41      0.00
   -4   -3   13      0.71      0.00
   -3   -3   13     -0.90      0.00
   -2   -3   13      4.51      0.00
   -1   -3   13     -8.34      0.00
    0   -3   13      4.47      0.00
    1   -3   13     -2.03      0.00
    2   -3   13     -3.25      0.00
    3   -3   13     -0.78      0.00
    4   -3   13     -1.21      0.00
    5   -3   13     -0.81      0.00
    6   -3   13     -0.02      0.00
   -5   -2   13      0.03      0.00
   -4   -2   13     -0.64      0.00
   -3   -2   13      0.21      0.00
   -2   -2   13      3.10      0.00
   -1   -2   13     -2.54      0.00
    0   -2   13     10.70      0.00
    1   -2   13      6.23      0.00
    2   -2   13      2.26      0.00
    3   -2   13      0.65      0.00
    4   -2   13      1.22      0.00
    5   -2   13      0.14      0.00
    6   -2   13     -0.01      0.00
   -5   -1   13      0.40      0.00
   -4   -1   13     -0.51      0.00
   -3   -1   13     -2.50      0.00
   -2   -1   13     -1.09      0.00
   -1   -1   13     -3.08      0.00
    0   -1   13     -3.80      0.00
    1   -1   13     -1.35      0.00
    2   -1   13     -0.58      0.00
    3   -1   13      0.47      0.00
    4   -1   13      0.52      0.00
    5   -1   13      0.27      0.00
    6   -1   13      0.30      0.00
   -5    0   13      0.25      0.00
   -4    0   13      0.81      0.00
   -3    0   13      1.56      0.00
   -2    0   13      4.98      0.00
   -1    0   13     -0.34      0.00
    0    0   13      4.86      0.00
    1    0   13     -3.09      0.00
    2    0   13     -2.50      0.00
    3    0   13     -2.23      0.00
    4    0   13     -1.27      0.00
    5    0   13     -0.40      0.00
    6    0   13     -0.74      0.00
   -6    1   13     -1.00      0.00
   -5    1   13      0.11      0.00
   -4    1   13     -0.46      0.00
   -3    1   13      0.37      0.00
   -2    1   13     -1.39      0.00
   -1    1   13     -1.74      0.00
    0    1   13     -0.15      0.00
    1    1   13      5.46      0.00
    2    1   13     -0.34      0.00
    3    1   13      1.93      0.00
    4    1   13      0.90      0.00
    5    1   13      0.47      0.00
    6    1   13      0.07      0.00
   -6    2   13     -0.02      0.00
   -5    2   13     -0.18      0.00
   -4    2   13      0.56      0.00
   -3    2   13      1.15      0.00
   -2    2   13      1.26      0.00
   -1    2   13      0.79      0.00
    0    2   13     -0.43      0.00
    1    2   13     -1.05      0.00
    2    2   13     -4.57      0.00
    3    2   13     -2.20      0.00
    4    2   13     -1.56      0.00
    5    2   13     -1.02      0.00
    6    2   13     -0.44      0.00
   -6    3   13     -0.06      0.00
   -5    3   13      0.31      0.00
   -4    3   13      0.18      0.00
   -3    3   13     -0.20      0.00
   -2    3   13     -4.69      0.00
   -1    3   13      5.23      0.00
    0    3   13     -2.02      0.00
    1    3   13      6.86      0.00
    2    3   13      4.12      0.00
    3    3   13      2.97      0.00
    4    3   13      1.01      0.00
    5    3   13      0.43      0.00
    6    3   13      0.87      0.00
   -6    4   13     -0.45      0.00
   -5    4   13     -0.65      0.00
   -4    4   13      0.03      0.00
   -3    4   13     -1.51      0.00
   -2    4   13      0.70      0.00
   -1    4   13     -3.61      0.00
    0    4   13     -3.27      0.00
    1    4   13     -6.22      0.00
    2    4   13     -1.57      0.00
    3    4   13     -1.60      0.00
    4    4   13      0.87      0.00
    5    4   13      0.88      0.00
    6    4   13      0.24      0.00
   -5    5   13      1.21      0.00
   -4    5   13      0.03      0.00
   -3    5   13      1.18      0.00
   -2    5   13     -3.30      0.00
   -1    5   13      2.77      0.00
    0    5   13     -1.81      0.00
    1    5   13     -1.35      0.00
    2    5   13     -1.41      0.00
    3    5   13     -2.07      0.00
    4    5   13     -1.48      0.00
    5    5   13     -1.27      0.00
    6    5   13     -0.41      0.00
   -5    6   13     -0.72      0.00
   -4    6   13      0.07      0.00
   -3    6   13      0.72      0.00
   -2    6   13      1.35      0.00
   -1    6   13      4.78      0.00
    0    6   13      4.27      0.00
    1    6   13      5.09      0.00
    2    6   13      3.19      0.00
    3    6   13      1.64      0.00
    4    6   13      0.92      0.00
    5    6   13      1.28      0.00
    6    6   13      0.17      0.00
   -5    7   13     -0.16      0.00
   -4    7   13     -1.15      0.00
   -3    7   13     -0.85      0.00
   -2    7   13     -4.43      0.00
   -1    7   13      0.76      0.00
    0    7   13     -5.06      0.00
    1    7   13     -6.44      0.00
    2    7   13     -2.09      0.00
    3    7   13     -0.68      0.00
    4    7   13     -0.41      0.00
    5    7   13      0.36      0.00
    6    7   13     -0.57      0.00
   -5    8   13      0.16      0.00
   -4    8   13      0.30      0.00
   -3    8   13      2.82      0.00
   -2    8   13      0.06      0.00
   -1    8   13      6.02      0.00
    0    8   13     -2.27      0.00
    1    8   13      2.44      0.00
    2    8   13      1.02      0.00
    3    8   13     -1.23      0.00
    4    8   13     -0.39      0.00
    5    8   13     -0.37      0.00
    6    8   13     -0.20      0.00
   -5    9   13     -0.26      0.00
   -4    9   13      0.20      0.00
   -3    9   13      0.71      0.00
   -2    9   13     -3.00      0.00
   -1    9   13      4.64      0.00
    0    9   13     -4.04      0.00
    1    9   13     -1.30      0.00
    2    9   13      0.78      0.00
    3    9   13      0.17      0.00
    4    9   13      0.76      0.00
    5    9   13      0.20      0.00
    6    9   13      0.95      0.00
   -5   10   13      0.24      0.00
   -4   10   13     -0.52      0.00
   -3   10   13      0.40      0.00
   -2   10   13     -3.01      0.00
   -1   10   13      2.26      0.00
    0   10   13     -6.64      0.00
    1   10   13     -0.92      0.00
    2   10   13     -1.01      0.00
    3   10   13     -1.05      0.00
    4   10   13     -0.84      0.00
    5   10   13      0.25      0.00
    6   10   13     -0.53      0.00
   -5   11   13      0.05      0.00
   -4   11   13      0.80      0.00
   -3   11   13      0.26      0.00
   -2   11   13     -0.53      0.00
   -1   11   13      3.36      0.00
    0   11   13      1.97      0.00
    1   11   13      0.17      0.00
    2   11   13      3.12      0.00
    3   11   13      0.66      0.00
    4   11   13      1.10      0.00
    5   11   13      0.83      0.00
    6   11   13      0.65      0.00
   -5   12   13      0.04      0.00
   -4   12   13     -0.97      0.00
   -3   12   13     -0.03      0.00
   -2   12   13     -1.98      0.00
   -1   12   13     -2.67      0.00
    0   12   13     -2.12      0.00
    1   12   13     -1.09      0.00
    2   12   13     -1.55      0.00
    3   12   13     -0.76      0.00
    4   12   13     -0.45      0.00
    5   12   13     -0.90      0.00
   -5   13   13      0.53      0.00
   -4   13   13      0.70      0.00
   -3   13   13      0.32      0.00
   -2   13   13      0.80      0.00
   -1   13   13      4.01      0.00
    0   13   13      1.48      0.00
    1   13   13      0.97      0.00
    2   13   13      1.76      0.00
    3   13   13      0.99      0.00
    4   13   13     -1.17      0.00
    5   13   13     -1.24      0.00
   -4   14   13      0.19      0.00
   -3   14   13      0.87      0.00
   -2   14   13     -1.45      0.00
   -1   14   13      1.50      0.00
    0   14   13     -0.69      0.00
    1   14   13      0.46      0.00
    2   14   13      0.93      0.00
    3   14   13      0.50      0.00
    4   14   13      0.96      0.00
    5   14   13      0.02      0.00
   -4   15   13     -0.43      0.00
   -3   15   13     -0.79      0.00
   -2   15   13     -1.94      0.00
   -1   15   13      2.13      0.00
    0   15   13     -1.79      0.00
    1   15   13     -0.07      0.00
    2   15   13     -0.39      0.00
    3   15   13     -0.38      0.00
    4   15   13      0.09      0.00
    5   15   13      0.14      0.00
   -3   16   13      0.45      0.00
   -2   16   13      0.78      0.00
   -1   16   13      0.93      0.00
    0   16   13     -0.30      0.00
    1   16   13     -0.03      0.00
    2   16   13      0.73      0.00
    3   16   13     -0.13      0.00
    4   16   13     -0.18      0.00
    5   16   13     -0.46      0.00
   -3   17   13     -0.30      0.00
   -2   17   13     -0.83      0.00
   -1   17   13      0.70      0.00
    0   17   13     -1.07      0.00
    1   17   13      0.23      0.00
    2   17   13     -0.04      0.00
    3   17   13      0.61      0.00
    4   17   13      0.50      0.00
   -3   18   13      0.70      0.00
   -2   18   13      0.92      0.00
   -1   18   13     -1.66      0.00
    0   18   13     -0.65      0.00
    1   18   13     -0.25      0.00
    2   18   13     -0.09      0.00
    3   18   13     -0.83      0.00
    4   18   13      0.15      0.00
   -1   19   13     -0.80      0.00
    0   19   13      1.48      0.00
    1   19   13      0.90      0.00
    2   19   13      0.24      0.00
    3   19   13      0.11      0.00
    0   20   13      0.45      0.00
    1   20   13      0.34      0.00
    2   20   13     -0.15      0.00
    0  -16   14      0.84      0.00
   -1  -15   14     -0.67      0.00
    0  -15   14      0.74      0.00
    1  -15   14     -0.33      0.00
   -2  -14   14      0.64      0.00
   -1  -14   14     -1.39      0.00
    0  -14   14      1.35      0.00
    1  -14   14     -0.24      0.00
    2  -14   14      0.04      0.00
   -3  -13   14     -0.06      0.00
   -2  -13   14      0.80      0.00
   -1  -13   14     -0.68      0.00
    0  -13   14     -0.10      0.00
    1  -13   14     -0.62      0.00
    2  -13   14     -0.05      0.00
    3  -13   14      0.47      0.00
   -3  -12   14     -1.09      0.00
   -2  -12   14      1.63      0.00
   -1  -12   14     -1.14      0.00
    0  -12   14      2.01      0.00
    1  -12   14     -0.33      0.00
    2  -12   14     -1.07      0.00
    3  -12   14     -0.34      0.00
   -3  -11   14     -0.79      0.00
   -2  -11   14      1.30      0.00
   -1  -11   14     -3.42      0.00
    0  -11   14      1.29      0.00
    1  -11   14     -0.60      0.00
    2  -11   14     -0.09      0.00
    3  -11   14      0.49      0.00
    4  -11   14     -0.33      0.00
   -4  -10   14      0.15      0.00
   -3  -10   14      0.79      0.00
   -2  -10   14      1.79      0.00
   -1  -10   14     -2.33      0.00
    0  -10   14      2.13      0.00
    1  -10   14     -0.03      0.00
    2  -10   14     -1.21      0.00
    3  -10   14     -0.28      0.00
    4  -10   14      0.06      0.00
   -4   -9   14     -0.53      0.00
   -3   -9   14     -0.32      0.00
   -2   -9   14      0.47      0.00
   -1   -9   14     -1.23      0.00
    0   -9   14      1.35      0.00
    1   -9   14      0.66      0.00
    2   -9   14      0.65      0.00
    3   -9   14      0.27      0.00
    4   -9   14      0.16      0.00
   -4   -8   14      0.03      0.00
   -3   -8   14     -0.14      0.00
   -2   -8   14     -0.20      0.00
   -1   -8   14     -2.12      0.00
    0   -8   14     -0.18      0.00
    1   -8   14     -0.31      0.00
    2   -8   14     -0.36      0.00
    3   -8   14      0.04      0.00
    4   -8   14      0.00      0.00
    5   -8   14      0.13      0.00
   -5   -7   14      0.19      0.00
   -4   -7   14     -0.18      0.00
   -3   -7   14      0.29      0.00
   -2   -7   14      1.22      0.00
   -1   -7   14     -0.04      0.00
    0   -7   14      2.17      0.00
    1   -7   14      0.63      0.00
    2   -7   14      0.65      0.00
    3   -7   14      0.54      0.00
    4   -7   14     -0.08      0.00
    5   -7   14     -0.04      0.00
   -5   -6   14     -0.01      0.00
   -4   -6   14     -0.12      0.00
   -3   -6   14     -0.69      0.00
   -2   -6   14     -2.21      0.00
   -1   -6   14     -1.34      0.00
    0   -6   14      0.21      0.00
    1   -6   14     -0.41      0.00
    2   -6   14     -0.01      0.00
    3   -6   14      0.31      0.00
    4   -6   14      0.36      0.00
    5   -6   14      0.13      0.00
    6   -6   14     -0.07      0.00
   -5   -5   14      0.00      0.00
   -4   -5   14      0.35      0.00
   -3   -5   14     -0.16      0.00
   -2   -5   14      2.04      0.00
   -1   -5   14      0.41      0.00
    0   -5   14      0.00      0.00
    1   -5   14      0.89      0.00
    2   -5   14     -1.01      0.00
    3   -5   14      0.53      0.00
    4   -5   14     -0.55      0.00
    5   -5   14     -0.84      0.00
    6   -5   14     -0.19      0.00
   -5   -4   14     -0.22      0.00
   -4   -4   14     -0.48      0.00
   -3   -4   14     -0.29      0.00
   -2   -4   14     -0.79      0.00
   -1   -4   14     -1.47      0.00
    0   -4   14      1.96      0.00
    1   -4   14      2.66      0.00
    2   -4   14      1.94      0.00
    3   -4   14      0.37      0.00
    4   -4   14      0.62      0.00
    5   -4   14      0.79      0.00
    6   -4   14      0.02      0.00
   -5   -3   14     -0.02      0.00
   -4   -3   14      0.03      0.00
   -3   -3   14      0.32      0.00
   -2   -3   14     -2.32      0.00
   -1   -3   14      1.59      0.00
    0   -3   14     -2.62      0.00
    1   -3   14     -1.28      0.00
    2   -3   14     -2.59      0.00
    3   -3   14     -0.91      0.00
    4   -3   14     -0.49      0.00
    5   -3   14     -0.52      0.00
    6   -3   14      0.56      0.00
   -5   -2   14      0.11      0.00
   -4   -2   14      0.77      0.00
   -3   -2   14      1.88      0.00
   -2   -2   14     -0.60      0.00
   -1   -2   14      6.05      0.00
    0   -2   14      0.32      0.00
    1   -2   14      1.90      0.00
    2   -2   14      1.19      0.00
    3   -2   14     -1.45      0.00
    4   -2   14     -0.01      0.00
    5   -2   14     -0.32      0.00
    6   -2   14     -0.84      0.00
   -5   -1   14     -0.23      0.00
   -4   -1   14     -0.69      0.00
   -3   -1   14      0.36      0.00
   -2   -1   14     -2.39      0.00
   -1   -1   14      4.41      0.00
    0   -1   14     -4.99      0.00
    1   -1   14     -0.47      0.00
    2   -1   14      1.68      0.00
    3   -1   14      2.64      0.00
    4   -1   14      1.00      0.00
    5   -1   14      0.74      0.00
    6   -1   14      0.66      0.00
   -5    0   14      0.15      0.00
   -4    0   14      0.07      0.00
   -3    0   14      1.21      0.00
   -2    0   14     -2.13      0.00
   -1    0   14      2.58      0.00
    0    0   14      0.88      0.00
    1    0   14     -1.84      0.00
    2    0   14     -3.40      0.00
    3    0   14     -3.23      0.00
    4    0   14     -0.93      0.00
    5    0   14     -0.56      0.00
    6    0   14     -0.72      0.00
   -5    1   14     -0.22      0.00
   -4    1   14      0.38      0.00
   -3    1   14      2.92      0.00
   -2    1   14     -3.57      0.00
   -1    1   14      8.25      0.00
    0    1   14     -6.52      0.00
    1    1   14      3.94      0.00
    2    1   14      1.45      0.00
    3    1   14      0.30      0.00
    4    1   14      0.19      0.00
    5    1   14      0.26      0.00
    6    1   14      0.71      0.00
   -5    2   14     -0.73      0.00
   -4    2   14     -0.19      0.00
   -3    2   14     -0.96      0.00
   -2    2   14     -3.87      0.00
   -1    2   14      2.90      0.00
    0    2   14     -4.70      0.00
    1    2   14     -4.82      0.00
    2    2   14      0.04      0.00
    3    2   14     -0.04      0.00
    4    2   14      0.11      0.00
    5    2   14      0.14      0.00
    6    2   14      0.03      0.00
   -5    3   14      0.58      0.00
   -4    3   14      0.70      0.00
   -3    3   14      1.22      0.00
   -2    3   14     -2.94      0.00
   -1    3   14      3.34      0.00
    0    3   14     -3.38      0.00
    1    3   14     -0.48      0.00
    2    3   14      0.99      0.00
    3    3   14     -0.03      0.00
    4    3   14      0.05      0.00
    5    3   14      0.08      0.00
    6    3   14      0.66      0.00
   -5    4   14     -0.76      0.00
   -4    4   14     -0.91      0.00
   -3    4   14     -1.01      0.00
   -2    4   14     -1.61      0.00
   -1    4   14      0.16      0.00
    0    4   14      0.53      0.00
    1    4   14      0.49      0.00
    2    4   14      3.38      0.00
    3    4   14      0.13      0.00
    4    4   14      1.13      0.00
    5    4   14      0.80      0.00
    6    4   14     -0.04      0.00
   -5    5   14      0.80      0.00
   -4    5   14      0.00      0.00
   -3    5   14      1.42      0.00
   -2    5   14     -2.00      0.00
   -1    5   14      0.73      0.00
    0    5   14     -5.88      0.00
    1    5   14     -7.09      0.00
    2    5   14     -2.91      0.00
    3    5   14     -2.03      0.00
    4    5   14     -1.27      0.00
    5    5   14     -0.51      0.00
    6    5   14     -0.08      0.00
   -5    6   14     -0.37      0.00
   -4    6   14     -0.57      0.00
   -3    6   14      0.82      0.00
   -2    6   14     -0.39      0.00
   -1    6   14      8.61      0.00
    0    6   14      6.41      0.00
    1    6   14      6.49      0.00
    2    6   14      4.32      0.00
    3    6   14      0.91      0.00
    4    6   14      0.09      0.00
    5    6   14      0.08      0.00
    6    6   14     -0.28      0.00
   -5    7   14     -0.43      0.00
   -4    7   14     -0.35      0.00
   -3    7   14      0.38      0.00
   -2    7   14     -1.62      0.00
   -1    7   14      0.16      0.00
    0    7   14     -5.11      0.00
    1    7   14     -3.45      0.00
    2    7   14      0.49      0.00
    3    7   14      0.65      0.00
    4    7   14      1.29      0.00
    5    7   14      0.56      0.00
    6    7   14      0.08      0.00
   -5    8   14     -0.02      0.00
   -4    8   14      0.01      0.00
   -3    8   14      1.67      0.00
   -2    8   14     -2.06      0.00
   -1    8   14      3.38      0.00
    0    8   14     -4.65      0.00
    1    8   14     -1.06      0.00
    2    8   14     -0.87      0.00
    3    8   14     -2.03      0.00
    4    8   14     -1.14      0.00
    5    8   14     -1.47      0.00
    6    8   14     -0.57      0.00
   -5    9   14      0.17      0.00
   -4    9   14      1.03      0.00
   -3    9   14      0.05      0.00
   -2    9   14      0.93      0.00
   -1    9   14      2.00      0.00
    0    9   14      2.13      0.00
    1    9   14      1.72      0.00
    2    9   14      1.79      0.00
    3    9   14      1.95      0.00
    4    9   14      0.72      0.00
    5    9   14      0.69      0.00
    6    9   14      0.86      0.00
   -5   10   14     -0.01      0.00
   -4   10   14     -0.61      0.00
   -3   10   14     -1.14      0.00
   -2   10   14     -0.62      0.00
   -1   10   14     -4.40      0.00
    0   10   14     -2.09      0.00
    1   10   14     -1.48      0.00
    2   10   14     -1.21      0.00
    3   10   14     -0.87      0.00
    4   10   14     -0.36      0.00
    5   10   14      0.38      0.00
   -5   11   14      0.45      0.00
   -4   11   14      0.44      0.00
   -3   11   14      0.20      0.00
   -2   11   14      2.30      0.00
   -1   11   14     -0.79      0.00
    0   11   14      3.87      0.00
    1   11   14      0.28      0.00
    2   11   14      0.85      0.00
    3   11   14      0.60      0.00
    4   11   14      0.36      0.00
    5   11   14     -0.59      0.00
   -4   12   14     -0.05      0.00
   -3   12   14     -0.31      0.00
   -2   12   14     -0.48      0.00
   -1   12   14     -2.10      0.00
    0   12   14      0.82      0.00
    1   12   14      0.24      0.00
    2   12   14      0.08      0.00
    3   12   14      0.01      0.00
    4   12   14     -0.25      0.00
    5   12   14     -1.30      0.00
   -4   13   14      0.03      0.00
   -3   13   14     -0.74      0.00
   -2   13   14     -0.09      0.00
   -1   13   14      1.26      0.00
    0   13   14      0.16      0.00
    1   13   14      0.73      0.00
    2   13   14     -0.24      0.00
    3   13   14     -0.21      0.00
    4   13   14     -1.05      0.00
    5   13   14     -0.76      0.00
   -4   14   14      0.22      0.00
   -3   14   14      0.54      0.00
   -2   14   14      1.45      0.00
   -1   14   14     -0.30      0.00
    0   14   14      2.06      0.00
    1   14   14      1.14      0.00
    2   14   14      0.75      0.00
    3   14   14      0.53      0.00
    4   14   14      1.86      0.00
    5   14   14      1.07      0.00
   -3   15   14     -0.56      0.00
   -2   15   14     -0.31      0.00
   -1   15   14     -0.90      0.00
    0   15   14     -0.09      0.00
    1   15   14     -0.51      0.00
    2   15   14     -1.01      0.00
    3   15   14      0.10      0.00
    4   15   14     -0.59      0.00
   -3   16   14     -0.47      0.00
   -2   16   14      1.05      0.00
   -1   16   14     -2.11      0.00
    0   16   14     -0.19      0.00
    1   16   14      0.08      0.00
    2   16   14     -0.53      0.00
    3   16   14     -0.89      0.00
    4   16   14     -0.62      0.00
   -3   17   14      0.13      0.00
   -2   17   14      1.26      0.00
   -1   17   14     -1.38      0.00
    0   17   14      1.52      0.00
    1   17   14      0.60      0.00
    2   17   14      0.01      0.00
    3   17   14      0.53      0.00
    4   17   14      0.97      0.00
   -3   18   14     -0.20      0.00
   -2   18   14      0.90      0.00
   -1   18   14     -2.80      0.00
    0   18   14      0.08      0.00
    1   18   14     -0.11      0.00
    2   18   14     -0.44      0.00
    3   18   14     -0.73      0.00
   -1   19   14     -0.39      0.00
    0   19   14      1.74      0.00
    1   19   14      0.01      0.00
    2   19   14      0.13      0.00
    3   19   14     -0.35      0.00
    0   20   14      0.24      0.00
    1   20   14     -0.02      0.00
    2   20   14     -0.02      0.00
   -1  -15   15     -0.29      0.00
    0  -15   15      0.14      0.00
   -2  -14   15      0.54      0.00
   -1  -14   15      0.21      0.00
    0  -14   15      0.35      0.00
    1  -14   15      0.36      0.00
   -2  -13   15     -0.27      0.00
   -1  -13   15     -0.46      0.00
    0  -13   15     -0.48      0.00
    1  -13   15      0.13      0.00
    2  -13   15     -0.50      0.00
   -3  -12   15      0.13      0.00
   -2  -12   15      0.15      0.00
   -1  -12   15      0.39      0.00
    0  -12   15      1.18      0.00
    1  -12   15      0.28      0.00
    2  -12   15     -0.44      0.00
   -3  -11   15      0.41      0.00
   -2  -11   15     -1.13      0.00
   -1  -11   15     -0.55      0.00
    0  -11   15     -0.54      0.00
    1  -11   15      0.59      0.00
    2  -11   15      0.62      0.00
    3  -11   15      0.17      0.00
   -4  -10   15     -0.15      0.00
   -3  -10   15      1.26      0.00
   -2  -10   15     -1.15      0.00
   -1  -10   15      1.49      0.00
    0  -10   15     -1.38      0.00
    1  -10   15      0.35      0.00
    2  -10   15     -0.32      0.00
    3  -10   15     -0.26      0.00
    4  -10   15      0.21      0.00
   -4   -9   15     -0.25      0.00
   -3   -9   15      0.08      0.00
   -2   -9   15     -0.94      0.00
   -1   -9   15      2.65      0.00
    0   -9   15     -0.75      0.00
    1   -9   15      0.79      0.00
    2   -9   15      1.29      0.00
    3   -9   15      0.27      0.00
    4   -9   15      0.10      0.00
   -4   -8   15     -0.10      0.00
   -3   -8   15      0.45      0.00
   -2   -8   15     -2.64      0.00
   -1   -8   15      1.21      0.00
    0   -8   15     -1.23      0.00
    1   -8   15     -0.22      0.00
    2   -8   15      0.27      0.00
    3   -8   15      0.08      0.00
    4   -8   15      0.45      0.00
    5   -8   15     -0.22      0.00
   -4   -7   15      0.44      0.00
   -3   -7   15      0.48      0.00
   -2   -7   15     -0.61      0.00
   -1   -7   15      2.67      0.00
    0   -7   15     -1.03      0.00
    1   -7   15     -0.41      0.00
    2   -7   15     -0.09      0.00
    3   -7   15     -0.17      0.00
    4   -7   15     -0.51      0.00
    5   -7   15     -0.39      0.00
   -5   -6   15     -0.65      0.00
   -4   -6   15      0.12      0.00
   -3   -6   15      0.35      0.00
   -2   -6   15     -1.50      0.00
   -1   -6   15      3.20      0.00
    0   -6   15     -1.23      0.00
    1   -6   15      0.47      0.00
    2   -6   15     -0.07      0.00
    3   -6   15     -0.07      0.00
    4   -6   15      0.36      0.00
    5   -6   15      0.02      0.00
   -5   -5   15     -0.05      0.00
   -4   -5   15     -0.14      0.00
   -3   -5   15      0.41      0.00
   -2   -5   15     -1.89      0.00
   -1   -5   15      2.14      0.00
    0   -5   15     -4.08      0.00
    1   -5   15      0.60      0.00
    2   -5   15      0.04      0.00
    3   -5   15      0.53      0.00
    4   -5   15     -0.37      0.00
    5   -5   15     -0.56      0.00
    6   -5   15     -0.03      0.00
   -5   -4   15     -0.40      0.00
   -4   -4   15      0.29      0.00
   -3   -4   15      1.83      0.00
   -2   -4   15     -2.38      0.00
   -1   -4   15      4.50      0.00
    0   -4   15     -0.49      0.00
    1   -4   15     -0.19      0.00
    2   -4   15      0.79      0.00
    3   -4   15     -1.22      0.00
    4   -4   15     -0.13      0.00
    5   -4   15      0.47      0.00
    6   -4   15      0.16      0.00
   -5   -3   15     -0.41      0.00
   -4   -3   15     -0.28      0.00
   -3   -3   15     -0.10      0.00
   -2   -3   15     -3.35      0.00
   -1   -3   15      4.33      0.00
    0   -3   15     -4.41      0.00
    1   -3   15     -0.43      0.00
    2   -3   15      0.82      0.00
    3   -3   15      0.27      0.00
    4   -3   15      0.04      0.00
    5   -3   15     -0.11      0.00
    6   -3   15      0.31      0.00
   -5   -2   15      0.62      0.00
   -4   -2   15      0.79      0.00
   -3   -2   15      1.61      0.00
   -2   -2   15     -0.12      0.00
   -1   -2   15      2.85      0.00
    0   -2   15     -1.15      0.00
    1   -2   15     -2.85      0.00
    2   -2   15     -0.47      0.00
    3   -2   15     -1.01      0.00
    4   -2   15     -0.63      0.00
    5   -2   15     -0.60      0.00
    6   -2   15     -0.77      0.00
   -5   -1   15     -0.35      0.00
   -4   -1   15     -0.97      0.00
   -3   -1   15      0.75      0.00
   -2   -1   15     -0.75      0.00
   -1   -1   15      4.19      0.00
    0   -1   15      1.67      0.00
    1   -1   15      1.90      0.00
    2   -1   15      2.65      0.00
    3   -1   15      1.62      0.00
    4   -1   15      1.00      0.00
    5   -1   15      0.39      0.00
    6   -1   15      0.39      0.00
   -5    0   15      0.03      0.00
   -4    0   15     -0.14      0.00
   -3    0   15     -0.55      0.00
   -2    0   15     -4.09      0.00
   -1    0   15      0.43      0.00
    0    0   15     -4.58      0.00
    1    0   15     -3.06      0.00
    2    0   15     -1.61      0.00
    3    0   15     -1.25      0.00
    4    0   15     -0.02      0.00
    5    0   15      0.22      0.00
    6    0   15      0.30      0.00
   -5    1   15     -0.42      0.00
   -4    1   15      0.96      0.00
   -3    1   15      1.68      0.00
   -2    1   15      0.72      0.00
   -1    1   15      2.59      0.00
    0    1   15     -3.82      0.00
    1    1   15     -2.37      0.00
    2    1   15     -0.31      0.00
    3    1   15     -1.05      0.00
    4    1   15     -1.06      0.00
    5    1   15     -0.30      0.00
    6    1   15      0.32      0.00
   -5    2   15      0.05      0.00
   -4    2   15     -0.50      0.00
   -3    2   15     -1.53      0.00
   -2    2   15     -1.07      0.00
   -1    2   15     -3.34      0.00
    0    2   15      1.23      0.00
    1    2   15     -0.78      0.00
    2    2   15      2.60      0.00
    3    2   15      2.98      0.00
    4    2   15      1.11      0.00
    5    2   15      0.80      0.00
    6    2   15      0.24      0.00
   -5    3   15     -0.11      0.00
   -4    3   15      0.19      0.00
   -3    3   15     -0.88      0.00
   -2    3   15      1.90      0.00
   -1    3   15     -2.50      0.00
    0    3   15      1.86      0.00
    1    3   15     -1.40      0.00
    2    3   15     -1.89      0.00
    3    3   15     -1.45      0.00
    4    3   15     -0.43      0.00
    5    3   15     -0.64      0.00
   -5    4   15      0.58      0.00
   -4    4   15     -0.72      0.00
   -3    4   15      0.19      0.00
   -2    4   15     -0.14      0.00
   -1    4   15     -0.50      0.00
    0    4   15      2.89      0.00
    1    4   15      4.02      0.00
    2    4   15      3.84      0.00
    3    4   15      0.97      0.00
    4    4   15      0.17      0.00
    5    4   15      0.26      0.00
   -5    5   15     -0.26      0.00
   -4    5   15     -0.11      0.00
   -3    5   15     -0.69      0.00
   -2    5   15      2.68      0.00
   -1    5   15     -1.50      0.00
    0    5   15     -1.43      0.00
    1    5   15     -6.21      0.00
    2    5   15     -2.51      0.00
    3    5   15     -0.11      0.00
    4    5   15      0.07      0.00
    5    5   15     -0.04      0.00
   -5    6   15      0.53      0.00
   -4    6   15     -0.01      0.00
   -3    6   15      0.76      0.00
   -2    6   15     -0.71      0.00
   -1    6   15      2.64      0.00
    0    6   15      4.97      0.00
    1    6   15      6.45      0.00
    2    6   15      1.13      0.00
    3    6   15     -0.20      0.00
    4    6   15     -0.05      0.00
    5    6   15     -0.67      0.00
   -5    7   15     -0.93      0.00
   -4    7   15      0.57      0.00
   -3    7   15     -0.46      0.00
   -2    7   15      3.64      0.00
   -1    7   15     -1.85      0.00
    0    7   15     -0.56      0.00
    1    7   15      0.47      0.00
    2    7   15      1.03      0.00
    3    7   15      1.60      0.00
    4    7   15      0.79      0.00
    5    7   15      0.57      0.00
   -5    8   15     -0.01      0.00
   -4    8   15     -0.27      0.00
   -3    8   15     -0.80      0.00
   -2    8   15     -0.89      0.00
   -1    8   15     -4.78      0.00
    0    8   15     -1.58      0.00
    1    8   15     -2.62      0.00
    2    8   15     -2.79      0.00
    3    8   15     -0.57      0.00
    4    8   15     -0.55      0.00
    5    8   15     -0.80      0.00
   -5    9   15      0.59      0.00
   -4    9   15      1.37      0.00
   -3    9   15     -1.35      0.00
   -2    9   15      4.60      0.00
   -1    9   15     -2.63      0.00
    0    9   15      4.87      0.00
    1    9   15      3.12      0.00
    2    9   15     -0.02      0.00
    3    9   15      0.46      0.00
    4    9   15     -0.53      0.00
    5    9   15      0.05      0.00
   -5   10   15      0.00      0.00
   -4   10   15     -0.49      0.00
   -3   10   15     -0.60      0.00
   -2   10   15      1.08      0.00
   -1   10   15     -5.08      0.00
    0   10   15      1.22      0.00
    1   10   15     -0.18      0.00
    2   10   15     -0.31      0.00
    3   10   15     -0.13      0.00
    4   10   15      0.79      0.00
    5   10   15      0.16      0.00
   -5   11   15      0.24      0.00
   -4   11   15     -0.17      0.00
   -3   11   15     -0.71      0.00
   -2   11   15      0.55      0.00
   -1   11   15     -0.74      0.00
    0   11   15      0.59      0.00
    1   11   15     -0.84      0.00
    2   11   15     -0.73      0.00
    3   11   15     -0.36      0.00
    4   11   15     -0.27      0.00
    5   11   15     -0.80      0.00
   -4   12   15      0.58      0.00
   -3   12   15      0.11      0.00
   -2   12   15      0.15      0.00
   -1   12   15     -0.85      0.00
    0   12   15      2.46      0.00
    1   12   15      1.68      0.00
    2   12   15      1.09      0.00
    3   12   15      0.19      0.00
    4   12   15      0.03      0.00
    5   12   15      0.31      0.00
   -4   13   15     -0.92      0.00
   -3   13   15     -1.20      0.00
   -2   13   15      0.34      0.00
   -1   13   15     -0.87      0.00
    0   13   15     -0.56      0.00
    1   13   15     -0.10      0.00
    2   13   15     -1.15      0.00
    3   13   15     -0.02      0.00
    4   13   15      0.06      0.00
   -4   14   15      0.04      0.00
   -3   14   15      0.65      0.00
   -2   14   15      1.57      0.00
   -1   14   15     -0.59      0.00
    0   14   15      2.08      0.00
    1   14   15      0.39      0.00
    2   14   15     -0.40      0.00
    3   14   15      0.40      0.00
    4   14   15      0.79      0.00
   -3   15   15      0.13      0.00
   -2   15   15      0.74      0.00
   -1   15   15     -0.31      0.00
    0   15   15     -0.14      0.00
    1   15   15     -0.30      0.00
    2   15   15      0.22      0.00
    3   15   15      0.25      0.00
    4   15   15     -0.65      0.00
   -3   16   15     -0.89      0.00
   -2   16   15      0.05      0.00
   -1   16   15     -2.19      0.00
    0   16   15     -1.05      0.00
    1   16   15     -0.35      0.00
    2   16   15     -1.38      0.00
    3   16   15     -1.50      0.00
    4   16   15     -0.57      0.00
   -3   17   15      0.46      0.00
   -2   17   15      1.23      0.00
   -1   17   15     -0.67      0.00
    0   17   15      1.59      0.00
    1   17   15      0.23      0.00
    2   17   15      0.79      0.00
    3   17   15     -0.07      0.00
   -2   18   15     -0.77      0.00
   -1   18   15      0.12      0.00
    0   18   15     -0.82      0.00
    1   18   15     -0.35      0.00
    2   18   15     -0.06      0.00
    3   18   15      0.21      0.00
   -1   19   15      1.26      0.00
    0   19   15      0.52      0.00
    1   19   15     -0.79      0.00
    2   19   15     -0.06      0.00
    3   19   15     -0.36      0.00
    1   20   15      0.62      0.00
   -1  -14   16      1.22      0.00
   -2  -13   16     -1.47      0.00
   -1  -13   16      0.12      0.00
    0  -13   16     -0.79      0.00
   -3  -12   16      0.89      0.00
   -2  -12   16     -0.97      0.00
   -1  -12   16      1.89      0.00
    0  -12   16     -0.47      0.00
    1  -12   16     -0.05      0.00
   -3  -11   16      0.73      0.00
   -2  -11   16     -0.98      0.00
   -1  -11   16      1.23      0.00
    0  -11   16     -1.35      0.00
    1  -11   16      0.45      0.00
    2  -11   16      0.59      0.00
   -3  -10   16      0.13      0.00
   -2  -10   16     -1.47      0.00
   -1  -10   16      1.35      0.00
    0  -10   16     -1.38      0.00
    1  -10   16     -0.35      0.00
    2  -10   16      0.04      0.00
    3  -10   16      0.16      0.00
   -4   -9   16      0.32      0.00
   -3   -9   16      0.33      0.00
   -2   -9   16      0.19      0.00
   -1   -9   16      1.88      0.00
    0   -9   16     -0.30      0.00
    1   -9   16     -0.61      0.00
    2   -9   16      0.21      0.00
    3   -9   16     -0.38      0.00
    4   -9   16     -0.18      0.00
   -4   -8   16      0.18      0.00
   -3   -8   16     -0.12      0.00
   -2   -8   16     -1.03      0.00
   -1   -8   16      1.08      0.00
    0   -8   16      0.47      0.00
    1   -8   16      0.17      0.00
    2   -8   16     -0.21      0.00
    3   -8   16     -0.19      0.00
    4   -8   16      0.35      0.00
   -4   -7   16      0.59      0.00
   -3   -7   16     -0.04      0.00
   -2   -7   16      0.02      0.00
   -1   -7   16      0.29      0.00
    0   -7   16     -2.49      0.00
    1   -7   16     -0.49      0.00
    2   -7   16     -0.51      0.00
    3   -7   16      0.00      0.00
    4   -7   16     -0.43      0.00
    5   -7   16     -0.14      0.00
   -4   -6   16     -0.20      0.00
   -3   -6   16      0.55      0.00
   -2   -6   16      0.46      0.00
   -1   -6   16      2.23      0.00
    0   -6   16     -0.19      0.00
    1   -6   16      0.85      0.00
    2   -6   16      0.12      0.00
    3   -6   16     -0.27      0.00
    4   -6   16     -0.08      0.00
    5   -6   16     -0.36      0.00
   -5   -5   16     -0.02      0.00
   -4   -5   16     -0.38      0.00
   -3   -5   16     -0.28      0.00
   -2   -5   16     -2.13      0.00
   -1   -5   16     -0.81      0.00
    0   -5   16     -1.64      0.00
    1   -5   16     -0.29      0.00
    2   -5   16      1.41      0.00
    3   -5   16      0.70      0.00
    4   -5   16      0.00      0.00
    5   -5   16      0.20      0.00
   -5   -4   16      0.02      0.00
   -4   -4   16      0.41      0.00
   -3   -4   16      0.21      0.00
   -2   -4   16      1.26      0.00
   -1   -4   16      0.17      0.00
    0   -4   16      1.12      0.00
    1   -4   16     -1.56      0.00
    2   -4   16     -0.47      0.00
    3   -4   16     -1.07      0.00
    4   -4   16     -0.42      0.00
    5   -4   16      0.25      0.00
    6   -4   16     -0.13      0.00
   -5   -3   16      0.12      0.00
   -4   -3   16     -0.40      0.00
   -3   -3   16     -1.38      0.00
   -2   -3   16      1.45      0.00
   -1   -3   16     -1.81      0.00
    0   -3   16      1.12      0.00
    1   -3   16      0.33      0.00
    2   -3   16      1.59      0.00
    3   -3   16      0.69      0.00
    4   -3   16      0.29      0.00
    5   -3   16     -0.15      0.00
    6   -3   16      0.05      0.00
   -5   -2   16      1.03      0.00
   -4   -2   16      0.00      0.00
   -3   -2   16     -0.19      0.00
   -2   -2   16      1.26      0.00
   -1   -2   16     -2.51      0.00
    0   -2   16      1.83      0.00
    1   -2   16     -2.11      0.00
    2   -2   16     -2.09      0.00
    3   -2   16     -0.52      0.00
    4   -2   16     -0.29      0.00
    5   -2   16     -0.40      0.00
    6   -2   16      0.08      0.00
   -5   -1   16     -0.58      0.00
   -4   -1   16      0.04      0.00
   -3   -1   16     -0.38      0.00
   -2   -1   16      2.35      0.00
   -1   -1   16     -0.33      0.00
    0   -1   16      2.05      0.00
    1   -1   16      1.63      0.00
    2   -1   16      1.80      0.00
    3   -1   16     -0.27      0.00
    4   -1   16      0.02      0.00
    5   -1   16     -0.01      0.00
    6   -1   16     -0.24      0.00
   -5    0   16      0.03      0.00
   -4    0   16      0.06      0.00
   -3    0   16     -1.24      0.00
   -2    0   16     -0.40      0.00
   -1    0   16     -3.51      0.00
    0    0   16     -3.41      0.00
    1    0   16     -1.31      0.00
    2    0   16     -1.22      0.00
    3    0   16      1.87      0.00
    4    0   16      0.43      0.00
    5    0   16      0.73      0.00
    6    0   16      1.05      0.00
   -5    1   16     -0.05      0.00
   -4    1   16      0.43      0.00
   -3    1   16     -0.79      0.00
   -2    1   16      4.11      0.00
   -1    1   16     -6.40      0.00
    0    1   16      2.66      0.00
    1    1   16     -1.72      0.00
    2    1   16     -1.85      0.00
    3    1   16     -1.28      0.00
    4    1   16     -1.14      0.00
    5    1   16     -0.55      0.00
   -5    2   16      0.62      0.00
   -4    2   16      0.17      0.00
   -3    2   16     -0.53      0.00
   -2    2   16      2.12      0.00
   -1    2   16     -1.98      0.00
    0    2   16      5.01      0.00
    1    2   16      4.51      0.00
    2    2   16      1.59      0.00
    3    2   16      2.52      0.00
    4    2   16      0.55      0.00
    5    2   16      0.28      0.00
   -5    3   16     -0.48      0.00
   -4    3   16     -0.65      0.00
   -3    3   16     -2.41      0.00
   -2    3   16      2.48      0.00
   -1    3   16     -3.17      0.00
    0    3   16      2.50      0.00
    1    3   16      0.08      0.00
    2    3   16     -0.98      0.00
    3    3   16     -0.90      0.00
    4    3   16      0.16      0.00
    5    3   16     -0.31      0.00
   -5    4   16      1.05      0.00
   -4    4   16      0.27      0.00
   -3    4   16      1.44      0.00
   -2    4   16      0.32      0.00
   -1    4   16     -0.02      0.00
    0    4   16      0.55      0.00
    1    4   16      1.81      0.00
    2    4   16      0.27      0.00
    3    4   16      0.06      0.00
    4    4   16     -0.74      0.00
    5    4   16     -0.18      0.00
   -5    5   16     -0.85      0.00
   -4    5   16      0.10      0.00
   -3    5   16     -1.71      0.00
   -2    5   16      3.30      0.00
   -1    5   16     -1.25      0.00
    0    5   16      1.53      0.00
    1    5   16     -0.75      0.00
    2    5   16     -0.36      0.00
    3    5   16      0.88      0.00
    4    5   16      0.96      0.00
    5    5   16      0.34      0.00
   -5    6   16      0.76      0.00
   -4    6   16      0.70      0.00
   -3    6   16      0.87      0.00
   -2    6   16     -0.78      0.00
   -1    6   16     -1.59      0.00
    0    6   16      0.44      0.00
    1    6   16      2.54      0.00
    2    6   16     -2.37      0.00
    3    6   16     -1.02      0.00
    4    6   16     -0.43      0.00
    5    6   16     -0.69      0.00
   -5    7   16     -1.04      0.00
   -4    7   16      0.12      0.00
   -3    7   16     -1.37      0.00
   -2    7   16      3.49      0.00
   -1    7   16     -1.09      0.00
    0    7   16      2.30      0.00
    1    7   16      1.91      0.00
    2    7   16      0.99      0.00
    3    7   16      1.13      0.00
    4    7   16     -0.46      0.00
    5    7   16      0.38      0.00
   -5    8   16      0.27      0.00
   -4    8   16     -0.08      0.00
   -3    8   16     -1.03      0.00
   -2    8   16     -0.20      0.00
   -1    8   16     -5.06      0.00
    0    8   16     -1.19      0.00
    1    8   16     -2.27      0.00
    2    8   16     -1.79      0.00
    3    8   16      0.42      0.00
    4    8   16      0.48      0.00
    5    8   16      0.01      0.00
   -5    9   16      0.37      0.00
   -4    9   16      0.40      0.00
   -3    9   16     -0.32      0.00
   -2    9   16      0.84      0.00
   -1    9   16      0.24      0.00
    0    9   16      0.18      0.00
    1    9   16      0.42      0.00
    2    9   16     -1.49      0.00
    3    9   16     -2.24      0.00
    4    9   16     -1.33      0.00
    5    9   16     -0.75      0.00
   -5   10   16     -0.07      0.00
   -4   10   16     -0.24      0.00
   -3   10   16      0.94      0.00
   -2   10   16     -0.30      0.00
   -1   10   16      0.86      0.00
    0   10   16      1.72      0.00
    1   10   16      1.09      0.00
    2   10   16      1.92      0.00
    3   10   16      0.87      0.00
    4   10   16      0.98      0.00
   -5   11   16     -0.46      0.00
   -4   11   16     -0.68      0.00
   -3   11   16     -0.64      0.00
   -2   11   16     -2.33      0.00
   -1   11   16      0.31      0.00
    0   11   16     -2.51      0.00
    1   11   16     -2.20      0.00
    2   11   16     -0.86      0.00
    3   11   16     -0.04      0.00
    4   11   16     -0.21      0.00
   -4   12   16      0.10      0.00
   -3   12   16      0.53      0.00
   -2   12   16      0.37      0.00
   -1   12   16      0.52      0.00
    0   12   16      2.10      0.00
    1   12   16      1.83      0.00
    2   12   16      0.72      0.00
    3   12   16      0.20      0.00
    4   12   16      0.03      0.00
   -4   13   16     -0.65      0.00
   -3   13   16     -0.21      0.00
   -2   13   16     -0.18      0.00
   -1   13   16      1.72      0.00
    0   13   16     -1.44      0.00
    1   13   16     -0.96      0.00
    2   13   16     -0.31      0.00
    3   13   16      0.65      0.00
    4   13   16      0.54      0.00
   -3   14   16      0.78      0.00
   -2   14   16     -0.57      0.00
   -1   14   16      0.49      0.00
    0   14   16     -0.79      0.00
    1   14   16     -0.13      0.00
    2   14   16     -0.74      0.00
    3   14   16     -0.54      0.00
    4   14   16     -0.31      0.00
   -3   15   16      0.23      0.00
   -2   15   16      0.77      0.00
   -1   15   16      1.58      0.00
    0   15   16     -0.50      0.00
    1   15   16     -0.43      0.00
    2   15   16      1.57      0.00
    3   15   16      0.20      0.00
   -3   16   16     -0.01      0.00
   -2   16   16     -1.03      0.00
   -1   16   16     -0.65      0.00
    0   16   16     -1.25      0.00
    1   16   16     -0.24      0.00
    2   16   16     -1.23      0.00
    3   16   16     -0.87      0.00
    4   16   16     -0.14      0.00
   -3   17   16      0.32      0.00
   -2   17   16     -0.54      0.00
   -1   17   16      1.02      0.00
    0   17   16      0.02      0.00
    1   17   16     -0.48      0.00
    2   17   16      0.94      0.00
    3   17   16      0.20      0.00
   -2   18   16     -0.93      0.00
   -1   18   16      2.08      0.00
    0   18   16     -0.40      0.00
    1   18   16      0.00      0.00
    2   18   16     -0.33      0.00
    3   18   16      1.43      0.00
   -1   19   16      0.51      0.00
    0   19   16     -0.17      0.00
    1   19   16     -0.29      0.00
    0   20   16     -0.08      0.00
   -1  -13   17      0.03      0.00
   -1  -12   17      0.44      0.00
    0  -12   17      0.25      0.00
   -2  -11   17      1.15      0.00
   -1  -11   17     -0.64      0.00
    0  -11   17      0.23      0.00
    1  -11   17     -0.13      0.00
   -3  -10   17     -0.92      0.00
   -2  -10   17      0.34      0.00
   -1  -10   17     -1.12      0.00
    0  -10   17      0.62      0.00
    1  -10   17     -0.62      0.00
    2  -10   17     -0.07      0.00
    3  -10   17      0.29      0.00
   -3   -9   17     -0.17      0.00
   -2   -9   17      1.60      0.00
   -1   -9   17     -0.53      0.00
    0   -9   17      0.35      0.00
    1   -9   17     -0.70      0.00
    2   -9   17     -0.70      0.00
    3   -9   17     -0.64      0.00
   -4   -8   17      0.32      0.00
   -3   -8   17     -0.64      0.00
   -2   -8   17      0.79      0.00
   -1   -8   17     -0.54      0.00
    0   -8   17      1.48      0.00
    1   -8   17      1.02      0.00
    2   -8   17     -0.14      0.00
    3   -8   17      0.09      0.00
    4   -8   17      0.10      0.00
   -4   -7   17      0.03      0.00
   -3   -7   17     -0.41      0.00
   -2   -7   17      0.34      0.00
   -1   -7   17     -2.84      0.00
    0   -7   17     -1.54      0.00
    1   -7   17      0.13      0.00
    2   -7   17      0.56      0.00
    3   -7   17      0.53      0.00
    4   -7   17      0.02      0.00
   -4   -6   17     -0.52      0.00
   -3   -6   17     -0.43      0.00
   -2   -6   17      1.48      0.00
   -1   -6   17     -0.95      0.00
    0   -6   17      1.77      0.00
    1   -6   17     -0.48      0.00
    2   -6   17     -0.23      0.00
    3   -6   17     -0.18      0.00
    4   -6   17     -0.60      0.00
    5   -6   17     -0.64      0.00
   -4   -5   17     -0.05      0.00
   -3   -5   17     -0.84      0.00
   -2   -5   17      1.07      0.00
   -1   -5   17     -3.25      0.00
    0   -5   17      2.64      0.00
    1   -5   17      0.44      0.00
    2   -5   17      1.10      0.00
    3   -5   17      0.38      0.00
    4   -5   17      0.40      0.00
    5   -5   17      0.98      0.00
   -4   -4   17      0.09      0.00
   -3   -4   17     -1.39      0.00
   -2   -4   17      2.50      0.00
   -1   -4   17     -3.60      0.00
    0   -4   17      1.10      0.00
    1   -4   17     -0.79      0.00
    2   -4   17     -1.47      0.00
    3   -4   17     -0.22      0.00
    4   -4   17      0.15      0.00
    5   -4   17      0.13      0.00
    6   -4   17     -0.22      0.00
   -5   -3   17      0.18      0.00
   -4   -3   17     -0.12      0.00
   -3   -3   17     -0.25      0.00
   -2   -3   17      2.69      0.00
   -1   -3   17     -1.72      0.00
    0   -3   17      2.99      0.00
    1   -3   17      0.90      0.00
    2   -3   17     -0.09      0.00
    3   -3   17     -0.75      0.00
    4   -3   17     -0.14      0.00
    5   -3   17     -0.52      0.00
    6   -3   17      0.30      0.00
   -5   -2   17      0.34      0.00
   -4   -2   17     -0.13      0.00
   -3   -2   17     -0.83      0.00
   -2   -2   17     -0.11      0.00
   -1   -2   17     -1.01      0.00
    0   -2   17     -0.06      0.00
    1   -2   17      0.96      0.00
    2   -2   17     -1.22      0.00
    3   -2   17      0.21      0.00
    4   -2   17     -0.08      0.00
    5   -2   17      0.15      0.00
    6   -2   17      0.37      0.00
   -5   -1   17     -0.68      0.00
   -4   -1   17      0.75      0.00
   -3   -1   17      0.28      0.00
   -2   -1   17      2.50      0.00
   -1   -1   17     -2.17      0.00
    0   -1   17     -1.02      0.00
    1   -1   17      0.01      0.00
    2   -1   17      0.20      0.00
    3   -1   17     -0.19      0.00
    4   -1   17     -0.27      0.00
    5   -1   17     -0.01      0.00
   -5    0   17      0.21      0.00
   -4    0   17     -0.35      0.00
   -3    0   17     -0.18      0.00
   -2    0   17      0.43      0.00
   -1    0   17     -1.51      0.00
    0    0   17      1.52      0.00
    1    0   17      2.88      0.00
    2    0   17     -0.86      0.00
    3    0   17      1.94      0.00
    4    0   17      0.45      0.00
    5    0   17      0.48      0.00
   -5    1   17      0.23      0.00
   -4    1   17     -0.20      0.00
   -3    1   17     -1.49      0.00
   -2    1   17      0.90      0.00
   -1    1   17     -4.31      0.00
    0    1   17      1.80      0.00
    1    1   17     -0.24      0.00
    2    1   17     -0.41      0.00
    3    1   17     -0.73      0.00
    4    1   17      0.06      0.00
    5    1   17     -0.10      0.00
   -5    2   17      0.03      0.00
   -4    2   17      0.71      0.00
   -3    2   17      1.46      0.00
   -2    2   17      0.57      0.00
   -1    2   17      4.53      0.00
    0    2   17      1.21      0.00
    1    2   17      2.46      0.00
    2    2   17     -0.67      0.00
    3    2   17     -0.76      0.00
    4    2   17     -0.70      0.00
    5    2   17     -0.32      0.00
   -5    3   17     -0.29      0.00
   -4    3   17     -0.91      0.00
   -3    3   17     -1.47      0.00
   -2    3   17     -0.94      0.00
   -1    3   17     -0.02      0.00
    0    3   17     -0.82      0.00
    1    3   17      0.39      0.00
    2    3   17      2.27      0.00
    3    3   17      0.65      0.00
    4    3   17      1.13      0.00
    5    3   17      0.42      0.00
   -5    4   17      0.07      0.00
   -4    4   17      0.72      0.00
   -3    4   17      1.51      0.00
   -2    4   17     -1.11      0.00
   -1    4   17      0.62      0.00
    0    4   17     -1.57      0.00
    1    4   17     -1.72      0.00
    2    4   17     -2.35      0.00
    3    4   17     -1.54      0.00
    4    4   17     -0.96      0.00
    5    4   17     -0.42      0.00
   -5    5   17      0.04      0.00
   -4    5   17      0.02      0.00
   -3    5   17     -0.46      0.00
   -2    5   17      0.71      0.00
   -1    5   17      1.16      0.00
    0    5   17      0.32      0.00
    1    5   17      1.57      0.00
    2    5   17      1.78      0.00
    3    5   17      0.64      0.00
    4    5   17      0.42      0.00
    5    5   17     -0.10      0.00
   -5    6   17     -0.02      0.00
   -4    6   17      0.44      0.00
   -3    6   17      1.01      0.00
   -2    6   17     -1.23      0.00
   -1    6   17     -0.24      0.00
    0    6   17     -1.33      0.00
    1    6   17     -1.54      0.00
    2    6   17     -2.70      0.00
    3    6   17     -0.52      0.00
    4    6   17     -0.21      0.00
   -5    7   17     -0.37      0.00
   -4    7   17     -0.74      0.00
   -3    7   17     -0.52      0.00
   -2    7   17     -0.68      0.00
   -1    7   17      1.50      0.00
    0    7   17     -0.33      0.00
    1    7   17      0.93      0.00
    2    7   17      1.13      0.00
    3    7   17     -0.33      0.00
    4    7   17     -1.13      0.00
   -5    8   17      0.08      0.00
   -4    8   17      0.22      0.00
   -3    8   17      0.60      0.00
   -2    8   17     -0.89      0.00
   -1    8   17      0.96      0.00
    0    8   17     -1.66      0.00
    1    8   17     -1.94      0.00
    2    8   17      0.61      0.00
    3    8   17      1.07      0.00
    4    8   17      1.18      0.00
   -4    9   17     -0.92      0.00
   -3    9   17      1.03      0.00
   -2    9   17     -3.29      0.00
   -1    9   17      2.47      0.00
    0    9   17     -2.87      0.00
    1    9   17     -2.28      0.00
    2    9   17     -1.47      0.00
    3    9   17     -2.56      0.00
    4    9   17     -0.98      0.00
   -4   10   17      0.57      0.00
   -3   10   17      0.93      0.00
   -2   10   17     -0.27      0.00
   -1   10   17      2.44      0.00
    0   10   17      2.33      0.00
    1   10   17      1.69      0.00
    2   10   17      1.88      0.00
    3   10   17      1.47      0.00
    4   10   17      0.00      0.00
   -4   11   17     -0.88      0.00
   -3   11   17      0.02      0.00
   -2   11   17     -1.37      0.00
   -1   11   17      0.43      0.00
    0   11   17     -2.19      0.00
    1   11   17     -1.51      0.00
    2   11   17     -0.06      0.00
    3   11   17      0.90      0.00
    4   11   17      1.04      0.00
   -4   12   17      0.36      0.00
   -3   12   17     -0.02      0.00
   -2   12   17     -0.48      0.00
   -1   12   17      1.45      0.00
    0   12   17      0.19      0.00
    1   12   17      0.63      0.00
    2   12   17      0.04      0.00
    3   12   17     -0.58      0.00
    4   12   17     -0.47      0.00
   -4   13   17      0.36      0.00
   -3   13   17      0.87      0.00
   -2   13   17      0.01      0.00
   -1   13   17      2.97      0.00
    0   13   17     -1.00      0.00
    1   13   17     -0.48      0.00
    2   13   17      0.43      0.00
    3   13   17      0.44      0.00
   -3   14   17      0.06      0.00
   -2   14   17     -0.87      0.00
   -1   14   17     -0.72      0.00
    0   14   17     -1.80      0.00
    1   14   17     -0.08      0.00
    2   14   17     -0.50      0.00
    3   14   17     -0.47      0.00
   -3   15   17      0.20      0.00
   -2   15   17      0.85      0.00
   -1   15   17      0.98      0.00
    0   15   17      0.34      0.00
    1   15   17     -0.66      0.00
    2   15   17      0.80      0.00
    3   15   17      0.48      0.00
   -3   16   17      0.43      0.00
   -2   16   17     -1.08      0.00
   -1   16   17      0.02      0.00
    0   16   17     -0.02      0.00
    1   16   17      0.72      0.00
    2   16   17     -0.27      0.00
    3   16   17      0.26      0.00
    4   16   17      0.91      0.00
   -2   17   17     -0.79      0.00
   -1   17   17      0.40      0.00
    0   17   17      0.04      0.00
    1   17   17     -0.64      0.00
    2   17   17     -0.18      0.00
    3   17   17      0.25      0.00
   -2   18   17      0.30      0.00
   -1   18   17      0.28      0.00
    0   18   17      0.64      0.00
    1   18   17      0.57      0.00
    0   19   17     -0.48      0.00
   -1  -12   18     -1.07      0.00
   -2  -11   18      1.64      0.00
   -1  -11   18     -1.20      0.00
    0  -11   18     -0.01      0.00
   -2  -10   18      0.59      0.00
    1  -10   18     -0.08      0.00
    2  -10   18      0.04      0.00
   -2   -9   18      0.01      0.00
   -1   -9   18     -0.66      0.00
    0   -9   18     -0.36      0.00
    1   -9   18     -0.11      0.00
    2   -9   18     -0.37      0.00
    3   -9   18     -0.50      0.00
   -3   -8   18     -0.05      0.00
   -2   -8   18      0.36      0.00
   -1   -8   18     -0.60      0.00
    0   -8   18      0.86      0.00
    1   -8   18      0.55      0.00
    2   -8   18      0.04      0.00
    3   -8   18      0.30      0.00
   -3   -7   18     -0.32      0.00
   -2   -7   18     -0.18      0.00
   -1   -7   18     -1.85      0.00
    0   -7   18      0.04      0.00
    1   -7   18      0.55      0.00
    2   -7   18      0.81      0.00
    3   -7   18      0.50      0.00
    4   -7   18      0.15      0.00
   -4   -6   18     -0.30      0.00
   -3   -6   18     -0.41      0.00
   -2   -6   18      0.74      0.00
   -1   -6   18     -0.73      0.00
    0   -6   18      0.99      0.00
    1   -6   18     -1.09      0.00
    2   -6   18     -1.20      0.00
    3   -6   18     -0.13      0.00
    4   -6   18     -0.39      0.00
   -4   -5   18      0.27      0.00
   -3   -5   18      0.37      0.00
   -2   -5   18      1.28      0.00
   -1   -5   18      0.12      0.00
    0   -5   18      2.02      0.00
    1   -5   18      1.56      0.00
    2   -5   18      0.49      0.00
    3   -5   18     -0.54      0.00
    4   -5   18      0.39      0.00
    5   -5   18      0.88      0.00
   -4   -4   18     -0.07      0.00
   -3   -4   18     -0.18      0.00
   -2   -4   18     -1.08      0.00
   -1   -4   18     -0.07      0.00
    0   -4   18     -1.37      0.00
    1   -4   18     -0.27      0.00
    2   -4   18     -0.91      0.00
    3   -4   18      0.44      0.00
    4   -4   18      0.64      0.00
    5   -4   18      0.01      0.00
   -4   -3   18      0.01      0.00
   -3   -3   18      1.27      0.00
   -2   -3   18      0.24      0.00
   -1   -3   18      2.31      0.00
    0   -3   18     -0.28      0.00
    1   -3   18      0.19      0.00
    2   -3   18     -0.70      0.00
    3   -3   18     -1.25      0.00
    4   -3   18     -0.73      0.00
    5   -3   18     -0.62      0.00
   -5   -2   18     -0.17      0.00
   -4   -2   18     -0.12      0.00
   -3   -2   18      0.00      0.00
   -2   -2   18     -1.85      0.00
   -1   -2   18      1.99      0.00
    0   -2   18     -1.19      0.00
    1   -2   18      1.66      0.00
    2   -2   18      0.40      0.00
    3   -2   18      0.96      0.00
    4   -2   18      0.24      0.00
    5   -2   18      0.59      0.00
   -5   -1   18     -0.19      0.00
   -4   -1   18      0.20      0.00
   -3   -1   18      1.23      0.00
   -2   -1   18     -0.48      0.00
   -1   -1   18     -1.29      0.00
    0   -1   18     -1.57      0.00
    1   -1   18     -0.64      0.00
    2   -1   18     -0.34      0.00
    3   -1   18      0.02      0.00
    4   -1   18      0.37      0.00
    5   -1   18      0.14      0.00
   -5    0   18      0.07      0.00
   -4    0   18     -0.37      0.00
   -3    0   18      0.36      0.00
   -2    0   18     -1.32      0.00
   -1    0   18      2.92      0.00
    0    0   18      2.08      0.00
    1    0   18      1.97      0.00
    2    0   18      0.36      0.00
    3    0   18     -0.14      0.00
    4    0   18     -0.27      0.00
    5    0   18     -0.23      0.00
   -5    1   18      0.03      0.00
   -4    1   18     -0.23      0.00
   -3    1   18     -0.48      0.00
   -2    1   18     -2.53      0.00
   -1    1   18      1.23      0.00
    0    1   18     -2.61      0.00
    1    1   18     -1.59      0.00
    2    1   18      1.06      0.00
    3    1   18      0.44      0.00
    4    1   18      1.19      0.00
    5    1   18      0.52      0.00
   -5    2   18     -0.59      0.00
   -4    2   18      0.42      0.00
   -3    2   18      1.36      0.00
   -2    2   18     -0.98      0.00
   -1    2   18      4.28      0.00
    0    2   18     -1.49      0.00
    1    2   18     -2.25      0.00
    2    2   18     -1.29      0.00
    3    2   18     -2.40      0.00
    4    2   18     -1.40      0.00
    5    2   18     -0.57      0.00
   -5    3   18      0.18      0.00
   -4    3   18     -0.30      0.00
   -3    3   18      0.21      0.00
   -2    3   18     -1.87      0.00
   -1    3   18      0.97      0.00
    0    3   18     -0.72      0.00
    1    3   18      1.01      0.00
    2    3   18      3.31      0.00
    3    3   18      1.15      0.00
    4    3   18      1.25      0.00
    5    3   18      0.54      0.00
   -5    4   18     -0.34      0.00
   -4    4   18     -0.12      0.00
   -3    4   18      0.24      0.00
   -2    4   18     -0.68      0.00
   -1    4   18     -0.39      0.00
    0    4   18     -0.56      0.00
    1    4   18     -2.35      0.00
    2    4   18     -1.74      0.00
    3    4   18     -1.02      0.00
    4    4   18     -0.59      0.00
   -5    5   18      0.82      0.00
   -4    5   18     -0.02      0.00
   -3    5   18      1.16      0.00
   -2    5   18     -1.06      0.00
   -1    5   18      2.47      0.00
    0    5   18     -1.86      0.00
    1    5   18      0.30      0.00
    2    5   18      0.95      0.00
    3    5   18      0.14      0.00
    4    5   18     -0.38      0.00
   -5    6   18     -0.75      0.00
   -4    6   18      0.04      0.00
   -3    6   18      0.44      0.00
   -2    6   18     -0.27      0.00
   -1    6   18      1.25      0.00
    0    6   18      0.40      0.00
    1    6   18     -0.87      0.00
    2    6   18     -0.59      0.00
    3    6   18      0.50      0.00
    4    6   18      0.32      0.00
   -4    7   18     -0.74      0.00
   -3    7   18      0.32      0.00
   -2    7   18     -2.55      0.00
   -1    7   18      1.11      0.00
    0    7   18     -3.11      0.00
    1    7   18     -0.87      0.00
    2    7   18      0.40      0.00
    3    7   18     -0.98      0.00
    4    7   18     -0.90      0.00
   -4    8   18      0.17      0.00
   -3    8   18      0.44      0.00
   -2    8   18      0.12      0.00
   -1    8   18      2.09      0.00
    0    8   18      1.41      0.00
    1    8   18     -0.49      0.00
    2    8   18      1.53      0.00
    3    8   18      1.96      0.00
    4    8   18      1.95      0.00
   -4    9   18     -0.53      0.00
   -3    9   18      0.37      0.00
   -2    9   18     -1.40      0.00
   -1    9   18     -0.89      0.00
    0    9   18     -1.64      0.00
    1    9   18     -1.60      0.00
    2    9   18     -1.17      0.00
    3    9   18     -1.74      0.00
   -4   10   18      1.03      0.00
   -3   10   18     -0.21      0.00
   -2   10   18      1.08      0.00
   -1   10   18      0.08      0.00
    0   10   18      2.18      0.00
    1   10   18      1.69      0.00
    2   10   18      0.22      0.00
    3   10   18      0.72      0.00
   -4   11   18     -0.36      0.00
   -3   11   18      0.04      0.00
   -2   11   18      1.09      0.00
   -1   11   18      0.70      0.00
    0   11   18     -0.38      0.00
    1   11   18      0.13      0.00
    2   11   18      1.60      0.00
    3   11   18      0.89      0.00
   -4   12   18      0.73      0.00
   -3   12   18     -0.36      0.00
   -2   12   18     -1.12      0.00
   -1   12   18     -0.45      0.00
    0   12   18     -0.87      0.00
    1   12   18     -0.33      0.00
    2   12   18     -0.97      0.00
    3   12   18     -0.80      0.00
   -3   13   18      0.41      0.00
   -2   13   18      1.58      0.00
   -1   13   18      0.50      0.00
    0   13   18      0.33      0.00
    1   13   18      0.63      0.00
    2   13   18     -0.08      0.00
    3   13   18      0.07      0.00
   -3   14   18     -0.39      0.00
   -2   14   18      0.09      0.00
   -1   14   18     -1.83      0.00
    0   14   18     -0.38      0.00
    1   14   18     -0.14      0.00
    2   14   18     -0.16      0.00
   -3   15   18     -0.07      0.00
   -2   15   18      0.52      0.00
   -1   15   18     -0.84      0.00
    0   15   18      0.84      0.00
    1   15   18     -0.35      0.00
    2   15   18     -0.22      0.00
   -2   16   18     -0.46      0.00
   -1   16   18     -0.19      0.00
    0   16   18      1.41      0.00
    1   16   18      1.08      0.00
   -1   17   18     -0.77      0.00
    0   17   18      0.15      0.00
    2   17   18     -0.84      0.00
   -2  -10   19     -0.28      0.00
    0   -9   19     -0.54      0.00
    1   -9   19      0.02      0.00
   -1   -8   19      0.58      0.00
    0   -8   19     -0.07      0.00
    1   -8   19      0.18      0.00
    2   -8   19     -0.49      0.00
    3   -8   19      0.24      0.00
   -2   -7   19     -0.51      0.00
   -1   -7   19      1.17      0.00
    0   -7   19      0.33      0.00
    1   -7   19      1.10      0.00
    2   -7   19      0.59      0.00
    3   -7   19     -0.10      0.00
   -2   -6   19     -0.71      0.00
   -1   -6   19      0.87      0.00
    0   -6   19     -1.29      0.00
    1   -6   19     -0.97      0.00
    2   -6   19     -0.38      0.00
    3   -6   19      0.05      0.00
    4   -6   19      0.28      0.00
   -3   -5   19      1.26      0.00
   -2   -5   19     -0.43      0.00
   -1   -5   19      2.93      0.00
    0   -5   19     -0.13      0.00
    1   -5   19      0.46      0.00
    2   -5   19      0.31      0.00
    3   -5   19     -0.72      0.00
    4   -5   19     -0.19      0.00
   -3   -4   19      0.58      0.00
   -2   -4   19     -2.12      0.00
   -1   -4   19      1.89      0.00
    0   -4   19     -1.23      0.00
    1   -4   19     -0.35      0.00
    2   -4   19      0.12      0.00
    3   -4   19      0.69      0.00
    4   -4   19      0.54      0.00
    5   -4   19      0.28      0.00
   -4   -3   19     -0.09      0.00
   -3   -3   19      0.37      0.00
   -2   -3   19     -0.85      0.00
   -1   -3   19      1.02      0.00
    0   -3   19     -1.99      0.00
    1   -3   19     -0.87      0.00
    2   -3   19     -0.44      0.00
    3   -3   19     -0.29      0.00
    4   -3   19     -0.46      0.00
    5   -3   19     -0.42      0.00
   -4   -2   19     -0.13      0.00
   -3   -2   19      0.30      0.00
   -2   -2   19     -0.93      0.00
   -1   -2   19      1.55      0.00
    0   -2   19      0.99      0.00
    1   -2   19      0.65      0.00
    2   -2   19      0.46      0.00
    3   -2   19     -0.03      0.00
    4   -2   19      0.17      0.00
    5   -2   19      0.39      0.00
   -4   -1   19     -0.04      0.00
   -3   -1   19      0.29      0.00
   -2   -1   19     -1.97      0.00
   -1   -1   19     -0.81      0.00
    0   -1   19     -1.67      0.00
    1   -1   19     -0.66      0.00
    2   -1   19      0.65      0.00
    3   -1   19      0.17      0.00
    4   -1   19      0.27      0.00
    5   -1   19     -0.06      0.00
   -4    0   19      0.40      0.00
   -3    0   19      0.06      0.00
   -2    0   19     -0.15      0.00
   -1    0   19      2.51      0.00
    0    0   19      0.08      0.00
    1    0   19     -2.38      0.00
    2    0   19      0.32      0.00
    3    0   19     -0.36      0.00
    4    0   19     -0.64      0.00
    5    0   19     -0.67      0.00
   -4    1   19     -0.47      0.00
   -3    1   19     -0.04      0.00
   -2    1   19     -1.02      0.00
   -1    1   19      1.26      0.00
    0    1   19     -1.55      0.00
    1    1   19     -0.48      0.00
    2    1   19      0.59      0.00
    3    1   19      0.83      0.00
    4    1   19      1.13      0.00
    5    1   19      0.78      0.00
   -4    2   19      0.31      0.00
   -3    2   19     -0.50      0.00
   -2    2   19      0.15      0.00
   -1    2   19     -1.55      0.00
    0    2   19      0.33      0.00
    1    2   19     -2.48      0.00
    2    2   19     -0.30      0.00
    3    2   19     -1.14      0.00
    4    2   19     -0.90      0.00
   -4    3   19     -0.01      0.00
   -3    3   19      1.45      0.00
   -2    3   19      0.65      0.00
   -1    3   19      0.59      0.00
    0    3   19      0.58      0.00
    1    3   19      2.45      0.00
    2    3   19      0.96      0.00
    3    3   19     -0.27      0.00
    4    3   19      0.14      0.00
   -4    4   19     -0.69      0.00
   -3    4   19     -1.28      0.00
   -2    4   19      0.64      0.00
   -1    4   19     -0.84      0.00
    0    4   19      0.85      0.00
    1    4   19     -0.60      0.00
    2    4   19      0.15      0.00
    3    4   19      1.59      0.00
    4    4   19      0.31      0.00
   -4    5   19      0.28      0.00
   -3    5   19      1.22      0.00
   -2    5   19     -0.82      0.00
   -1    5   19      0.54      0.00
    0    5   19     -2.16      0.00
    1    5   19     -0.53      0.00
    2    5   19     -1.43      0.00
    3    5   19     -0.92      0.00
    4    5   19     -0.82      0.00
   -4    6   19      0.28      0.00
   -3    6   19     -0.67      0.00
   -2    6   19      1.45      0.00
   -1    6   19      0.04      0.00
    0    6   19      2.29      0.00
    1    6   19      1.44      0.00
    2    6   19      0.93      0.00
    3    6   19      0.83      0.00
    4    6   19      0.33      0.00
   -4    7   19     -0.39      0.00
   -3    7   19     -0.03      0.00
   -2    7   19     -0.76      0.00
   -1    7   19     -1.58      0.00
    0    7   19     -1.66      0.00
    1    7   19     -1.15      0.00
    2    7   19     -0.37      0.00
    3    7   19      0.01      0.00
   -4    8   19      0.17      0.00
   -3    8   19     -1.17      0.00
   -2    8   19      1.62      0.00
   -1    8   19     -1.17      0.00
    0    8   19      2.99      0.00
    1    8   19      0.82      0.00
    2    8   19      0.59      0.00
    3    8   19      0.93      0.00
   -4    9   19      0.46      0.00
   -3    9   19     -0.13      0.00
   -2    9   19      1.56      0.00
   -1    9   19     -2.39      0.00
    0    9   19     -0.17      0.00
    1    9   19      0.31      0.00
    2    9   19     -0.04      0.00
   -4   10   19      0.16      0.00
   -3   10   19     -0.67      0.00
   -2   10   19      0.21      0.00
   -1   10   19     -0.50      0.00
    0   10   19      0.52      0.00
    1   10   19      0.91      0.00
    2   10   19     -0.37      0.00
   -3   11   19      0.06      0.00
   -2   11   19      1.66      0.00
   -1   11   19      0.58      0.00
    0   11   19      0.70      0.00
    1   11   19      1.01      0.00
   -3   12   19     -0.05      0.00
   -2   12   19     -0.62      0.00
   -1   12   19     -2.04      0.00
    0   12   19     -0.79      0.00
    1   12   19     -0.22      0.00
    2   12   19     -1.79      0.00
   -3   13   19     -0.68      0.00
   -2   13   19      1.20      0.00
   -1   13   19     -0.59      0.00
    0   13   19      0.49      0.00
    1   13   19      0.09      0.00
    2   13   19     -0.23      0.00
   -3   14   19      0.06      0.00
   -2   14   19      0.17      0.00
   -1   14   19     -0.85      0.00
    0   14   19      0.96      0.00
    1   14   19     -0.02      0.00
   -2   15   19     -0.17      0.00
   -1   15   19     -1.31      0.00
    0   15   19     -0.08      0.00
    0   -8   20     -0.56      0.00
    1   -8   20      0.34      0.00
   -1   -7   20      1.00      0.00
    0   -7   20      0.13      0.00
    1   -7   20      0.26      0.00
    2   -7   20      0.99      0.00
   -1   -6   20     -0.02      0.00
    0   -6   20     -0.95      0.00
    1   -6   20     -1.04      0.00
    2   -6   20      0.45      0.00
    3   -6   20      0.50      0.00
   -2   -5   20     -0.11      0.00
   -1   -5   20      0.46      0.00
    0   -5   20     -0.16      0.00
    1   -5   20     -0.72      0.00
    2   -5   20     -0.55      0.00
    3   -5   20     -0.34      0.00
    4   -5   20     -0.81      0.00
   -2   -4   20      0.43      0.00
   -1   -4   20      0.04      0.00
    0   -4   20      0.99      0.00
    1   -4   20      0.14      0.00
    2   -4   20      0.31      0.00
    3   -4   20      0.22      0.00
    4   -4   20      0.20      0.00
    5   -4   20      0.39      0.00
   -2   -3   20     -0.47      0.00
   -1   -3   20     -2.06      0.00
    0   -3   20     -1.25      0.00
    1   -3   20     -0.50      0.00
    2   -3   20     -0.25      0.00
    3   -3   20      0.72      0.00
    4   -3   20      0.40      0.00
    5   -3   20     -0.45      0.00
   -3   -2   20     -0.17      0.00
   -2   -2   20      0.85      0.00
   -1   -2   20      0.21      0.00
    0   -2   20      1.28      0.00
    1   -2   20     -0.56      0.00
    2   -2   20     -0.15      0.00
    3   -2   20     -1.10      0.00
    4   -2   20     -0.61      0.00
    5   -2   20     -0.07      0.00
   -3   -1   20     -0.26      0.00
   -2   -1   20     -0.55      0.00
   -1   -1   20     -0.96      0.00
    0   -1   20     -0.77      0.00
    1   -1   20      0.13      0.00
    2   -1   20      1.08      0.00
    3   -1   20      1.00      0.00
    4   -1   20      0.06      0.00
   -3    0   20     -0.21      0.00
   -2    0   20      2.36      0.00
   -1    0   20     -1.26      0.00
    0    0   20      0.04      0.00
    1    0   20     -2.76      0.00
    2    0   20     -0.89      0.00
    3    0   20      0.29      0.00
    4    0   20     -0.03      0.00
   -3    1   20     -0.32      0.00
   -2    1   20      1.11      0.00
   -1    1   20     -0.33      0.00
    0    1   20      1.82      0.00
    1    1   20      3.01      0.00
    2    1   20      0.00      0.00
    3    1   20     -0.43      0.00
    4    1   20      0.00      0.00
   -3    2   20     -0.78      0.00
   -2    2   20      0.62      0.00
   -1    2   20     -3.18      0.00
    0    2   20      0.64      0.00
    1    2   20     -0.46      0.00
    2    2   20      0.64      0.00
    3    2   20      0.59      0.00
    4    2   20      0.27      0.00
   -3    3   20      1.28      0.00
   -2    3   20      1.46      0.00
   -1    3   20      1.13      0.00
    0    3   20      0.09      0.00
    1    3   20      1.87      0.00
    2    3   20     -1.33      0.00
    3    3   20     -1.23      0.00
    4    3   20     -0.90      0.00
   -3    4   20     -1.49      0.00
   -2    4   20      0.48      0.00
   -1    4   20     -0.70      0.00
    0    4   20      1.62      0.00
    1    4   20      0.60      0.00
    2    4   20      0.59      0.00
    3    4   20      2.56      0.00
    4    4   20      0.96      0.00
   -3    5   20      0.22      0.00
   -2    5   20      0.01      0.00
   -1    5   20     -1.90      0.00
    0    5   20     -1.15      0.00
    1    5   20     -0.04      0.00
    2    5   20     -1.68      0.00
    3    5   20     -1.56      0.00
   -3    6   20     -0.58      0.00
   -2    6   20      1.25      0.00
   -1    6   20     -0.53      0.00
    0    6   20      1.31      0.00
    1    6   20      0.67      0.00
    2    6   20      0.26      0.00
    3    6   20      0.22      0.00
   -3    7   20     -0.38      0.00
   -2    7   20      1.11      0.00
   -1    7   20     -1.73      0.00
    0    7   20      0.81      0.00
    1    7   20      0.14      0.00
    2    7   20      0.50      0.00
    3    7   20      0.77      0.00
   -4    8   20      0.11      0.00
   -3    8   20     -1.17      0.00
   -2    8   20      0.19      0.00
   -1    8   20     -1.46      0.00
    0    8   20      0.33      0.00
    1    8   20     -0.16      0.00
    2    8   20     -0.53      0.00
    3    8   20     -1.16      0.00
   -3    9   20      0.60      0.00
   -2    9   20      0.75      0.00
   -1    9   20      0.31      0.00
    0    9   20      0.00      0.00
    1    9   20      1.41      0.00
    2    9   20      1.26      0.00
   -3   10   20     -0.18      0.00
   -2   10   20     -1.29      0.00
   -1   10   20      0.60      0.00
    0   10   20     -0.77      0.00
    1   10   20      0.07      0.00
    2   10   20     -0.68      0.00
   -3   11   20      0.21      0.00
   -2   11   20      0.87      0.00
   -1   11   20      0.20      0.00
    0   11   20      0.85      0.00
    1   11   20      0.60      0.00
   -3   12   20      0.17      0.00
   -2   12   20     -0.15      0.00
   -1   12   20     -0.52      0.00
    0   12   20     -0.36      0.00
    1   12   20     -0.52      0.00
   -2   13   20     -0.87      0.00
   -1   13   20     -0.01      0.00
    0   13   20     -0.28      0.00
   -2   14   20      0.10      0.00
   -1   14   20      0.23      0.00
    1   -7   21     -0.80      0.00
    0   -6   21      0.70      0.00
    1   -6   21     -0.10      0.00
    2   -6   21     -0.16      0.00
   -1   -5   21     -1.74      0.00
    0   -5   21     -0.18      0.00
    1   -5   21     -0.43      0.00
    2   -5   21     -0.82      0.00
    3   -5   21      0.08      0.00
   -1   -4   21      0.43      0.00
    0   -4   21      1.57      0.00
    1   -4   21      0.50      0.00
    2   -4   21      0.01      0.00
    3   -4   21     -0.23      0.00
    4   -4   21      0.41      0.00
   -2   -3   21     -0.76      0.00
   -1   -3   21     -1.71      0.00
    0   -3   21     -0.74      0.00
    1   -3   21      0.74      0.00
    2   -3   21      0.04      0.00
    3   -3   21      0.86      0.00
    4   -3   21      0.78      0.00
   -2   -2   21      1.10      0.00
   -1   -2   21     -0.10      0.00
    0   -2   21     -0.12      0.00
    1   -2   21     -1.09      0.00
    2   -2   21     -0.18      0.00
    3   -2   21     -0.76      0.00
    4   -2   21     -0.90      0.00
   -2   -1   21      1.00      0.00
   -1   -1   21     -0.72      0.00
    0   -1   21      1.38      0.00
    1   -1   21      1.75      0.00
    2   -1   21      0.30      0.00
    3   -1   21      0.41      0.00
    4   -1   21      0.23      0.00
   -2    0   21      1.50      0.00
   -1    0   21     -1.89      0.00
    0    0   21     -0.19      0.00
    1    0   21     -0.38      0.00
    2    0   21     -0.26      0.00
    3    0   21      0.38      0.00
    4    0   21      0.20      0.00
   -3    1   21      0.10      0.00
   -2    1   21     -0.15      0.00
   -1    1   21      0.72      0.00
    0    1   21      1.57      0.00
    1    1   21      2.43      0.00
    2    1   21     -0.21      0.00
    3    1   21     -1.26      0.00
    4    1   21     -0.69      0.00
   -3    2   21      0.10      0.00
   -2    2   21     -0.67      0.00
   -1    2   21     -0.07      0.00
    0    2   21     -0.39      0.00
    1    2   21     -0.13      0.00
    2    2   21      0.60      0.00
    3    2   21      1.41      0.00
    4    2   21      1.14      0.00
   -3    3   21      0.05      0.00
   -2    3   21      0.00      0.00
   -1    3   21      0.07      0.00
    0    3   21     -0.34      0.00
    1    3   21     -0.03      0.00
    2    3   21     -1.69      0.00
    3    3   21     -0.55      0.00
    4    3   21     -0.75      0.00
   -3    4   21     -0.24      0.00
   -2    4   21      0.05      0.00
   -1    4   21      0.30      0.00
    0    4   21      0.96      0.00
    1    4   21      0.70      0.00
    2    4   21     -0.08      0.00
    3    4   21      0.23      0.00
   -3    5   21     -0.40      0.00
   -2    5   21     -0.12      0.00
   -1    5   21     -1.19      0.00
    0    5   21     -0.83      0.00
    1    5   21     -0.03      0.00
    2    5   21      0.52      0.00
    3    5   21     -0.32      0.00
   -3    6   21      0.67      0.00
   -2    6   21     -0.33      0.00
   -1    6   21      0.34      0.00
    0    6   21     -1.01      0.00
    1    6   21     -1.91      0.00
    2    6   21     -1.15      0.00
    3    6   21     -0.93      0.00
   -3    7   21     -0.28      0.00
   -2    7   21      0.74      0.00
   -1    7   21      0.49      0.00
    0    7   21      1.62      0.00
    1    7   21      1.33      0.00
    2    7   21      1.91      0.00
    3    7   21      0.77      0.00
   -3    8   21      0.07      0.00
   -2    8   21     -2.24      0.00
   -1    8   21      0.66      0.00
    0    8   21     -1.79      0.00
    1    8   21     -1.24      0.00
    2    8   21     -1.05      0.00
   -3    9   21      0.78      0.00
   -2    9   21     -0.32      0.00
   -1    9   21      1.43      0.00
    0    9   21     -0.21      0.00
    1    9   21      1.19      0.00
    2    9   21      0.65      0.00
   -2   10   21     -0.38      0.00
   -1   10   21      0.94      0.00
    0   10   21      0.35      0.00
    1   10   21     -0.42      0.00
   -2   11   21     -0.06      0.00
   -1   11   21     -0.18      0.00
    0   11   21      0.41      0.00
    1   11   21     -0.50      0.00
   -2   12   21     -0.03      0.00
   -1   12   21      0.98      0.00
    0   12   21     -0.37      0.00
   -2   13   21     -1.27      0.00
   -1   13   21     -0.26      0.00
    0   -5   22     -0.73      0.00
    1   -5   22     -0.07      0.00
    2   -5   22     -0.19      0.00
   -1   -4   22      2.00      0.00
    0   -4   22      0.39      0.00
    1   -4   22      0.32      0.00
    2   -4   22     -0.17      0.00
    3   -4   22     -0.71      0.00
   -1   -3   22     -0.51      0.00
    0   -3   22     -0.11      0.00
    1   -3   22      1.41      0.00
    2   -3   22      0.60      0.00
    3   -3   22      0.26      0.00
    4   -3   22      0.14      0.00
   -1   -2   22     -0.42      0.00
    0   -2   22     -0.73      0.00
    1   -2   22     -0.94      0.00
    2   -2   22      0.35      0.00
    3   -2   22      0.22      0.00
    4   -2   22     -0.38      0.00
   -2   -1   22      0.60      0.00
   -1   -1   22      0.35      0.00
    0   -1   22      1.45      0.00
    1   -1   22      1.35      0.00
    2   -1   22     -0.48      0.00
    3   -1   22     -1.11      0.00
    4   -1   22     -0.11      0.00
   -2    0   22     -1.32      0.00
   -1    0   22      0.53      0.00
    0    0   22     -0.87      0.00
    1    0   22      0.05      0.00
    2    0   22      1.14      0.00
    3    0   22      1.08      0.00
   -2    1   22     -1.43      0.00
   -1    1   22      1.02      0.00
    0    1   22     -0.21      0.00
    1    1   22     -0.83      0.00
    2    1   22     -1.05      0.00
    3    1   22     -1.05      0.00
   -2    2   22     -0.66      0.00
   -1    2   22      1.75      0.00
    0    2   22      0.00      0.00
    1    2   22      0.33      0.00
    2    2   22      0.31      0.00
    3    2   22      1.01      0.00
   -2    3   22     -0.45      0.00
   -1    3   22     -1.59      0.00
    0    3   22     -0.85      0.00
    1    3   22     -0.70      0.00
    2    3   22     -0.67      0.00
    3    3   22      0.08      0.00
   -2    4   22      0.08      0.00
   -1    4   22      2.22      0.00
    0    4   22     -0.22      0.00
    1    4   22     -0.21      0.00
    2    4   22      0.15      0.00
    3    4   22     -1.70      0.00
   -2    5   22     -0.38      0.00
   -1    5   22     -0.34      0.00
    0    5   22     -0.23      0.00
    1    5   22     -0.51      0.00
    2    5   22      1.79      0.00
    3    5   22      1.33      0.00
   -2    6   22     -0.70      0.00
   -1    6   22      0.30      0.00
    0    6   22     -1.49      0.00
    1    6   22     -2.24      0.00
    2    6   22     -1.47      0.00
   -2    7   22     -0.58      0.00
   -1    7   22      1.42      0.00
    0    7   22      1.54      0.00
    1    7   22      1.62      0.00
    2    7   22      1.52      0.00
   -2    8   22     -1.14      0.00
   -1    8   22      0.76      0.00
    0    8   22     -0.77      0.00
    1    8   22     -0.67      0.00
    2    8   22     -1.03      0.00
   -2    9   22      0.54      0.00
   -1    9   22     -0.22      0.00
    0    9   22     -0.23      0.00
    1    9   22      0.00      0.00
   -2   10   22      0.62      0.00
   -1   10   22      0.44      0.00
    0   10   22      1.50      0.00
    1   10   22     -0.27      0.00
   -2   11   22     -0.59      0.00
   -1   11   22     -0.41      0.00
    0   11   22     -0.82      0.00
   -2   12   22      0.35      0.00
    1   -4   23     -0.08      0.00
    0   -3   23      1.01      0.00
    1   -3   23      1.01      0.00
    2   -3   23      0.49      0.00
    3   -3   23      0.16      0.00
    0   -2   23     -1.11      0.00
    1   -2   23     -0.92      0.00
    2   -2   23      0.44      0.00
    3   -2   23      0.76      0.00
   -1   -1   23      1.15      0.00
    0   -1   23      0.22      0.00
    1   -1   23     -0.61      0.00
    2   -1   23     -0.86      0.00
    3   -1   23     -1.46      0.00
   -1    0   23      1.12      0.00
    0    0   23     -0.24      0.00
    1    0   23      0.07      0.00
    2    0   23      0.99      0.00
    3    0   23      1.20      0.00
   -1    1   23     -0.43      0.00
    0    1   23     -0.83      0.00
    1    1   23     -1.27      0.00
    2    1   23     -1.00      0.00
    3    1   23     -0.67      0.00
   -2    2   23      0.49      0.00
   -1    2   23      1.18      0.00
    0    2   23      0.39      0.00
    1    2   23      0.88      0.00
    2    2   23      0.03      0.00
    3    2   23      0.20      0.00
   -2    3   23      0.23      0.00
   -1    3   23     -1.42      0.00
    0    3   23     -0.67      0.00
    1    3   23     -0.56      0.00
    2    3   23      0.54      0.00
    3    3   23      0.38      0.00
   -2    4   23      0.23      0.00
   -1    4   23      1.58      0.00
    0    4   23     -0.08      0.00
    1    4   23     -1.22      0.00
    2    4   23      0.57      0.00
   -2    5   23      0.21      0.00
   -1    5   23     -1.01      0.00
    0    5   23      0.75      0.00
    1    5   23      0.41      0.00
    2    5   23      0.73      0.00
   -2    6   23     -0.17      0.00
   -1    6   23      0.04      0.00
    0    6   23     -0.49      0.00
    1    6   23     -0.50      0.00
    2    6   23     -0.86      0.00
   -2    7   23     -0.96      0.00
   -1    7   23      0.26      0.00
    0    7   23      1.16      0.00
    1    7   23      1.02      0.00
   -2    8   23      1.67      0.00
   -1    8   23     -0.12      0.00
    0    8   23      0.27      0.00
    1    8   23      0.33      0.00
   -2    9   23      0.16      0.00
   -1    9   23     -0.97      0.00
    0    9   23     -0.76      0.00
   -2   10   23      0.20      0.00
   -1   10   23      0.09      0.00
    0   10   23      0.62      0.00
   -2   11   23     -0.22      0.00
    1   -2   24     -0.73      0.00
    2   -2   24      0.37      0.00
    3   -2   24      0.44      0.00
    0   -1   24      0.03      0.00
    1   -1   24     -1.00      0.00
    2   -1   24     -0.69      0.00
    3   -1   24     -0.82      0.00
    0    0   24      0.41      0.00
    1    0   24      0.92      0.00
    2    0   24      0.03      0.00
    3    0   24      0.32      0.00
   -1    1   24     -1.04      0.00
    0    1   24     -0.37      0.00
    1    1   24      0.02      0.00
    2    1   24     -0.06      0.00
   -1    2   24      0.10      0.00
    0    2   24      0.06      0.00
    1    2   24      0.04      0.00
    2    2   24     -0.57      0.00
   -1    3   24     -0.53      0.00
    0    3   24      0.49      0.00
    1    3   24     -0.17      0.00
    2    3   24      1.07      0.00
   -1    4   24     -0.39      0.00
    0    4   24      0.05      0.00
    1    4   24     -0.83      0.00
    2    4   24      0.10      0.00
   -1    5   24     -0.29      0.00
    0    5   24      0.91      0.00
    1    5   24      1.88      0.00
   -1    6   24      0.09      0.00
    0    6   24     -0.10      0.00
    1    6   24      0.16      0.00
   -1    7   24     -0.65      0.00
    0    7   24      0.07      0.00
    1    7   24      0.25      0.00
   -1    8   24      0.31      0.00
    0    8   24     -0.49      0.00
   -1    9   24     -0.55      0.00
    2   -1   25     -0.45      0.00
    1    0   25      0.98      0.00
    2    0   25     -0.46      0.00
    0    1   25      0.15      0.00
    1    1   25      0.29      0.00
    2    1   25      0.41      0.00
    0    2   25     -0.42      0.00
    1    2   25     -0.77      0.00
    0    3   25      0.82      0.00
    1    3   25      0.23      0.00
    0    4   25     -0.19      0.00
    1    4   25      0.32      0.00
   -1    5   25      0.65      0.00
    0    5   25      0.23      0.00
   -1    6   25     -0.12      0.00
    0    6   25     -0.59      0.00
   -1    7   25     -0.19      0.00
    1    2   26     -0.59      0.00
    0    4   26     -0.08      0.00
    8    0    0     -0.24      0.00
   -8    1    0     -0.03      0.00
    0    1    0     -4.95      0.00
    8    1    0      0.36      0.00
   -8    2    0      0.22      0.00
    8    2    0     -0.09      0.00
    8    3    0     -0.20      0.00
   -7    7    0     -0.09      0.00
   -7    8    0     -0.71      0.00
    7    8    0      0.43      0.00
   -7    9    0      0.15      0.00
    7    9    0     -0.21      0.00
   -7   10    0      0.34      0.00
    7   10    0     -0.38      0.00
    7   11    0     -0.32      0.00
   -6   12    0     -0.63      0.00
    6   12    0      0.67      0.00
   -6   13    0      0.13      0.00
    6   13    0      0.18      0.00
   -6   14    0      0.06      0.00
    6   14    0      0.10      0.00
   -5   15    0      0.13      0.00
    5   15    0      0.71      0.00
    6   15    0     -0.24      0.00
   -5   16    0     -0.24      0.00
    5   16    0      0.05      0.00
   -5   17    0      0.01      0.00
    5   17    0      0.00      0.00
   -4   18    0      0.50      0.00
    4   18    0     -0.50      0.00
   -4   19    0     -0.25      0.00
    3   19    0      0.39      0.00
    4   19    0     -0.11      0.00
   -3   20    0      0.16      0.00
    2   20    0     -1.19      0.00
    3   20    0      0.31      0.00
   -2   21    0      0.11      0.00
    1   21    0     -0.28      0.00
    2   21    0      0.72      0.00
   -1   22    0     -0.56      0.00
    0   22    0     -0.19      0.00
    1   22    0      0.08      0.00
    0  -22    1     -0.58      0.00
   -2  -21    1      0.06      0.00
   -1  -21    1     -0.29      0.00
    2  -21    1     -0.15      0.00
   -3  -20    1      0.40      0.00
   -2  -20    1     -0.84      0.00
    3  -20    1      0.11      0.00
   -4  -19    1     -0.16      0.00
   -3  -19    1     -0.80      0.00
    3  -19    1     -0.40      0.00
    4  -19    1      0.07      0.00
   -4  -18    1      0.57      0.00
   -3  -18    1     -0.92      0.00
    4  -18    1      0.08      0.00
   -5  -17    1     -0.15      0.00
   -4  -17    1      0.09      0.00
    4  -17    1     -0.02      0.00
    5  -17    1     -0.07      0.00
   -5  -16    1     -0.15      0.00
    5  -16    1     -0.21      0.00
   -5  -15    1      0.10      0.00
    5  -15    1      0.00      0.00
   -6  -14    1      0.15      0.00
    6  -14    1     -0.12      0.00
   -6  -13    1      0.79      0.00
    6  -13    1     -0.09      0.00
   -6  -12    1      0.02      0.00
    6  -12    1     -0.11      0.00
   -7  -11    1     -0.51      0.00
   -7  -10    1      0.30      0.00
    7  -10    1      0.45      0.00
   -7   -9    1     -0.12      0.00
    7   -9    1      0.40      0.00
   -7   -8    1      0.89      0.00
    7   -8    1     -0.80      0.00
    7   -7    1      0.38      0.00
   -8   -2    1      0.08      0.00
    0   -2    1     35.06      0.00
    8   -2    1      0.05      0.00
   -8   -1    1      0.25      0.00
    0   -1    1     36.50      0.00
    8   -1    1     -0.26      0.00
   -8    0    1     -0.21      0.00
    0    0    1     86.76      0.00
    8    0    1     -0.22      0.00
   -8    1    1      0.10      0.00
    0    1    1    -77.22      0.00
    0    2    1    -69.89      0.00
    8    2    1      0.15      0.00
    0    3    1      5.75      0.00
    8    3    1     -0.29      0.00
   -7    7    1     -0.68      0.00
   -7    8    1     -0.50      0.00
    7    8    1      0.28      0.00
   -7    9    1     -0.15      0.00
    7    9    1      0.26      0.00
   -7   10    1      0.47      0.00
    7   10    1     -0.35      0.00
    7   11    1      0.31      0.00
   -6   12    1     -0.96      0.00
   -6   13    1      0.33      0.00
    6   13    1     -0.61      0.00
   -6   14    1     -0.09      0.00
    6   14    1     -0.07      0.00
   -5   15    1      0.35      0.00
    6   15    1     -0.35      0.00
   -5   16    1     -0.20      0.00
    5   16    1     -0.71      0.00
   -5   17    1      0.09      0.00
    5   17    1     -0.23      0.00
   -4   18    1      0.32      0.00
    4   18    1     -0.76      0.00
   -4   19    1     -0.27      0.00
    3   19    1      0.34      0.00
    4   19    1      0.35      0.00
   -3   20    1      0.36      0.00
    2   20    1     -0.67      0.00
    3   20    1     -0.15      0.00
   -2   21    1      0.23      0.00
    1   21    1     -0.44      0.00
    2   21    1      0.72      0.00
   -1   22    1     -0.25      0.00
    0   22    1      0.10      0.00
    1   22    1      0.05      0.00
   -2  -21    2     -0.28      0.00
   -1  -21    2     -0.65      0.00
    2  -21    2     -0.19      0.00
   -3  -20    2     -0.07      0.00
   -2  -20    2     -0.07      0.00
    3  -20    2      0.12      0.00
   -4  -19    2      0.08      0.00
   -3  -19    2     -0.74      0.00
    3  -19    2     -0.29      0.00
   -4  -18    2      0.39      0.00
    4  -18    2     -0.25      0.00
   -5  -17    2     -0.36      0.00
   -4  -17    2     -0.84      0.00
    4  -17    2      0.19      0.00
   -5  -16    2     -0.12      0.00
    5  -16    2     -0.05      0.00
   -5  -15    2      0.41      0.00
    5  -15    2      0.50      0.00
   -6  -14    2     -0.28      0.00
    6  -14    2     -0.40      0.00
   -6  -13    2      0.56      0.00
    6  -13    2      0.15      0.00
   -6  -12    2     -0.61      0.00
    6  -12    2      0.44      0.00
   -7  -10    2      0.59      0.00
    7  -10    2      0.39      0.00
   -7   -9    2      0.22      0.00
    7   -9    2     -0.07      0.00
   -7   -8    2      0.29      0.00
    7   -8    2     -1.08      0.00
    8   -2    2     -0.54      0.00
    0   -1    2    -29.54      0.00
    8   -1    2     -0.21      0.00
   -1    0    2     35.68      0.00
    0    0    2    -51.93      0.00
   -1    1    2     38.86      0.00
    0    1    2    -21.90      0.00
    8    1    2      0.06      0.00
    8    2    2      0.41      0.00
    8    3    2     -0.46      0.00
    8    4    2      0.13      0.00
   -7    7    2     -0.24      0.00
   -7    8    2     -0.37      0.00
    7    8    2      1.10      0.00
   -7    9    2      0.09      0.00
    7    9    2      0.67      0.00
   -7   10    2      0.39      0.00
    7   10    2     -0.25      0.00
    7   11    2      0.13      0.00
   -6   12    2     -0.37      0.00
   -6   13    2      0.53      0.00
    6   13    2      0.02      0.00
   -6   14    2      0.00      0.00
    6   14    2      0.12      0.00
   -5   15    2      0.60      0.00
    6   15    2     -0.12      0.00
   -5   16    2     -0.22      0.00
    5   16    2     -1.38      0.00
   -5   17    2      0.00      0.00
    5   17    2      0.28      0.00
   -4   18    2     -0.22      0.00
    4   18    2      0.08      0.00
    5   18    2      0.31      0.00
   -4   19    2      0.01      0.00
    4   19    2      0.33      0.00
   -3   20    2      0.39      0.00
    2   20    2     -0.37      0.00
    3   20    2      0.24      0.00
    1   21    2      0.18      0.00
    2   21    2      0.07      0.00
    3   21    2      0.24      0.00
   -1   22    2      0.51      0.00
    0   22    2     -0.20      0.00
    1   22    2      0.27      0.00
   -1  -21    3     -0.71      0.00
    1  -21    3      0.05      0.00
   -3  -20    3     -0.04      0.00
   -2  -20    3      0.13      0.00
    2  -20    3      0.71      0.00
    3  -20    3      0.08      0.00
   -3  -19    3      0.48      0.00
    3  -19    3      0.01      0.00
   -4  -18    3     -0.53      0.00
    4  -18    3     -0.04      0.00
   -4  -17    3     -0.47      0.00
    4  -17    3     -0.05      0.00
   -5  -16    3      0.12      0.00
    5  -16    3      0.28      0.00
   -5  -15    3      0.75      0.00
    5  -15    3      0.61      0.00
   -6  -14    3     -0.43      0.00
    6  -14    3     -0.10      0.00
   -6  -13    3      0.45      0.00
    6  -13    3      0.31      0.00
   -6  -12    3     -0.18      0.00
    6  -12    3      0.26      0.00
   -7  -10    3      0.25      0.00
    7  -10    3     -0.16      0.00
   -7   -9    3      0.13      0.00
    7   -9    3     -0.35      0.00
   -7   -8    3     -0.60      0.00
    7   -8    3     -0.65      0.00
    8   -2    3     -0.56      0.00
    8   -1    3      0.24      0.00
   -1    0    3     -6.79      0.00
   -1    1    3     -5.26      0.00
    8    1    3     -0.28      0.00
    8    2    3      0.20      0.00
    8    3    3     -0.10      0.00
    8    4    3      0.16      0.00
   -7    7    3      0.11      0.00
   -7    8    3     -0.48      0.00
   -7    9    3      0.58      0.00
   -5    9    3     -0.20      0.00
    7    9    3     -0.30      0.00
   -7   10    3      0.01      0.00
   -5   10    3      0.56      0.00
    7   10    3     -0.80      0.00
    7   11    3     -0.07      0.00
   -6   12    3      0.80      0.00
    7   12    3      0.09      0.00
   -6   13    3      0.02      0.00
    6   13    3      0.81      0.00
   -6   14    3     -0.08      0.00
    6   14    3     -0.02      0.00
   -5   15    3      0.20      0.00
    6   15    3      0.01      0.00
   -5   16    3     -0.21      0.00
    5   16    3     -0.33      0.00
   -5   17    3     -0.03      0.00
    5   17    3      0.58      0.00
   -4   18    3     -0.24      0.00
    4   18    3      1.08      0.00
    5   18    3      0.06      0.00
   -4   19    3      0.44      0.00
    4   19    3     -0.27      0.00
   -3   20    3      0.28      0.00
    3   20    3      1.09      0.00
    1   21    3      0.60      0.00
    2   21    3      0.14      0.00
    3   21    3      0.07      0.00
   -1   22    3      0.08      0.00
    0   22    3     -0.02      0.00
    1   22    3     -0.08      0.00
    2   22    3      0.37      0.00
   -1  -21    4     -0.27      0.00
    1  -21    4      0.44      0.00
   -2  -20    4      0.15      0.00
    2  -20    4      0.34      0.00
   -3  -19    4      0.62      0.00
    3  -19    4      0.03      0.00
   -4  -18    4     -0.42      0.00
    3  -18    4     -0.28      0.00
    4  -18    4      0.11      0.00
   -4  -17    4      0.76      0.00
    4  -17    4     -0.09      0.00
   -5  -16    4     -0.06      0.00
    5  -16    4      0.09      0.00
   -5  -15    4      0.28      0.00
    5  -15    4     -0.26      0.00
   -6  -13    4      0.20      0.00
    6  -13    4      0.06      0.00
   -6  -12    4     -0.13      0.00
    7  -10    4     -0.27      0.00
   -7   -9    4     -0.03      0.00
    7   -9    4      0.20      0.00
   -7   -8    4     -0.40      0.00
    7   -8    4      0.11      0.00
    8   -2    4     -0.01      0.00
   -1    0    4    -23.27      0.00
    8    0    4      0.29      0.00
   -2    1    4      1.00      0.00
   -1    1    4    -14.37      0.00
    8    1    4     -0.52      0.00
   -2    2    4      8.08      0.00
    8    2    4      0.06      0.00
    8    3    4      0.52      0.00
    8    4    4     -0.38      0.00
   -7    6    4     -0.28      0.00
   -7    7    4     -0.14      0.00
   -7    8    4     -0.15      0.00
   -7    9    4      0.41      0.00
    7    9    4     -0.99      0.00
   -7   10    4     -0.19      0.00
   -6   10    4     -0.44      0.00
    7   10    4     -0.29      0.00
   -6   11    4      0.64      0.00
    7   11    4      0.48      0.00
   -6   12    4      0.21      0.00
    7   12    4      0.07      0.00
   -6   13    4     -0.41      0.00
   -6   14    4     -0.12      0.00
    6   14    4      0.00      0.00
   -5   15    4     -0.44      0.00
    6   15    4     -0.01      0.00
   -5   16    4      0.30      0.00
    5   16    4      0.09      0.00
   -5   17    4     -0.13      0.00
    5   17    4     -0.37      0.00
   -4   18    4      0.34      0.00
    5   18    4      0.04      0.00
   -4   19    4      0.57      0.00
    4   19    4     -0.69      0.00
   -3   20    4     -0.01      0.00
    3   20    4      0.61      0.00
    4   20    4     -0.22      0.00
    1   21    4     -0.14      0.00
    2   21    4      0.77      0.00
    3   21    4      0.05      0.00
   -1   22    4     -0.87      0.00
    0   22    4      0.70      0.00
    1   22    4     -0.57      0.00
    2   22    4     -0.05      0.00
    0  -21    5     -1.05      0.00
   -2  -20    5      0.16      0.00
    1  -20    5     -0.09      0.00
    2  -20    5      0.23      0.00
   -3  -19    5      0.22      0.00
    2  -19    5     -0.11      0.00
    3  -19    5     -0.22      0.00
   -4  -18    5      0.05      0.00
    3  -18    5     -0.08      0.00
    4  -18    5      0.01      0.00
   -4  -17    5      0.72      0.00
    4  -17    5      0.15      0.00
   -5  -16    5     -0.25      0.00
    5  -16    5     -0.29      0.00
   -5  -15    5     -0.14      0.00
    5  -15    5     -0.18      0.00
   -6  -13    5     -0.43      0.00
    6  -13    5     -0.05      0.00
   -6  -12    5     -0.43      0.00
    7   -9    5      0.27      0.00
   -7   -8    5     -0.09      0.00
    7   -8    5      0.00      0.00
    8   -1    5      0.07      0.00
   -1    0    5      7.84      0.00
    8    0    5     -0.14      0.00
   -2    1    5     -4.35      0.00
    8    1    5     -0.22      0.00
   -2    2    5      1.44      0.00
    8    2    5      0.00      0.00
   -2    3    5    -10.16      0.00
    8    3    5      0.43      0.00
    8    4    5     -0.68      0.00
   -7    5    5     -0.46      0.00
   -7    6    5     -0.24      0.00
   -7    7    5     -0.28      0.00
   -7    8    5      0.33      0.00
   -7    9    5     -0.17      0.00
    7    9    5      0.67      0.00
   -6   10    5     -0.39      0.00
    7   10    5      0.17      0.00
   -6   11    5      0.31      0.00
    7   11    5      0.39      0.00
   -6   12    5     -0.36      0.00
    7   12    5     -0.32      0.00
   -6   13    5      0.23      0.00
   -6   14    5     -0.10      0.00
    6   14    5      0.47      0.00
   -5   15    5     -0.01      0.00
    6   15    5     -0.48      0.00
   -5   16    5      0.32      0.00
   -5   17    5     -0.31      0.00
    5   17    5     -0.39      0.00
   -4   18    5      0.25      0.00
    5   18    5      0.65      0.00
   -4   19    5     -0.02      0.00
    4   19    5     -0.17      0.00
   -3   20    5     -0.63      0.00
    3   20    5     -0.50      0.00
    4   20    5     -0.52      0.00
    3   21    5      0.62      0.00
   -1   22    5     -0.91      0.00
    0   22    5      0.63      0.00
    1   22    5     -0.19      0.00
    2   22    5     -0.54      0.00
    1  -20    6      0.51      0.00
    2  -20    6      0.33      0.00
   -3  -19    6      0.30      0.00
    2  -19    6      0.14      0.00
    3  -19    6     -0.17      0.00
    3  -18    6      0.39      0.00
   -4  -17    6     -0.14      0.00
    4  -17    6      0.18      0.00
   -5  -15    6     -0.24      0.00
    5  -15    6      0.53      0.00
    6  -13    6     -0.13      0.00
   -6  -12    6     -0.39      0.00
    6  -12    6      0.08      0.00
    7   -9    6     -0.33      0.00
   -7   -8    6     -0.13      0.00
    7   -8    6     -0.06      0.00
   -2    0    6     -1.93      0.00
   -1    0    6     17.22      0.00
    8    0    6     -0.13      0.00
   -2    1    6     -7.45      0.00
    8    1    6      0.04      0.00
   -2    2    6     -6.66      0.00
    8    2    6      0.05      0.00
    8    3    6     -0.02      0.00
   -7    4    6      0.27      0.00
   -7    5    6      0.22      0.00
   -7    6    6     -0.42      0.00
   -7    7    6     -0.04      0.00
   -7    8    6      0.43      0.00
   -7    9    6     -0.28      0.00
    7   10    6     -0.76      0.00
   -6   11    6     -0.07      0.00
    7   11    6      0.05      0.00
   -6   12    6      0.62      0.00
    7   12    6     -0.17      0.00
   -6   13    6      0.03      0.00
   -6   14    6     -0.13      0.00
    6   14    6     -0.09      0.00
    6   15    6     -0.64      0.00
   -5   16    6     -0.05      0.00
   -5   17    6     -0.05      0.00
    5   17    6      0.27      0.00
   -4   18    6     -0.35      0.00
    5   18    6      0.57      0.00
   -4   19    6     -0.37      0.00
    4   19    6      0.11      0.00
   -3   20    6     -0.64      0.00
    3   20    6     -0.24      0.00
    4   20    6     -0.77      0.00
    3   21    6      0.47      0.00
   -1   22    6      0.09      0.00
    0   22    6     -0.46      0.00
    1   22    6      0.29      0.00
   -1  -20    7     -1.00      0.00
    0  -20    7      1.00      0.00
    1  -20    7      0.56      0.00
    1  -19    7     -0.73      0.00
    2  -19    7     -0.36      0.00
   -3  -18    7     -0.14      0.00
    3  -18    7      0.44      0.00
   -4  -17    7     -0.27      0.00
    4  -17    7     -0.04      0.00
   -5  -15    7     -0.31      0.00
    5  -15    7      0.30      0.00
   -6  -12    7     -0.26      0.00
    6  -12    7      0.12      0.00
    7   -9    7     -0.34      0.00
    7   -8    7      0.43      0.00
   -7   -7    7     -0.05      0.00
   -7   -6    7      0.38      0.00
   -2    0    7      3.66      0.00
   -2    1    7     -4.22      0.00
   -7    2    7      0.12      0.00
   -3    2    7     -3.96      0.00
   -7    3    7     -0.73      0.00
   -3    3    7      2.57      0.00
   -7    4    7      0.61      0.00
   -7    5    7      0.21      0.00
   -7    6    7     -0.55      0.00
   -7    7    7      0.18      0.00
   -7    8    7      0.26      0.00
    7   10    7     -0.23      0.00
   -6   11    7      0.43      0.00
    7   11    7      0.00      0.00
   -6   12    7      0.59      0.00
   -6   13    7     -0.79      0.00
    6   14    7     -0.49      0.00
    6   15    7      0.28      0.00
   -5   16    7      0.39      0.00
    5   17    7      0.02      0.00
   -4   18    7     -0.33      0.00
    5   18    7      0.31      0.00
   -4   19    7     -0.10      0.00
    4   19    7      0.15      0.00
   -3   20    7     -0.08      0.00
    3   20    7     -0.12      0.00
    4   20    7     -0.14      0.00
   -1   21    7      0.42      0.00
    3   21    7     -0.48      0.00
   -1   22    7      0.78      0.00
    0   22    7     -0.59      0.00
    1   22    7     -0.16      0.00
    2   22    7      0.06      0.00
   -2  -19    8      0.02      0.00
    0  -19    8     -0.06      0.00
    1  -19    8     -0.44      0.00
    2  -19    8     -0.38      0.00
   -3  -18    8     -0.16      0.00
    3  -18    8      0.13      0.00
    4  -17    8     -0.08      0.00
    5  -15    8     -0.21      0.00
   -5  -14    8      0.28      0.00
    6  -12    8      0.08      0.00
    7   -8    8      0.46      0.00
   -7   -6    8      0.15      0.00
   -7   -5    8      0.38      0.00
   -7   -4    8     -0.53      0.00
   -7   -3    8      0.26      0.00
   -7   -2    8     -0.88      0.00
   -7   -1    8     -0.33      0.00
   -7    0    8      0.14      0.00
   -2    0    8      4.24      0.00
   -7    1    8      1.11      0.00
   -3    1    8     -3.24      0.00
   -2    1    8      2.82      0.00
   -7    2    8     -1.01      0.00
   -3    2    8     -1.63      0.00
   -7    3    8     -0.21      0.00
   -3    3    8      2.52      0.00
   -7    4    8      0.29      0.00
   -7    5    8     -0.10      0.00
   -7    6    8     -0.35      0.00
   -7    7    8      0.21      0.00
   -7    8    8      0.15      0.00
    7    8    8      0.07      0.00
    7   10    8      0.52      0.00
    7   11    8     -0.83      0.00
    6   14    8      0.19      0.00
    6   15    8      0.51      0.00
   -5   16    8      0.68      0.00
    5   17    8     -0.39      0.00
   -4   18    8      0.19      0.00
    5   18    8      0.40      0.00
    4   19    8      0.98      0.00
   -3   20    8     -0.16      0.00
   -2   21    8     -0.45      0.00
   -1   21    8      0.16      0.00
    0   21    8     -0.02      0.00
    3   21    8     -0.10      0.00
   -1   22    8      0.28      0.00
    0   22    8      0.23      0.00
    1   22    8     -0.03      0.00
    2   22    8     -0.44      0.00
   -1  -19    9      1.24      0.00
    0  -19    9     -0.22      0.00
    1  -19    9     -0.11      0.00
   -2  -18    9     -0.43      0.00
    2  -18    9      0.30      0.00
   -4  -16    9     -0.34      0.00
    4  -16    9      0.04      0.00
   -6  -10    9      0.05      0.00
   -7   -5    9      0.04      0.00
   -7   -4    9     -0.41      0.00
   -7   -3    9      0.03      0.00
   -7   -2    9     -0.34      0.00
   -7   -1    9     -0.16      0.00
   -7    0    9      0.68      0.00
   -7    1    9     -0.22      0.00
   -3    1    9      1.86      0.00
   -7    2    9     -0.52      0.00
   -3    2    9      0.61      0.00
   -7    3    9      0.09      0.00
   -7    4    9     -0.01      0.00
   -7    5    9      0.04      0.00
   -7    6    9     -0.11      0.00
   -7    7    9      0.27      0.00
    7   10    9     -0.58      0.00
    7   11    9     -0.91      0.00
   -6   13    9      0.08      0.00
    6   13    9     -0.10      0.00
   -5   15    9      0.34      0.00
    6   15    9     -0.07      0.00
   -5   16    9      0.09      0.00
   -4   17    9     -0.57      0.00
    5   17    9      0.09      0.00
   -4   18    9      0.54      0.00
    5   18    9      0.52      0.00
    4   19    9      0.25      0.00
   -3   20    9     -0.35      0.00
    3   20    9      0.98      0.00
   -2   21    9      0.09      0.00
   -1   21    9     -0.75      0.00
    0   21    9      0.13      0.00
    3   21    9      0.71      0.00
   -1   22    9     -0.23      0.00
    0   22    9      0.23      0.00
    1   22    9      0.53      0.00
    0  -19   10      0.01      0.00
   -2  -18   10      0.26      0.00
    0  -18   10      0.04      0.00
    1  -18   10      0.31      0.00
    2  -18   10      0.09      0.00
   -3  -17   10     -0.19      0.00
    3  -17   10      0.15      0.00
    4  -16   10     -0.04      0.00
   -4  -15   10      0.22      0.00
    5  -14   10      0.05      0.00
   -5  -13   10      0.31      0.00
    6  -11   10     -0.22      0.00
   -6   -9   10     -0.73      0.00
    7   -7   10      0.04      0.00
    7   -6   10     -0.23      0.00
   -7   -3   10      0.01      0.00
   -7   -2   10      0.17      0.00
   -7   -1   10     -0.24      0.00
   -7    0   10      0.42      0.00
   -7    1   10     -0.31      0.00
   -3    1   10      3.67      0.00
   -7    2   10      0.54      0.00
   -3    2   10      0.99      0.00
   -7    3   10     -0.33      0.00
   -7    4   10      0.26      0.00
   -7    5   10      0.07      0.00
   -6   10   10      0.08      0.00
   -6   11   10     -0.47      0.00
   -6   12   10      0.43      0.00
    6   14   10      0.35      0.00
   -5   15   10     -0.01      0.00
    6   15   10     -0.23      0.00
    5   16   10      0.70      0.00
   -4   17   10      0.17      0.00
    5   17   10      1.14      0.00
   -4   18   10      0.25      0.00
    4   19   10     -1.14      0.00
   -3   20   10      0.07      0.00
   -2   21   10      0.26      0.00
   -1   21   10     -0.59      0.00
    0   21   10     -0.63      0.00
    1   21   10      0.45      0.00
    0   22   10     -0.06      0.00
    1   22   10      0.06      0.00
   -1  -18   11     -0.53      0.00
    0  -18   11      0.76      0.00
    1  -18   11      0.14      0.00
   -2  -17   11      0.07      0.00
   -3  -16   11      0.56      0.00
   -4  -14   11     -0.11      0.00
    5  -13   11      0.14      0.00
   -5  -12   11     -0.29      0.00
    6  -10   11      0.18      0.00
   -6   -8   11      0.39      0.00
   -6   -7   11      0.10      0.00
    7   -6   11     -0.21      0.00
    7   -5   11     -0.47      0.00
   -7    0   11      0.21      0.00
   -7    1   11      0.28      0.00
   -3    1   11     -1.52      0.00
   -7    2   11      0.14      0.00
   -4    2   11      1.16      0.00
   -7    3   11     -0.33      0.00
   -4    3   11     -2.06      0.00
   -6    8   11      0.08      0.00
   -6    9   11      0.43      0.00
   -6   10   11     -0.07      0.00
    7   10   11      0.47      0.00
   -6   11   11     -0.21      0.00
   -5   15   11     -0.36      0.00
   -4   17   11      0.51      0.00
    5   17   11      0.89      0.00
    4   19   11     -0.40      0.00
   -2   20   11      0.51      0.00
   -1   21   11      0.33      0.00
    0   21   11     -0.51      0.00
    1   21   11      0.59      0.00
    2   21   11      1.16      0.00
    0   22   11     -0.12      0.00
   -2  -16   12     -0.12      0.00
    3  -16   12      0.25      0.00
   -3  -15   12     -0.51      0.00
   -4  -14   12      0.18      0.00
   -4  -13   12      0.22      0.00
    5  -12   12      0.28      0.00
   -5  -11   12     -0.09      0.00
   -5  -10   12     -0.05      0.00
    6  -10   12     -0.17      0.00
    6   -9   12      0.33      0.00
   -6   -7   12      0.19      0.00
   -6   -6   12      0.15      0.00
   -6   -5   12     -0.17      0.00
    7   -5   12     -0.54      0.00
   -6   -4   12      0.15      0.00
   -6   -3   12      0.41      0.00
    7   -1   12     -0.02      0.00
    7    0   12     -0.05      0.00
    7    1   12      0.30      0.00
   -4    2   12      1.19      0.00
   -4    3   12     -1.55      0.00
    7    5   12     -1.10      0.00
    7    6   12     -0.03      0.00
   -6    7   12     -0.40      0.00
    7    7   12      0.36      0.00
   -6    8   12      0.90      0.00
    7    8   12      0.89      0.00
   -6    9   12      0.00      0.00
    7    9   12     -0.01      0.00
   -6   10   12     -0.24      0.00
   -6   11   12     -0.35      0.00
   -5   14   12      0.16      0.00
    6   14   12      0.02      0.00
   -5   15   12      0.13      0.00
   -4   16   12      0.02      0.00
   -4   17   12      0.41      0.00
    4   19   12      0.26      0.00
   -2   20   12     -0.16      0.00
    3   20   12     -0.65      0.00
   -1   21   12      0.63      0.00
    0   21   12      0.47      0.00
    1   21   12      0.48      0.00
    2   21   12      0.07      0.00
    0  -17   13     -0.95      0.00
    1  -17   13      0.16      0.00
   -2  -16   13     -0.56      0.00
   -3  -15   13      0.03      0.00
    3  -15   13     -0.31      0.00
   -3  -14   13     -0.01      0.00
    4  -14   13      0.17      0.00
   -4  -13   13      0.06      0.00
    4  -13   13      0.12      0.00
   -4  -12   13      0.20      0.00
    5  -12   13      0.26      0.00
    5  -11   13     -0.78      0.00
   -5  -10   13      0.11      0.00
    5  -10   13      0.02      0.00
   -5   -9   13     -0.47      0.00
    6   -9   13      0.41      0.00
    6   -8   13     -0.46      0.00
   -6   -6   13     -0.35      0.00
   -6   -5   13     -0.51      0.00
   -6   -4   13      0.48      0.00
    7   -4   13      0.81      0.00
   -6   -3   13     -0.27      0.00
    7   -3   13     -0.77      0.00
   -6   -2   13     -0.81      0.00
    7   -2   13      0.40      0.00
   -6   -1   13      1.07      0.00
    7   -1   13      0.21      0.00
   -6    0   13     -0.39      0.00
    7    0   13     -0.02      0.00
    7    1   13     -0.11      0.00
    7    2   13      0.17      0.00
    7    3   13     -0.56      0.00
    7    4   13      0.28      0.00
   -6    5   13      1.12      0.00
    7    5   13     -0.68      0.00
   -6    6   13     -1.04      0.00
    7    6   13      1.13      0.00
   -6    7   13      0.25      0.00
    7    7   13      0.21      0.00
   -6    8   13      0.61      0.00
    7    8   13      0.37      0.00
   -6    9   13     -0.32      0.00
   -6   10   13     -0.30      0.00
    6   12   13     -0.46      0.00
    6   13   13      0.15      0.00
   -5   14   13      0.18      0.00
   -4   16   13      0.24      0.00
   -4   17   13      0.25      0.00
   -2   19   13     -0.35      0.00
   -2   20   13     -0.17      0.00
   -1   20   13     -0.91      0.00
    3   20   13     -0.39      0.00
   -1   21   13      0.14      0.00
    0   21   13      0.85      0.00
    1   21   13     -0.03      0.00
    2   21   13     -0.18      0.00
   -1  -16   14     -0.57      0.00
    1  -16   14     -0.09      0.00
    2  -16   14     -0.30      0.00
   -2  -15   14      0.71      0.00
    2  -15   14      0.76      0.00
    3  -15   14      0.01      0.00
   -3  -14   14     -0.11      0.00
    3  -14   14     -0.34      0.00
    4  -13   14     -0.09      0.00
   -4  -12   14      0.12      0.00
    4  -12   14     -0.51      0.00
   -4  -11   14     -0.45      0.00
    5  -11   14     -0.30      0.00
    5  -10   14      0.22      0.00
   -5   -9   14      0.25      0.00
    5   -9   14      0.63      0.00
   -5   -8   14      0.56      0.00
    6   -8   14     -0.22      0.00
    6   -7   14     -0.01      0.00
   -6   -4   14      0.38      0.00
   -6   -3   14     -0.67      0.00
   -6   -2   14      0.37      0.00
    7   -2   14      0.09      0.00
   -6   -1   14      0.24      0.00
    7   -1   14      0.27      0.00
   -6    0   14     -0.52      0.00
    7    0   14     -0.36      0.00
   -6    1   14     -0.72      0.00
    7    1   14      0.01      0.00
   -6    2   14      0.52      0.00
    7    2   14      0.21      0.00
   -6    3   14      0.00      0.00
    7    3   14     -0.24      0.00
   -6    4   14      0.64      0.00
    7    4   14      0.45      0.00
   -6    5   14      0.33      0.00
    7    5   14     -0.07      0.00
   -6    6   14     -0.62      0.00
    7    6   14      0.51      0.00
   -6    7   14      0.28      0.00
    7    7   14     -0.25      0.00
   -6    8   14     -0.03      0.00
    6   10   14     -0.58      0.00
    6   11   14      0.40      0.00
   -5   12   14      0.32      0.00
    6   12   14     -0.06      0.00
   -5   13   14     -0.19      0.00
    6   13   14     -0.25      0.00
   -4   15   14     -0.20      0.00
    5   15   14      0.28      0.00
   -4   16   14     -0.35      0.00
    5   16   14     -0.08      0.00
    4   18   14     -0.70      0.00
   -2   19   14     -0.59      0.00
   -1   20   14      0.28      0.00
    0   21   14      0.14      0.00
    1   21   14     -0.20      0.00
    1  -15   15     -0.46      0.00
    2  -15   15      0.41      0.00
    2  -14   15     -0.60      0.00
    3  -14   15     -0.15      0.00
   -3  -13   15     -0.64      0.00
    3  -13   15      0.44      0.00
    3  -12   15     -0.02      0.00
    4  -12   15     -0.14      0.00
   -4  -11   15     -0.14      0.00
    4  -11   15      0.13      0.00
    5  -10   15      0.05      0.00
    5   -9   15      0.36      0.00
   -5   -8   15     -0.14      0.00
   -5   -7   15      0.28      0.00
    6   -7   15     -0.33      0.00
    6   -6   15      0.34      0.00
   -6   -2   15      0.58      0.00
   -6   -1   15     -0.26      0.00
   -6    0   15     -0.06      0.00
    7    0   15     -0.27      0.00
   -6    1   15     -0.01      0.00
    7    1   15      0.18      0.00
   -6    2   15      0.57      0.00
    7    2   15      0.03      0.00
   -6    3   15      0.20      0.00
    6    3   15     -0.30      0.00
    7    3   15     -0.13      0.00
   -6    4   15      0.59      0.00
    6    4   15     -0.10      0.00
    7    4   15      0.09      0.00
   -6    5   15     -0.66      0.00
    6    5   15     -0.09      0.00
    7    5   15     -0.01      0.00
   -6    6   15      0.18      0.00
    6    6   15     -0.64      0.00
    6    7   15      0.04      0.00
    6    8   15     -0.14      0.00
    6    9   15      0.64      0.00
    6   10   15     -0.21      0.00
    6   11   15      0.36      0.00
   -5   12   15     -0.51      0.00
    6   12   15     -0.19      0.00
    5   13   15      0.76      0.00
    5   14   15      0.51      0.00
   -4   15   15     -0.31      0.00
    5   15   15      0.42      0.00
    4   17   15      1.01      0.00
   -3   18   15     -0.31      0.00
    4   18   15     -0.98      0.00
   -2   19   15     -0.57      0.00
   -1   20   15      0.91      0.00
    0   20   15     -0.27      0.00
    2   20   15     -0.10      0.00
    0  -15   16     -0.56      0.00
    1  -15   16      0.06      0.00
    0  -14   16     -0.31      0.00
    1  -14   16      0.46      0.00
    2  -14   16     -0.57      0.00
    1  -13   16      0.57      0.00
    2  -13   16      0.40      0.00
    3  -13   16      0.21      0.00
    2  -12   16      0.17      0.00
    3  -12   16     -0.17      0.00
    4  -12   16      0.10      0.00
    3  -11   16     -0.12      0.00
    4  -11   16      0.06      0.00
   -4  -10   16     -0.52      0.00
    4  -10   16      0.56      0.00
    5   -9   16     -0.02      0.00
    5   -8   16      0.04      0.00
   -5   -7   16      0.08      0.00
   -5   -6   16     -0.72      0.00
    6   -6   16      0.54      0.00
    6   -5   16      0.02      0.00
    6    1   16     -0.58      0.00
    6    2   16     -0.25      0.00
    6    3   16     -0.63      0.00
    6    4   16      0.06      0.00
    6    5   16     -0.37      0.00
    6    6   16     -0.17      0.00
    6    7   16      0.37      0.00
    6    8   16      0.69      0.00
    6    9   16     -0.14      0.00
    5   10   16      0.92      0.00
    6   10   16      0.14      0.00
    5   11   16      0.45      0.00
    6   11   16     -0.01      0.00
    5   12   16      1.02      0.00
    5   13   16     -0.22      0.00
   -4   14   16      0.06      0.00
    5   14   16     -0.49      0.00
   -4   15   16      0.14      0.00
    4   15   16     -0.61      0.00
    5   15   16      0.49      0.00
    4   17   16      0.73      0.00
    2   19   16     -0.33      0.00
    3   19   16     -0.44      0.00
    1   20   16      0.80      0.00
    0  -14   17     -0.09      0.00
    1  -14   17      0.02      0.00
    0  -13   17     -0.44      0.00
    1  -13   17      0.27      0.00
    2  -13   17      0.64      0.00
   -2  -12   17     -0.22      0.00
    1  -12   17     -0.78      0.00
    2  -12   17     -0.28      0.00
    3  -12   17     -0.29      0.00
   -3  -11   17      0.20      0.00
    2  -11   17      0.13      0.00
    3  -11   17      0.01      0.00
    4  -11   17      0.11      0.00
    4  -10   17      0.31      0.00
   -4   -9   17      0.45      0.00
    4   -9   17     -0.47      0.00
    5   -8   17      0.30      0.00
    5   -7   17     -0.18      0.00
   -5   -5   17      0.32      0.00
   -5   -4   17      0.41      0.00
    6   -1   17     -0.78      0.00
    6    0   17      0.79      0.00
    6    1   17     -0.83      0.00
    6    2   17     -0.37      0.00
    6    3   17      0.22      0.00
    6    4   17      0.24      0.00
    6    5   17     -0.19      0.00
    5    6   17     -0.47      0.00
    6    6   17      0.55      0.00
    5    7   17      0.55      0.00
    6    7   17      0.43      0.00
    5    8   17      0.27      0.00
    6    8   17      0.16      0.00
   -5    9   17      0.11      0.00
    5    9   17     -0.27      0.00
    6    9   17     -0.56      0.00
   -5   10   17     -0.02      0.00
    5   10   17      0.70      0.00
    6   10   17      0.17      0.00
    5   11   17      0.81      0.00
    5   12   17     -0.77      0.00
    4   13   17      0.21      0.00
    5   13   17     -0.85      0.00
   -4   14   17      0.08      0.00
    4   14   17     -0.95      0.00
    5   14   17     -0.10      0.00
    4   15   17     -0.66      0.00
    2   18   17     -0.16      0.00
    3   18   17      0.91      0.00
   -1   19   17     -0.79      0.00
    1   19   17     -0.08      0.00
    2   19   17      0.20      0.00
    0  -13   18      0.30      0.00
    1  -13   18      0.04      0.00
    0  -12   18      1.15      0.00
    1  -12   18     -0.59      0.00
    2  -12   18     -0.31      0.00
    1  -11   18      0.04      0.00
    2  -11   18      0.03      0.00
    3  -11   18      0.14      0.00
   -3  -10   18     -0.70      0.00
   -1  -10   18     -0.57      0.00
    0  -10   18      0.58      0.00
    3  -10   18      0.34      0.00
    4  -10   18     -0.06      0.00
   -3   -9   18     -0.26      0.00
    4   -9   18     -0.13      0.00
    4   -8   18     -0.14      0.00
   -4   -7   18     -0.30      0.00
    5   -7   18     -0.24      0.00
    5   -6   18     -0.24      0.00
   -5   -3   18     -0.25      0.00
    6   -2   18     -0.13      0.00
    6   -1   18     -0.69      0.00
    6    0   18      0.40      0.00
    6    1   18     -0.13      0.00
    6    2   18      0.16      0.00
    6    3   18      0.54      0.00
    5    4   18     -0.53      0.00
    6    4   18      0.20      0.00
    5    5   18     -0.61      0.00
    6    5   18     -0.22      0.00
    5    6   18      0.40      0.00
    6    6   18      0.39      0.00
   -5    7   18      0.28      0.00
    5    7   18      0.66      0.00
    6    7   18     -0.08      0.00
   -5    8   18     -0.19      0.00
    5    8   18      0.17      0.00
    6    8   18     -0.34      0.00
    4    9   18     -0.64      0.00
    5    9   18     -0.25      0.00
    6    9   18     -0.15      0.00
    4   10   18     -0.49      0.00
    5   10   18     -0.52      0.00
    4   11   18      1.37      0.00
    5   11   18      0.60      0.00
    4   12   18     -0.81      0.00
    5   12   18     -1.34      0.00
   -4   13   18      0.13      0.00
    4   13   18     -0.37      0.00
    5   13   18      0.22      0.00
    3   14   18      0.27      0.00
    4   14   18     -0.39      0.00
    3   15   18     -0.27      0.00
    4   15   18      0.19      0.00
    2   16   18      0.87      0.00
    3   16   18      0.13      0.00
    4   16   18      1.11      0.00
   -2   17   18      0.23      0.00
    1   17   18     -0.22      0.00
    3   17   18     -0.29      0.00
   -1   18   18     -0.85      0.00
    0   18   18     -0.15      0.00
    1   18   18      0.11      0.00
    2   18   18      0.57      0.00
    0   19   18     -0.45      0.00
    1   19   18     -0.24      0.00
    0  -12   19      0.30      0.00
    1  -12   19     -0.06      0.00
   -1  -11   19     -0.01      0.00
    0  -11   19     -1.21      0.00
    1  -11   19      0.26      0.00
    2  -11   19      0.06      0.00
   -1  -10   19      0.82      0.00
    0  -10   19      0.17      0.00
    1  -10   19     -0.01      0.00
    2  -10   19      0.14      0.00
    3  -10   19      0.15      0.00
   -3   -9   19     -0.01      0.00
   -2   -9   19     -1.48      0.00
   -1   -9   19      0.02      0.00
    2   -9   19     -0.29      0.00
    3   -9   19     -0.35      0.00
   -3   -8   19      0.39      0.00
   -2   -8   19      0.00      0.00
    4   -8   19     -0.33      0.00
   -3   -7   19      0.20      0.00
    4   -7   19      0.23      0.00
   -4   -6   19     -0.08      0.00
   -3   -6   19      0.51      0.00
    5   -6   19      0.04      0.00
   -4   -5   19      0.25      0.00
    5   -5   19      0.12      0.00
   -4   -4   19     -0.19      0.00
    6    0   19      0.24      0.00
   -5    1   19     -0.06      0.00
    6    1   19      0.25      0.00
   -5    2   19     -0.19      0.00
    5    2   19     -0.36      0.00
    6    2   19      0.14      0.00
   -5    3   19      0.32      0.00
    5    3   19      0.34      0.00
    6    3   19     -0.05      0.00
   -5    4   19      0.00      0.00
    5    4   19     -0.41      0.00
    6    4   19      0.02      0.00
   -5    5   19      0.31      0.00
    5    5   19     -0.21      0.00
    6    5   19     -0.40      0.00
    5    6   19      0.58      0.00
    6    6   19      0.03      0.00
    4    7   19      0.54      0.00
    5    7   19      0.38      0.00
    6    7   19     -0.12      0.00
    4    8   19      1.32      0.00
    5    8   19     -0.04      0.00
    3    9   19     -1.30      0.00
    4    9   19     -0.98      0.00
    5    9   19     -0.58      0.00
    3   10   19     -0.06      0.00
    4   10   19     -0.62      0.00
    5   10   19     -0.41      0.00
   -4   11   19      0.06      0.00
    2   11   19      1.82      0.00
    3   11   19      0.77      0.00
    4   11   19      0.56      0.00
    5   11   19      0.61      0.00
   -4   12   19      0.03      0.00
    3   12   19     -0.27      0.00
    4   12   19      0.31      0.00
    5   12   19     -0.33      0.00
    3   13   19     -0.64      0.00
    4   13   19     -0.55      0.00
    2   14   19      0.67      0.00
    3   14   19      0.12      0.00
    4   14   19      0.58      0.00
    1   15   19     -0.04      0.00
    2   15   19     -0.15      0.00
    3   15   19     -0.93      0.00
    4   15   19      0.22      0.00
   -2   16   19     -0.09      0.00
   -1   16   19      0.52      0.00
    0   16   19      1.09      0.00
    1   16   19      0.47      0.00
    2   16   19      0.72      0.00
    3   16   19      0.12      0.00
   -1   17   19      0.04      0.00
    0   17   19     -0.82      0.00
    1   17   19      0.13      0.00
    2   17   19     -0.72      0.00
    3   17   19     -0.19      0.00
    0   18   19     -0.64      0.00
    1   18   19     -0.51      0.00
    2   18   19      0.42      0.00
    0  -11   20     -0.62      0.00
    1  -11   20      0.19      0.00
   -1  -10   20      0.57      0.00
    0  -10   20      0.28      0.00
    1  -10   20     -0.20      0.00
    2  -10   20     -0.07      0.00
   -2   -9   20     -0.94      0.00
   -1   -9   20      0.51      0.00
    0   -9   20      0.06      0.00
    1   -9   20      0.31      0.00
    2   -9   20     -0.55      0.00
    3   -9   20     -0.17      0.00
   -2   -8   20      0.23      0.00
   -1   -8   20      0.71      0.00
    2   -8   20      0.04      0.00
    3   -8   20      0.03      0.00
   -3   -7   20      0.41      0.00
   -2   -7   20     -0.11      0.00
    3   -7   20     -0.28      0.00
    4   -7   20      0.26      0.00
   -3   -6   20      0.32      0.00
   -2   -6   20     -0.51      0.00
    4   -6   20      0.36      0.00
   -3   -5   20      0.36      0.00
   -4   -4   20     -0.19      0.00
   -3   -4   20     -0.57      0.00
   -4   -3   20      0.11      0.00
   -3   -3   20     -0.85      0.00
   -4   -2   20     -0.02      0.00
   -4   -1   20      0.33      0.00
    5   -1   20     -0.22      0.00
   -4    0   20      0.49      0.00
    5    0   20     -0.41      0.00
   -4    1   20     -0.74      0.00
    5    1   20      0.67      0.00
   -4    2   20      0.63      0.00
    5    2   20      0.05      0.00
   -4    3   20     -0.42      0.00
    5    3   20     -0.02      0.00
   -4    4   20     -0.07      0.00
    5    4   20     -0.24      0.00
   -4    5   20      0.29      0.00
    4    5   20     -0.82      0.00
    5    5   20      0.10      0.00
   -4    6   20      0.57      0.00
    4    6   20      0.09      0.00
    5    6   20     -0.06      0.00
   -4    7   20     -0.44      0.00
    4    7   20      1.16      0.00
    5    7   20      0.53      0.00
    4    8   20     -0.81      0.00
    5    8   20     -0.12      0.00
   -4    9   20      0.23      0.00
    3    9   20     -0.17      0.00
    4    9   20     -0.60      0.00
    5    9   20     -0.34      0.00
   -4   10   20     -0.49      0.00
    3   10   20      0.06      0.00
    4   10   20     -0.39      0.00
    5   10   20      0.07      0.00
    2   11   20      0.33      0.00
    3   11   20      0.53      0.00
    4   11   20      0.58      0.00
    5   11   20      0.36      0.00
    2   12   20     -1.09      0.00
    3   12   20     -0.36      0.00
    4   12   20      0.86      0.00
   -3   13   20     -0.60      0.00
    1   13   20     -1.02      0.00
    2   13   20      0.29      0.00
    3   13   20     -0.61      0.00
    4   13   20     -0.93      0.00
    0   14   20      0.69      0.00
    1   14   20      0.71      0.00
    2   14   20      0.78      0.00
    3   14   20      0.19      0.00
    4   14   20      0.32      0.00
   -2   15   20     -0.37      0.00
   -1   15   20     -0.09      0.00
    0   15   20     -0.93      0.00
    1   15   20     -0.23      0.00
    2   15   20     -0.29      0.00
    3   15   20     -0.07      0.00
   -1   16   20      1.18      0.00
    0   16   20      0.19      0.00
    1   16   20     -0.12      0.00
    2   16   20     -0.26      0.00
    3   16   20      0.40      0.00
   -1   17   20      0.60      0.00
    0   17   20     -0.60      0.00
    1   17   20      0.19      0.00
    2   17   20     -0.21      0.00
    0  -10   21      0.12      0.00
    1  -10   21     -0.23      0.00
   -1   -9   21      0.32      0.00
    0   -9   21      0.54      0.00
    1   -9   21      0.39      0.00
    2   -9   21     -0.24      0.00
   -2   -8   21      0.37      0.00
   -1   -8   21     -0.69      0.00
    0   -8   21     -0.58      0.00
    1   -8   21     -0.13      0.00
    2   -8   21      0.82      0.00
    3   -8   21      0.06      0.00
   -2   -7   21      0.48      0.00
   -1   -7   21     -0.79      0.00
    0   -7   21      0.30      0.00
    2   -7   21      0.35      0.00
    3   -7   21     -0.03      0.00
   -3   -6   21     -0.36      0.00
   -2   -6   21      0.16      0.00
   -1   -6   21     -0.96      0.00
    3   -6   21      0.34      0.00
    4   -6   21     -0.03      0.00
   -3   -5   21     -0.38      0.00
   -2   -5   21      0.65      0.00
    4   -5   21     -0.72      0.00
   -3   -4   21     -0.87      0.00
   -2   -4   21      1.36      0.00
   -3   -3   21     -0.26      0.00
   -3   -2   21     -0.12      0.00
    5   -2   21     -0.05      0.00
   -4   -1   21      0.29      0.00
   -3   -1   21      0.40      0.00
    5   -1   21     -0.15      0.00
   -4    0   21     -0.03      0.00
   -3    0   21     -0.47      0.00
    5    0   21     -0.01      0.00
   -4    1   21     -0.41      0.00
    5    1   21      0.21      0.00
   -4    2   21      0.42      0.00
    5    2   21      0.20      0.00
   -4    3   21     -0.48      0.00
    5    3   21     -0.33      0.00
   -4    4   21      0.42      0.00
    4    4   21      0.41      0.00
    5    4   21     -0.18      0.00
   -4    5   21      0.06      0.00
    4    5   21     -0.11      0.00
    5    5   21      0.02      0.00
   -4    6   21      0.29      0.00
    4    6   21     -0.61      0.00
    5    6   21     -0.11      0.00
   -4    7   21     -0.44      0.00
    4    7   21      0.48      0.00
    5    7   21      0.52      0.00
   -4    8   21     -0.03      0.00
    3    8   21     -0.93      0.00
    4    8   21     -0.79      0.00
    5    8   21     -0.23      0.00
    3    9   21      0.54      0.00
    4    9   21      0.45      0.00
    5    9   21     -0.15      0.00
   -3   10   21      0.16      0.00
    2   10   21     -0.79      0.00
    3   10   21      0.31      0.00
    4   10   21     -0.10      0.00
   -3   11   21      0.04      0.00
    2   11   21     -0.56      0.00
    3   11   21     -0.02      0.00
    4   11   21      0.28      0.00
   -3   12   21      0.33      0.00
    1   12   21     -0.75      0.00
    2   12   21     -0.04      0.00
    3   12   21     -0.33      0.00
    4   12   21     -0.08      0.00
    0   13   21     -0.83      0.00
    1   13   21     -0.49      0.00
    2   13   21      0.12      0.00
    3   13   21      0.32      0.00
    4   13   21     -0.72      0.00
   -2   14   21      0.40      0.00
   -1   14   21      0.35      0.00
    0   14   21      0.17      0.00
    1   14   21      0.83      0.00
    2   14   21      0.18      0.00
    3   14   21      0.31      0.00
   -1   15   21      0.58      0.00
    0   15   21     -0.12      0.00
    1   15   21     -0.41      0.00
    2   15   21     -0.32      0.00
    3   15   21      0.36      0.00
   -1   16   21      0.41      0.00
    0   16   21      0.04      0.00
    1   16   21     -0.11      0.00
    2   16   21     -0.35      0.00
   -1   -8   22     -0.77      0.00
    0   -8   22     -0.39      0.00
    1   -8   22     -0.34      0.00
    2   -8   22      0.36      0.00
   -1   -7   22     -0.59      0.00
    0   -7   22      0.25      0.00
    1   -7   22     -0.47      0.00
    2   -7   22     -0.44      0.00
   -2   -6   22     -0.08      0.00
   -1   -6   22     -0.08      0.00
    0   -6   22      0.73      0.00
    1   -6   22      0.81      0.00
    2   -6   22     -0.35      0.00
    3   -6   22      0.02      0.00
   -2   -5   22      0.35      0.00
   -1   -5   22     -0.30      0.00
    3   -5   22      0.42      0.00
   -2   -4   22      0.08      0.00
    4   -4   22      0.53      0.00
   -3   -3   22      0.42      0.00
   -2   -3   22     -0.88      0.00
   -3   -2   22      0.05      0.00
   -2   -2   22      0.39      0.00
   -3   -1   22      0.50      0.00
   -3    0   22     -0.25      0.00
    4    0   22      0.02      0.00
   -3    1   22      0.45      0.00
    4    1   22     -0.22      0.00
    5    1   22     -0.08      0.00
   -3    2   22      0.02      0.00
    4    2   22      0.94      0.00
    5    2   22      0.24      0.00
   -3    3   22     -0.48      0.00
    4    3   22     -0.19      0.00
    5    3   22     -0.29      0.00
   -3    4   22      0.66      0.00
    4    4   22     -0.54      0.00
    5    4   22     -0.12      0.00
   -3    5   22     -0.36      0.00
    4    5   22      0.52      0.00
    5    5   22      0.08      0.00
   -3    6   22      1.13      0.00
    3    6   22     -1.20      0.00
    4    6   22     -0.99      0.00
    5    6   22     -0.04      0.00
   -3    7   22     -0.49      0.00
    3    7   22      0.80      0.00
    4    7   22      0.66      0.00
   -3    8   22      0.45      0.00
    3    8   22      0.54      0.00
    4    8   22      0.71      0.00
   -3    9   22      0.06      0.00
    2    9   22     -0.45      0.00
    3    9   22     -0.26      0.00
    4    9   22      0.02      0.00
   -3   10   22      0.15      0.00
    2   10   22      0.12      0.00
    3   10   22      0.44      0.00
    4   10   22     -0.20      0.00
    1   11   22     -0.54      0.00
    2   11   22     -0.34      0.00
    3   11   22     -0.29      0.00
    4   11   22     -0.23      0.00
   -1   12   22      0.48      0.00
    0   12   22     -0.52      0.00
    1   12   22     -0.27      0.00
    2   12   22      0.05      0.00
    3   12   22     -0.17      0.00
   -2   13   22     -0.21      0.00
   -1   13   22     -0.67      0.00
    0   13   22     -0.20      0.00
    1   13   22      0.32      0.00
    2   13   22     -0.01      0.00
    3   13   22      0.34      0.00
   -1   14   22      0.05      0.00
    0   14   22      0.40      0.00
    1   14   22      0.15      0.00
    2   14   22      0.21      0.00
    3   14   22     -0.01      0.00
   -1   15   22      0.17      0.00
    0   15   22      0.50      0.00
    1   15   22     -0.03      0.00
    2   15   22      0.03      0.00
    0   -7   23     -0.12      0.00
    1   -7   23     -0.01      0.00
   -1   -6   23      0.72      0.00
    0   -6   23     -0.06      0.00
    1   -6   23      0.55      0.00
    2   -6   23     -0.01      0.00
   -1   -5   23      0.91      0.00
    0   -5   23     -0.38      0.00
    1   -5   23     -0.06      0.00
    2   -5   23      0.18      0.00
    3   -5   23      0.12      0.00
   -2   -4   23     -0.42      0.00
   -1   -4   23      0.88      0.00
    0   -4   23     -0.47      0.00
    2   -4   23      0.11      0.00
    3   -4   23     -0.78      0.00
   -2   -3   23     -0.24      0.00
   -1   -3   23     -0.51      0.00
   -2   -2   23     -0.20      0.00
   -1   -2   23     -0.62      0.00
    4   -2   23      0.16      0.00
   -2   -1   23     -0.22      0.00
    4   -1   23     -0.48      0.00
   -3    0   23      0.00      0.00
   -2    0   23     -1.46      0.00
    4    0   23      0.08      0.00
   -3    1   23     -0.13      0.00
   -2    1   23     -0.17      0.00
    4    1   23      0.17      0.00
   -3    2   23     -0.21      0.00
    4    2   23      0.09      0.00
   -3    3   23     -0.03      0.00
    4    3   23      0.09      0.00
   -3    4   23      0.34      0.00
    3    4   23     -1.08      0.00
    4    4   23     -0.64      0.00
   -3    5   23     -0.13      0.00
    3    5   23      0.98      0.00
    4    5   23      0.32      0.00
   -3    6   23      0.38      0.00
    3    6   23     -0.07      0.00
    4    6   23     -0.23      0.00
   -3    7   23     -0.68      0.00
    2    7   23      0.01      0.00
    3    7   23      0.31      0.00
    4    7   23      0.74      0.00
   -3    8   23      0.19      0.00
    2    8   23     -0.12      0.00
    3    8   23      0.68      0.00
    4    8   23      0.45      0.00
    1    9   23     -0.61      0.00
    2    9   23     -0.01      0.00
    3    9   23     -0.84      0.00
    4    9   23     -0.62      0.00
    1   10   23      0.20      0.00
    2   10   23      0.69      0.00
    3   10   23      0.31      0.00
   -1   11   23     -0.33      0.00
    0   11   23     -0.83      0.00
    1   11   23      0.18      0.00
    2   11   23      0.04      0.00
    3   11   23     -0.19      0.00
   -1   12   23     -0.23      0.00
    0   12   23      0.02      0.00
    1   12   23     -0.10      0.00
    2   12   23     -0.19      0.00
    3   12   23     -0.27      0.00
   -1   13   23     -0.30      0.00
    0   13   23      0.45      0.00
    1   13   23      0.32      0.00
    2   13   23      0.33      0.00
    0   14   23      0.20      0.00
    1   14   23     -0.06      0.00
    2   14   23      0.27      0.00
    0   -5   24      0.32      0.00
    1   -5   24     -0.03      0.00
   -1   -4   24     -0.47      0.00
    0   -4   24     -0.45      0.00
    1   -4   24     -0.20      0.00
    2   -4   24      0.08      0.00
   -1   -3   24     -0.37      0.00
    0   -3   24      1.21      0.00
    1   -3   24      0.33      0.00
    2   -3   24     -0.26      0.00
   -2   -2   24     -0.06      0.00
   -1   -2   24     -0.27      0.00
    0   -2   24     -1.08      0.00
   -2   -1   24     -0.03      0.00
   -1   -1   24      0.64      0.00
   -2    0   24      0.11      0.00
   -1    0   24      0.02      0.00
   -2    1   24      0.69      0.00
    3    1   24      0.14      0.00
   -2    2   24      0.71      0.00
    3    2   24     -0.33      0.00
    4    2   24     -0.13      0.00
   -2    3   24      0.48      0.00
    3    3   24      0.52      0.00
    4    3   24      0.16      0.00
   -2    4   24      0.17      0.00
    3    4   24     -0.21      0.00
    4    4   24     -0.25      0.00
   -2    5   24      0.26      0.00
    2    5   24     -0.49      0.00
    3    5   24     -0.32      0.00
    4    5   24     -0.17      0.00
   -2    6   24     -0.12      0.00
    2    6   24     -0.30      0.00
    3    6   24      0.88      0.00
    4    6   24      0.30      0.00
   -2    7   24     -0.45      0.00
    2    7   24     -0.30      0.00
    3    7   24     -0.57      0.00
   -2    8   24      1.83      0.00
    1    8   24      0.44      0.00
    2    8   24      0.67      0.00
    3    8   24      0.11      0.00
   -2    9   24     -0.93      0.00
    0    9   24     -0.70      0.00
    1    9   24     -0.50      0.00
    2    9   24      0.47      0.00
    3    9   24     -0.32      0.00
   -1   10   24     -0.01      0.00
    0   10   24      0.19      0.00
    1   10   24      0.26      0.00
    2   10   24      0.01      0.00
    3   10   24      0.05      0.00
   -1   11   24     -0.06      0.00
    0   11   24      0.32      0.00
    1   11   24      0.42      0.00
    2   11   24      0.05      0.00
    0   12   24      0.07      0.00
    1   12   24     -0.10      0.00
    2   12   24     -0.19      0.00
    0   13   24      0.12      0.00
    1   13   24      0.05      0.00
    0   -3   25      0.60      0.00
    1   -3   25     -0.06      0.00
    0   -2   25     -0.34      0.00
    1   -2   25     -0.09      0.00
    2   -2   25      0.35      0.00
   -1   -1   25     -0.08      0.00
    0   -1   25      0.00      0.00
    1   -1   25     -0.18      0.00
   -1    0   25     -0.27      0.00
    0    0   25      0.33      0.00
   -1    1   25     -0.59      0.00
    3    1   25      0.47      0.00
   -1    2   25     -0.01      0.00
    2    2   25     -0.45      0.00
    3    2   25     -0.45      0.00
   -1    3   25      0.11      0.00
    2    3   25      0.56      0.00
    3    3   25      0.26      0.00
   -1    4   25     -0.39      0.00
    2    4   25     -0.17      0.00
    3    4   25     -0.06      0.00
    1    5   25      1.49      0.00
    2    5   25     -0.45      0.00
    3    5   25     -0.61      0.00
    1    6   25     -0.56      0.00
    2    6   25     -0.10      0.00
    3    6   25      0.70      0.00
    0    7   25     -0.54      0.00
    1    7   25     -0.21      0.00
    2    7   25      0.12      0.00
    3    7   25     -0.63      0.00
   -1    8   25      0.51      0.00
    0    8   25     -0.59      0.00
    1    8   25     -0.21      0.00
    2    8   25      0.22      0.00
   -1    9   25     -0.38      0.00
    0    9   25      0.52      0.00
    1    9   25     -0.22      0.00
    2    9   25      0.11      0.00
    0   10   25      0.30      0.00
    1   10   25      0.19      0.00
    2   10   25     -0.54      0.00
    0   11   25      0.27      0.00
    1   11   25      0.16      0.00
    0    1   26      0.10      0.00
    1    1   26     -0.07      0.00
    0    2   26     -0.47      0.00
    2    2   26      0.07      0.00
    0    3   26      0.44      0.00
    1    3   26      0.25      0.00
    2    3   26     -0.12      0.00
    1    4   26      0.53      0.00
    2    4   26      0.27      0.00
    0    5   26     -0.42      0.00
    1    5   26      0.03      0.00
    2    5   26     -0.12      0.00
    0    6   26     -0.28      0.00
    1    6   26     -0.77      0.00
    2    6   26     -0.22      0.00
    0    7   26      0.09      0.00
    1    7   26     -0.29      0.00
    1    8   26     -0.38      0.00
    0    0    0      0.00      0.00
# SQUEEZE RESULTS (Version = 170121)
# Note: Data are Listed for all Voids in the P1 Unit Cell
# i.e. Centre of Gravity, Solvent Accessible Volume,
# Recovered number of Electrons in the Void and
# Details about the Squeezed Material
loop_
  _platon_squeeze_void_nr
  _platon_squeeze_void_average_x
  _platon_squeeze_void_average_y
  _platon_squeeze_void_average_z
  _platon_squeeze_void_volume
  _platon_squeeze_void_count_electrons
  _platon_squeeze_void_content
   1 -0.190  0.500  0.000       780       195 ' '
# Missing Reflections Below sin(th)/lambda = 0.25
loop_
  _platon_missing_refln_index_h
  _platon_missing_refln_index_k
  _platon_missing_refln_index_l
  _platon_missing_refln_theta
    0    1    0     1.351
    0   -2    1     3.137
    0   -1    1     1.941
    0    0    1     1.162
    0    1    1     1.609
    0    2    1     2.736
    0    3    1     4.006
    0   -1    2     2.900
   -1    0    2     4.571
    0    0    2     2.325
   -1    1    2     4.659
    0    1    2     2.461
   -1    0    3     5.334
   -1    1    3     5.355
   -1    0    4     6.224
   -2    1    4     9.160
   -1    1    4     6.195
   -2    2    4     9.350
   -1    0    5     7.196
   -2    1    5     9.862
   -2    2    5    10.009
   -1    0    6     8.222
_platon_squeeze_void_probe_radius                  1.20
_platon_squeeze_details
)
TITL shelxl           P -1         R = 0.03
CELL    5.4831   15.3486   17.9094     79.09     84.67     88.07
SPGR P-1
# Solvent Accessible Volume =       781
# Electrons Found in S.A.V. =       190
# Note: Atoms in Void are Labelled as Cxxx and Qxxx for all Others
C101 0.034 0.605 0.176 !       7.54 eA-3
C102 0.562 0.033 0.255 !       6.34 eA-3
C103 0.407 0.033 0.236 !       6.13 eA-3
C104 0.128 0.132 0.092 !       3.11 eA-3
C105 0.037 0.716 0.050 !       3.04 eA-3
C106 0.531 0.566 0.144 !       2.46 eA-3
C107 0.882 0.479 0.222 !       2.39 eA-3
C108 0.436 0.291 0.279 !       2.30 eA-3
C109 0.405 0.146 0.236 !       1.99 eA-3
C110 0.437 0.187 0.285 !       1.96 eA-3
C111 0.466 0.161 0.096 !       1.92 eA-3
C112 0.063 0.075 0.233 !       1.80 eA-3
C113 0.625 0.183 0.302 !       1.78 eA-3
C114 0.059 0.646 0.081 !       1.53 eA-3
C115 0.219 0.482 0.066 !       1.50 eA-3
C116 0.844 0.615 0.112 !       1.43 eA-3
C117 0.882 0.212 0.050 !       1.35 eA-3
C118 0.998 0.464 0.069 !       1.33 eA-3
C119 0.220 0.172 0.177 !       1.19 eA-3
C120 0.443 0.504 0.156 !       1.13 eA-3
C121 0.184 0.263 0.177 !       1.06 eA-3
C122 0.875 0.339 0.280 !       1.03 eA-3
C123 0.165 0.184 0.266 !       0.95 eA-3
Q124 0.716 0.454 0.295 !       0.94 eA-3
C125 0.540 0.519 0.100 !       0.91 eA-3
C126 0.789 0.290 0.074 !       0.89 eA-3
C127 0.904 0.159 0.281 !       0.87 eA-3
C128 0.348 0.292-0.001 !       0.86 eA-3
C129 0.215 0.259 0.012 !       0.79 eA-3
C130 0.932 0.237 0.280 !       0.72 eA-3
C131 0.631 0.254 0.065 !       0.68 eA-3
C132 0.472 0.293 0.155 !       0.67 eA-3
C133 0.502 0.201 0.168 !       0.65 eA-3
C134 0.399 0.339 0.028 !       0.61 eA-3
C135 0.559 0.339 0.209 !       0.58 eA-3
Q136 0.466 0.516 0.207 !       0.57 eA-3
C137 0.309 0.453 0.017 !       0.56 eA-3
)
;
_shelx_fab_checksum              42147
loop_
_space_group_symop_id
_space_group_symop_operation_xyz
1 +X,+Y,+Z
2 -X,-Y,-Z
loop_
_atom_site_label
_atom_site_type_symbol
_atom_site_fract_x
_atom_site_fract_y
_atom_site_fract_z
_atom_site_U_iso_or_equiv
_atom_site_adp_type
_atom_site_occupancy
_atom_site_site_symmetry_order
_atom_site_calc_flag
_atom_site_refinement_flags_posn
_atom_site_refinement_flags_adp
_atom_site_refinement_flags_occupancy
_atom_site_disorder_assembly
_atom_site_disorder_group
Br1 Br 0.61778(3) 0.49760(2) 0.65335(2) 0.02492(6) Uani 0.86 1 d . . P A 1
O1 O -0.23414(19) 0.99752(7) 0.43846(7) 0.0330(2) Uani 1 1 d . . . . .
H1O H -0.361175 1.025836 0.450246 0.040 Uiso 0.5 1 calc R U P . .
O2 O -0.37316(19) 0.90164(7) 0.54365(6) 0.0333(2) Uani 1 1 d . . . . .
H2O H -0.472576 0.943667 0.547797 0.040 Uiso 0.5 1 calc R U P . .
O3 O 1.2404(2) 0.02968(9) 0.94364(7) 0.0508(4) Uani 1 1 d . . . . .
H3O H 1.284084 -0.002595 0.983653 0.061 Uiso 1 1 calc R U . . .
O4 O 1.6190(2) 0.08262(9) 0.93795(7) 0.0491(4) Uani 1 1 d . . . . .
N1 N 0.61477(18) 0.62180(6) 0.50159(6) 0.01695(18) Uani 1 1 d . . . . .
N2 N 1.06360(18) 0.37333(6) 0.63117(5) 0.01761(18) Uani 1 1 d . . . . .
C1 C 0.5856(2) 0.68179(7) 0.43970(6) 0.0164(2) Uani 1 1 d . . . . .
C2 C 0.8028(2) 0.56100(7) 0.50007(6) 0.0156(2) Uani 1 1 d . . . . .
C3 C 0.8341(2) 0.49686(7) 0.56598(6) 0.0166(2) Uani 1 1 d . . . . .
H3 H 0.722551 0.494943 0.610118 0.020 Uiso 0.14 1 calc R U P A 2
C4 C 1.0306(2) 0.43561(7) 0.56651(6) 0.0156(2) Uani 1 1 d . . . . .
C5 C 1.2519(2) 0.31817(7) 0.62954(6) 0.0174(2) Uani 1 1 d . . . . .
C6 C 0.3818(2) 0.74719(7) 0.44853(7) 0.0180(2) Uani 1 1 d . . . . .
C7 C 0.3715(2) 0.83249(8) 0.40334(7) 0.0215(2) Uani 1 1 d . . . . .
H7 H 0.497866 0.850942 0.364049 0.026 Uiso 1 1 calc R U . . .
C8 C 0.1761(2) 0.89028(8) 0.41596(8) 0.0235(2) Uani 1 1 d . . . . .
H8 H 0.169802 0.947763 0.385062 0.028 Uiso 1 1 calc R U . . .
C9 C -0.0094(2) 0.86401(8) 0.47361(8) 0.0226(2) Uani 1 1 d . . . . .
C10 C 0.0019(2) 0.78003(8) 0.52015(8) 0.0224(2) Uani 1 1 d . . . . .
H10 H -0.122789 0.762421 0.560181 0.027 Uiso 1 1 calc R U . . .
C11 C 0.1961(2) 0.72241(8) 0.50763(7) 0.0202(2) Uani 1 1 d . . . . .
H11 H 0.203343 0.665513 0.539456 0.024 Uiso 1 1 calc R U . . .
C12 C -0.2199(2) 0.92489(8) 0.48649(8) 0.0243(2) Uani 1 1 d . . . . .
C13 C 1.2911(2) 0.25772(8) 0.70355(7) 0.0199(2) Uani 1 1 d . . . . .
C14 C 1.4993(2) 0.26617(8) 0.74048(7) 0.0241(2) Uani 1 1 d . . . . .
H14 H 1.616588 0.310068 0.718748 0.029 Uiso 1 1 calc R U . . .
C15 C 1.5343(2) 0.20990(9) 0.80938(8) 0.0274(3) Uani 1 1 d . . . . .
H15 H 1.675345 0.215826 0.834960 0.033 Uiso 1 1 calc R U . . .
C16 C 1.3642(2) 0.14504(10) 0.84106(8) 0.0286(3) Uani 1 1 d . . . . .
C17 C 1.1536(2) 0.13737(10) 0.80487(8) 0.0315(3) Uani 1 1 d . . . . .
H17 H 1.035679 0.093792 0.826897 0.038 Uiso 1 1 calc R U . . .
C18 C 1.1175(2) 0.19410(9) 0.73619(8) 0.0268(3) Uani 1 1 d . . . . .
H18 H 0.973818 0.189448 0.711446 0.032 Uiso 1 1 calc R U . . .
C19 C 1.4178(3) 0.08277(11) 0.91246(9) 0.0352(3) Uani 1 1 d . . . . .
loop_
_atom_site_aniso_label
_atom_site_aniso_U_11
_atom_site_aniso_U_22
_atom_site_aniso_U_33
_atom_site_aniso_U_23
_atom_site_aniso_U_13
_atom_site_aniso_U_12
Br1 0.02694(8) 0.02404(8) 0.01811(8) 0.00475(5) 0.00567(5) 0.01070(5)
O1 0.0303(5) 0.0232(4) 0.0453(6) -0.0058(4) -0.0097(4) 0.0172(4)
O2 0.0272(5) 0.0345(5) 0.0381(6) -0.0097(4) -0.0033(4) 0.0175(4)
O3 0.0309(6) 0.0639(8) 0.0404(7) 0.0391(6) -0.0124(5) -0.0073(5)
O4 0.0296(5) 0.0634(8) 0.0396(6) 0.0340(6) -0.0152(5) -0.0042(5)
N1 0.0159(4) 0.0160(4) 0.0166(4) 0.0021(3) -0.0020(3) 0.0077(3)
N2 0.0181(4) 0.0170(4) 0.0143(4) 0.0050(3) -0.0018(3) 0.0069(3)
C1 0.0153(5) 0.0145(4) 0.0173(5) 0.0020(4) -0.0032(4) 0.0062(4)
C2 0.0147(5) 0.0148(4) 0.0147(5) 0.0025(4) -0.0013(4) 0.0067(4)
C3 0.0160(5) 0.0166(4) 0.0140(5) 0.0033(4) 0.0003(4) 0.0068(4)
C4 0.0159(5) 0.0146(4) 0.0135(5) 0.0034(4) -0.0011(4) 0.0060(4)
C5 0.0170(5) 0.0164(5) 0.0160(5) 0.0039(4) -0.0032(4) 0.0058(4)
C6 0.0171(5) 0.0160(5) 0.0198(5) -0.0001(4) -0.0048(4) 0.0081(4)
C7 0.0216(5) 0.0173(5) 0.0238(6) 0.0007(4) -0.0038(4) 0.0076(4)
C8 0.0248(6) 0.0168(5) 0.0282(6) -0.0013(4) -0.0080(5) 0.0102(4)
C9 0.0208(5) 0.0197(5) 0.0284(6) -0.0065(4) -0.0083(5) 0.0114(4)
C10 0.0185(5) 0.0211(5) 0.0269(6) -0.0044(4) -0.0022(4) 0.0080(4)
C11 0.0184(5) 0.0178(5) 0.0227(5) -0.0009(4) -0.0025(4) 0.0082(4)
C12 0.0222(6) 0.0214(5) 0.0312(6) -0.0087(5) -0.0087(5) 0.0118(4)
C13 0.0188(5) 0.0193(5) 0.0170(5) 0.0068(4) -0.0024(4) 0.0088(4)
C14 0.0218(6) 0.0242(5) 0.0217(6) 0.0089(4) -0.0057(4) 0.0038(4)
C15 0.0226(6) 0.0320(6) 0.0224(6) 0.0105(5) -0.0073(5) 0.0035(5)
C16 0.0213(6) 0.0340(7) 0.0223(6) 0.0152(5) -0.0041(5) 0.0065(5)
C17 0.0210(6) 0.0361(7) 0.0286(7) 0.0182(5) -0.0055(5) 0.0002(5)
C18 0.0205(6) 0.0303(6) 0.0238(6) 0.0111(5) -0.0063(5) 0.0034(5)
C19 0.0238(6) 0.0438(8) 0.0276(7) 0.0213(6) -0.0061(5) 0.0024(6)
loop_
_atom_type_symbol
_atom_type_description
_atom_type_scat_dispersion_real
_atom_type_scat_dispersion_imag
_atom_type_scat_source
H H 0.0000 0.0000
;
International Tables for Crystallography
(Vol. C, Table 6.1.1.4)
;
N N 0.0061 0.0033
;
International Tables for Crystallography
(Vol. C, Tables 4.2.6.8 and 6.1.1.4)
;
O O 0.0106 0.0060
;
International Tables for Crystallography
(Vol. C, Tables 4.2.6.8 and 6.1.1.4)
;
C C 0.0033 0.0016
;
International Tables for Crystallography
(Vol. C, Tables 4.2.6.8 and 6.1.1.4)
;
Br Br -0.2901 2.4595
;
International Tables for Crystallography
(Vol. C, Tables 4.2.6.8 and 6.1.1.4)
;
Cl Cl 0.1484 0.1585
;
International Tables for Crystallography
(Vol. C, Tables 4.2.6.8 and 6.1.1.4)
;
loop_
_geom_angle_atom_site_label_1
_geom_angle_atom_site_label_2
_geom_angle_atom_site_label_3
_geom_angle
_geom_angle_site_symmetry_1
_geom_angle_site_symmetry_3
_geom_angle_publ_flag
C12 O1 H1O 109.5 . . ?
C12 O2 H2O 109.5 . . ?
C19 O3 H3O 109.5 . . ?
C1 N1 C2 118.87(10) . . ?
C5 N2 C4 118.16(10) . . ?
N1 C1 C5 120.34(10) . 2_766 ?
N1 C1 C6 114.50(10) . . ?
C5 C1 C6 125.15(9) 2_766 . ?
N1 C2 C3 119.00(10) . . ?
N1 C2 C4 120.54(9) . 2_766 ?
C3 C2 C4 120.43(9) . 2_766 ?
C4 C3 C2 119.96(10) . . ?
C4 C3 Br1 121.04(8) . . ?
C2 C3 Br1 118.96(8) . . ?
C4 C3 H3 120.0 . . ?
C2 C3 H3 120.0 . . ?
N2 C4 C3 120.17(10) . . ?
N2 C4 C2 120.22(9) . 2_766 ?
C3 C4 C2 119.61(9) . 2_766 ?
N2 C5 C1 121.69(10) . 2_766 ?
N2 C5 C13 115.58(10) . . ?
C1 C5 C13 122.71(10) 2_766 . ?
C7 C6 C11 118.73(10) . . ?
C7 C6 C1 123.76(11) . . ?
C11 C6 C1 117.45(10) . . ?
C8 C7 C6 120.26(12) . . ?
C8 C7 H7 119.9 . . ?
C6 C7 H7 119.9 . . ?
C9 C8 C7 120.31(11) . . ?
C9 C8 H8 119.8 . . ?
C7 C8 H8 119.8 . . ?
C8 C9 C10 119.95(11) . . ?
C8 C9 C12 120.48(11) . . ?
C10 C9 C12 119.57(12) . . ?
C11 C10 C9 119.81(12) . . ?
C11 C10 H10 120.1 . . ?
C9 C10 H10 120.1 . . ?
C10 C11 C6 120.90(11) . . ?
C10 C11 H11 119.5 . . ?
C6 C11 H11 119.5 . . ?
O2 C12 O1 124.22(12) . . ?
O2 C12 C9 118.43(12) . . ?
O1 C12 C9 117.35(12) . . ?
C14 C13 C18 120.05(11) . . ?
C14 C13 C5 119.83(11) . . ?
C18 C13 C5 120.11(11) . . ?
C15 C14 C13 119.56(12) . . ?
C15 C14 H14 120.2 . . ?
C13 C14 H14 120.2 . . ?
C16 C15 C14 120.42(12) . . ?
C16 C15 H15 119.8 . . ?
C14 C15 H15 119.8 . . ?
C15 C16 C17 120.15(11) . . ?
C15 C16 C19 118.32(12) . . ?
C17 C16 C19 121.49(12) . . ?
C18 C17 C16 119.44(12) . . ?
C18 C17 H17 120.3 . . ?
C16 C17 H17 120.3 . . ?
C17 C18 C13 120.35(12) . . ?
C17 C18 H18 119.8 . . ?
C13 C18 H18 119.8 . . ?
O4 C19 O3 124.09(12) . . ?
O4 C19 C16 120.61(13) . . ?
O3 C19 C16 115.30(12) . . ?
loop_
_geom_bond_atom_site_label_1
_geom_bond_atom_site_label_2
_geom_bond_distance
_geom_bond_site_symmetry_2
_geom_bond_publ_flag
Br1 C3 1.8753(11) . ?
O1 C12 1.2777(16) . ?
O1 H1O 0.8400 . ?
O2 C12 1.2661(18) . ?
O2 H2O 0.8400 . ?
O3 C19 1.3048(18) . ?
O3 H3O 0.8400 . ?
O4 C19 1.2318(18) . ?
N1 C1 1.3184(13) . ?
N1 C2 1.3689(13) . ?
N2 C5 1.3150(14) . ?
N2 C4 1.3769(13) . ?
C1 C5 1.4578(16) 2_766 ?
C1 C6 1.4943(15) . ?
C2 C3 1.4067(14) . ?
C2 C4 1.4270(15) 2_766 ?
C3 C4 1.4051(14) . ?
C3 H3 0.9500 . ?
C5 C13 1.4957(15) . ?
C6 C7 1.4053(15) . ?
C6 C11 1.4055(17) . ?
C7 C8 1.3975(16) . ?
C7 H7 0.9500 . ?
C8 C9 1.3921(19) . ?
C8 H8 0.9500 . ?
C9 C10 1.3991(17) . ?
C9 C12 1.4894(16) . ?
C10 C11 1.3906(15) . ?
C10 H10 0.9500 . ?
C11 H11 0.9500 . ?
C13 C14 1.3930(17) . ?
C13 C18 1.3945(18) . ?
C14 C15 1.3911(16) . ?
C14 H14 0.9500 . ?
C15 C16 1.3905(19) . ?
C15 H15 0.9500 . ?
C16 C17 1.3946(19) . ?
C16 C19 1.4912(17) . ?
C17 C18 1.3923(16) . ?
C17 H17 0.9500 . ?
C18 H18 0.9500 . ?
loop_
_geom_hbond_atom_site_label_D
_geom_hbond_atom_site_label_H
_geom_hbond_atom_site_label_A
_geom_hbond_site_symmetry_D
_geom_hbond_site_symmetry_H
_geom_hbond_site_symmetry_A
_geom_hbond_distance_DA
_geom_hbond_distance_DH
_geom_hbond_distance_HA
_geom_hbond_angle_DHA
_geom_hbond_publ_flag
O1 H1O O2 . . 2_476 2.6400(15) 0.840 1.811 168.7 no
O2 H2O O1 . . 2_476 2.6400(15) 0.840 1.837 159.4 no
O3 H3O O4 . . 2_857 2.6255(17) 0.840 1.790 172.7 no
loop_
_geom_torsion_atom_site_label_1
_geom_torsion_atom_site_label_2
_geom_torsion_atom_site_label_3
_geom_torsion_atom_site_label_4
_geom_torsion
_geom_torsion_site_symmetry_1
_geom_torsion_site_symmetry_2
_geom_torsion_site_symmetry_3
_geom_torsion_site_symmetry_4
_geom_torsion_publ_flag
C2 N1 C1 C5 1.35(17) . . . 2_766 ?
C2 N1 C1 C6 -177.55(10) . . . . ?
C1 N1 C2 C3 -179.93(11) . . . . ?
C1 N1 C2 C4 2.12(17) . . . 2_766 ?
N1 C2 C3 C4 -177.94(11) . . . . ?
C4 C2 C3 C4 0.01(19) 2_766 . . . ?
N1 C2 C3 Br1 -0.25(15) . . . . ?
C4 C2 C3 Br1 177.70(9) 2_766 . . . ?
C5 N2 C4 C3 -178.99(11) . . . . ?
C5 N2 C4 C2 0.30(17) . . . 2_766 ?
C2 C3 C4 N2 179.28(11) . . . . ?
Br1 C3 C4 N2 1.63(16) . . . . ?
C2 C3 C4 C2 -0.01(19) . . . 2_766 ?
Br1 C3 C4 C2 -177.66(9) . . . 2_766 ?
C4 N2 C5 C1 -3.83(17) . . . 2_766 ?
C4 N2 C5 C13 174.61(10) . . . . ?
N1 C1 C6 C7 155.74(12) . . . . ?
C5 C1 C6 C7 -23.10(19) 2_766 . . . ?
N1 C1 C6 C11 -21.62(16) . . . . ?
C5 C1 C6 C11 159.54(11) 2_766 . . . ?
C11 C6 C7 C8 -1.72(18) . . . . ?
C1 C6 C7 C8 -179.05(11) . . . . ?
C6 C7 C8 C9 0.28(19) . . . . ?
C7 C8 C9 C10 1.23(19) . . . . ?
C7 C8 C9 C12 -179.07(12) . . . . ?
C8 C9 C10 C11 -1.27(19) . . . . ?
C12 C9 C10 C11 179.02(12) . . . . ?
C9 C10 C11 C6 -0.20(19) . . . . ?
C7 C6 C11 C10 1.68(18) . . . . ?
C1 C6 C11 C10 179.18(11) . . . . ?
C8 C9 C12 O2 -173.82(12) . . . . ?
C10 C9 C12 O2 5.89(18) . . . . ?
C8 C9 C12 O1 6.45(18) . . . . ?
C10 C9 C12 O1 -173.84(12) . . . . ?
N2 C5 C13 C14 -113.96(13) . . . . ?
C1 C5 C13 C14 64.46(17) 2_766 . . . ?
N2 C5 C13 C18 64.90(16) . . . . ?
C1 C5 C13 C18 -116.68(14) 2_766 . . . ?
C18 C13 C14 C15 1.0(2) . . . . ?
C5 C13 C14 C15 179.84(12) . . . . ?
C13 C14 C15 C16 0.6(2) . . . . ?
C14 C15 C16 C17 -1.6(2) . . . . ?
C14 C15 C16 C19 176.24(15) . . . . ?
C15 C16 C17 C18 1.1(2) . . . . ?
C19 C16 C17 C18 -176.67(15) . . . . ?
C16 C17 C18 C13 0.4(2) . . . . ?
C14 C13 C18 C17 -1.5(2) . . . . ?
C5 C13 C18 C17 179.67(13) . . . . ?
C15 C16 C19 O4 -7.8(3) . . . . ?
C17 C16 C19 O4 170.05(18) . . . . ?
C15 C16 C19 O3 173.11(16) . . . . ?
C17 C16 C19 O3 -9.0(2) . . . . ?
