#------------------------------------------------------------------------------
#$Date: 2021-07-05 19:13:21 +0300 (Mon, 05 Jul 2021) $
#$Revision: 267002 $
#$URL: file:///home/coder/svn-repositories/cod/cif/7/12/84/7128400.cif $
#------------------------------------------------------------------------------
#
# This file is available in the Crystallography Open Database (COD),
# http://www.crystallography.net/
#
# All data on this site have been placed in the public domain by the
# contributors.
#
data_7128400
loop_
_publ_author_name
'Hung, Ling-I'
'Hsieh, Tsung-Hsiu'
'Syu, Jhao-Yang'
'Chen, Pei-Lin'
'Lin, Chia-Her'
'Wang, Sue-Lein'
_publ_section_title
;
 A titanium(iii) phosphite exhibits polymorph-distinct redox activity
 involving proton-coupled electron transfer.
;
_journal_issue                   53
_journal_name_full
'Chemical communications (Cambridge, England)'
_journal_page_first              6542
_journal_page_last               6545
_journal_paper_doi               10.1039/d1cc01190a
_journal_volume                  57
_journal_year                    2021
_chemical_formula_sum            'H4 O7 P2 Ti'
_chemical_formula_weight         225.87
_space_group_crystal_system      monoclinic
_space_group_IT_number           14
_space_group_name_Hall           '-P 2yn'
_space_group_name_H-M_alt        'P 1 21/n 1'
_atom_sites_solution_hydrogens   difmap
_audit_creation_method           SHELXL-2014/6
_audit_update_record
;
2021-02-17 deposited with the CCDC.	2021-05-31 downloaded from the CCDC.
;
_cell_angle_alpha                90
_cell_angle_beta                 102.663(3)
_cell_angle_gamma                90
_cell_formula_units_Z            4
_cell_length_a                   5.0907(3)
_cell_length_b                   12.1407(7)
_cell_length_c                   10.2327(6)
_cell_measurement_reflns_used    8309
_cell_measurement_temperature    296(2)
_cell_measurement_theta_max      28.30
_cell_measurement_theta_min      2.64
_cell_volume                     617.05(6)
_computing_cell_refinement       'SAINT V8.34A (Bruker AXS Inc., 2013)'
_computing_data_collection       'APEX2 (Bruker AXS, 2010)'
_computing_data_reduction        'SAINT V8.34A (Bruker AXS Inc., 2013)'
_computing_molecular_graphics    'SHELXTL (Sheldrick, 2008)'
_computing_publication_material  SHELXTL
_computing_structure_refinement  'SHELXL-2014/6 (Sheldrick, 2014)'
_diffrn_ambient_temperature      296(2)
_diffrn_detector_area_resol_mean 8.3333
_diffrn_measured_fraction_theta_full 1.000
_diffrn_measured_fraction_theta_max 0.997
_diffrn_measurement_device_type  'Bruker APEX-II CCD'
_diffrn_measurement_method       '\f and \w scans'
_diffrn_radiation_type           MoK\a
_diffrn_radiation_wavelength     0.71073
_diffrn_reflns_av_R_equivalents  0.0395
_diffrn_reflns_av_unetI/netI     0.0367
_diffrn_reflns_Laue_measured_fraction_full 1.000
_diffrn_reflns_Laue_measured_fraction_max 0.997
_diffrn_reflns_limit_h_max       6
_diffrn_reflns_limit_h_min       -4
_diffrn_reflns_limit_k_max       16
_diffrn_reflns_limit_k_min       -15
_diffrn_reflns_limit_l_max       13
_diffrn_reflns_limit_l_min       -13
_diffrn_reflns_number            8309
_diffrn_reflns_point_group_measured_fraction_full 1.000
_diffrn_reflns_point_group_measured_fraction_max 0.997
_diffrn_reflns_theta_full        25.242
_diffrn_reflns_theta_max         28.296
_diffrn_reflns_theta_min         2.641
_exptl_absorpt_coefficient_mu    1.886
_exptl_absorpt_correction_T_max  0.9485
_exptl_absorpt_correction_T_min  0.8741
_exptl_absorpt_correction_type   multi-scan
_exptl_absorpt_process_details   'SADABS V2014/4 (Bruker AXS Inc.)'
_exptl_crystal_colour            colorless
_exptl_crystal_density_diffrn    2.431
_exptl_crystal_density_meas      ?
_exptl_crystal_density_method    'not measured'
_exptl_crystal_description       white
_exptl_crystal_F_000             448
_exptl_crystal_size_max          0.23
_exptl_crystal_size_mid          0.06
_exptl_crystal_size_min          0.06
_refine_diff_density_max         0.573
_refine_diff_density_min         -0.640
_refine_diff_density_rms         0.133
_refine_ls_extinction_method     none
_refine_ls_goodness_of_fit_ref   1.128
_refine_ls_hydrogen_treatment    mixed
_refine_ls_matrix_type           full
_refine_ls_number_parameters     134
_refine_ls_number_reflns         1533
_refine_ls_number_restraints     216
_refine_ls_restrained_S_all      1.066
_refine_ls_R_factor_all          0.0620
_refine_ls_R_factor_gt           0.0399
_refine_ls_shift/su_max          0.000
_refine_ls_shift/su_mean         0.000
_refine_ls_structure_factor_coef Fsqd
_refine_ls_weighting_details
'w=1/[\s^2^(Fo^2^)+(0.0374P)^2^+1.9107P] where P=(Fo^2^+2Fc^2^)/3'
_refine_ls_weighting_scheme      calc
_refine_ls_wR_factor_gt          0.0957
_refine_ls_wR_factor_ref         0.1044
_reflns_Friedel_coverage         0.000
_reflns_number_gt                1183
_reflns_number_total             1533
_reflns_threshold_expression     'I > 2\s(I)'
_cod_data_source_file            d1cc01190a2.cif
_cod_data_source_block           alpha-IV
_cod_depositor_comments
;
The following automatic conversions were performed:

data item '_exptl_crystal_density_meas' value 'not measured' was
changed to '?' -- the value is perceived as not measured.

Automatic conversion script
Id: cif_fix_values 7556 2019-12-06 15:28:31Z antanas 

 Adding full bibliography for 7128397--7128400.cif.
;
_cod_original_sg_symbol_H-M      'P 21/n'
_cod_database_code               7128400
_shelx_space_group_comment
;
The symmetry employed for this shelxl refinement is uniquely defined
by the following loop, which should always be used as a source of
symmetry information in preference to the above space-group names.
They are only intended as comments.
;
_shelxl_version_number           2014/6
_shelx_res_file
;
TITL 1_a.res in P2(1)/n
CELL  0.71073   5.0907  12.1407  10.2327   90.000  102.663   90.000
ZERR    4.000   0.0003   0.0007   0.0006    0.000    0.003    0.000
LATT 1
SYMM 1/2-X, 1/2+Y, 1/2-Z
SFAC O  H  P  Ti
UNIT 28  16  8  4
L.S. 4
ACTA
BOND $H
FMAP 2
PLAN 5
RIGU
ISOR 0.005 O4 O4'
EQIV $1 x-1/2, -y+3/2, z-1/2
HTAB O7 O1_$1
HTAB O7 O3_$1
EQIV $2 x+1/2, -y+3/2, z-1/2
HTAB O7 O2_$2
HTAB O7 O6
EQIV $3 -x+1, -y+1, -z
HTAB O7 O6_$3
HTAB O7 O6'_$3
DELU 0.02 P2 > O6 P2' > O6'
SIMU 0.02 P2 > O6 P2' > O6'
TEMP 23.000
WGHT    0.037400    1.910700
FVAR       0.56485   0.50857
TI1   4    0.791794    0.706136    0.265292    11.00000    0.02079    0.01582 =
         0.01550    0.00454    0.00825    0.00715
P1    3    0.375094    0.702218    0.478385    11.00000    0.01574    0.01348 =
         0.01031   -0.00113    0.00420   -0.00173
O1    1    0.617552    0.695093    0.414810    11.00000    0.01956    0.02641 =
         0.01603   -0.00172    0.00782    0.00165
O2    1    0.129134    0.751133    0.383728    11.00000    0.01727    0.01796 =
         0.01526   -0.00137    0.00061   -0.00140
O3    1    0.450265    0.769286    0.607632    11.00000    0.01952    0.01933 =
         0.01099   -0.00357    0.00320   -0.00366
PART 1  21.00
P2    3    0.911150    0.458862    0.188704    21.00000    0.02630    0.00776 =
         0.02290    0.00062    0.01243   -0.00013
O4    1    0.947576    0.560843    0.280646    21.00000    0.02291    0.01647 =
         0.02637   -0.00413    0.01310   -0.00314
O5    1    0.827813    0.360450    0.260159    21.00000    0.04075    0.01314 =
         0.02059    0.00195    0.00365   -0.00634
O6    1    0.729629    0.475536    0.055501    21.00000    0.06778    0.01713 =
         0.01828   -0.00039    0.00350   -0.00223
H2    2    1.150711    0.453092    0.175271    21.00000   10.05000
SAME P2   O4   O5   O6
PART 2  -21.00
P2'   3    0.982079    0.447402    0.225835   -21.00000    0.02874    0.00991 =
         0.01756   -0.00203    0.01365   -0.00303
O4'   1    0.905248    0.555038    0.290497   -21.00000    0.01610    0.00753 =
         0.01328   -0.00015    0.00967   -0.00401
O5'   1    0.855206    0.349860    0.278165   -21.00000    0.02462    0.00749 =
         0.01436    0.00228    0.00670   -0.00282
O6'   1    0.895838    0.453367    0.075292   -21.00000    0.07630    0.02565 =
         0.01399   -0.00713    0.01244   -0.01553
H2'   2    1.262251    0.430562    0.248269   -21.00000   10.05000
PART 0
O7    1    0.469832    0.647052    0.145931    11.00000    0.02259    0.02981 =
         0.02074   -0.00354    0.00000   -0.00172
AFIX   1
H1    2    0.326500    0.614900    0.497100    11.00000    0.05000
H7A   2    0.334400    0.693600    0.114800    11.00000    0.05000
H7B   2    0.500200    0.617200    0.062500    11.00000    0.05000

AFIX   0
HKLF 4

REM  1_a.res in P2(1)/n
REM R1 =  0.0399 for    1183 Fo > 4sig(Fo)  and  0.0620 for all    1533 data
REM    134 parameters refined using    216 restraints

END

WGHT      0.0374      1.9106

REM Highest difference peak  0.573,  deepest hole -0.640,  1-sigma level  0.133
Q1    1   0.6493  0.6855  0.2007  11.00000  0.05    0.57
Q2    1   0.4602  0.7159  0.5639  11.00000  0.05    0.55
Q3    1   0.0041  0.7277  0.3520  11.00000  0.05    0.53
Q4    1   0.4321  0.7679  0.6790  11.00000  0.05    0.52
Q5    1   0.7352  0.3213  0.1999  11.00000  0.05    0.50
;
_shelx_res_checksum              5012
_shelx_hkl_file
;
   1   0   0    2.80    3.30
   1   0   0   -1.90    2.30
   1   0   0    1.80    3.80
   1   0   0    0.80    2.10
  -1   0   0   -3.00    2.10
   2   0   0   63.99    4.70
   2   0   0   49.30    4.50
   2   0   0   50.69    8.60
   2   0   0   48.20    7.50
   3   0   0   10.40    3.50
   3   0   0   -1.00    5.50
   3   0   0    0.00    3.80
   3   0   0   -1.10    6.10
   4   0   0  120.49   12.40
   4   0   0  158.18   15.50
   4   0   0  158.48    7.60
   5   0   0    1.80    9.60
   5   0   0   -0.60    8.20
   5   0   0    9.80    9.50
   6   0   0   -4.80   10.60
   6   0   0  -12.50   10.10
   6   0   0    4.50    9.30
   0  -1   0   -5.00    1.50
   0  -1   0   -5.30    1.40
   0  -1   0   -6.00    1.00
   0  -1   0   -4.30    1.10
   0   1   0   -5.20    1.40
   0   1   0   -5.60    1.10
   0   1   0   -5.10    1.20
  -1  -1   0  989.70   17.50
  -1  -1   0  973.20   17.60
   1  -1   0  982.90   18.00
  -1  -1   0  998.00   18.80
   1   1   0  984.90   18.80
   1   1   0  963.60   17.60
  -1   1   0  965.00   17.90
   1   1   0 1004.80   17.60
  -2  -1   0  230.68    6.80
   2  -1   0  222.68    8.70
  -2  -1   0  232.98    7.00
   2   1   0  241.48    7.30
   2   1   0  239.68   10.10
   2   1   0  235.48    7.00
   2   1   0  236.18   10.40
   3  -1   0   -0.80    5.60
   3  -1   0    2.40    5.80
   3  -1   0   -2.70    3.70
   3   1   0   -1.70    6.50
   3   1   0   -1.80    5.70
   3   1   0    5.20    4.30
   3   1   0   -3.20    4.00
   4  -1   0   52.99    9.40
   4  -1   0   44.60    8.90
   4   1   0   43.00    9.00
   4   1   0   46.70    6.10
   4   1   0   49.00    9.90
   4   1   0   48.10    7.60
   5  -1   0   -5.80    9.10
   5  -1   0   18.10    9.20
   5   1   0   -1.00    9.00
   5   1   0    0.30    8.50
   5   1   0   -1.20    9.60
   6  -1   0  125.89   20.70
   6   1   0  141.89   16.70
   6   1   0  114.79   19.90
   6   1   0  152.98   16.40
   0  -2   0 5266.27   86.89
   0  -2   0 5266.97   87.29
   0  -2   0 5225.38   86.59
   0  -2   0 5152.28   86.29
   0   2   0 5165.68   86.29
   0   2   0 5304.57   87.29
   0   2   0 5251.47   87.99
  -1  -2   0   14.50    3.70
  -1  -2   0   25.90    4.10
   1  -2   0   22.80    3.50
   1  -2   0   18.30    4.30
  -1  -2   0   31.00    6.50
  -1   2   0   17.60    3.80
   1   2   0   16.90    4.40
   1   2   0   18.30    3.90
   1   2   0   16.50    4.20
   2  -2   0  620.34   13.90
  -2  -2   0  620.44   12.90
  -2  -2   0  624.64   13.10
   2   2   0  640.14   15.70
  -2   2   0  609.14   13.70
   2   2   0  607.14   13.40
   2   2   0  638.94   13.20
   3  -2   0  284.57   11.10
   3   2   0  296.37   13.30
   3   2   0  290.17   13.40
   3   2   0  286.97    9.70
   3   2   0  293.77    9.30
   4  -2   0  120.09   11.50
   4  -2   0  110.59   16.10
   4   2   0  115.59    9.10
   4   2   0  118.39   14.90
   4   2   0  108.09    9.20
   4   2   0  129.89   13.80
   5  -2   0   22.80    9.20
   5  -2   0   29.60    6.20
   5  -2   0   21.70   10.00
   5   2   0    7.20    9.50
   5   2   0   15.90   10.50
   5   2   0   22.80    9.70
   5   2   0   11.70    6.10
   6  -2   0  -13.30   10.90
   6   2   0  -13.50   10.50
   6   2   0    3.50   11.10
   6   2   0    7.60   10.40
   0  -3   0   -0.30    4.60
   0  -3   0    1.80    3.30
   0  -3   0   -1.60    4.30
   0  -3   0   -2.30    3.50
   0   3   0    2.40    3.90
   0   3   0    1.30    3.60
   0   3   0   -3.20    4.40
  -1  -3   0 1766.22   31.00
   1  -3   0 1749.53   30.70
   1  -3   0 1718.23   30.50
   1  -3   0 1723.83   29.50
  -1  -3   0 1749.92   31.00
  -1  -3   0 1739.53   29.80
  -1  -3   0 1758.82   32.00
  -1   3   0 1773.22   30.70
   1   3   0 1744.63   31.00
   1   3   0 1772.22   32.20
   1   3   0 1796.92   32.40
  -1   3   0 1742.03   30.60
   1   3   0 1728.83   31.10
  -2  -3   0  276.37    8.70
   2  -3   0  293.07    9.30
   2  -3   0  280.47    7.90
   2  -3   0  266.17    7.70
  -2  -3   0  294.97    8.70
   2   3   0  267.67    9.10
   2   3   0  280.27   11.10
  -2   3   0  281.87    8.60
   2   3   0  290.37    9.20
   3  -3   0  147.99    9.50
  -3  -3   0  151.78    7.70
   3  -3   0  144.39    6.70
  -3  -3   0  152.08    8.00
   3   3   0  161.38    8.90
   3   3   0  137.69    8.60
   3   3   0  157.48   12.00
   4  -3   0   35.00    8.50
   4   3   0   37.10    7.30
   4   3   0   35.00    9.30
   4   3   0   42.00    7.20
   4   3   0   41.00    8.80
   4   3   0   31.30   10.70
   5  -3   0  367.96   16.10
   5  -3   0  390.56   22.20
   5   3   0  364.46   13.50
   5   3   0  379.66   20.60
   5   3   0  355.36   19.40
   5   3   0  367.06   19.30
   6  -3   0   54.99   13.20
   6   3   0   29.80   11.40
   6   3   0   69.79   13.70
   6   3   0   92.59   17.80
   0  -4   0 2680.53   46.40
   0  -4   0 2677.73   45.90
   0  -4   0 2704.53   48.10
   0  -4   0 2690.93   46.60
   0   4   0 2667.63   46.00
   0   4   0 2772.22   46.70
   0   4   0 2626.54   48.10
   1  -4   0  643.14   12.50
   1  -4   0  666.03   13.90
  -1  -4   0  654.23   14.10
  -1  -4   0  638.54   14.30
  -1  -4   0  644.94   15.20
  -1  -4   0  639.24   12.80
   1  -4   0  645.04   14.20
   1   4   0  669.03   16.10
  -1   4   0  635.44   13.70
  -1   4   0  673.63   14.00
   1   4   0  671.73   14.80
  -1   4   0  659.63   12.70
   1   4   0  649.54   15.70
   2  -4   0   50.89    5.60
  -2  -4   0   43.50    8.70
  -2  -4   0   43.30    6.50
  -2  -4   0   35.60    4.80
   2  -4   0   36.30    5.40
  -2   4   0   35.90    4.80
   2   4   0   30.80    6.00
   2   4   0   42.90    5.80
   2   4   0   44.40    5.50
   2   4   0   34.20    5.80
  -3  -4   0  270.07   10.00
   3  -4   0  273.37   11.10
   3  -4   0  279.37    9.60
   3  -4   0  257.37    8.70
   3   4   0  271.37   11.30
   3   4   0  260.17   14.10
   3   4   0  268.67   10.90
   3   4   0  293.47   14.30
  -3   4   0  276.47   10.30
   4  -4   0   44.10    8.30
   4   4   0   43.30   11.30
   4   4   0   47.40    9.60
   4   4   0   35.80    7.70
   4   4   0   52.89    9.30
   4   4   0   53.99    7.90
   5  -4   0  133.19   19.10
   5   4   0  123.59   17.50
   5   4   0  121.89   11.70
   5   4   0  158.78   17.60
   5   4   0  153.28   16.90
   5   4   0  152.78   14.00
   6  -4   0   -6.20   11.50
   6   4   0   11.40   11.90
   6   4   0  -19.50   10.30
   6   4   0   10.40   12.90
   0  -5   0    0.50    3.80
   0  -5   0    0.00    3.80
   0  -5   0    6.70    4.60
   0  -5   0    1.30    3.60
   0   5   0   -1.60    3.20
   0   5   0    1.80    4.30
   0   5   0   -1.00    5.00
   1  -5   0   78.09    5.70
  -1  -5   0   77.09    7.10
  -1  -5   0   89.59    6.70
  -1  -5   0   81.79    5.80
   1  -5   0   83.59    6.70
   1  -5   0   90.59    5.30
   1   5   0   70.39    8.20
  -1   5   0   75.99    5.70
   1   5   0   82.19    8.70
  -1   5   0   76.29    6.70
  -1   5   0   86.39    7.20
  -1   5   0   91.39    6.20
   1   5   0   86.49   10.00
  -2  -5   0   -1.70    4.90
   2  -5   0    9.60    4.50
   2  -5   0    5.00    5.10
   2   5   0   10.40    5.60
   2   5   0   -0.10    5.80
  -2   5   0   -2.30    4.20
   2   5   0   -1.70    5.80
   2   5   0   -1.60    5.20
   3  -5   0    5.70    5.10
   3  -5   0   -1.40    6.30
   3   5   0    1.00    7.10
  -3   5   0   11.60    5.60
   3   5   0    2.50    7.20
   3   5   0   -2.20    7.20
   3   5   0    6.80    6.60
   4  -5   0   64.79   10.30
   4   5   0   79.39   15.10
   4   5   0   78.29   10.90
   4   5   0   83.19   15.40
   4   5   0   69.69   11.00
   4   5   0   87.49   15.40
   5   5   0  426.46   21.90
   5   5   0  417.26   15.80
   5   5   0  422.06   21.60
   5   5   0  430.46   21.70
   5   5   0  422.16   16.00
   6  -5   0    3.40   11.90
   6   5   0   22.80   13.80
   6   5   0   -1.20   12.00
   6   5   0  -12.20   11.70
   0  -6   0    0.70    3.90
   0  -6   0   -2.20    4.80
   0   6   0    1.10    4.80
   0   6   0  -10.30    5.00
   0   6   0   -1.20    4.50
   1  -6   0  478.35   11.40
  -1  -6   0  481.55   11.60
   1  -6   0  495.75   12.90
   1  -6   0  487.45   11.10
  -1   6   0  492.95   12.90
  -1   6   0  484.25   13.00
   1   6   0  506.05   13.90
   1   6   0  478.45   14.90
  -1   6   0  465.65   12.00
   1   6   0  489.05   12.70
   1   6   0  508.75   16.00
   2  -6   0  119.99    8.70
   2  -6   0  120.29    8.20
   2   6   0  127.39   12.40
   2   6   0  123.79   10.20
   2   6   0   98.39   11.30
  -2   6   0  105.19    7.30
   2   6   0  102.39    9.50
   3  -6   0  409.36   12.50
   3  -6   0  409.46   13.20
   3   6   0  420.16   15.10
  -3   6   0  392.26   12.30
   3   6   0  416.56   14.80
   3   6   0  428.56   18.20
   3   6   0  392.86   17.60
   4  -6   0   -5.70    7.00
   4   6   0   -0.40    7.40
   4   6   0   -2.90    8.50
   4   6   0    0.60    8.20
   4   6   0   -4.30    9.30
   5   6   0  101.39   13.00
   5   6   0   59.09   10.00
   5   6   0   54.39   11.30
   5   6   0   47.80   13.40
   5   6   0   50.89   12.20
   6  -6   0   13.60   12.50
   6   6   0   -0.40   12.90
   0  -7   0    0.50    4.50
   0   7   0    1.70    5.90
   0   7   0    3.20    4.80
   0   7   0    1.00    5.30
   1  -7   0  233.38    8.30
   1  -7   0  240.18    8.80
  -1  -7   0  253.17    9.10
   1   7   0  249.18   14.10
   1   7   0  253.37   10.60
  -1   7   0  250.37    8.90
   1   7   0  256.97   12.60
   1   7   0  269.97   11.50
  -1   7   0  274.77    9.80
  -1   7   0  248.68   10.30
  -1   7   0  242.78   10.80
   2  -7   0   10.70    3.60
  -2  -7   0    5.90    4.50
   2   7   0   21.20    8.00
   2   7   0   10.60    6.60
  -2   7   0   19.50    5.70
   2   7   0   11.10    7.90
   2   7   0   20.10    7.60
   3  -7   0  133.89   10.70
   3   7   0  129.69   15.10
  -3   7   0  135.99    8.80
   3   7   0  133.29   12.70
   3   7   0  173.48   16.80
   3   7   0  137.59   12.90
   4   7   0  111.49   13.00
   4   7   0  117.39   17.00
   4   7   0  123.09   12.60
   4   7   0  106.89   16.90
   5   7   0  347.47   16.10
   5   7   0  369.96   22.40
   5   7   0  389.76   22.70
   5   7   0  348.97   21.90
   5   7   0  354.96   16.60
   0   8   0 1246.98   25.30
   0   8   0 1271.57   26.60
   0   8   0 1249.88   26.60
   1  -8   0  728.73   16.50
   1  -8   0  774.22   17.20
  -1  -8   0  790.82   18.90
  -1   8   0  763.52   17.80
   1   8   0  765.82   18.80
  -1   8   0  744.43   18.70
  -1   8   0  774.72   19.10
  -1   8   0  773.02   17.20
   1   8   0  786.42   20.80
   1   8   0  759.32   19.70
   1   8   0  763.12   22.70
   2  -8   0    7.90    4.00
  -2  -8   0    1.50    5.00
   2   8   0    1.50    6.50
   2   8   0    1.20    8.20
   2   8   0    6.60    8.30
  -2   8   0   -2.30    4.40
  -2   8   0    6.90    5.90
   2   8   0   13.40    8.60
   3   8   0    6.60    8.00
   3   8   0    8.60    8.90
   3   8   0   -8.40    8.80
   3   8   0    8.70    9.40
   4   8   0   12.40    9.70
   4   8   0   -3.10   10.60
   4   8   0    7.60    9.80
   4   8   0   17.70    8.90
   5   8   0   97.69   18.90
   5   8   0   69.49   10.90
   5   8   0   75.99   10.80
   5   8   0   66.19   12.60
   5   8   0   72.79   14.00
   0   9   0   -0.30    6.70
   0   9   0    1.80    7.90
   0   9   0    1.00    6.40
   1   9   0  213.18   13.10
  -1   9   0  211.98   14.20
  -1   9   0  225.08   12.80
  -1   9   0  222.08   11.50
   1   9   0  195.58   16.70
  -1   9   0  203.28   10.60
   1   9   0  238.98   14.50
   1   9   0  188.28   11.80
  -2  -9   0  696.33   16.60
   2  -9   0  713.23   16.90
  -2   9   0  738.73   16.40
   2   9   0  764.62   21.00
   2   9   0  730.53   19.10
   2   9   0  742.33   24.80
   2   9   0  731.43   23.00
  -2   9   0  666.93   17.80
   3   9   0   23.30    9.60
   3   9   0   23.40    9.50
   3   9   0   25.00   10.40
   3   9   0   28.00    8.60
   4   9   0   92.69   14.00
   4   9   0   86.69   11.40
   4   9   0  101.19   18.80
   4   9   0   82.89   13.50
   5   9   0  156.48   15.50
   5   9   0  112.39   15.20
   5   9   0  114.49   21.40
   0  10   0   -0.70    7.00
   0  10   0    5.80    8.60
   0  10   0    5.70    7.00
  -1  10   0   20.20    8.80
   1  10   0    3.90    7.60
  -1  10   0    4.60    6.50
   1  10   0   17.60    9.10
   1  10   0   -4.50    8.10
   1  10   0    9.10    9.00
  -1  10   0    2.50    6.60
  -2  10   0  782.12   17.70
   2  10   0  780.62   20.60
   2  10   0  773.22   22.30
   2  10   0  772.42   25.90
   2  10   0  782.72   24.60
   3  10   0   46.10    9.50
   3  10   0   19.50   10.20
   3  10   0   20.60   10.10
   3  10   0   11.80   10.50
   4  10   0   18.30   10.80
   4  10   0   13.10    9.70
   4  10   0   -1.00   11.40
   4  10   0   14.20   10.70
   5  10   0   -8.00   11.10
   5  10   0    2.40   13.80
   0  11   0    8.20    7.20
   0  11   0    3.70    7.50
   0  11   0    6.70    9.40
   1  11   0  512.35   17.60
   1  11   0  530.85   19.90
  -1  11   0  498.95   16.30
  -1  11   0  545.05   15.80
  -1  11   0  523.65   18.40
   1  11   0  496.95   17.80
   2  11   0  354.46   21.00
   2  11   0  325.77   15.60
  -2  11   0  349.27   12.40
   2  11   0  341.07   19.40
   2  11   0  347.07   17.30
   3  11   0   13.80   10.60
   3  11   0    8.30   11.10
   3  11   0    5.70    9.20
   3  11   0    7.60   10.30
   4  11   0  234.88   17.10
   4  11   0  231.68   17.00
   4  11   0  201.88   22.00
   0  12   0 1477.95   31.70
   0  12   0 1503.65   34.10
   0  12   0 1450.35   33.10
  -1  12   0   -1.90    9.90
  -1  12   0   -7.50    7.00
  -1  12   0    6.00    7.30
   1  12   0   10.00    8.50
   1  12   0  -12.90    8.70
   1  12   0  -15.30    8.70
   2  12   0   42.00   10.80
   2  12   0   48.10   11.50
   2  12   0   28.70   10.90
  -2  12   0   33.20    7.10
   2  12   0   52.39   10.20
   3  12   0   49.70   11.90
   3  12   0   40.60    9.90
   3  12   0   34.70   12.40
   3  12   0   44.40   11.40
   4  12   0   21.30   12.10
   4  12   0   -9.10   13.20
   0  13   0    6.80    8.50
   0  13   0   -9.60    8.20
   0  13   0    5.20   10.60
   1  13   0   -4.60    8.70
  -1  13   0   12.00   10.30
  -1  13   0   -2.00    7.60
   1  13   0   -2.10    9.40
   1  13   0   -8.20    9.40
   2  13   0  208.48   19.20
   2  13   0  223.78   16.30
   2  13   0  215.48   17.30
   2  13   0  239.18   21.80
   3  13   0   40.70   12.30
   3  13   0   28.50   10.70
   3  13   0   12.90   12.10
   3  13   0    6.20   12.20
   0  14   0  112.29   16.50
   0  14   0  108.69   14.90
   0  14   0  128.89   14.00
   1  14   0   20.80   10.80
  -1  14   0    9.00   11.00
   1  14   0   18.90   10.40
  -1  14   0   17.80    8.70
   1  14   0   -3.00    9.20
   2  14   0   34.00   12.20
   2  14   0   54.39   13.00
   2  14   0   66.29   11.40
   3  14   0  115.89   21.70
   0  15   0    1.70   12.10
   0  15   0   11.40    9.60
   1  15   0   73.79   11.80
  -1  15   0   52.79   12.90
  -1  15   0   54.79   10.20
   1  15   0   36.10   11.70
   2  15   0  106.89   20.20
   0  16   0    5.40   10.40
   6   0  -1   17.90   11.10
   6   0  -1   -0.40   10.60
   5   0  -1  537.25   24.00
   5   0  -1  511.15   19.80
   4   0  -1   12.80    8.00
   4   0  -1    1.90    9.00
   3   0  -1   86.89    5.50
   3   0  -1   87.99    9.70
  -3   0   1   91.19    5.30
   3   0  -1   87.39   11.20
   2   0  -1   -1.40    5.30
   2   0  -1   -3.50    4.80
  -2   0   1   -3.20    4.90
   2   0  -1   -6.00    2.80
  -2   0   1   -5.00    2.70
   1   0  -1 1674.53   28.10
   1   0  -1 1670.53   28.10
   1   0  -1 1649.83   29.70
  -1   0   1 1708.83   28.20
  -1   0   1 1683.93   29.60
   1   0  -1 1655.73   30.10
  -1   0   1 1640.24   28.10
   0   0   1   -4.00    1.60
   0   0  -1   -3.80    1.80
   0   0   1   -3.10    1.80
   0   0   1   -4.00    0.40
   0   0  -1   -3.60    1.50
   0   0  -1   -4.90    1.50
   0   0   1   -4.10    1.20
   0   0  -1   -3.00    1.30
   1   0   1 9495.05  160.58
   1   0   1 9999.00  160.28
   2   0   1   -0.70    4.10
   2   0   1   -0.90    3.20
   2   0   1   -2.10    3.30
   2   0   1   -2.10    3.90
   3   0   1  114.99    6.60
   3   0   1  105.29   11.40
   3   0   1  115.79    9.80
   3   0   1  104.79    9.70
   3   0   1  123.19    7.30
   3   0   1  116.19    6.60
   4   0   1    2.60    4.80
   4   0   1   -5.70    7.80
   4   0   1    3.10    5.90
   4   0   1   -6.10    7.20
   4   0   1    4.60    8.20
   5   0   1   -2.50    9.20
   5   0   1    9.60    8.60
   5   0   1   19.10    9.10
   6   0   1   -0.10   10.80
   6  -1  -1   36.10   11.90
   6  -1  -1   19.20   12.00
   6   1  -1   42.10   12.30
   6   1  -1   25.40   11.50
   6   1  -1   30.80   10.20
   5  -1  -1   12.50    9.60
   5  -1  -1   20.90   10.00
   5   1  -1   22.70   10.70
   5   1  -1   20.10    9.50
   4  -1  -1  -12.60    4.50
   4  -1  -1    0.50    8.20
   4  -1  -1  -14.00    8.30
   4   1  -1    9.60    8.30
   4   1  -1   -6.00    9.00
   4   1  -1  -14.40    4.80
   3  -1  -1    3.50    5.90
   3  -1  -1    3.80    6.50
  -3  -1   1    5.00    3.50
   3   1  -1   -2.60    5.70
   3   1  -1   -5.40    3.80
   3   1  -1   -5.40    6.70
   2  -1  -1  811.82   17.60
   2  -1  -1  777.82   18.90
  -2  -1   1  810.32   15.30
   2   1  -1  794.72   18.20
   2   1  -1  808.42   15.50
  -2   1   1  777.02   17.20
   2   1  -1  823.12   19.10
  -1  -1   1  304.27    9.00
   1  -1  -1  308.77    9.00
  -1  -1   1  295.17    7.30
   1  -1  -1  301.17    7.40
  -1  -1   1  302.07    6.80
   1  -1  -1  303.37    8.20
   1   1  -1  300.87    9.80
  -1   1   1  280.47    8.60
   1   1  -1  304.07    7.40
   1   1  -1  305.77    6.90
   0  -1  -1  149.19    4.30
   0  -1   1  154.18    5.30
   0  -1   1  143.99    3.90
   0  -1   1  144.29    4.10
   0  -1   1  148.99    4.00
   0  -1  -1  148.39    4.20
   0   1   1  144.89    4.10
   0   1   1  145.39    5.10
   0   1   1  146.09    4.30
   0   1  -1  150.98    4.10
   0   1  -1  147.79    3.90
   0   1   1  152.08    4.90
   0   1  -1  149.69    5.50
   1  -1   1  255.07    6.70
  -1  -1  -1  245.98    8.50
  -1  -1  -1  243.28    7.30
  -1  -1  -1  241.58    6.50
   1   1   1  235.48    7.90
   1   1   1  239.28    9.10
   1   1   1  237.58    6.50
   1   1   1  241.68    7.30
   1   1   1  229.98    7.60
   2  -1   1 1232.58   23.00
   2   1   1 1197.08   24.20
   2   1   1 1201.58   22.30
   2   1   1 1214.48   24.40
   2   1   1 1207.18   22.50
   3  -1   1  747.43   17.80
   3  -1   1  754.42   14.60
   3  -1   1  759.62   15.90
   3   1   1  749.33   15.90
   3   1   1  722.13   19.00
   3   1   1  710.93   18.80
   3   1   1  745.13   20.00
   3   1   1  735.73   16.10
   4  -1   1  157.78    9.10
   4  -1   1  177.48   15.90
   4  -1   1  158.98   13.00
   4  -1   1  166.58    9.40
   4  -1   1  152.08   12.10
   4   1   1  168.98   13.40
   4   1   1  195.48   14.20
   4   1   1  178.48   16.20
   4   1   1  163.68    9.70
   4   1   1  169.58    9.20
   5  -1   1  363.46   21.10
   5  -1   1  374.36   16.80
   5  -1   1  367.26   15.90
   5   1   1  335.37   17.30
   5   1   1  316.97   20.30
   5   1   1  355.76   17.90
   6  -1   1    6.50   11.10
   6   1   1   23.90   11.40
   6   1   1    7.30   10.10
   6   1   1   -5.50   10.50
   6  -2  -1    3.90   11.50
   6  -2  -1    6.20   14.60
   6   2  -1   -1.70   10.80
   6   2  -1   12.50   12.20
   6   2  -1   -4.20   10.00
   5  -2  -1   53.59   11.40
   5  -2  -1   73.79   10.90
   5   2  -1   65.59   11.80
   5   2  -1   48.30   10.50
   5   2  -1   53.19    6.60
   4  -2  -1   59.79    9.80
   4  -2  -1   77.49   10.20
   4   2  -1   64.69   10.80
   4   2  -1   41.30    6.20
   4   2  -1   42.80    8.90
   3  -2  -1  546.05   17.90
  -3  -2   1  558.24   12.00
   3  -2  -1  562.54   15.60
  -3  -2   1  544.45   12.90
   3   2  -1  569.64   17.70
  -3   2   1  566.24   15.10
   3   2  -1  563.74   13.40
   3   2  -1  571.44   12.50
   3   2  -1  556.24   17.10
   2  -2  -1  112.19    6.60
  -2  -2   1  122.89    5.60
   2  -2  -1  109.69    8.00
  -2  -2   1  102.39    7.80
  -2  -2   1  118.99    6.20
   2   2  -1  118.59    9.50
  -2   2   1  118.49    7.30
   2   2  -1  107.49    5.90
   2   2  -1  118.89    9.50
   2   2  -1  117.09    6.70
   1  -2  -1   55.39    6.30
  -1  -2   1   64.19    5.60
   1  -2  -1   55.99    5.90
  -1  -2   1   74.59    7.70
  -1  -2   1   61.69    5.60
   1  -2  -1   66.19    7.50
   1  -2  -1   68.29    4.60
  -1   2   1   71.99    4.90
   1   2  -1   83.49    8.60
   1   2  -1   67.19    6.10
  -1   2   1   56.09    6.60
   1   2  -1   66.79    5.90
  -1   2   1   53.99    6.50
   0  -2  -1  467.35    9.80
   0  -2   1  476.95    9.60
   0  -2  -1  475.25    9.90
   0  -2  -1  479.85   10.60
   0  -2   1  462.25    9.90
   0   2   1  478.55   10.00
   0   2  -1  472.55    9.60
   0   2   1  482.25   10.80
   0   2   1  463.75   11.00
   0   2   1  467.75    9.90
   0   2  -1  480.35   12.00
   0   2   1  473.15    9.70
  -1  -2  -1  998.30   17.90
   1  -2   1 1017.50   17.60
  -1  -2  -1  990.40   18.80
  -1  -2  -1 1001.10   18.80
   1   2   1  984.10   18.90
   1   2   1  996.80   19.10
   1   2   1 1008.40   18.00
   1   2   1 1030.80   20.50
   1   2   1 1002.00   18.90
  -2  -2  -1    7.20    4.10
   2  -2   1   16.20    4.10
   2   2   1    4.20    4.40
   2   2   1    3.00    4.10
   2   2   1    3.20    5.00
   2   2   1    7.20    4.10
   3  -2   1  960.50   20.40
   3   2   1  928.01   22.50
   3   2   1  950.30   23.00
   3   2   1  946.61   19.70
   3   2   1  969.50   19.90
   4  -2   1   17.40    6.00
   4  -2   1   11.90    6.10
   4  -2   1   10.80    8.10
   4  -2   1   12.80    6.90
   4  -2   1   22.40    7.80
   4   2   1   18.10    7.90
   4   2   1   25.30    8.50
   4   2   1   12.90    9.50
   4   2   1   19.40    6.90
   4   2   1   15.70    6.20
   5  -2   1   36.80   10.00
   5  -2   1   27.90    6.90
   5  -2   1   39.90    8.90
   5  -2   1   27.40    8.20
   5   2   1   21.30    7.60
   5   2   1   34.20   10.60
   5   2   1   13.60    9.40
   5   2   1   37.70   10.00
   5   2   1   29.40    6.80
   6  -2   1   25.00   11.80
   6   2   1   37.40   11.40
   6   2   1   23.60   11.30
   6   2   1   19.30   10.80
   6  -3  -1   34.60   12.60
   6   3  -1   33.50   11.80
   6   3  -1   55.09   13.70
   6   3  -1   63.19   12.50
   5  -3  -1   82.49   13.10
   5  -3  -1  133.39   19.00
   5   3  -1   98.09   10.10
   5   3  -1  126.69   17.10
   5   3  -1  118.09   16.00
   4  -3  -1 1189.58   27.30
   4  -3  -1 1155.88   31.20
   4   3  -1 1178.38   24.50
   4   3  -1 1210.68   30.50
   4   3  -1 1151.68   29.60
   4   3  -1 1231.58   23.90
  -3  -3   1  128.99    7.00
   3  -3  -1  107.59    9.60
  -3  -3   1  122.99    7.60
   3   3  -1  108.69    8.60
  -3   3   1  127.99    9.00
   3   3  -1  134.59   12.30
   3   3  -1  123.39   11.80
   3   3  -1  103.69    7.90
   2  -3  -1   -3.40    5.30
   2  -3  -1   -5.40    3.60
  -2  -3   1    7.40    4.00
  -2  -3   1    4.20    3.80
   2   3  -1    1.40    4.90
   2   3  -1   -1.40    4.20
   2   3  -1   -1.80    4.50
  -2   3   1    7.20    4.70
   1  -3  -1 3042.10   51.79
  -1  -3   1 3027.90   51.79
   1  -3  -1 2980.80   51.29
  -1  -3   1 3112.59   51.89
   1  -3  -1 3032.80   52.49
  -1  -3   1 3038.60   53.39
  -1   3   1 3057.29   51.89
  -1   3   1 3057.49   50.59
   1   3  -1 3042.20   51.99
  -1   3   1 3086.19   51.39
  -1   3   1 2997.80   52.29
   1   3  -1 3053.39   53.69
   1   3  -1 3016.50   51.89
   0  -3   1 1647.14   29.50
   0  -3  -1 1647.04   29.30
   0  -3  -1 1658.03   29.10
   0  -3  -1 1668.43   30.10
   0  -3  -1 1693.03   30.10
   0  -3   1 1629.84   29.10
   0  -3  -1 1641.84   29.40
   0   3   1 1658.33   29.70
   0   3  -1 1691.03   29.20
   0   3   1 1672.03   29.20
   0   3   1 1666.43   30.60
   0   3   1 1693.63   30.20
   0   3  -1 1696.23   31.80
  -1  -3  -1   98.09    6.60
  -1  -3  -1   87.99    5.20
  -1  -3  -1   89.09    6.50
   1  -3   1   84.29    6.00
  -1  -3  -1   87.99    6.30
   1  -3   1   90.49    4.60
   1   3   1   91.59    5.50
   1   3   1   95.29    6.80
   1   3   1   87.89    6.70
   1   3   1   90.29    7.10
  -1   3  -1   97.69    5.00
   1   3   1   94.49    8.70
  -2  -3  -1  402.16   10.60
  -2  -3  -1  407.36   11.50
   2   3   1  400.46   12.20
   2   3   1  391.56   11.10
   2   3   1  378.76   11.00
   2   3   1  401.86   13.30
  -3  -3  -1  610.14   14.70
   3  -3   1  617.44   14.80
   3   3   1  602.84   18.30
   3   3   1  598.94   15.10
   3   3   1  639.44   18.10
   3   3   1  602.14   15.40
   4  -3   1   -6.70    7.00
   4  -3   1    2.90    6.40
   4   3   1   -3.70    7.60
   4   3   1    7.00    8.70
   4   3   1    0.90    6.90
   4   3   1    5.80   10.00
   4   3   1   -6.40    6.30
   5  -3   1  178.18   11.00
   5  -3   1  165.48   18.80
   5   3   1  193.58   17.30
   5   3   1  166.38   16.10
   5   3   1  156.98   11.30
   5   3   1  174.98   17.50
   5   3   1  154.88   11.30
   6  -3   1   77.49   13.30
   6   3   1   88.09   17.20
   6   3   1  119.09   18.80
   6   3   1   49.99   12.60
   6  -4  -1   32.90   12.90
   6   4  -1   17.20   11.50
   6   4  -1   48.20   13.80
   6   4  -1   45.20   12.40
   5  -4  -1  178.18   20.00
   5  -4  -1  139.29   13.90
   5   4  -1  143.59   11.50
   5   4  -1  172.18   17.30
   5   4  -1  167.98   17.70
   5   4  -1  160.08   18.40
   4  -4  -1  347.07   15.50
   4   4  -1  350.26   18.50
   4   4  -1  372.06   19.10
   4   4  -1  358.16   13.00
   4   4  -1  360.96   13.60
  -3  -4   1   40.50    5.50
   3  -4  -1   24.40    5.30
   3  -4  -1   36.20    7.50
   3   4  -1   37.40    6.50
   3   4  -1   50.19    6.50
   3   4  -1   35.10    9.40
  -3   4   1   40.00    8.20
   3   4  -1   31.80    7.30
   2  -4  -1   87.19    8.60
   2  -4  -1   76.09    7.00
   2  -4  -1  100.69    5.90
  -2  -4   1   80.29    6.80
  -2  -4   1   84.49    6.80
   2   4  -1  111.69   10.80
   2   4  -1   98.79    7.70
   2   4  -1   88.89    7.70
  -2   4   1   87.09    7.30
  -1  -4   1  103.49    6.90
   1  -4  -1  104.89    8.30
   1  -4  -1   91.09    6.20
   1  -4  -1  106.59    6.50
  -1  -4   1  101.39    6.50
   1   4  -1   94.69   10.00
  -1   4   1   85.49    6.80
   1   4  -1   92.89    7.60
  -1   4   1   92.19    7.30
  -1   4   1  101.89    7.20
  -1   4   1   90.89    5.10
   0  -4  -1 3549.64   61.09
   0  -4  -1 3571.94   60.59
   0  -4  -1 3523.85   60.29
   0  -4   1 3513.75   60.09
   0  -4  -1 3496.85   61.39
   0  -4  -1 3539.55   60.09
   0  -4   1 3567.44   60.59
   0   4   1 3586.54   60.19
   0   4   1 3525.85   61.69
   0   4  -1 3575.54   62.89
   0   4  -1 3639.24   60.19
   0   4  -1 3542.95   60.09
   0   4   1 3591.94   61.29
  -1  -4  -1  710.33   15.70
   1  -4   1  713.73   15.10
   1  -4   1  723.93   13.80
  -1  -4  -1  711.13   15.50
  -1  -4  -1  721.93   15.20
  -1  -4  -1  718.53   14.20
   1   4   1  714.93   17.30
   1   4   1  711.23   15.90
   1   4   1  721.53   17.60
  -1   4  -1  732.73   14.10
   1   4   1  713.13   15.90
   1   4   1  714.83   14.40
   2  -4   1   84.39    6.50
  -2  -4  -1   78.29    6.80
  -2  -4  -1   81.09    6.80
   2   4   1   87.99    8.90
   2   4   1   76.89    9.90
   2   4   1   72.19    8.10
   2   4   1   80.39    8.00
   3  -4   1   25.00    5.40
   3   4   1   22.30    6.60
   3   4   1   18.90    7.00
   3   4   1   19.20    6.50
   3   4   1   26.90    7.90
   4  -4   1   14.00    6.60
   4   4   1    2.00    7.60
   4   4   1   -1.80    8.80
   4   4   1   -8.10    7.20
   4   4   1    1.70    6.90
   5  -4   1   49.60   11.00
   5   4   1   51.49   12.60
   5   4   1   25.10    9.80
   5   4   1   61.99    8.80
   5   4   1   41.80    8.60
   5   4   1   44.40   11.30
   6  -4   1   38.30   12.60
   6   4   1   60.39   13.90
   6   4   1   31.30   12.30
   6  -5  -1   70.99   14.30
   6   5  -1  110.69   19.70
   6   5  -1  130.09   20.60
   6   5  -1  105.19   21.30
   5  -5  -1   -0.20    9.50
   5  -5  -1   -1.50    9.90
   5   5  -1   12.20   12.00
   5   5  -1    1.40    7.50
   5   5  -1    3.10   10.00
   5   5  -1    2.80   10.40
   4  -5  -1  768.82   20.80
   4   5  -1  781.52   19.40
   4   5  -1  762.92   24.60
   4   5  -1  806.82   25.30
   4   5  -1  788.32   20.10
   3  -5  -1   37.30    7.80
   3  -5  -1   52.19    6.80
   3  -5  -1   38.00    5.80
   3   5  -1   51.79    7.30
   3   5  -1   64.09   14.00
  -3   5   1   50.29    8.30
   3   5  -1   54.29    7.80
  -2  -5   1  145.49    8.20
   2  -5  -1  155.38    7.60
   2  -5  -1  142.39    7.60
   2  -5  -1  139.29    9.40
   2   5  -1  135.69    8.90
  -2   5   1  141.89    8.10
  -2   5   1  149.49    7.90
   2   5  -1  148.29    9.10
   2   5  -1  137.49   12.00
  -1  -5   1  270.77    9.00
  -1  -5   1  291.67    9.80
   1  -5  -1  289.27   11.10
   1  -5  -1  278.87    9.20
   1  -5  -1  281.47    9.00
   1  -5  -1  295.67    7.80
  -1   5   1  299.97    9.90
   1   5  -1  286.17   10.40
  -1   5   1  292.07    8.10
  -1   5   1  289.37   10.10
   1   5  -1  302.57   13.10
   0  -5   1  487.75   12.40
   0  -5  -1  502.05   11.70
   0  -5  -1  495.35   12.00
   0  -5  -1  510.55   12.40
   0  -5   1  500.75   11.60
   0  -5  -1  471.95   12.70
   0  -5  -1  498.75   13.60
   0   5   1  495.15   12.60
   0   5  -1  496.65   15.20
   0   5  -1  512.45   12.20
   0   5   1  524.65   13.80
   0   5   1  502.95   13.50
  -1  -5  -1  251.17    9.40
  -1  -5  -1  263.57   10.00
  -1  -5  -1  262.77    8.20
   1  -5   1  271.57    9.00
  -1  -5  -1  260.77    8.90
   1  -5   1  249.97    7.60
   1   5   1  277.57   11.00
   1   5   1  260.37   11.10
   1   5   1  261.47   10.00
  -1   5  -1  248.88    7.80
   2  -5   1  185.78    8.30
   2   5   1  189.38    9.70
   2   5   1  176.88   10.90
   2   5   1  189.08   12.10
   2   5   1  192.48   10.00
   3   5   1  248.98   15.70
   3   5   1  266.67   12.20
   3   5   1  254.57   12.50
   3   5   1  268.77   14.90
   4   5   1    3.20    7.90
   4   5   1   -4.40    7.80
   4   5   1   12.10    9.70
   4   5   1    6.60    7.40
   5   5   1    7.40   11.00
   5   5   1   -6.10    9.10
   5   5   1   11.00   12.10
   5   5   1    5.60    8.20
   5   5   1   13.10    8.90
   6  -5   1   71.69   14.00
   6   5   1   75.19   14.20
   6   5   1   85.39   15.30
   6  -6  -1   43.40   13.40
   6   6  -1   10.00   12.60
   6   6  -1   49.00   13.80
   5   6  -1   -8.50   11.40
   5   6  -1   10.40   10.60
   5   6  -1   -4.10   10.90
   5   6  -1   -2.40    8.10
   4  -6  -1    5.60    8.00
   4   6  -1    0.60    9.10
   4   6  -1    9.50   11.00
   4   6  -1   -8.10    7.20
   4   6  -1    6.60    9.10
   4   6  -1    2.30    7.60
   3  -6  -1   14.10    7.80
   3  -6  -1   11.40    5.40
   3  -6  -1   23.20    6.10
   3   6  -1    8.40    7.50
  -3   6   1   23.30    6.30
   3   6  -1   16.90    7.30
   3   6  -1    5.30    7.70
   3   6  -1   17.80    8.50
   2  -6  -1 2396.16   42.70
   2  -6  -1 2400.26   44.20
   2  -6  -1 2444.86   42.90
  -2   6   1 2366.46   42.70
   2   6  -1 2396.36   44.10
   2   6  -1 2398.16   46.20
   2   6  -1 2458.25   47.20
  -2   6   1 2435.16   42.90
   2   6  -1 2432.66   44.10
  -2   6   1 2375.36   43.80
   1  -6  -1   95.29    7.50
   1  -6  -1   85.89    7.20
   1  -6  -1   95.29    5.90
   1   6  -1   89.09    9.30
   1   6  -1   99.89    8.90
  -1   6   1   77.79    8.30
  -1   6   1   88.19    8.10
  -1   6   1   84.19    8.50
   1   6  -1   81.89   11.80
   1   6  -1  100.19    7.50
   0  -6   1  835.92   17.50
   0  -6  -1  861.21   18.10
   0  -6  -1  843.32   17.70
   0  -6  -1  851.91   18.40
   0  -6   1  849.02   18.50
   0   6   1  830.62   19.60
   0   6   1  888.21   19.00
   0   6  -1  871.11   18.40
   0   6   1  870.51   19.60
   0   6   1  885.51   18.00
   0   6  -1  880.21   18.60
   0   6  -1  868.71   21.80
   0   6  -1  872.71   18.00
  -1  -6  -1   95.29    6.70
   1  -6   1   96.09    7.70
   1  -6   1  101.49    6.20
  -1   6  -1   96.59    8.30
   1   6   1   93.09    9.00
   1   6   1  104.29   10.00
   1   6   1   90.89    7.40
   1   6   1   98.79   10.40
  -1   6  -1  100.09    6.80
   2   6   1  204.38   13.40
   2   6   1  183.68   10.80
   2   6   1  199.88   12.60
   2   6   1  188.38   11.00
   3   6   1  247.08   16.50
   3   6   1  243.88   15.50
   3   6   1  217.98   13.30
   3   6   1  239.58   12.90
   4   6   1   -9.00    7.80
   4   6   1   -4.10    7.60
   4   6   1   -1.00    9.70
   4   6   1    1.50    8.60
   5   6   1  127.59   13.20
   5   6   1  126.49   18.20
   5   6   1  115.19   19.20
   5   6   1   83.69   17.40
   5   6   1  118.79   13.20
   6  -6   1   27.90   13.00
   6   6   1   31.60   14.10
   6  -7  -1  121.19   23.80
   6   7  -1  120.89   22.50
   6   7  -1   79.29   19.60
   5   7  -1   -0.50   10.90
   5   7  -1   21.00    8.70
   5   7  -1   10.80   12.40
   5   7  -1    9.00   11.60
   4  -7  -1  246.18   13.70
   4   7  -1  268.57   19.40
   4   7  -1  245.58   13.60
   4   7  -1  236.38   18.00
   4   7  -1  256.67   14.30
   4   7  -1  260.77   18.40
   3  -7  -1   63.79   11.20
   3   7  -1   70.19    9.10
   3   7  -1   81.19    9.60
   3   7  -1   59.79   10.20
   3   7  -1   56.89    9.80
  -3   7   1   71.89    9.10
  -2  -7   1   89.19    6.60
   2  -7  -1   97.89    8.30
   2  -7  -1   93.09   10.80
   2   7  -1  119.49   14.90
   2   7  -1  109.89   10.40
  -2   7   1  110.79    9.30
   2   7  -1  110.69   11.00
   2   7  -1   93.59   12.20
  -2   7   1   92.19    8.80
  -2   7   1  100.69    9.00
   1  -7  -1  981.50   20.80
   1  -7  -1  978.30   19.50
   1   7  -1  995.20   21.30
   1   7  -1  982.60   25.20
  -1   7   1  995.50   21.40
  -1   7   1 1018.60   21.40
  -1   7   1 1005.30   19.90
   1   7  -1  996.60   22.00
  -1   7   1  970.50   22.00
   1   7  -1  978.10   22.60
   0   7  -1  426.56   16.80
   0   7  -1  428.66   13.00
   0   7   1  449.16   14.20
   0   7  -1  443.46   12.40
   0   7   1  429.96   15.00
   0   7   1  425.06   13.20
   0   7  -1  448.16   13.10
   0   7   1  438.86   12.40
   1  -7   1   73.09    6.40
  -1  -7  -1   66.19    7.20
   1   7   1   62.79    8.30
   1   7   1   53.99   11.50
   1   7   1   66.79   10.60
  -1   7  -1   54.79    8.90
  -1   7  -1   70.49    7.30
   1   7   1   73.49    9.50
  -1   7  -1   70.59    7.60
   2  -7   1  245.18    8.00
  -2  -7  -1  237.38    8.90
   2   7   1  236.48   12.10
   2   7   1  240.98   12.90
   2   7   1  255.07   15.10
   2   7   1  268.87   15.20
   3   7   1   -6.00    7.70
   3   7   1    4.40    8.30
   3   7   1    6.90    9.30
   3   7   1   -1.70    8.80
   4   7   1   12.70    8.70
   4   7   1   12.00    8.70
   4   7   1   16.00    9.50
   4   7   1   16.00   10.70
   5   7   1   72.39   13.80
   5   7   1  102.49   19.20
   5   7   1   74.69   10.40
   5   7   1   94.29   14.10
   5   8  -1  203.78   20.20
   5   8  -1  197.78   21.30
   5   8  -1  182.48   21.30
   5   8  -1  170.28   14.80
   4   8  -1    6.40   10.50
   4   8  -1   37.20   11.40
   4   8  -1   24.40   10.50
   4   8  -1   40.80    9.90
   4   8  -1   26.40    8.80
   3  -8  -1  196.88   13.00
   3   8  -1  178.08   13.70
   3   8  -1  203.48   13.70
   3   8  -1  196.48   18.60
   3   8  -1  194.18   16.30
   2  -8  -1  316.47   11.10
  -2  -8   1  321.17   10.10
   2   8  -1  320.57   18.80
  -2   8   1  314.57   11.90
   2   8  -1  312.77   16.00
  -2   8   1  321.47   12.90
   2   8  -1  313.17   14.30
  -2   8   1  307.37   12.50
   1  -8  -1    1.70    4.50
   1   8  -1    8.00    8.00
   1   8  -1    7.60    6.70
  -1   8   1    0.90    5.10
   1   8  -1   10.50    6.30
   1   8  -1   24.50    7.90
  -1   8   1    3.00    6.30
  -1   8   1    5.50    7.10
   0   8   1 1535.85   31.50
   0   8  -1 1536.05   29.80
   0   8  -1 1510.65   30.60
   0   8  -1 1562.24   30.30
   0   8   1 1512.25   29.70
   0   8   1 1487.45   30.90
   1  -8   1 1316.37   26.40
  -1   8  -1 1307.77   27.20
   1   8   1 1264.17   29.30
  -1   8  -1 1285.67   25.30
   1   8   1 1269.37   28.90
   1   8   1 1281.27   26.90
  -1   8  -1 1255.67   25.90
  -2  -8  -1   29.20    5.80
   2  -8   1   39.80    6.40
   2   8   1   46.10    7.60
   2   8   1   50.49    8.80
  -2   8  -1   47.10    7.50
   2   8   1   42.40    9.30
   2   8   1   31.00    9.00
   3   8   1   61.09   11.00
   3   8   1   60.19   10.30
   3   8   1   48.40    8.90
   3   8   1   69.69   14.90
   4   8   1   27.00    9.20
   4   8   1   15.40   10.90
   4   8   1   19.10    9.20
   4   8   1   37.30   10.40
   5   8   1    6.00   11.00
   5   8   1   13.10    9.70
   5   8   1    2.90   12.90
   5   8   1   12.70   14.00
   5   9  -1   41.70   12.90
   5   9  -1   41.80   10.20
   5   9  -1   64.69   18.70
   5   9  -1   22.00   13.00
   4   9  -1  360.96   17.00
   4   9  -1  340.67   21.40
   4   9  -1  374.56   17.00
   4   9  -1  364.06   20.00
   4   9  -1  362.76   22.90
   3   9  -1   -0.60    9.10
   3   9  -1   -3.70    9.10
   3   9  -1   15.60    9.60
   3   9  -1   -2.00    8.00
  -2  -9   1   18.10    5.60
   2   9  -1   17.40    6.90
  -2   9   1   26.70    5.50
  -2   9   1   16.70    6.50
  -2   9   1   32.90    8.50
   2   9  -1   17.70    9.10
   2   9  -1   18.10    9.60
   2   9  -1    7.40    9.10
   1   9  -1  196.58   17.70
   1   9  -1  236.48   13.60
  -1   9   1  230.38   12.90
  -1   9   1  232.08   10.50
   1   9  -1  214.28   12.20
   1   9  -1  217.58   14.00
  -1   9   1  224.98   12.70
   0   9  -1   85.89   11.20
   0   9   1   72.89   12.30
   0   9  -1   75.79   10.60
   0   9  -1   67.39    9.90
   0   9   1   69.39    9.80
   0   9   1   91.59   11.50
   1   9   1   12.30    7.20
  -1   9  -1   14.50    8.20
   1   9   1   30.60    7.90
  -1   9  -1   12.20    6.20
   1   9   1    8.00    8.00
  -1   9  -1    8.80    6.80
   1   9   1    6.80    8.00
   2   9   1   -1.70    8.70
  -2   9  -1    4.30    5.50
   2   9   1   -1.70    9.60
   2   9   1   19.70    8.70
   2   9   1   -3.40    6.50
   3   9   1  111.99   17.10
   3   9   1  121.69   16.50
   3   9   1   87.09   13.00
   3   9   1  109.49   14.20
   4   9   1   78.39   13.60
   4   9   1   87.59   11.10
   4   9   1   91.59   15.00
   4   9   1  113.69   18.10
   5   9   1  125.29   16.30
   5   9   1  129.69   15.80
   5   9   1  100.19   16.00
   5  10  -1   65.59   14.70
   5  10  -1   65.29   11.70
   5  10  -1   48.60   21.30
   4  10  -1   27.00   12.10
   4  10  -1   57.79   11.20
   4  10  -1   27.90   11.10
   4  10  -1   51.79   10.20
   3  10  -1   59.29   11.60
   3  10  -1   51.09    9.60
   3  10  -1   81.49   11.90
   3  10  -1   76.79   11.20
  -2  10   1   29.60    5.90
   2  10  -1   14.90    9.80
   2  10  -1   31.20    7.20
   2  10  -1   16.50    9.10
   2  10  -1   26.70    9.90
  -2  10   1   22.20    6.60
  -2  10   1   21.10    8.50
   1  10  -1   11.90    9.20
  -1  10   1   20.20    6.80
   1  10  -1   -0.20    9.20
  -1  10   1    6.20    7.30
   1  10  -1   10.10    8.20
  -1  10   1   18.90    8.80
   1  10  -1    8.30    7.70
   0  10  -1   13.90    7.20
   0  10   1    0.20    7.00
   0  10   1    1.40    8.90
   0  10   1    9.00    7.80
   0  10  -1   17.20    9.30
   0  10  -1    4.20    7.20
  -1  10  -1  466.95   17.00
   1  10   1  444.46   16.40
  -1  10  -1  478.05   14.60
   1  10   1  456.15   19.10
   1  10   1  455.25   16.40
  -2  10  -1   -1.80    5.70
   2  10   1   -4.00    8.30
   2  10   1   11.70    7.10
   2  10   1  -16.50    8.60
   2  10   1    8.60    9.20
   3  10   1  713.23   26.40
   3  10   1  736.43   22.00
   3  10   1  746.53   25.20
   3  10   1  692.93   22.30
   4  10   1    0.20   10.30
   4  10   1    2.00   12.60
   4  10   1   10.50    9.60
   5  10   1   20.60   15.10
   5  10   1   50.39   12.40
   4  11  -1   35.80   11.80
   4  11  -1   30.80   10.60
   4  11  -1   47.60   13.20
   4  11  -1   36.20   11.80
   3  11  -1   -6.70   10.30
   3  11  -1   17.70    9.10
   3  11  -1   -7.80   10.00
   3  11  -1    7.70   10.80
  -2  11   1  109.59   11.50
   2  11  -1  108.09   18.80
  -2  11   1  136.09   10.00
  -2  11   1  137.79   12.90
   2  11  -1  135.29   16.30
   2  11  -1  128.69   12.70
   2  11  -1  128.79   14.40
  -1  11   1    4.50    7.60
  -1  11   1   29.40    9.60
  -1  11   1    7.20    6.80
   1  11  -1   10.20    9.60
   1  11  -1    7.60    8.10
   1  11  -1    2.60    7.80
   1  11  -1    9.10    8.80
   0  11   1  149.88   14.10
   0  11   1  151.58   11.70
   0  11  -1  173.78   13.90
   0  11  -1  147.29   12.80
   0  11   1  156.98   13.90
   0  11  -1  160.58   12.10
  -1  11  -1   -0.50    9.00
   1  11   1    5.20    8.10
   1  11   1  -20.70    8.20
   1  11   1   -2.60    7.50
  -1  11  -1    2.60    6.70
   2  11   1  504.65   21.90
   2  11   1  514.45   17.80
  -2  11  -1  486.65   14.70
   2  11   1  481.35   21.40
   2  11   1  440.16   18.60
   3  11   1  167.08   14.80
   3  11   1  161.68   15.40
   3  11   1  146.49   18.40
   3  11   1  148.29   19.20
   4  11   1   13.70   11.00
   4  11   1   -2.80   12.60
   4  11   1   12.20   10.30
   4  12  -1  -11.70   12.90
   4  12  -1    3.20   11.80
   4  12  -1   12.70   12.10
   3  12  -1   72.49   12.70
   3  12  -1   54.09   12.00
   3  12  -1   65.09   12.50
   3  12  -1   56.69   10.00
   2  12  -1   69.59   12.20
  -2  12   1   68.59   10.90
  -2  12   1   62.09    7.70
   2  12  -1   64.99   10.20
   2  12  -1   61.59   11.60
   2  12  -1   80.79   12.00
   1  12  -1   56.89   10.10
  -1  12   1   73.29    8.60
   1  12  -1   81.19   11.20
  -1  12   1   54.79    8.70
   1  12  -1   62.59    9.70
  -1  12   1   60.79   11.00
   0  12  -1   42.50   11.10
   0  12   1    7.70   10.10
   0  12   1   28.10    8.40
   0  12   1    8.00    8.80
   0  12  -1   19.10    8.30
   0  12  -1    9.20    7.60
   1  12   1 1102.59   27.80
  -1  12  -1 1116.39   28.00
   1  12   1 1129.69   27.10
  -1  12  -1 1124.59   25.50
   1  12   1 1119.09   30.00
   2  12   1    8.60    9.40
   2  12   1    2.20   10.60
   2  12   1    4.90    9.00
  -2  12  -1   -8.30    6.80
   2  12   1    9.60   10.60
   3  12   1   91.39   14.30
   3  12   1   66.79   12.40
   3  12   1   70.19   13.80
   4  12   1   -5.50   13.50
   4  12   1    8.10   12.10
   4  13  -1   14.00   14.00
   3  13  -1   42.10   13.20
   3  13  -1   68.89   11.00
   3  13  -1   57.99   12.90
   3  13  -1   45.90   12.30
   2  13  -1   16.60   11.30
   2  13  -1    4.80   10.60
   2  13  -1   20.20   10.00
   2  13  -1   24.80   11.60
  -2  13   1   44.60   10.90
   1  13  -1    2.00    9.30
  -1  13   1   -6.10    7.90
  -1  13   1   -1.10   10.20
   1  13  -1    5.20    9.70
  -1  13   1   12.10    7.70
   1  13  -1   -1.10    9.00
   0  13  -1   93.29   15.20
   0  13   1   91.99   13.10
   0  13   1   74.59   10.70
   0  13  -1   99.89   13.30
   0  13  -1   77.89    9.80
   0  13   1   87.39   12.30
   1  13   1   26.80    9.80
  -1  13  -1   47.20   11.20
   1  13   1   28.00   10.50
  -1  13  -1   40.30    8.70
   1  13   1   56.39   10.90
   2  13   1    8.80    9.60
   2  13   1  -10.20   10.70
   2  13   1    2.50   11.10
   3  13   1   53.09   14.00
   3  13   1   67.09   13.50
   3  14  -1    4.60   12.80
   3  14  -1   19.70   12.80
  -2  14   1  535.75   20.90
   2  14  -1  472.65   22.50
   2  14  -1  547.95   28.30
   2  14  -1  490.65   24.10
   2  14  -1  529.65   21.00
   1  14  -1   74.89   11.10
  -1  14   1   75.49   12.70
  -1  14   1   79.09    9.90
   1  14  -1   76.59   12.30
   1  14  -1   53.79   11.10
   0  14   1    2.60    9.20
   0  14  -1   13.00   11.30
   0  14   1   17.50    8.80
   0  14  -1   22.10    9.30
   0  14   1   25.20   11.70
  -1  14  -1  138.39   15.80
  -1  14  -1   82.19   12.90
   1  14   1   97.29   12.70
   1  14   1  101.59   13.00
   1  14   1  121.79   15.10
   2  14   1    5.90   11.90
   2  14   1   21.50   12.30
   2  14   1   23.00   10.80
   3  14   1  116.69   22.40
  -2  15   1   20.00   11.30
   2  15  -1  -19.20   11.50
  -1  15   1   30.30    9.70
  -1  15   1   57.59   13.30
   1  15  -1    3.50   13.40
   1  15  -1   33.70   11.10
   0  15   1  241.58   16.20
   0  15  -1  223.98   23.20
   0  15  -1  226.08   16.60
   0  15   1  249.58   20.00
   1  15   1   -2.60   11.10
  -1  15  -1   14.10    9.40
   1  15   1   24.80   10.50
   2  15   1  -12.40   12.20
   0  16   1  257.47   18.20
   0  16  -1  234.78   17.60
   6   0  -2    8.90   11.50
   6   0  -2   12.80   11.30
   5   0  -2    6.60   10.10
   5   0  -2    2.40   10.10
   4   0  -2 1835.82   41.00
   4   0  -2 1820.72   38.70
  -3   0   2   -2.40    3.10
   3   0  -2   -4.40    3.40
   3   0  -2   -1.10    6.90
   3   0  -2   -1.00    6.00
   2   0  -2  353.06    7.90
   2   0  -2  329.07   12.50
  -2   0   2  328.97    7.90
   2   0  -2  325.07    8.20
   2   0  -2  345.47   11.90
  -2   0   2  330.47   10.90
   1   0  -2   -1.70    3.30
  -1   0   2   -6.50    3.00
   1   0  -2   -0.70    4.20
  -1   0   2   -0.80    4.00
  -1   0   2   -2.70    3.60
  -1   0   2   -6.50    5.00
   1   0  -2    0.20    3.40
   0   0   2 2818.32   47.90
   0   0  -2 2853.11   47.60
   0   0   2 2875.21   48.00
   0   0   2 2823.42   47.50
   0   0  -2 2729.23   47.80
   0   0  -2 2840.32   48.00
   0   0  -2 2819.22   47.60
   1   0   2   -0.10    4.10
  -1   0  -2   -2.40    3.70
   1   0   2    3.30    3.90
  -1   0  -2   -3.40    3.80
   2   0   2 1251.67   25.20
   2   0   2 1350.16   24.10
   3   0   2    8.20    5.60
   3   0   2    4.60    6.00
   3   0   2   -1.50    6.00
   3   0   2   -0.50    4.70
   3   0   2   -3.20    4.40
   4   0   2   81.59    8.30
   4   0   2   85.59   13.10
   4   0   2   74.39    9.30
   4   0   2   67.89    8.30
   4   0   2   59.99   11.40
   4   0   2   90.99   14.90
   5   0   2   10.60    7.60
   5   0   2  -13.20    8.10
   5   0   2    2.60    9.20
   5   0   2   -4.60    8.40
   6   0   2   -3.40   11.10
   6  -1  -2  263.37   24.10
   6  -1  -2  296.57   18.80
   6   1  -2  269.47   19.40
   6   1  -2  256.27   23.00
   5  -1  -2    3.80    9.90
   5  -1  -2    3.60   10.00
   5   1  -2    3.20   10.30
   5   1  -2   -4.20    9.10
   5   1  -2  -13.70    6.20
  -4  -1   2  903.11   18.40
   4  -1  -2  892.31   18.40
   4  -1  -2  935.01   27.00
   4  -1  -2  891.41   24.00
   4   1  -2  914.71   26.20
   4   1  -2  911.71   24.90
   4   1  -2  881.81   18.70
  -3  -1   2   39.40    4.30
   3  -1  -2   49.99    7.90
   3  -1  -2   38.50    6.90
   3  -1  -2   40.70    5.60
   3   1  -2   36.50    7.90
   3   1  -2   33.80    6.60
   3   1  -2   37.20    4.60
   2  -1  -2  648.04   16.90
  -2  -1   2  633.64   12.90
   2  -1  -2  628.64   14.80
   2  -1  -2  639.14   16.00
  -2  -1   2  639.44   15.80
   2  -1  -2  644.84   13.10
   2   1  -2  662.93   13.30
   2   1  -2  640.04   16.00
   2   1  -2  634.04   16.90
  -2   1   2  650.83   15.40
  -1  -1   2 2226.48   39.80
  -1  -1   2 2249.97   37.50
   1  -1  -2 2236.58   39.10
  -1  -1   2 2206.88   37.40
   1  -1  -2 2278.77   39.70
   1  -1  -2 2163.58   37.90
   1  -1  -2 2208.38   39.50
  -1  -1   2 2187.58   37.80
  -1  -1   2 2175.98   39.30
   1   1  -2 2213.28   38.00
  -1   1   2 2186.48   39.10
  -1   1   2 2221.18   38.10
   1   1  -2 2220.58   37.40
   1   1  -2 2236.08   40.00
  -1   1   2 2195.68   39.30
   0  -1  -2  463.85   11.60
   0  -1  -2  453.05   10.10
   0  -1   2  476.25    9.90
   0  -1   2  448.86   10.00
   0  -1   2  486.75   11.30
   0  -1   2  389.56    9.60
   0  -1   2  465.55   10.30
   0   1  -2  445.06   10.20
   0   1  -2  479.15   10.10
   0   1  -2  469.25   10.20
   0   1  -2  486.15   11.90
   0   1   2  475.15   10.10
   0   1   2  467.15   11.20
   0   1   2  482.55   11.60
   0   1   2  455.45   10.20
   1  -1   2 1209.18   21.90
  -1  -1  -2 1191.88   21.90
   1  -1   2 1216.18   22.50
  -1  -1  -2 1190.18   23.20
  -1   1  -2 1278.87   22.00
   1   1   2 1225.28   22.10
   1   1   2 1199.18   23.50
   1   1   2 1181.48   22.50
   2  -1   2  137.39    7.50
   2  -1   2  127.59    7.10
   2   1   2  131.89    9.10
   2   1   2  128.79    6.60
   2   1   2  133.69    7.50
   2   1   2  129.19    6.90
   2   1   2  130.29    8.40
   3  -1   2   64.09    8.70
   3  -1   2   82.79    9.70
   3  -1   2   70.99    6.70
   3  -1   2   76.69    7.70
   3   1   2   69.09    6.90
   3   1   2   52.99    8.20
   3   1   2   68.59   11.40
   3   1   2   73.39   11.20
   3   1   2   76.89    7.70
   4  -1   2   -0.70    4.70
   4  -1   2    5.20    7.50
   4  -1   2    4.30    8.00
   4  -1   2   -6.80    6.20
   4  -1   2    8.20    5.90
   4  -1   2    2.10    7.30
   4   1   2    2.30    8.10
   4   1   2   -3.80    7.70
   4   1   2   -2.20    5.10
   4   1   2   -1.50    6.60
   4   1   2   -4.30    8.50
   4   1   2   11.30    6.10
   5  -1   2   -6.30    7.90
   5  -1   2    4.70    8.50
   5  -1   2   -5.80    9.10
   5   1   2   -3.20    8.90
   5   1   2    1.90    9.00
   5   1   2    0.90    7.20
   5   1   2   -3.60    9.00
   6  -1   2  240.88   22.10
   6  -2  -2   12.70   11.90
   6  -2  -2    4.90   11.40
   6   2  -2    7.90   12.00
   6   2  -2    2.90   11.20
   5  -2  -2    9.00    9.80
   5  -2  -2   16.50   10.40
   5   2  -2   17.30   11.20
   5   2  -2   19.40   10.30
   5   2  -2    2.30    6.00
   4  -2  -2  648.74   15.60
   4  -2  -2  684.33   20.50
   4  -2  -2  659.03   23.30
   4   2  -2  690.13   23.50
   4   2  -2  685.13   16.20
   4   2  -2  646.14   21.60
   3  -2  -2    0.30    6.90
   3  -2  -2    7.30    4.50
   3  -2  -2    0.30    6.30
  -3  -2   2    1.70    4.10
  -3   2   2    5.60    6.10
   3   2  -2   -2.00    4.70
   3   2  -2   13.80    7.90
   3   2  -2   10.20    6.50
   2  -2  -2  858.81   17.00
   2  -2  -2  849.02   19.00
  -2  -2   2  854.91   16.90
  -2  -2   2  855.81   16.10
   2  -2  -2  847.02   18.00
   2   2  -2  864.11   17.20
  -2   2   2  862.01   18.80
   2   2  -2  845.42   16.20
   2   2  -2  848.52   21.80
   2   2  -2  863.71   20.50
  -1  -2   2 1096.49   22.00
   1  -2  -2 1121.19   20.80
   1  -2  -2 1114.09   21.70
  -1  -2   2 1130.19   20.30
   1  -2  -2 1123.79   22.40
  -1  -2   2 1124.49   19.80
   1  -2  -2 1095.09   19.70
  -1  -2   2 1091.29   20.50
  -1   2   2 1123.09   21.00
  -1   2   2 1130.19   22.20
   1   2  -2 1152.28   23.30
  -1   2   2 1145.89   21.90
   1   2  -2 1100.09   20.40
   1   2  -2 1099.79   22.20
   1   2  -2 1093.79   19.70
   1   2  -2 1120.19   20.80
  -1   2   2 1123.39   19.80
   0  -2   2  190.88    6.60
   0  -2  -2  183.58    6.80
   0  -2   2  196.18    6.90
   0  -2   2  203.58    7.20
   0  -2  -2  189.08    7.30
   0  -2   2  221.98    9.70
   0   2   2  199.38    9.30
   0   2   2  192.28    7.40
   0   2  -2  197.08    7.20
   0   2   2  189.58    9.00
   0   2  -2  188.68   10.30
   0   2  -2  182.48    6.70
   0   2   2  192.88    7.60
   0   2  -2  184.98    6.70
   1  -2   2   70.89    5.20
  -1  -2  -2   64.49    6.80
  -1  -2  -2   64.09    5.20
  -1  -2  -2   56.59    6.00
   1   2   2   62.99    6.60
   1   2   2   71.59    8.10
   1   2   2   65.79    5.90
  -2  -2  -2 2399.66   42.40
   2   2   2 2510.35   42.60
   2   2   2 2510.45   43.60
   2   2   2 2472.05   43.80
   2   2   2 2490.25   44.10
   2   2   2 2486.35   45.60
   3  -2   2  238.68    9.70
   3  -2   2  244.78   10.70
   3  -2   2  220.98    9.80
   3   2   2  221.48   10.30
   3   2   2  224.18   12.90
   3   2   2  222.28    9.80
   3   2   2  215.68   13.50
   4  -2   2  169.18   10.20
   4  -2   2  185.08   12.50
   4  -2   2  172.98   11.10
   4  -2   2  158.48   10.50
   4   2   2  154.38   15.20
   4   2   2  163.78   14.10
   4   2   2  180.68   14.60
   4   2   2  170.68   10.80
   4   2   2  171.48   10.30
   5  -2   2   34.30    8.70
   5  -2   2   13.40    9.40
   5   2   2   18.10    9.20
   5   2   2   20.50    7.80
   5   2   2   19.50    9.60
   5   2   2   12.80    6.60
   5   2   2   23.70   10.00
   6  -2   2   -3.40   10.70
   6   2   2   -3.00   10.70
   6  -3  -2  220.48   24.10
   6  -3  -2  219.48   17.40
   6   3  -2  207.98   22.10
   6   3  -2  240.58   20.40
   5  -3  -2    4.30   10.10
   5  -3  -2  -10.40    9.40
   5   3  -2    1.90    6.40
   5   3  -2    1.80    9.40
   5   3  -2    3.30   11.00
   4  -3  -2  429.26   16.90
   4  -3  -2  421.36   20.60
   4   3  -2  399.66   18.90
   4   3  -2  419.76   13.40
   4   3  -2  442.76   20.00
   3  -3  -2 1485.05   30.40
   3  -3  -2 1442.36   27.90
  -3  -3   2 1442.56   26.70
  -3  -3   2 1477.75   27.80
   3   3  -2 1498.85   32.60
   3   3  -2 1470.15   28.00
  -3   3   2 1467.25   29.90
   3   3  -2 1448.16   31.80
   3   3  -2 1467.45   27.00
   2  -3  -2  156.48    9.80
   2  -3  -2  160.18    8.60
  -2  -3   2  153.38    6.80
   2  -3  -2  154.98    7.40
  -2  -3   2  154.48    7.10
   2   3  -2  152.48    7.90
   2   3  -2  168.78   11.40
   2   3  -2  155.18    7.30
  -2   3   2  160.98    8.70
   1  -3  -2   67.89    5.40
  -1  -3   2   75.89    5.20
   1  -3  -2   76.49    8.80
  -1  -3   2   73.49    6.00
   1  -3  -2   72.19    6.50
   1  -3  -2   79.09    7.10
  -1  -3   2   73.89    6.20
  -1   3   2   68.79    5.70
   1   3  -2   72.29    6.60
  -1   3   2   72.59    7.70
   1   3  -2   69.59    6.70
  -1   3   2   66.49    8.00
   1   3  -2   77.29    9.60
   1   3  -2   69.79    7.60
   0  -3  -2   -3.40    3.90
   0  -3   2    0.80    5.00
   0  -3  -2    4.30    4.20
   0  -3   2    4.60    3.70
   0  -3  -2    5.20    4.50
   0  -3   2    4.20    4.10
   0   3  -2    4.70    4.10
   0   3  -2    2.70    5.30
   0   3   2    8.50    5.50
   0   3  -2    1.60    3.90
   0   3   2   -2.30    4.30
   0   3   2    4.80    5.00
   0   3   2    8.20    4.40
   1  -3   2  775.42   18.60
  -1  -3  -2  788.92   16.30
   1  -3   2  780.52   15.10
  -1  -3  -2  789.12   15.40
   1   3   2  799.12   16.70
   1   3   2  766.82   18.00
   1   3   2  783.52   16.40
   1   3   2  783.42   15.60
   2  -3   2  220.78    6.60
  -2  -3  -2  222.98    7.20
  -2  -3  -2  219.78    8.60
   2   3   2  220.58    9.50
   2   3   2  228.48    9.20
   2   3   2  223.98    9.30
   2   3   2  234.48   11.30
   2   3   2  221.68    7.70
   3   3   2  662.33   17.40
   3   3   2  692.43   20.40
   3   3   2  681.03   17.10
   3   3   2  726.43   19.00
   4  -3   2   31.50    7.00
   4  -3   2   15.70    6.40
   4   3   2   20.90    7.60
   4   3   2   33.40    9.30
   4   3   2   25.10    7.10
   4   3   2    9.50    7.70
   5  -3   2   14.90    9.80
   5  -3   2   25.50    7.10
   5   3   2   -4.10    8.40
   5   3   2   15.10    7.30
   5   3   2   16.20   10.10
   5   3   2   22.90    8.10
   5   3   2   13.60   10.60
   6  -3   2   47.30   12.50
   6   3   2   25.80   12.40
   6   3   2   63.69   13.20
   6  -4  -2   34.10   13.40
   6   4  -2   32.50   13.60
   6   4  -2   22.00   11.80
   6   4  -2    4.50   11.60
   5  -4  -2   89.59   18.90
   5  -4  -2  108.39   14.90
   5   4  -2  107.89   17.00
   5   4  -2  119.99   18.20
   5   4  -2  109.69   11.20
  -4  -4   2  182.38    9.40
   4  -4  -2  162.08   17.10
   4  -4  -2  170.08   14.40
   4   4  -2  157.88   10.10
   4   4  -2  177.98   11.20
   4   4  -2  203.28   17.80
   4   4  -2  170.08   15.90
   3  -4  -2   15.50    8.00
  -3  -4   2   17.40    5.10
   3   4  -2   17.10    6.00
   3   4  -2    6.10    7.00
   3   4  -2   15.50    6.00
   3   4  -2   30.80    7.80
  -3   4   2   23.30    6.60
  -2  -4   2  110.99    7.20
   2  -4  -2  125.59    5.90
   2  -4  -2  111.19    9.90
   2  -4  -2  120.39    7.70
   2  -4  -2  117.69    8.20
  -2  -4   2  104.79    7.00
   2   4  -2  111.79    9.80
   2   4  -2  107.79    7.70
   2   4  -2  100.69    8.00
   2   4  -2  130.89   12.00
  -2   4   2  125.09    8.60
  -2   4   2  118.39    8.40
  -2   4   2  124.59    6.30
   1  -4  -2    8.80    3.90
   1  -4  -2   14.50    4.30
   1  -4  -2   17.70    6.30
   1  -4  -2   16.90    4.40
  -1  -4   2   12.60    4.60
  -1  -4   2   18.00    4.00
  -1   4   2   22.00    5.40
  -1   4   2   14.00    3.50
  -1   4   2    5.80    4.90
   1   4  -2   19.90    5.80
  -1   4   2   17.60    4.40
   1   4  -2   16.00    5.00
   0  -4  -2   75.09    6.50
   0  -4  -2   69.29    6.40
   0  -4   2   74.09    6.60
   0  -4   2   73.09    5.90
   0  -4  -2   67.99    7.00
   0  -4  -2   71.19    7.50
   0   4  -2   77.29   10.60
   0   4   2   68.29    8.50
   0   4   2   71.39    8.20
   0   4   2   58.29    7.10
   1  -4   2 2564.94   44.10
   1  -4   2 2554.54   45.10
  -1  -4  -2 2566.54   45.30
  -1  -4  -2 2591.84   44.50
   1   4   2 2518.55   46.90
   1   4   2 2596.24   45.60
   1   4   2 2597.34   44.60
   1   4   2 2570.54   45.30
  -1   4  -2 2630.04   44.30
  -2  -4  -2  268.07    7.90
   2  -4   2  286.47    7.40
  -2  -4  -2  272.77    9.60
   2   4   2  287.07   10.60
   2   4   2  274.67   12.80
   2   4   2  282.17   10.80
   2   4   2  278.17   10.30
   2   4   2  276.87    8.60
   3   4   2   84.79   13.40
   3   4   2   82.39   11.20
   3   4   2   64.89   10.20
   3   4   2   71.69   10.10
   4   4   2    8.20    7.80
   4   4   2   23.60    7.60
   4   4   2    7.80    7.40
   4   4   2   13.40    9.30
   5  -4   2  108.09   11.50
   5   4   2   73.19   15.70
   5   4   2  111.69   11.90
   5   4   2  103.19   16.40
   5   4   2   92.79   12.20
   5   4   2  107.79   17.60
   6  -4   2    6.30   11.20
   6   4   2   16.30   12.60
   6   4   2   -4.40   12.40
   6  -5  -2    3.30   12.30
   6   5  -2    1.40   12.10
   6   5  -2   18.40   12.40
   6   5  -2    9.30   13.20
   5  -5  -2   18.50   10.70
   5  -5  -2    7.70    9.80
   5   5  -2   19.60   12.30
   5   5  -2   18.40   10.70
   5   5  -2   17.50    7.90
   4  -5  -2  204.58   14.40
   4   5  -2  231.48   17.10
   4   5  -2  257.17   18.60
   4   5  -2  221.38   12.30
   4   5  -2  207.28   11.50
   3  -5  -2  486.45   16.30
  -3  -5   2  490.05   13.50
   3   5  -2  474.35   14.30
   3   5  -2  527.15   20.20
   3   5  -2  491.05   15.00
   2  -5  -2  203.28   11.10
  -2  -5   2  197.88    8.80
   2  -5  -2  177.48    9.20
   2  -5  -2  193.48    7.50
  -2   5   2  184.08    9.80
   2   5  -2  213.38    9.50
   2   5  -2  198.98   13.50
   2   5  -2  195.68    9.70
  -2   5   2  202.18    9.50
  -2   5   2  152.78    7.30
  -1  -5   2  393.36   10.80
   1  -5  -2  392.86   11.70
   1  -5  -2  407.16   10.60
  -1  -5   2  397.36   11.10
   1  -5  -2  414.16   13.40
   1  -5  -2  385.66   11.20
  -1   5   2  410.56   12.50
  -1   5   2  412.56    9.80
  -1   5   2  402.56   12.70
  -1   5   2  358.36   10.80
   1   5  -2  420.16   15.00
   1   5  -2  411.06   11.90
   0  -5   2 1387.06   26.20
   0  -5  -2 1421.96   26.90
   0  -5   2 1390.96   26.90
   0  -5  -2 1410.26   26.60
   0  -5  -2 1417.96   27.40
   0   5   2 1451.45   26.50
   0   5   2 1464.45   28.40
   0   5  -2 1427.66   26.50
   0   5   2 1397.56   28.50
   0   5   2 1432.86   27.10
   0   5  -2 1446.06   30.30
  -1  -5  -2  493.65   11.70
   1  -5   2  479.35   11.20
  -1  -5  -2  476.45   12.20
   1  -5   2  469.55   12.30
  -1  -5  -2  490.95   13.20
   1   5   2  485.95   13.50
   1   5   2  483.65   14.90
   1   5   2  488.15   12.90
   1   5   2  485.45   12.20
  -2  -5  -2    2.30    4.20
  -2  -5  -2   10.70    4.10
   2  -5   2    8.50    3.50
   2   5   2   -3.10    6.30
   2   5   2   12.10    6.00
   2   5   2    8.00    6.60
   2   5   2    9.00    4.50
   2   5   2    6.30    5.00
   3   5   2  875.51   21.20
   3   5   2  877.01   21.50
   3   5   2  877.61   25.10
   3   5   2  897.71   22.50
   4   5   2   18.90    7.90
   4   5   2   10.30    8.50
   4   5   2   11.30    7.70
   4   5   2   16.20   10.10
   5  -5   2   -3.50    7.60
   5   5   2    6.30   12.30
   5   5   2    0.50    8.40
   5   5   2   -1.40   11.20
   5   5   2   -8.00    8.70
   6  -5   2   -4.00   11.30
   6   5   2   -1.20   13.10
   6   5   2    9.70   14.30
   6  -6  -2    9.80   12.20
   6   6  -2   -1.00   12.40
   6   6  -2  -23.80   12.50
   5  -6  -2   22.50   10.70
   5  -6  -2   26.60   10.20
   5   6  -2   12.60   10.90
   5   6  -2   18.50    8.10
   5   6  -2    6.80   12.00
   4  -6  -2   -0.30    8.60
   4   6  -2   13.40   10.60
   4   6  -2   24.40    9.70
   4   6  -2    9.60    7.90
   4   6  -2   11.10    7.50
   3  -6  -2  150.88    7.90
   3  -6  -2  151.58   12.90
   3   6  -2  165.88   11.40
   3   6  -2  167.08   16.60
   3   6  -2  103.39   12.00
   3   6  -2  150.48   11.50
   2  -6  -2  170.58    8.20
   2  -6  -2  171.38   11.70
   2   6  -2  177.28   10.30
   2   6  -2  172.28   14.90
  -2   6   2  159.88    8.90
  -2   6   2  162.88   10.10
  -2   6   2  181.78   10.20
   2   6  -2  166.68   10.30
   1  -6  -2 1662.03   31.10
   1  -6  -2 1690.13   33.40
  -1   6   2 1635.14   33.00
   1   6  -2 1709.83   35.40
  -1   6   2 1735.03   32.50
  -1   6   2 1526.25   30.20
   1   6  -2 1725.63   32.10
   1   6  -2 1682.23   31.50
  -1   6   2 1732.73   31.50
   0  -6  -2   14.40    4.90
   0  -6   2   17.60    4.30
   0  -6  -2   26.30    8.50
   0   6  -2   21.40    4.70
   0   6  -2   15.00    4.90
   0   6   2   21.60    6.00
   0   6   2   25.10    6.00
   0   6   2   24.50    6.50
   0   6  -2   18.90    6.80
   0   6   2   29.60    5.00
  -1  -6  -2 2067.69   37.40
   1  -6   2 2074.79   36.90
  -1  -6  -2 1989.40   38.20
   1   6   2 2120.19   38.80
   1   6   2 2096.39   38.80
  -1   6  -2 2123.39   37.20
   1   6   2 2102.69   38.20
   1   6   2 2084.09   40.60
  -2  -6  -2   -2.90    4.40
   2  -6   2    7.60    3.90
   2   6   2   13.90    6.80
   2   6   2    6.50    7.20
   2   6   2   -4.00    7.30
   2   6   2    0.10    5.10
   2   6   2    8.70    5.80
   3   6   2   43.60    9.50
   3   6   2   35.50    9.80
   3   6   2   45.40    7.90
   3   6   2   36.00    8.40
   4   6   2    9.50    9.00
   4   6   2   10.30    8.10
   4   6   2  -14.90    7.60
   4   6   2   -3.20    9.90
   5  -6   2   67.89   10.20
   5   6   2   60.49   10.70
   5   6   2   41.50   13.00
   5   6   2   59.79    9.70
   5   6   2   76.39   14.50
   6  -7  -2    5.40   12.60
   6   7  -2   14.90   13.10
   6   7  -2  -25.30   13.00
   5   7  -2   54.39   12.80
   5   7  -2   54.49    9.40
   5   7  -2   77.49   13.30
   5   7  -2   68.89   14.20
   4  -7  -2   48.50   10.10
   4   7  -2   64.39    9.40
   4   7  -2   43.30   10.90
   4   7  -2   57.09    8.90
   4   7  -2   35.20   10.60
   3  -7  -2   13.50    5.60
   3  -7  -2   13.70    9.00
   3   7  -2   10.20   10.40
   3   7  -2   27.00    9.70
   3   7  -2   26.60    8.70
   3   7  -2   13.80    7.90
   2  -7  -2    6.30    7.90
   2   7  -2   -5.00    6.30
  -2   7   2    4.70    6.10
   2   7  -2   12.10    8.50
  -2   7   2   -8.10    6.10
  -2   7   2    1.30    3.80
   2   7  -2    8.20    7.30
   1   7  -2  608.24   16.40
   1   7  -2  591.54   15.60
  -1   7   2  620.04   17.10
   1   7  -2  594.74   16.80
   1   7  -2  606.94   20.20
  -1   7   2  609.34   14.20
  -1   7   2  630.14   15.90
   0   7   2  389.06   14.50
   0   7  -2  382.36   16.50
   0   7  -2  390.56   12.00
   0   7   2  398.96   13.20
   0   7  -2  385.66   12.00
   0   7   2  413.46   12.20
   0   7  -2  383.86   11.50
   1  -7   2  633.34   14.70
  -1  -7  -2  648.94   15.60
  -1   7  -2  680.33   15.40
   1   7   2  651.33   16.70
   1   7   2  673.43   19.60
   1   7   2  667.23   18.00
   2  -7   2  138.29    7.20
  -2  -7  -2  124.29    8.20
   2   7   2  155.98   12.20
  -2   7  -2  142.89    8.10
   2   7   2  143.99   13.00
   2   7   2  126.89   11.60
   2   7   2  113.09   13.70
   3   7   2  410.66   17.20
   3   7   2  381.76   16.20
   3   7   2  375.56   19.30
   3   7   2  400.06   15.70
   4   7   2   20.10    8.50
   4   7   2   36.30   10.10
   4   7   2   19.80   11.50
   4   7   2   36.40    9.20
   5   7   2   -4.50   12.30
   5   7   2  -12.50   10.20
   5   7   2    8.80    9.50
   5   8  -2    8.30   11.80
   5   8  -2   14.40    9.10
   5   8  -2   -4.20   11.40
   5   8  -2   10.50   12.70
   4  -8  -2  300.67   16.00
   4   8  -2  359.56   22.10
   4   8  -2  354.46   20.10
   4   8  -2  349.37   15.90
   4   8  -2  328.37   15.60
   4   8  -2  324.37   18.60
   3  -8  -2    9.20    9.20
   3   8  -2   20.20    8.10
   3   8  -2   18.80    8.90
   3   8  -2   11.00   10.10
   3   8  -2    1.70    8.60
   2  -8  -2   48.40    9.70
   2   8  -2   25.90    8.20
   2   8  -2   35.00    8.80
  -2   8   2   36.00    7.40
   2   8  -2   36.30    7.00
   2   8  -2   35.20    9.90
  -2   8   2   49.80    7.10
  -2   8   2   41.30    7.80
   1   8  -2   88.39   10.00
   1   8  -2   90.19   11.30
   1   8  -2   93.49   11.20
  -1   8   2  100.19   12.00
  -1   8   2   84.19    8.70
   1   8  -2   84.19   15.20
  -1   8   2   94.59   10.60
   0   8  -2  188.18   10.50
   0   8  -2  160.68   15.40
   0   8  -2  171.38   10.40
   0   8   2  184.58   10.50
   0   8   2  180.68   13.20
   0   8   2  171.48   11.80
  -1   8  -2 2027.00   37.50
   1   8   2 2040.50   41.80
   1   8   2 2058.99   39.10
   2  -8   2    2.60    4.70
  -2  -8  -2    2.40    6.40
  -2   8  -2   10.60    5.40
   2   8   2   13.80    7.20
   2   8   2   15.30    9.20
   2   8   2    9.30    8.90
   2   8   2    7.20    7.70
   3   8   2   35.10   10.60
   3   8   2   46.80    9.00
   3   8   2   78.19   14.40
   3   8   2   50.19   10.10
   4   8   2  225.38   20.80
   4   8   2  234.88   15.80
   4   8   2  229.88   15.40
   5   8   2   67.79   12.20
   5   8   2   65.39   14.70
   5   8   2  110.69   15.80
   5   9  -2   49.60   13.40
   5   9  -2   36.00   13.40
   5   9  -2   47.20   14.10
   5   9  -2   27.00   10.00
   4   9  -2   24.10    9.90
   4   9  -2   28.80    9.40
   4   9  -2   35.80   11.40
   4   9  -2   24.30   11.80
   4   9  -2   20.60   11.40
   3  -9  -2  197.48   14.20
   3   9  -2  206.08   13.90
   3   9  -2  182.38   13.70
   3   9  -2  190.28   18.80
   3   9  -2  220.08   17.20
   2   9  -2   57.59   10.00
   2   9  -2   44.80    9.00
  -2   9   2   57.29    8.80
  -2   9   2   54.19    6.10
   2   9  -2   42.30    7.40
  -2   9   2   42.60    7.90
   2   9  -2   38.30   10.80
  -1   9   2   69.79    9.40
  -1   9   2   75.39   12.60
   1   9  -2   74.79   10.10
   1   9  -2   73.29    8.50
   1   9  -2   70.69   11.90
  -1   9   2   72.89   11.50
   1   9  -2   43.80   10.40
   0   9   2   49.30    7.30
   0   9   2   46.00    8.60
   0   9  -2   50.69    7.80
   0   9  -2   33.50    6.90
   0   9  -2   42.00    7.40
   0   9   2   40.80    8.70
  -1   9  -2   28.30    6.80
  -1   9  -2   31.50    6.60
   1   9   2   33.60    8.10
   1   9   2   34.60    9.20
   1   9   2   26.60    7.70
   2   9   2    3.30    9.20
   2   9   2    3.40    6.70
  -2   9  -2   -1.80    5.60
   2   9   2    7.30    7.80
   2   9   2    9.10    9.30
   3   9   2  360.26   18.30
   3   9   2  323.07   20.20
   3   9   2  356.76   16.50
   3   9   2  343.77   17.00
   4   9   2   65.99   11.80
   4   9   2   94.39   14.50
   4   9   2   76.99   13.60
   5   9   2    8.40   14.10
   5   9   2    4.60   11.90
   5   9   2   10.80   10.80
   5  10  -2   -1.70   10.10
   5  10  -2   -7.90   12.80
   5  10  -2    7.00   13.10
   4  10  -2  193.68   15.10
   4  10  -2  163.88   21.20
   4  10  -2  214.78   15.50
   4  10  -2  166.08   19.60
   4  10  -2  190.18   20.40
   3  10  -2   64.99   12.00
   3  10  -2   93.89   17.00
   3  10  -2  102.49   13.40
   3  10  -2   80.79   13.70
   2  10  -2 1130.29   32.80
   2  10  -2 1150.28   26.40
  -2  10   2 1156.58   23.50
  -2  10   2 1162.28   26.20
   2  10  -2 1195.48   28.00
   2  10  -2 1132.89   29.20
  -2  10   2 1105.69   25.90
   1  10  -2    5.00    7.60
   1  10  -2   26.40    8.10
  -1  10   2   10.90    8.20
   1  10  -2   13.10   10.00
  -1  10   2   25.50    9.00
   1  10  -2   28.30    9.60
  -1  10   2   23.40    6.80
   0  10   2  284.17   13.60
   0  10  -2  295.67   14.60
   0  10   2  288.67   16.60
   0  10  -2  304.37   13.60
   0  10   2  296.97   15.20
   0  10  -2  305.77   13.60
  -1  10  -2   53.69    7.40
   1  10   2   68.79    8.90
   1  10   2   67.59    9.40
   1  10   2   49.90   10.10
   2  10   2  141.29   14.90
   2  10   2   91.99   16.40
   2  10   2  119.19   11.80
  -2  10  -2  127.39    9.50
   2  10   2  129.49   14.30
   3  10   2   17.30    9.20
   3  10   2   28.80   10.90
   3  10   2    8.20   11.20
   4  10   2  307.27   18.20
   4  10   2  256.47   22.80
   4  10   2  260.27   17.30
   4  11  -2  159.08   15.60
   4  11  -2  153.08   20.50
   4  11  -2  163.08   22.20
   4  11  -2  144.19   15.80
   4  11  -2  176.98   20.40
   3  11  -2   43.00    9.90
   3  11  -2   32.30   11.00
   3  11  -2   37.30   11.20
   3  11  -2   34.00   11.80
   2  11  -2   44.70   10.10
   2  11  -2   42.60    9.00
   2  11  -2   45.60   11.50
   2  11  -2   30.90   10.90
  -2  11   2   39.60    9.40
  -2  11   2   53.19    6.90
  -2  11   2   43.50    8.00
   1  11  -2  176.58   13.30
  -1  11   2  169.98   14.50
  -1  11   2  184.58   11.40
   1  11  -2  163.88   14.60
   1  11  -2  175.78   19.60
   1  11  -2  164.28   14.50
  -1  11   2  189.48   13.80
   0  11   2   82.09   11.10
   0  11  -2   96.99   12.70
   0  11   2   71.09   13.90
   0  11  -2   73.69   11.40
   0  11   2   93.79   11.60
   0  11  -2   84.99   11.40
   1  11   2   35.90   10.00
   1  11   2   48.50    9.00
   1  11   2   38.10    8.80
  -1  11  -2   57.19    7.90
   2  11   2   -5.60    7.70
  -2  11  -2    3.80    6.50
   2  11   2    8.60   10.10
   2  11   2    6.50   10.60
   3  11   2   27.00   11.80
   3  11   2   49.10   12.70
   3  11   2   14.90    9.70
   4  11   2  142.59   21.90
   4  11   2  107.59   16.20
   4  11   2  108.39   17.20
   4  12  -2  307.07   23.50
   4  12  -2  314.47   25.80
   4  12  -2  284.67   19.10
   3  12  -2  -20.10   10.70
   3  12  -2   12.10   11.40
   3  12  -2    9.60    8.90
   3  12  -2    3.10   10.90
  -2  12   2   61.69   10.70
  -2  12   2   62.79   10.00
  -2  12   2   68.79   11.40
   2  12  -2   57.19   11.00
   2  12  -2   63.19   12.50
   2  12  -2   58.89   12.00
   2  12  -2   66.19   10.40
  -1  12   2   15.90   10.10
   1  12  -2   15.50   11.00
   1  12  -2   11.80    9.00
  -1  12   2   21.70    7.50
   1  12  -2    5.50    9.70
   1  12  -2    7.50    8.80
  -1  12   2    3.70    8.60
   0  12   2  197.28   15.40
   0  12   2  182.78   13.50
   0  12  -2  207.58   13.50
   0  12  -2  173.68   13.20
   0  12  -2  180.58   14.90
   0  12   2  171.78   15.80
   1  12   2  150.38   14.20
   1  12   2  139.49   17.20
   1  12   2  184.58   14.40
  -1  12  -2  149.69   12.00
   2  12   2    8.00    9.20
   2  12   2    4.00   10.80
   2  12   2    3.00   10.30
  -2  12  -2   11.70    7.00
   3  12   2    1.40   11.00
   3  12   2  -10.30   12.20
   3  12   2    9.80    9.30
   4  12   2   50.49   15.70
   4  13  -2   13.50   13.60
   4  13  -2   49.00   14.20
   3  13  -2  -12.20   11.40
   3  13  -2    2.50   11.60
   3  13  -2    1.40   11.80
   3  13  -2    0.20    9.30
   2  13  -2    4.20    9.70
   2  13  -2   -7.00   10.00
   2  13  -2    7.20   11.00
  -2  13   2   -3.10   10.10
   2  13  -2    5.20   11.40
   1  13  -2  176.58   15.10
   1  13  -2  191.88   16.30
  -1  13   2  188.38   15.60
  -1  13   2  216.18   13.70
  -1  13   2  199.98   16.10
   1  13  -2  184.18   15.80
   0  13   2   26.40    8.70
   0  13   2    8.60    9.40
   0  13   2   24.30   11.00
   0  13  -2    4.00    8.60
   0  13  -2    6.20   10.40
   1  13   2   87.39   14.10
   1  13   2   45.30   11.40
  -1  13  -2   67.39    9.00
   1  13   2   88.49   10.70
   2  13   2   -3.10   11.10
   2  13   2   -1.60   11.40
   2  13   2    5.50    9.70
   3  13   2   26.10   14.30
   3  14  -2    3.10   12.80
   3  14  -2   27.20   13.50
  -2  14   2  311.77   18.40
   2  14  -2  284.77   18.20
   2  14  -2  304.57   21.00
   2  14  -2  369.36   26.40
   2  14  -2  320.07   19.60
  -1  14   2  302.77   15.10
   1  14  -2  275.67   16.90
  -1  14   2  285.17   18.60
   1  14  -2  303.07   18.00
   1  14  -2  274.87   18.10
   0  14   2   48.40    9.80
   0  14  -2   30.00    9.70
   0  14   2   19.50   10.30
   0  14  -2   29.00   11.10
   0  14   2   51.19   12.40
   1  14   2   40.80   12.30
  -1  14  -2   70.99    9.90
   1  14   2   32.60   10.30
   1  14   2   67.89   12.20
   2  14   2    0.90   12.00
   2  15  -2   25.70   12.30
  -2  15   2   25.60   12.20
  -1  15   2   28.90    9.40
  -1  15   2   20.20   12.40
   1  15  -2   25.10   10.80
   0  15  -2   69.39   11.30
   0  15   2   70.19   10.90
   0  15   2   47.80   11.90
   1  15   2  216.08   27.50
  -1  15  -2  160.88   15.20
   1  15   2  148.99   20.10
   2  15   2   14.60   13.60
   6   0  -3   15.80   12.60
   6   0  -3  -18.20   11.00
   5   0  -3   -3.60   10.30
   5   0  -3   -0.70    9.50
   4   0  -3   -1.40    9.60
  -4   0   3   -3.50    4.10
   4   0  -3    5.20    8.60
   4   0  -3    9.40    4.70
   3   0  -3  788.22   21.90
   3   0  -3  775.32   20.50
   3   0  -3  785.52   15.50
   3   0  -3  768.52   15.60
  -3   0   3  783.02   15.50
   2   0  -3   -2.40    3.60
   2   0  -3    7.40    6.40
  -2   0   3    4.50    4.00
  -2   0   3    2.10    5.40
   2   0  -3   -3.30    3.30
   2   0  -3   -1.00    5.00
  -2   0   3   -0.10    3.20
  -1   0   3 5997.50   98.99
   1   0  -3 5980.00   99.09
  -1   0   3 5915.91  100.49
   1   0  -3 5896.81  100.59
  -1   0   3 5998.90   99.09
  -1   0   3 5974.60  100.39
  -1   0   3 5918.81  100.49
   0   0  -3   -3.80    4.10
   0   0  -3   -0.70    3.80
   0   0   3    2.50    3.30
   0   0  -3   -1.70    4.10
   0   0   3    0.00    4.80
   0   0  -3    2.20    5.50
   0   0   3    4.00    4.80
   1   0   3  347.27    9.50
   1   0   3  364.46   10.60
   1   0   3  346.47   10.00
  -1   0  -3  360.76   10.50
  -1   0  -3  345.87    9.60
   1   0   3  359.86   10.10
   2   0   3  -10.10    4.50
   2   0   3    6.50    5.00
   3   0   3  124.59    9.10
   3   0   3  153.58   12.00
   3   0   3  137.99   10.00
   4   0   3    4.70    5.90
   4   0   3    8.70    8.00
   4   0   3    0.70    7.50
   4   0   3    3.10    5.50
   4   0   3    3.00    7.10
   4   0   3   -0.20    7.60
   5   0   3   12.60    9.20
   5   0   3   -9.90    8.80
   5   0   3   15.70   12.60
   5   0   3    1.20    7.10
   6  -1  -3   44.00   13.10
   6  -1  -3   16.00   11.90
   6   1  -3   34.30   12.70
   6   1  -3   14.20   11.90
   5  -1  -3  117.89   15.60
   5  -1  -3  110.49   18.80
   5   1  -3   82.59   16.30
   5   1  -3   78.19   12.00
   5   1  -3   93.59    8.90
   4  -1  -3    2.10    4.90
   4  -1  -3    7.60    8.40
  -4  -1   3   16.50    4.80
   4  -1  -3    3.80    9.80
   4   1  -3    6.10    5.30
   4   1  -3    3.30    9.80
   4   1  -3   10.70    8.60
   3  -1  -3  707.53   20.70
   3  -1  -3  695.83   19.20
   3  -1  -3  701.73   14.90
  -3  -1   3  707.03   14.80
   3   1  -3  698.93   19.60
   3   1  -3  709.33   20.70
   3   1  -3  677.33   15.00
  -2  -1   3   17.60    3.80
   2  -1  -3   13.10    6.50
   2  -1  -3   12.10    5.20
  -2  -1   3   19.90    3.70
   2  -1  -3   15.70    3.90
  -2  -1   3   21.00    5.70
   2   1  -3   15.90    3.30
   2   1  -3   12.60    5.40
  -2   1   3   23.70    5.80
   2   1  -3   23.30    4.10
  -2   1   3   20.20    3.30
   2   1  -3   11.30    8.50
  -2   1   3   13.70    4.10
   1  -1  -3  235.18   10.70
  -1  -1   3  258.37    7.80
   1  -1  -3  243.88   10.10
  -1  -1   3  242.28    9.80
  -1  -1   3  243.48   10.00
  -1  -1   3  239.28    7.80
   1  -1  -3  248.28    8.10
  -1   1   3  230.18    9.10
   1   1  -3  236.08    7.40
   1   1  -3  260.77   11.00
  -1   1   3  246.98    7.10
  -1   1   3  236.88   10.30
   1   1  -3  258.87    8.30
  -1   1   3  236.38    9.60
  -1   1   3  251.27    8.30
   1   1  -3  255.97   10.00
   0  -1   3  301.67    8.40
   0  -1  -3  308.57   11.00
   0  -1   3  287.67    9.50
   0  -1   3  320.47   10.10
   0  -1   3  303.97    9.20
   0   1   3  302.47   10.20
   0   1   3  318.47   11.00
   0   1  -3  294.57    9.40
   0   1  -3  294.47    9.20
   0   1   3  297.07    9.20
   0   1  -3  302.47    8.90
   0   1  -3  297.27   10.80
   0   1   3  310.97    9.10
   1  -1   3  500.85   11.00
   1  -1   3  512.85   12.30
   1  -1   3  493.75   11.70
   1  -1   3  493.65   12.60
  -1  -1  -3  422.76   12.50
  -1  -1  -3  498.55   11.50
   1   1   3  485.55   12.80
   1   1   3  501.65   12.50
   1   1   3  504.15   11.80
  -1   1  -3  516.15   12.00
  -1   1  -3  499.15   11.90
   1   1   3  512.15   13.30
   2  -1   3  686.43   15.50
  -2  -1  -3  654.93   14.60
   2  -1   3  686.93   15.70
   2   1   3  667.33   15.60
   2   1   3  671.33   17.00
   2   1   3  687.13   15.10
   2   1   3  701.13   15.90
   3  -1   3  101.49    9.40
   3  -1   3  111.79    9.30
   3  -1   3  107.09   10.90
   3   1   3  108.19    8.60
   3   1   3  114.49   12.30
   3   1   3   88.39    9.80
   3   1   3  104.39   11.50
   3   1   3  102.49    8.90
   4  -1   3   21.60    7.40
   4  -1   3   18.50    7.20
   4  -1   3    8.90    7.70
   4  -1   3   10.10    8.00
   4  -1   3    9.90    6.50
   4  -1   3    7.90    5.40
   4   1   3   24.00    6.10
   4   1   3   11.80    7.20
   4   1   3    9.90    8.70
   4   1   3   17.00    8.00
   4   1   3   17.60    6.00
   4   1   3   27.20    8.70
   5  -1   3   28.00    9.60
   5  -1   3   19.80    7.80
   5   1   3   27.20    9.40
   5   1   3   11.10    7.90
   5   1   3    9.30    9.20
   5   1   3   18.00    9.70
   6  -2  -3   55.59   13.50
   6  -2  -3   67.69   13.30
   6   2  -3   46.80   12.60
   6   2  -3   69.09   14.40
   5  -2  -3  162.78   16.30
   5  -2  -3  135.59   19.60
   5   2  -3  137.59   18.90
   5   2  -3  146.09    9.80
   5   2  -3  132.29   16.80
   4  -2  -3   82.99    8.60
   4  -2  -3   96.69   14.40
   4  -2  -3   96.69   16.40
   4   2  -3   91.69    9.20
   4   2  -3   96.39   16.20
   4   2  -3   79.09   12.30
   3  -2  -3 1829.72   37.10
   3  -2  -3 1865.91   33.70
   3  -2  -3 1841.82   38.60
  -3  -2   3 1838.12   33.50
   3   2  -3 1883.01   33.80
   3   2  -3 1828.82   38.60
   3   2  -3 1855.71   37.80
   2  -2  -3  125.89   10.50
   2  -2  -3  101.49    6.90
   2  -2  -3  106.59   10.40
  -2  -2   3  121.49    6.50
  -2  -2   3  113.79    5.70
  -2  -2   3  101.29    8.40
  -2   2   3   69.59    6.70
  -2   2   3  108.49    5.00
   2   2  -3  112.29   10.70
   2   2  -3  121.49    7.20
  -2   2   3  113.79    8.60
  -1  -2   3 3734.43   63.29
   1  -2  -3 3792.62   65.19
  -1  -2   3 3705.43   64.39
  -1  -2   3 3804.12   62.89
  -1  -2   3 3692.13   65.19
  -1  -2   3 3705.53   62.89
   1  -2  -3 3632.54   64.29
   1  -2  -3 3774.02   63.49
   1  -2  -3 3687.23   62.49
   1  -2  -3 3699.93   64.49
  -1   2   3 3769.82   64.69
   1   2  -3 3818.52   65.79
   1   2  -3 3740.63   63.39
  -1   2   3 3762.02   62.59
  -1   2   3 3788.92   65.09
   1   2  -3 3695.23   64.49
   1   2  -3 3696.13   62.79
   0  -2   3  188.58    7.10
   0  -2  -3  200.18    7.40
   0  -2   3  196.88    9.60
   0  -2   3  191.08    7.50
   0  -2  -3  192.38    9.20
   0  -2  -3  195.18    7.50
   0   2   3  194.98    9.40
   0   2   3  200.68    7.50
   0   2   3  191.78    8.40
   0   2  -3  182.38    7.50
   0   2  -3  195.78    7.80
   0   2  -3  205.18   10.70
   0   2   3  217.98   10.30
   0   2  -3  203.78    7.50
  -1  -2  -3  121.89    6.40
   1  -2   3  117.29    8.70
   1  -2   3  123.09    6.10
   1  -2   3  123.19    7.60
  -1  -2  -3  126.49    9.80
   1   2   3  117.49    8.40
   1   2   3  125.39    7.30
  -1   2  -3  126.49    6.30
   1   2   3  115.69    7.80
   1   2   3  130.69    9.20
  -2  -2  -3  621.14   13.90
   2  -2   3  642.24   15.40
   2   2   3  619.14   15.50
   2   2   3  628.54   14.20
   2   2   3  627.24   16.90
   3  -2   3   31.00    6.80
   3  -2   3   27.70    6.20
   3   2   3   32.80    8.00
   3   2   3   24.70    5.80
   3   2   3   16.70    7.00
   3   2   3   32.10    6.50
   3   2   3   20.70    6.20
   4  -2   3   45.20    7.60
   4  -2   3   53.69    9.10
   4  -2   3   50.09    7.40
   4  -2   3   43.00    7.50
   4  -2   3   55.29    8.10
   4   2   3   33.10    7.70
   4   2   3   36.00    9.50
   4   2   3   52.69    7.30
   4   2   3   43.10    8.30
   5  -2   3   10.80    9.00
   5   2   3    6.70    8.30
   5   2   3   13.00    9.90
   5   2   3    6.90    8.20
   5   2   3   -7.30    9.60
   5   2   3    2.10    8.70
   6  -2   3   -0.20   13.20
   6  -3  -3   12.70   12.30
   6  -3  -3   21.40   12.10
   6   3  -3    3.40   11.70
   6   3  -3   24.20   13.20
   5  -3  -3  384.86   23.30
   5  -3  -3  373.36   18.30
   5   3  -3  369.06   22.30
   5   3  -3  357.06   20.50
   5   3  -3  370.16   13.50
   4  -3  -3  180.98   17.40
   4  -3  -3  162.28   15.00
   4   3  -3  166.38   10.70
   4   3  -3  200.28   17.70
   4   3  -3  151.98   15.80
   3  -3  -3   -2.50    5.60
  -3  -3   3   12.30    4.30
   3  -3  -3    6.60    6.90
   3  -3  -3    3.70    8.30
   3   3  -3    9.50    7.20
   3   3  -3    3.20    5.50
   3   3  -3   -8.00    7.40
   3   3  -3   10.90    4.80
   2  -3  -3   19.10    7.20
  -2  -3   3    8.20    4.20
  -2  -3   3    2.80    4.20
   2  -3  -3   -0.40    4.40
   2   3  -3    3.30    4.50
   2   3  -3    3.10    6.10
   2   3  -3    5.40    4.70
   2   3  -3   10.40    6.10
  -2   3   3    6.20    5.50
  -2   3   3    2.90    5.50
  -1  -3   3   24.00    4.30
  -1  -3   3   39.90    5.70
   1  -3  -3   30.60    5.20
  -1  -3   3   35.00    4.70
   1  -3  -3   38.20    7.10
   1  -3  -3   41.00    6.30
  -1  -3   3   37.70    5.60
   1  -3  -3   28.30    3.90
  -1   3   3   39.00    6.00
   1   3  -3   29.90    4.90
   1   3  -3   13.20    4.60
  -1   3   3   30.60    5.90
   1   3  -3   25.40    5.60
  -1   3   3   36.60    4.50
   0  -3   3  242.48    7.80
   0  -3  -3  244.68    8.10
   0  -3  -3  254.07    8.50
   0  -3   3  250.47   11.10
   0  -3   3  240.88    7.70
   0   3  -3  235.98    7.90
   0   3  -3  236.78    7.90
   0   3   3  236.08   10.10
   0   3  -3  227.58   12.00
   0   3   3  241.88   11.10
   0   3   3  247.68    9.20
   1  -3   3    5.40    3.60
  -1  -3  -3    4.90    4.30
   1  -3   3    4.60    4.80
  -1  -3  -3    5.10    3.90
   1   3   3    1.80    5.30
   1   3   3    3.70    4.70
   1   3   3   -1.00    5.10
  -2  -3  -3  288.97    8.90
   2  -3   3  263.77   10.60
   2  -3   3  266.47    8.30
   2   3   3  293.77   12.90
   2   3   3  280.27   11.00
   2   3   3  268.37    9.50
   2   3   3  278.17   10.80
   3  -3   3  443.26   11.20
   3  -3   3  446.06   14.50
   3   3   3  446.46   15.00
   3   3   3  471.85   18.00
   3   3   3  447.86   14.90
   3   3   3  427.06   14.30
   3   3   3  446.26   12.30
   4  -3   3  473.25   15.20
   4   3   3  453.65   17.80
   4   3   3  465.95   16.10
   4   3   3  422.36   15.10
   4   3   3  480.35   19.70
   5  -3   3   15.80    9.70
   5  -3   3   10.20    7.20
   5   3   3    6.50   10.50
   5   3   3   12.10   10.40
   5   3   3   -0.50    7.30
   5   3   3   10.90    8.60
   6  -3   3   30.30   11.70
   6   3   3    3.10   11.80
   6  -4  -3   36.20   12.50
   6  -4  -3   12.30   12.50
   6   4  -3   50.69   14.70
   6   4  -3   20.30   12.50
   5  -4  -3   18.00   10.70
   5  -4  -3   18.70   10.90
   5   4  -3   29.80   12.40
   5   4  -3    9.00   10.30
   5   4  -3   15.50    7.50
   4  -4  -3 1332.07   31.30
   4  -4  -3 1332.07   34.70
   4   4  -3 1323.97   26.00
   4   4  -3 1319.97   27.80
   4   4  -3 1358.06   34.60
   4   4  -3 1356.26   33.50
  -3  -4   3  296.97   10.00
   3  -4  -3  315.27   14.80
   3   4  -3  297.37   11.90
   3   4  -3  290.87   17.00
   3   4  -3  314.67   10.60
   2  -4  -3   69.49    8.30
   2  -4  -3   70.49    5.30
   2  -4  -3   68.19   10.40
  -2  -4   3   62.79    7.10
  -2   4   3   67.69    6.00
  -2   4   3   67.79    9.10
   2   4  -3   77.99   12.50
  -2   4   3   65.99    8.30
   2   4  -3   70.29    7.90
   2   4  -3   64.19    9.60
   2   4  -3   76.69    7.40
   1  -4  -3    4.10    4.30
  -1  -4   3    7.00    4.10
  -1  -4   3   15.20    3.90
   1  -4  -3   12.10    4.10
   1  -4  -3   12.30    7.00
  -1  -4   3    9.90    4.60
   1   4  -3    6.60    5.40
   1   4  -3    8.90    6.10
   1   4  -3    5.60    5.20
  -1   4   3   10.70    3.90
  -1   4   3    6.20    5.60
  -1   4   3    9.90    5.60
   0  -4  -3   43.70    6.30
   0  -4   3   44.40    5.80
   0  -4  -3   48.50    6.10
   0  -4   3   52.09    6.40
   0   4   3   48.70    8.00
   0   4   3   57.19    9.10
   0   4  -3   49.50   10.60
   0   4  -3   50.09    6.60
   0   4  -3   56.99    6.00
   0   4   3   52.19    7.40
   0   4   3   46.00    7.00
  -1  -4  -3  182.38    8.30
  -1  -4  -3  180.28    7.80
   1  -4   3  197.78    7.20
   1   4   3  192.78    8.80
   1   4   3  182.28    8.70
   1   4   3  175.08    9.30
   1   4   3  185.78   11.10
   2  -4   3 1619.84   30.00
  -2  -4  -3 1618.34   30.40
   2   4   3 1697.83   32.60
   2   4   3 1700.23   30.80
   2   4   3 1700.13   34.80
   2   4   3 1711.43   32.20
   3  -4   3   64.89    6.30
  -3  -4  -3   59.29    7.30
   3  -4   3   52.99    8.30
   3   4   3   48.90   10.40
   3   4   3   51.79    8.90
   3   4   3   45.60    6.30
   3   4   3   45.70    7.70
   3   4   3   63.09    9.90
   4  -4   3   57.49    8.70
   4   4   3   55.69   11.00
   4   4   3   33.30    9.00
   4   4   3   49.90    8.30
   4   4   3   32.50    7.70
   5  -4   3   -3.20    7.80
   5   4   3    1.20   10.60
   5   4   3   13.30    8.90
   5   4   3    5.50   11.50
   5   4   3    1.70    7.80
   6  -5  -3  129.09   24.90
   6   5  -3   88.79   15.10
   6   5  -3  143.79   20.30
   5  -5  -3    7.90   10.50
   5  -5  -3   13.00   10.40
   5   5  -3    3.90   10.60
   5   5  -3   -7.70    7.50
   5   5  -3    5.70   12.30
   4  -5  -3   12.20    8.80
   4  -5  -3    6.10    9.60
   4   5  -3   -5.50    6.80
   4   5  -3    4.60   10.10
   4   5  -3   -0.90    7.10
   4   5  -3    6.20    9.50
  -3  -5   3  412.76   12.30
   3  -5  -3  393.36   16.50
   3   5  -3  414.46   14.00
   3   5  -3  402.76   13.10
   3   5  -3  413.86   19.80
   2  -5  -3   -1.10    4.00
  -2  -5   3    1.40    3.70
  -2  -5   3    5.90    5.30
   2  -5  -3    1.70    7.60
  -2   5   3   -0.40    3.40
   2   5  -3    2.80    7.20
   2   5  -3    5.70    5.70
  -2   5   3   -6.70    5.60
   2   5  -3    0.70    5.50
  -2   5   3   -4.50    3.50
   2   5  -3    4.10    6.60
   1  -5  -3  252.17    8.70
  -1  -5   3  247.98    8.50
  -1  -5   3  247.78    9.30
   1  -5  -3  262.17   12.60
  -1   5   3  264.67    9.30
   1   5  -3  266.97   14.10
   1   5  -3  249.68   11.10
  -1   5   3  250.27   11.10
  -1   5   3  258.97   11.80
   1   5  -3  238.38   10.00
   0  -5   3  158.68    7.30
   0  -5   3  151.18    7.90
   0  -5  -3  136.29    7.80
   0  -5  -3  141.39    8.20
   0  -5  -3  139.79    7.80
   0   5  -3  163.38    8.40
   0   5  -3  116.49   12.20
   0   5  -3  154.78    7.80
   0   5   3  156.58    8.90
   0   5   3  141.69    8.00
   0   5   3  159.98   10.60
   0   5   3  140.99    8.70
   0   5   3  148.69    9.80
   1  -5   3   53.39    5.90
  -1  -5  -3   48.80    6.80
  -1   5  -3   55.79    7.10
   1   5   3   47.50    7.30
   1   5   3   60.29    7.80
   1   5   3   47.20    7.70
   2  -5   3  251.37    8.50
  -2  -5  -3  244.48    8.90
   2   5   3  247.98   14.40
   2   5   3  240.18   11.60
   2   5   3  242.58   12.10
   2   5   3  237.98   10.10
  -3  -5  -3   70.49    7.30
   3   5   3   58.69   10.20
   3   5   3   74.29    9.60
   3   5   3   71.99   11.60
   3   5   3   82.19   11.80
   4  -5   3  688.73   19.60
   4   5   3  677.23   24.30
   4   5   3  667.23   19.80
   4   5   3  656.53   20.90
   4   5   3  673.83   19.60
   5  -5   3   -4.50    8.70
   5   5   3   11.90    8.60
   5   5   3   -0.60   11.50
   5   5   3    6.40    9.50
   6  -6  -3  129.39   23.80
   6   6  -3   80.19   15.10
   5  -6  -3   35.50   11.10
   5  -6  -3   39.80   11.60
   5   6  -3   14.30   11.50
   5   6  -3   40.80   13.50
   5   6  -3   28.40    8.60
   4  -6  -3   82.19   13.60
   4   6  -3   62.49    8.40
   4   6  -3   73.69   11.40
   4   6  -3   62.09   11.30
   4   6  -3   87.29   13.40
   3  -6  -3   -5.90    8.90
   3   6  -3   -4.40    7.20
   3   6  -3    6.90    9.10
   3   6  -3    1.50    7.40
   3   6  -3   -1.80    9.50
   2  -6  -3 1030.00   20.80
   2  -6  -3 1058.79   25.10
   2   6  -3 1048.30   22.90
  -2   6   3 1053.39   21.30
   2   6  -3 1032.90   22.50
   2   6  -3 1045.20   27.50
  -2   6   3 1017.60   23.50
   2   6  -3 1053.99   25.40
  -2   6   3 1060.09   19.80
   1  -6  -3   50.39    7.20
   1  -6  -3   49.50    8.80
  -1   6   3   40.80    7.20
   1   6  -3   40.40    8.10
  -1   6   3   50.79    6.80
  -1   6   3   50.59    6.40
   1   6  -3   42.00    6.80
   1   6  -3   49.80    9.20
   1   6  -3   39.60    5.80
   0  -6  -3  259.77   10.40
   0   6  -3  255.67   10.20
   0   6   3  256.37    9.90
   0   6  -3  254.27    9.70
   0   6   3  260.77   12.80
   0   6  -3  255.67   15.00
   0   6   3  270.47   11.00
   0   6   3  275.07   10.80
   1  -6   3   56.49    6.60
  -1  -6  -3   68.69    7.50
   1   6   3   60.59   11.30
   1   6   3   56.49    8.50
   1   6   3   52.29    8.50
  -1   6  -3   52.39    7.70
   1   6   3   56.99    7.30
  -2  -6  -3  713.93   16.30
   2  -6   3  731.23   15.70
   2   6   3  743.53   17.10
   2   6   3  712.53   22.10
   2   6   3  744.13   19.50
   2   6   3  734.23   18.90
   3   6   3   32.20    8.50
   3   6   3   42.10   10.10
   3   6   3   40.00    9.50
   4  -6   3  120.99   13.60
   4   6   3  114.29   18.00
   4   6   3  122.49   13.70
   4   6   3  149.49   13.70
   5  -6   3    9.50    9.50
   5   6   3   -0.60    8.90
   5   6   3   20.30   10.70
   5   6   3   -5.30   12.10
   6  -7  -3  164.08   25.00
   6   7  -3  152.58   21.80
   5  -7  -3   27.70   11.10
   5  -7  -3    2.70   10.50
   5   7  -3    6.80   12.10
   5   7  -3    1.00    8.40
   5   7  -3  -10.50   11.70
   4  -7  -3    8.50   10.10
   4   7  -3   18.70    8.30
   4   7  -3   21.20    8.20
   4   7  -3   22.80   10.30
   4   7  -3    7.10   10.50
   3  -7  -3  829.22   19.90
   3  -7  -3  795.62   23.00
  -3   7   3  799.32   17.80
   3   7  -3  783.82   24.70
   3   7  -3  802.92   21.30
   3   7  -3  804.22   20.70
   3   7  -3  826.72   27.20
   2  -7  -3    3.50    9.20
  -2  -7   3   19.30    4.90
  -2   7   3    8.00    4.50
  -2   7   3    1.00    7.00
   2   7  -3    7.50    8.90
   2   7  -3    5.40    6.70
   2   7  -3   17.80    9.00
   2   7  -3   15.00    7.60
  -2   7   3    9.30    6.60
   1   7  -3   -0.10    7.80
  -1   7   3    0.80    6.40
  -1   7   3    1.10    7.00
   1   7  -3   10.00    7.60
   1   7  -3   -0.40    5.80
   1   7  -3    8.00    7.10
  -1   7   3    7.10    5.00
   0   7  -3   47.60    6.30
   0   7   3   49.99    7.60
   0   7   3   33.20    7.70
   0   7   3   44.50    6.20
   0   7  -3   37.80    7.90
  -1  -7  -3  591.14   16.00
   1   7   3  597.64   19.30
  -1   7  -3  589.14   15.00
   1   7   3  578.64   15.80
   1   7   3  615.94   16.10
   2  -7   3   48.40    7.00
   2   7   3   29.30    9.60
   2   7   3   34.00    7.00
   2   7   3   50.29    9.70
   2   7   3   49.00    8.20
   3   7   3    4.70    9.80
   3   7   3   12.70    9.20
   3   7   3    8.70    8.20
   4   7   3  312.17   21.10
   4   7   3  332.47   17.20
   4   7   3  337.47   16.60
   5  -7   3   19.60   10.00
   5   7   3   27.20   10.00
   5   7   3   24.20   11.40
   5   7   3   -2.30   13.00
   5  -8  -3   52.79   12.00
   5   8  -3   49.20   12.70
   5   8  -3   21.00   12.30
   5   8  -3   36.00    9.70
   5   8  -3   12.60   12.30
   4  -8  -3  201.28   15.70
   4   8  -3  227.28   14.00
   4   8  -3  256.07   14.80
   4   8  -3  206.98   17.80
   4   8  -3  205.58   21.40
   3  -8  -3  148.79   14.50
   3   8  -3  148.09   13.00
  -3   8   3  159.48    9.90
   3   8  -3  157.98   19.20
   3   8  -3  149.69   13.10
   3   8  -3  161.78   16.00
   2  -8  -3    5.10    9.80
  -2   8   3   -4.70    4.90
  -2   8   3   -4.30    7.50
   2   8  -3   -0.10    6.60
   2   8  -3    0.20    8.10
   2   8  -3   -6.00    9.60
  -2   8   3   -6.80    7.10
   2   8  -3    6.30    9.70
   1   8  -3  102.79   16.40
  -1   8   3  145.89    9.70
   1   8  -3  135.89   11.90
  -1   8   3  138.79   11.20
   1   8  -3  137.89   10.90
  -1   8   3  150.78   13.40
   0   8   3  171.98   14.10
   0   8   3  201.18   12.00
   0   8  -3  180.98   10.80
   0   8  -3  179.78   10.10
   0   8  -3  167.38   16.40
   0   8   3  200.88   11.00
   1   8   3   59.39    9.50
   1   8   3   54.99    7.90
  -1   8  -3   75.99    9.60
   2   8   3  370.16   19.20
   2   8   3  369.26   14.90
   2   8   3  377.26   15.30
   2   8   3  370.86   16.30
   3   8   3   17.40   10.60
   3   8   3    8.10    9.70
   3   8   3    2.30    8.30
   4   8   3    5.40   11.80
   4   8   3   -8.80    8.70
   4   8   3    8.40   10.50
   5  -8   3  113.29   15.70
   5   8   3  101.89   16.40
   5   8   3   70.89   15.40
   5   8   3  121.19   15.80
   5   9  -3   87.09   14.40
   5   9  -3  127.29   24.40
   5   9  -3   62.19   14.50
   5   9  -3  105.49   14.80
   4  -9  -3   77.39   14.80
   4   9  -3   62.59   11.90
   4   9  -3   54.79   10.50
   4   9  -3   35.60   12.40
   4   9  -3   60.59   10.10
   4   9  -3   70.49   14.00
   3  -9  -3  357.96   17.70
  -3   9   3  364.96   15.00
  -3   9   3  369.36   13.30
   3   9  -3  375.56   22.00
   3   9  -3  382.86   16.30
   3   9  -3  355.46   19.80
   3   9  -3  353.06   18.60
   3   9  -3  349.77   16.10
  -2   9   3    9.20    7.70
   2   9  -3   14.80   10.40
   2   9  -3   20.80    9.30
  -2   9   3   16.40    5.70
  -2   9   3   23.90    7.90
   2   9  -3   15.80    6.90
   2   9  -3   17.80    8.40
   2   9  -3   17.30   10.60
  -1   9   3   25.90    8.50
  -1   9   3   23.50    6.70
   1   9  -3   26.60    7.80
  -1   9   3   32.90    8.90
   1   9  -3   26.20    9.10
   1   9  -3   38.90    7.90
   1   9  -3   26.50   10.20
   0   9   3    6.90    7.00
   0   9  -3   14.30    9.30
   0   9   3   10.60    8.40
   0   9  -3    3.70    5.90
   0   9  -3   -3.10    6.80
   0   9   3    5.50    8.30
  -1   9  -3 1037.60   23.40
   1   9   3 1058.39   28.40
   1   9   3 1044.90   24.90
   1   9   3 1084.89   25.00
   2   9   3    0.60    9.60
   2   9   3   -1.00    9.20
   2   9   3   21.70    6.70
  -2   9  -3   15.40    6.10
   2   9   3   15.00    7.00
   3   9   3  208.58   15.90
   3   9   3  201.78   14.90
   3   9   3  214.68   19.60
   4   9   3  307.97   17.90
   4   9   3  304.17   23.00
   4   9   3  297.87   17.40
   5  10  -3   12.80   13.30
   5  10  -3   17.50   10.70
   5  10  -3  -20.40   13.00
   4  10  -3   17.30   11.40
   4  10  -3   13.20    9.60
   4  10  -3   -4.50   12.50
   4  10  -3   -2.50   11.60
   4  10  -3   -6.00    9.70
   3  10  -3  533.45   19.40
   3  10  -3  578.04   23.40
   3  10  -3  531.45   26.20
   3  10  -3  573.84   22.90
  -3  10   3  541.05   17.80
  -3  10   3  555.34   16.90
   3  10  -3  504.45   19.30
   2  10  -3   87.39   14.30
  -2  10   3   86.19    9.10
  -2  10   3   90.49   12.70
   2  10  -3   80.69   11.00
  -2  10   3   89.09   11.80
   2  10  -3   64.49   11.70
   2  10  -3   82.79   13.00
   1  10  -3  345.27   15.40
  -1  10   3  332.17   13.30
   1  10  -3  346.37   14.90
  -1  10   3  333.67   16.80
  -1  10   3  333.37   15.40
   1  10  -3  339.97   15.80
   1  10  -3  328.77   21.50
   0  10  -3    4.00    6.40
   0  10  -3   -3.40    7.30
   0  10   3    7.70    9.10
   0  10   3   10.20    7.30
   0  10   3    0.20    8.50
   1  10   3   -5.30    7.40
   1  10   3   -9.10    7.40
   1  10   3   -4.80    9.20
  -1  10  -3   -2.90    6.80
  -2  10  -3   39.50    7.10
   2  10   3   40.70   11.20
   2  10   3   56.49    8.40
   2  10   3   65.09   11.00
   3  10   3   34.90   11.20
   3  10   3   39.80    9.90
   3  10   3   39.30   12.80
   4  10   3    1.40    9.90
   4  10   3    6.30   13.30
   4  10   3   -4.80   11.40
   4  11  -3   29.50   14.20
   4  11  -3   25.80   12.80
   4  11  -3   27.40   10.90
   4  11  -3   23.10   12.40
   4  11  -3   30.50   10.60
   3  11  -3  417.66   22.40
   3  11  -3  381.56   25.10
   3  11  -3  429.96   18.40
   3  11  -3  416.96   21.50
   3  11  -3  420.26   18.00
  -3  11   3  427.56   15.90
   2  11  -3   22.50    9.90
   2  11  -3   12.60    8.40
  -2  11   3   25.30    9.30
  -2  11   3   10.30    8.10
   2  11  -3    1.80    9.00
  -2  11   3    8.40    6.40
   2  11  -3    5.70   10.80
   1  11  -3    5.70    7.70
  -1  11   3   10.60    8.60
   1  11  -3   11.40   10.60
   1  11  -3    1.60    9.10
   1  11  -3    0.60    7.80
  -1  11   3    0.30    9.00
  -1  11   3    5.30    7.20
   0  11  -3   35.00    8.20
   0  11   3   37.20    8.40
   0  11  -3   31.60    7.00
   0  11   3   53.19    9.90
   0  11   3   36.60    9.70
   1  11   3  573.24   22.90
   1  11   3  595.64   19.80
  -1  11  -3  579.34   17.60
   1  11   3  604.64   19.10
  -2  11  -3  115.69   10.90
   2  11   3  110.29   13.10
   2  11   3  101.79   14.90
   2  11   3  123.19   18.10
   3  11   3   52.59   13.50
   3  11   3   75.99   11.40
   3  11   3   98.09   13.20
   4  11   3    3.70   13.00
   4  11   3  -17.40   13.50
   4  12  -3  110.99   16.20
   4  12  -3   91.69   14.90
   4  12  -3   72.59   14.80
   3  12  -3  173.88   23.10
  -3  12   3  175.38   13.90
   3  12  -3  141.69   18.60
   3  12  -3  145.19   14.90
   3  12  -3  177.18   19.90
   3  12  -3  163.28   16.00
   2  12  -3   33.70   11.80
  -2  12   3    9.40    6.80
  -2  12   3    6.70    8.50
  -2  12   3   14.60    9.90
   2  12  -3    0.90   10.20
   2  12  -3   11.40    9.60
   2  12  -3   10.10    9.40
  -1  12   3  214.08   13.10
  -1  12   3  231.78   15.60
   1  12  -3  214.38   15.60
   1  12  -3  267.77   22.80
   1  12  -3  234.88   15.00
   1  12  -3  216.78   15.90
  -1  12   3  236.08   16.80
   0  12  -3   37.80    8.10
   0  12  -3   41.60    9.00
   0  12   3   80.49   12.70
   0  12   3   60.59   11.60
   0  12   3   55.69   10.80
  -1  12  -3  179.68   12.90
   1  12   3  131.39   17.80
   1  12   3  164.18   14.30
   1  12   3  190.58   15.10
   2  12   3   22.20   11.70
   2  12   3   13.10   11.70
  -2  12  -3   18.40    8.20
   2  12   3   17.90    9.60
   3  12   3    2.70    9.50
   3  12   3   -2.20   13.20
   3  12   3  -17.30   11.50
   4  13  -3  112.89   21.70
  -3  13   3  376.96   17.00
   3  13  -3  368.06   19.90
   3  13  -3  394.96   23.70
   3  13  -3  346.07   22.50
   3  13  -3  364.86   26.30
   3  13  -3  406.96   24.50
   2  13  -3    5.50   12.50
   2  13  -3  -19.60    9.70
   2  13  -3    0.00   11.60
  -2  13   3   -6.60   10.00
   2  13  -3   -7.80    9.50
   2  13  -3   20.30   11.20
   1  13  -3   62.79   11.70
  -1  13   3   19.20   10.00
  -1  13   3   62.39    8.70
   1  13  -3   41.60   12.80
   1  13  -3   34.60    9.50
  -1  13   3   60.29   11.40
   1  13  -3   46.70   10.20
   0  13   3   71.69   12.30
   0  13  -3   71.69   10.00
   0  13   3   64.39   11.50
   0  13   3   86.29   10.20
   1  13   3  280.37   16.30
   1  13   3  241.18   16.20
   1  13   3  254.37   20.00
  -1  13  -3  248.48   14.60
   2  13   3   15.00   10.90
   2  13   3   24.80   10.20
   2  13   3    1.80   12.30
   3  13   3   54.89   15.20
   3  14  -3   69.59   13.90
   3  14  -3  119.39   25.00
   2  14  -3    3.40   11.20
   2  14  -3   29.40   11.30
   2  14  -3   36.80   13.30
  -2  14   3   31.20   11.60
   2  14  -3   29.90   14.20
   2  14  -3   13.00   11.80
   1  14  -3  373.06   18.50
  -1  14   3  371.16   19.40
  -1  14   3  343.17   19.80
  -1  14   3  394.66   16.60
   1  14  -3  406.26   19.40
   0  14   3  -20.10   10.60
   0  14  -3   18.10    9.40
   0  14   3   18.40    9.00
   0  14   3   -6.70   10.60
   1  14   3    8.60   10.80
  -1  14  -3  -11.10    8.90
   1  14   3   19.10    9.80
   1  14   3   -8.60   11.30
   2  14   3   28.40   13.80
  -2  15   3   24.40   12.30
   2  15  -3   25.60   14.90
   2  15  -3   28.90   14.30
   2  15  -3  -10.50   14.00
  -1  15   3   36.00    9.80
   1  15  -3   10.50   18.30
  -1  15   3    9.80   12.90
   0  15   3   -1.30    9.50
   0  15   3   -4.50   11.30
   0  15  -3   -2.60    9.60
  -1  15  -3   23.20   10.00
   1  15   3    9.50   12.50
   6   0  -4   21.50   13.20
   6   0  -4  -11.20   11.40
   5   0  -4   20.00   11.80
   5   0  -4   -0.30    9.70
   4   0  -4  142.29    8.50
   4   0  -4  150.08   16.00
   4   0  -4  150.08   16.10
  -4   0   4  121.19    7.80
  -3   0   4    1.20    4.00
   3   0  -4    2.30    6.20
   3   0  -4   -0.20    8.40
   3   0  -4  -12.40    4.30
   3   0  -4    1.10    4.10
  -3   0   4    0.70    3.40
  -2   0   4 2125.59   40.30
   2   0  -4 2115.29   41.10
  -2   0   4 2114.39   37.20
   2   0  -4 2119.89   37.30
   1   0  -4    0.10    3.80
  -1   0   4    4.20    5.20
  -1   0   4    0.80    3.40
  -1   0   4    0.40    3.80
   1   0  -4    0.00    6.00
  -1   0   4   -0.30    4.10
  -1   0   4   -3.40    5.20
   1   0  -4   -0.70    4.70
   0   0   4 1495.15   28.30
   0   0   4 1481.65   27.90
   0   0   4 1436.06   26.90
   0   0  -4 1446.06   27.30
   0   0  -4 1460.95   28.00
   0   0  -4 1486.05   27.10
   1   0   4   -6.60    3.50
   1   0   4    1.80    5.00
   1   0   4   -0.80    4.80
   1   0   4   -1.90    5.10
  -1   0  -4   -2.80    3.40
  -1   0  -4    0.40    4.40
   2   0   4  443.56   13.00
   2   0   4  444.16   14.00
   2   0   4  423.36   13.00
   3   0   4   -9.90    7.30
   3   0   4   -7.20    6.60
   3   0   4    6.30    7.50
   4   0   4   34.80    8.30
   4   0   4   43.70    8.30
   4   0   4   51.29    6.80
   4   0   4   33.70    9.20
   4   0   4   43.40    7.50
   4   0   4   34.50    8.40
   5   0   4   -2.00    8.10
   6  -1  -4   32.50   12.20
   6  -1  -4   57.39   13.80
   6   1  -4   52.09   14.40
   6   1  -4   17.10   12.20
   5  -1  -4   68.79   12.10
   5  -1  -4  110.89   16.30
   5   1  -4   98.49    8.70
   5   1  -4   86.89   18.90
   5   1  -4  101.49   16.40
   4  -1  -4   15.90    9.00
  -4  -1   4   17.20    5.10
   4  -1  -4   10.60   10.60
   4  -1  -4   15.10    5.40
   4   1  -4   14.50   10.60
   4   1  -4   10.70    8.80
   4   1  -4   17.80    5.70
   3  -1  -4   87.19    7.20
   3  -1  -4   78.69   12.30
  -3  -1   4   91.69    6.80
  -3  -1   4   73.79    6.80
   3  -1  -4   99.89   12.70
  -3   1   4   77.49    6.10
   3   1  -4   81.69   13.10
   3   1  -4   88.19    6.00
   3   1  -4   96.19    7.60
   3   1  -4   83.59   11.80
   2  -1  -4  808.22   20.10
  -2  -1   4  815.72   15.50
   2  -1  -4  821.22   20.40
   2  -1  -4  815.82   16.80
  -2  -1   4  808.02   16.40
  -2  -1   4  822.62   16.70
  -2  -1   4  797.92   19.30
  -2   1   4  795.12   16.00
   2   1  -4  816.42   19.50
   2   1  -4  792.02   16.10
   2   1  -4  800.42   16.90
  -2   1   4  840.22   17.10
   2   1  -4  801.72   20.80
  -2   1   4  798.92   19.30
  -1  -1   4   60.89    5.90
  -1  -1   4   55.69    7.90
   1  -1  -4   63.99    8.30
   1  -1  -4   62.39    6.30
   1  -1  -4   70.09    9.30
  -1  -1   4   71.49    8.10
  -1   1   4   65.59    8.90
   1   1  -4   72.09    9.50
   1   1  -4   66.89    7.20
   1   1  -4   63.99    6.00
  -1   1   4   57.19    6.90
  -1   1   4   74.69    8.00
  -1   1   4   69.49    7.20
   0  -1  -4   78.49    6.50
   0  -1  -4   56.79    6.90
   0  -1   4   82.19    7.20
   0  -1   4   80.29    8.10
   0  -1   4   80.19    7.80
   0   1  -4   74.89    6.60
   0   1  -4   89.49    8.80
   0   1   4   88.89    7.40
   0   1   4   74.19    8.00
   0   1  -4   85.29    7.90
   0   1   4   83.19    9.00
   0   1  -4   80.39    7.00
   1  -1   4  847.72   18.00
  -1  -1  -4  846.72   17.60
   1  -1   4  826.22   18.50
   1  -1   4  844.72   18.30
   1  -1   4  841.02   17.20
  -1   1  -4  840.12   17.80
   1   1   4  847.92   18.80
   1   1   4  867.91   18.10
  -1   1  -4  853.71   17.90
   1   1   4  855.51   19.30
   1   1   4  871.71   18.60
   2  -1   4  952.00   20.50
  -2  -1  -4  908.11   19.60
   2  -1   4  936.91   20.60
   2  -1   4  952.00   19.60
   2   1   4  956.00   22.20
   2   1   4  936.51   20.10
   2   1   4  943.51   20.80
   3  -1   4   -6.00    6.80
   3  -1   4   -0.10    7.10
   3   1   4    3.80    8.20
   3   1   4    3.30    6.30
   3   1   4  -11.90    6.00
   3   1   4    2.90    7.60
   4  -1   4  717.93   17.40
   4  -1   4  741.43   19.50
   4  -1   4  689.53   18.70
   4  -1   4  720.43   20.90
   4  -1   4  739.83   18.80
   4  -1   4  741.33   22.70
   4   1   4  687.73   19.40
   4   1   4  722.13   18.40
   4   1   4  714.83   22.80
   4   1   4  714.13   22.20
   4   1   4  699.83   17.80
   5  -1   4   36.90    9.90
   5  -1   4   25.40    8.40
   5   1   4   34.70    9.20
   5   1   4   19.00   10.50
   6  -2  -4   67.39   13.90
   6  -2  -4   34.80   13.20
   6   2  -4   41.20   13.70
   6   2  -4   22.70   12.20
   5  -2  -4   60.49   11.60
   5  -2  -4   76.49   15.50
   5   2  -4   84.19   17.10
   5   2  -4   61.49    9.50
   5   2  -4   35.60   10.70
   4  -2  -4   -3.10    8.40
   4  -2  -4   -4.00   10.20
   4   2  -4    0.90   10.80
   4   2  -4    1.50    6.30
   4   2  -4    3.50    8.60
   3  -2  -4  201.08    9.20
  -3  -2   4  215.38   10.10
   3  -2  -4  216.88   13.90
   3  -2  -4  209.98   14.40
   3   2  -4  212.78   10.00
  -3   2   4  219.38    7.20
   3   2  -4  196.08   14.60
  -2  -2   4 2179.08   38.10
   2  -2  -4 2188.08   39.20
  -2  -2   4 2193.88   38.10
   2  -2  -4 2186.98   42.10
   2  -2  -4 2242.68   42.30
  -2  -2   4 2193.08   39.00
   2   2  -4 2163.18   41.80
  -2   2   4 2206.28   41.30
  -2   2   4 2188.48   38.00
   2   2  -4 2138.79   38.00
   2   2  -4 2158.58   39.10
  -2   2   4 2174.18   44.90
   2   2  -4 2201.98   42.90
  -2   2   4 2213.18   39.40
  -1  -2   4  626.94   15.20
   1  -2  -4  609.34   14.10
   1  -2  -4  613.64   15.10
  -1  -2   4  607.04   13.60
   1   2  -4  603.64   13.40
  -1   2   4  626.14   16.20
  -1   2   4  637.44   13.10
   1   2  -4  615.54   17.00
   1   2  -4  607.94   14.20
  -1   2   4  591.54   15.80
   1   2  -4  636.34   16.20
  -1   2   4  639.84   14.40
   0  -2   4    5.00    4.50
   0  -2  -4    1.30    4.30
   0  -2  -4    3.10    6.30
   0  -2   4    6.30    3.90
   0  -2   4    3.80    4.50
   0  -2   4    5.70    4.50
   0  -2   4    5.70    4.60
   0   2   4    9.60    5.10
   0   2   4    2.90    5.60
   0   2  -4    5.10    4.10
   0   2  -4    2.10    4.90
   0   2  -4   -0.10    5.20
   0   2   4    6.30    4.60
   0   2   4    6.70    5.80
   0   2  -4    3.50    4.00
   1  -2   4  464.05   11.70
   1  -2   4  438.36   13.70
  -1  -2  -4  429.56   11.60
   1  -2   4  475.25   12.80
   1   2   4  460.75   14.40
  -1   2  -4  464.05   11.50
   1   2   4  462.85   12.70
   1   2   4  452.25   13.70
   1   2   4  464.85   12.40
  -2  -2  -4  476.65   12.70
   2  -2   4  485.85   13.00
   2  -2   4  484.05   14.20
  -2   2  -4  484.35   12.00
   2   2   4  493.95   13.50
   2   2   4  480.15   14.40
   2   2   4  492.15   16.10
   3  -2   4  118.49   11.20
   3  -2   4  128.79   11.20
   3   2   4  101.79   11.40
   3   2   4  115.69   10.60
   3   2   4   99.99    9.90
   3   2   4  113.79   14.30
   3   2   4   96.89   11.40
   4  -2   4    8.70    5.70
   4  -2   4    6.80    7.60
   4  -2   4    8.70    8.10
   4  -2   4   11.70    7.60
   4   2   4    6.60    9.40
   4   2   4    6.20    6.80
   4   2   4    3.50    6.80
   4   2   4   19.80    8.40
   4   2   4   16.60    6.70
   5  -2   4   87.49   11.40
   5  -2   4   82.99   16.80
   5   2   4   84.39   10.50
   5   2   4   63.59   11.90
   5   2   4   99.59   14.00
   6  -3  -4   12.40   12.20
   6  -3  -4   -5.40   12.00
   6   3  -4   13.10   14.00
   6   3  -4  -16.40   11.60
   5  -3  -4  145.99   20.60
   5  -3  -4  186.48   17.40
   5   3  -4  151.28   11.60
   5   3  -4  182.58   19.90
   5   3  -4  175.08   18.40
   4  -3  -4   16.90   11.20
   4  -3  -4   20.70    9.40
   4   3  -4    4.20    6.60
   4   3  -4    5.40    9.20
   4   3  -4    8.40   11.10
   3  -3  -4  211.78   14.30
   3  -3  -4  198.38   14.60
  -3  -3   4  219.38    8.10
   3   3  -4  221.48   15.70
   3   3  -4  231.58   10.70
   2  -3  -4  133.99   11.30
  -2  -3   4  123.89    6.50
  -2  -3   4  124.99    8.60
  -2  -3   4  119.59    7.00
   2  -3  -4  115.59   11.40
   2  -3  -4  130.19    7.80
   2   3  -4  125.39    6.00
   2   3  -4  129.89   12.50
  -2   3   4  119.59   10.50
   2   3  -4  130.59    8.60
  -2   3   4  127.39    8.90
   2   3  -4  112.59   10.80
   1  -3  -4   58.69    5.70
  -1  -3   4   56.29    7.60
  -1  -3   4   74.79    6.40
  -1  -3   4   48.60    6.20
  -1  -3   4   51.29    6.20
   1  -3  -4   67.29    7.10
   1  -3  -4   55.19    8.00
   1  -3  -4   82.59    9.50
  -1   3   4   71.19    7.10
   1   3  -4   64.39    8.50
  -1   3   4   65.99    9.70
  -1   3   4   51.99    8.10
   1   3  -4   63.69    7.20
   1   3  -4   53.59    6.00
   1   3  -4   59.99   10.70
   0  -3   4  117.49    7.90
   0  -3  -4  114.69    7.10
   0  -3  -4  107.29   10.30
   0  -3   4  132.09    7.00
   0  -3   4  128.59    6.90
   0  -3  -4  118.89    7.30
   0   3  -4  125.49   11.50
   0   3   4  108.39    9.10
   0   3  -4  120.69    7.50
   0   3  -4  117.19    7.40
   0   3   4  119.29    7.60
   0   3   4  126.09    8.30
   0   3   4  122.49   10.60
  -1  -3  -4   94.19    7.00
   1  -3   4  103.09    6.80
   1  -3   4  107.89    8.30
   1   3   4  113.49   10.80
   1   3   4  109.69    8.50
   1   3   4  106.19    9.50
   1   3   4  105.99    7.80
   2  -3   4 1052.99   21.10
   2  -3   4 1039.60   22.90
  -2  -3  -4 1039.70   21.40
   2   3   4 1097.09   22.10
   2   3   4 1068.59   23.30
   2   3   4 1037.50   25.30
   3  -3   4   -0.10    7.70
   3   3   4    8.60    6.80
   3   3   4    9.20    7.30
   3   3   4   14.90    9.20
   3   3   4    3.10    8.10
   4  -3   4  425.76   15.60
   4   3   4  461.95   20.40
   4   3   4  417.06   13.60
   4   3   4  420.76   20.50
   4   3   4  417.06   16.40
   4   3   4  405.96   15.30
   5  -3   4  158.28   17.50
   5  -3   4  129.09   12.90
   5   3   4  135.79   13.50
   5   3   4  140.19   18.20
   5   3   4  114.09   11.90
   5   3   4  133.69   15.70
   6  -4  -4    9.70   12.50
   6  -4  -4   19.90   12.80
   6   4  -4   -4.90   12.20
   6   4  -4   26.50   14.50
   5  -4  -4  195.08   17.10
   5  -4  -4  196.38   21.60
   5   4  -4  176.18   12.20
   5   4  -4  183.58   20.40
   5   4  -4  217.08   19.50
   4  -4  -4   80.49   14.80
   4  -4  -4   91.39   16.90
   4   4  -4   74.09   14.40
   4   4  -4   90.49   10.80
   4   4  -4   87.49   17.50
   3  -4  -4 1876.61   40.50
  -3  -4   4 1820.22   34.20
   3  -4  -4 1942.41   39.40
   3   4  -4 1847.02   35.70
   3   4  -4 1923.41   41.60
  -2  -4   4   17.40    5.10
   2  -4  -4   10.60    8.20
   2  -4  -4   13.70    3.80
   2  -4  -4   13.80    6.00
  -2  -4   4   20.80    4.10
   2   4  -4   18.70    5.80
  -2   4   4    3.20    6.30
   2   4  -4   19.90    7.20
  -2   4   4   10.70    6.20
   2   4  -4    8.40    7.10
  -2   4   4   17.40    4.40
  -1  -4   4   39.70    6.60
  -1  -4   4   40.60    5.10
   1  -4  -4   54.49   11.10
   1  -4  -4   36.00    5.90
  -1   4   4   30.20    4.60
   1   4  -4   38.80    6.60
  -1   4   4   29.60    8.40
  -1   4   4   33.90    5.30
   1   4  -4   27.00    7.00
  -1   4   4   33.40    6.70
   0  -4   4    0.30    4.10
   0  -4  -4    6.70    4.60
   0  -4   4   -0.20    4.90
   0  -4  -4    2.10    4.50
   0   4  -4   -2.50    3.90
   0   4   4    8.40    6.50
   0   4   4    5.00    6.80
   0   4   4    0.40    5.20
   0   4   4    2.30    5.10
   0   4  -4   -3.40    4.70
   0   4  -4   -5.10    6.20
   0   4  -4   -7.20    4.80
   1  -4   4    1.40    4.10
   1  -4   4    8.10    5.30
  -1  -4  -4    1.60    4.60
   1   4   4   10.00    6.50
   1   4   4   11.70    5.60
   1   4   4    3.90    4.70
   2  -4   4   22.40    4.80
  -2  -4  -4   20.90    5.20
   2  -4   4   18.80    7.00
   2   4   4   25.30    8.40
   2   4   4   15.80    6.80
   2   4   4   19.50    7.50
   2   4   4   23.70    6.60
   3  -4   4  145.79   12.70
   3   4   4  119.29   10.20
   3   4   4  118.59   16.10
   3   4   4  121.49   12.40
   3   4   4  128.19   11.90
   4  -4   4   28.70    8.60
   4   4   4   14.60   10.70
   4   4   4   36.30    8.50
   4   4   4   32.10    9.80
   5  -4   4   82.09   10.40
   5   4   4   55.79   12.90
   5   4   4   59.29   10.90
   5   4   4   50.49    9.60
   6  -5  -4   20.40   12.80
   6  -5  -4    6.30   13.20
   6   5  -4  -10.50   12.70
   5  -5  -4  302.87   22.80
   5  -5  -4  274.77   18.10
   5   5  -4  284.87   22.60
   5   5  -4  287.97   20.70
   5   5  -4  298.27   14.40
   4  -5  -4   56.49   11.40
   4  -5  -4   47.00   10.10
   4   5  -4   45.80    8.20
   4   5  -4   62.49   10.80
   4   5  -4   37.60   10.70
   4   5  -4   54.59    8.80
  -3  -5   4    3.70    7.60
   3  -5  -4   10.40    7.80
   3  -5  -4    4.70    9.90
   3   5  -4    2.40    9.60
   3   5  -4   12.60    6.50
   3   5  -4    3.30    9.00
   3   5  -4   12.60    7.00
   2  -5  -4 1109.49   26.30
   2  -5  -4 1069.09   21.00
   2   5  -4 1078.59   23.30
  -2   5   4 1090.89   24.90
   2   5  -4 1110.99   27.90
   2   5  -4 1124.79   26.00
   1  -5  -4  426.26   15.80
   1  -5  -4  441.26   11.60
  -1  -5   4  447.56   11.90
   1   5  -4  434.56   17.30
   1   5  -4  429.56   13.80
  -1   5   4  449.95   15.50
   1   5  -4  409.86   11.50
  -1   5   4  452.25   12.30
   0  -5   4  662.33   16.10
   0   5   4  697.13   16.50
   0   5   4  673.23   19.00
   0   5   4  664.83   16.50
   0   5  -4  664.73   14.80
   0   5  -4  667.03   16.00
   0   5  -4  705.53   20.80
   1  -5   4   28.90    5.90
   1   5   4   35.70    6.60
   1   5   4   23.70    7.40
   2  -5   4    6.50    4.70
   2  -5   4   11.60    7.30
   2   5   4    6.70    6.90
   2   5   4    0.10    8.50
   2   5   4   10.20    6.80
   2   5   4    1.50    8.10
   3  -5   4  125.59   12.50
   3   5   4  112.69   11.90
   3   5   4  123.09   13.00
   3   5   4  102.79   10.20
   3   5   4  116.09   16.70
   4  -5   4   42.60   10.00
   4   5   4   28.60    9.90
   4   5   4   45.70   11.60
   4   5   4   23.90    8.90
   5  -5   4  139.99   14.40
   5   5   4  112.29   20.30
   5   5   4  130.59   14.40
   5   5   4  119.09   14.60
   6  -6  -4  -10.90   13.00
   6   6  -4   -8.80   13.00
   5  -6  -4   11.00   11.10
   5  -6  -4    5.10   11.00
   5   6  -4   -4.90   11.30
   5   6  -4    5.70   11.60
   5   6  -4   -2.50    8.20
   4  -6  -4   11.40    9.30
   4  -6  -4    6.10   10.40
   4   6  -4   14.70    7.90
   4   6  -4   15.70    7.10
   4   6  -4   26.00   10.50
   4   6  -4   14.40   10.80
   3  -6  -4 1487.15   34.00
   3   6  -4 1494.55   36.80
   3   6  -4 1431.66   29.50
   3   6  -4 1473.05   34.70
   3   6  -4 1451.95   30.80
   2  -6  -4   11.40    9.40
  -2  -6   4   12.00    5.00
   2  -6  -4   17.50    5.20
  -2   6   4   14.80    7.30
  -2   6   4    8.20    4.60
   2   6  -4    4.20    6.70
   2   6  -4   21.00    8.70
  -2   6   4    7.60    6.30
   2   6  -4   12.30    8.50
   1  -6  -4 1786.92   37.40
  -1  -6   4 1813.62   33.50
   1   6  -4 1799.62   35.30
  -1   6   4 1775.42   34.60
  -1   6   4 1824.32   33.10
  -1   6   4 1781.52   33.70
   1   6  -4 1771.82   34.10
   1   6  -4 1757.52   38.70
  -1   6   4 1782.62   36.40
   0  -6   4  126.09    9.40
   0  -6  -4  123.39    8.70
   0   6   4  110.49    8.90
   0   6  -4  106.39    9.20
   0   6  -4  119.19   14.60
   0   6   4  141.69   10.10
   0   6   4  120.79   12.90
   0   6   4  110.59   10.00
   0   6  -4  126.89    8.20
   1   6   4  196.88   11.00
  -1   6  -4  175.98    9.80
   1   6   4  183.08   14.20
   2   6   4   95.39   11.70
   2   6   4  104.99   10.50
   2   6   4  108.29   15.40
   2   6   4   87.09   12.20
   3  -6   4  151.58   13.10
   3   6   4  133.99   12.50
   3   6   4  123.59   17.30
   3   6   4  123.49   10.10
   3   6   4  145.89   13.20
   4  -6   4   66.09   10.40
   4   6   4   70.59   11.20
   4   6   4   47.60   12.60
   4   6   4   70.79   10.20
   5  -6   4   45.30   10.70
   5   6   4   55.79   10.70
   5   6   4   32.10   11.60
   5   6   4   47.10   14.30
   6  -7  -4   -5.50   13.60
   6   7  -4  -20.30   13.70
   5  -7  -4  216.28   17.80
   5  -7  -4  231.28   22.30
   5   7  -4  241.48   19.20
   5   7  -4  212.78   23.30
   5   7  -4  208.48   14.80
   4  -7  -4    9.80   10.80
   4   7  -4    9.60    8.30
   4   7  -4   -3.50   10.50
   4   7  -4    2.80    7.60
   4   7  -4    4.20   11.50
   3  -7  -4    0.00   10.20
   3   7  -4    8.80   10.50
   3   7  -4   14.40    8.10
  -3   7   4   11.10    7.80
   3   7  -4   10.00    7.90
  -3   7   4    2.80    5.90
   3   7  -4   15.20   10.30
  -2  -7   4  171.68    9.10
   2  -7  -4  177.98   15.30
   2   7  -4  156.48   13.90
  -2   7   4  162.78   14.00
   2   7  -4  170.28   18.00
   2   7  -4  167.38   11.90
  -2   7   4  161.08    8.50
  -2   7   4  158.68   10.10
   2   7  -4  142.89   11.60
  -1  -7   4  204.98   10.40
   1  -7  -4  206.18   15.10
  -1   7   4  232.88   11.30
   1   7  -4  190.68   16.70
   1   7  -4  215.68   11.40
  -1   7   4  222.28   15.00
  -1   7   4  223.28   10.10
   1   7  -4  210.08   12.40
   0   7   4    3.60    5.90
   0   7   4   -6.40    7.10
   0   7  -4    1.70    8.20
   0   7   4   16.70    8.40
   0   7  -4   -6.00    6.40
   0   7  -4    8.50    4.50
   0   7   4    1.90    7.10
   1   7   4   19.30    7.40
   1   7   4    9.90    8.40
  -1   7  -4    2.00    6.30
   1   7   4    3.40    6.50
   2   7   4   -4.00    6.90
   2   7   4  -10.50    9.20
   2   7   4    5.90    7.60
   2   7   4    7.50    9.10
   3  -7   4    5.50    9.00
   3   7   4   24.20    8.60
   3   7   4   -2.90   10.60
   3   7   4   11.50    9.80
   3   7   4   14.90    6.60
   4  -7   4   27.80    9.90
   4   7   4   17.70   10.70
   4   7   4    2.00    9.00
   4   7   4    3.20   12.30
   5  -7   4  146.59   16.20
   5   7   4  126.49   15.80
   5   7   4   75.09   16.10
   5   7   4  122.49   16.50
   5  -8  -4   16.40   11.80
   5  -8  -4   38.50   12.60
   5   8  -4   17.30   12.80
   5   8  -4   26.30   10.00
   5   8  -4   30.30   13.50
   4  -8  -4   11.10   10.80
   4   8  -4   28.40    9.10
   4   8  -4    2.70   11.20
   4   8  -4    7.40    8.60
   4   8  -4   33.00   12.60
   3  -8  -4  847.22   25.00
   3   8  -4  818.02   21.70
  -3   8   4  832.02   19.40
   3   8  -4  863.71   22.50
   3   8  -4  850.81   29.10
  -3   8   4  870.61   23.10
   3   8  -4  889.71   26.30
   2  -8  -4   11.60   10.90
  -2  -8   4    4.30    6.10
   2   8  -4   13.10   10.00
   2   8  -4    2.00    7.00
   2   8  -4   20.50   10.60
  -2   8   4    9.90    5.50
  -2   8   4   13.50    7.50
  -2   8   4   13.20    8.40
   2   8  -4   -6.00    8.30
   1   8  -4   52.99   10.60
   1   8  -4   66.49    8.30
  -1   8   4   92.89   11.10
  -1   8   4   82.99   14.40
   1   8  -4   70.99   11.70
  -1   8   4   96.39    9.20
   0   8  -4 1137.09   31.60
   0   8  -4 1211.18   25.80
   0   8   4 1181.68   29.40
   0   8  -4 1207.28   25.00
   0   8   4 1178.48   25.50
   0   8   4 1183.28   26.40
   1   8   4   80.19   11.70
   1   8   4   86.69   11.20
   1   8   4   83.99   11.00
   1   8   4   64.49   10.40
  -1   8  -4   73.29   10.40
   2   8   4   -6.40    9.20
   2   8   4   -5.70    9.30
   2   8   4   -2.00    6.80
   2   8   4    6.40    7.40
   3   8   4   19.10    9.00
   3   8   4   15.00   10.30
   3   8   4   12.00   11.60
   4  -8   4    5.10    9.80
   4   8   4   15.50    9.80
   4   8   4   14.50   10.80
   4   8   4   -6.70   12.80
   5  -9  -4   41.50   12.30
   5   9  -4   20.80   14.10
   5   9  -4   45.90   10.70
   4  -9  -4   40.20   12.00
   4   9  -4   31.00    9.70
   4   9  -4   34.50    9.50
   4   9  -4   38.60   12.70
   4   9  -4   35.10   13.10
   3  -9  -4  108.09   15.60
  -3   9   4  156.68   13.80
   3   9  -4  103.99   19.40
   3   9  -4  153.18   13.30
  -3   9   4  137.79   10.80
   3   9  -4  132.09   16.50
   3   9  -4   96.49   13.20
  -2  -9   4  105.59    9.60
   2  -9  -4  110.19   15.20
   2   9  -4  111.49   18.80
   2   9  -4  131.09   14.90
   2   9  -4  111.69   12.70
  -2   9   4  111.79   13.90
  -2   9   4  109.79   11.30
   2   9  -4  120.49   11.10
  -2   9   4  120.49    9.30
   1   9  -4  442.16   16.00
   1   9  -4  469.45   23.20
  -1   9   4  453.55   19.20
  -1   9   4  442.86   16.50
   1   9  -4  444.76   17.50
  -1   9   4  445.96   14.50
   0   9  -4   -3.60    9.60
   0   9   4   17.10    8.70
   0   9  -4   22.20    7.70
   0   9   4    9.70    9.60
   0   9   4   -2.00    7.10
   0   9  -4    9.10    5.80
   0   9  -4   -4.60    7.60
   1   9   4   27.30    8.20
  -1   9  -4   40.50    7.60
   1   9   4   25.10   10.20
   1   9   4   24.60    8.30
   2   9   4  636.84   20.90
   2   9   4  654.83   19.40
   2   9   4  637.14   24.20
   3   9   4   82.49   10.90
   3   9   4   47.40   13.10
   3   9   4   86.39   12.20
   4  -9   4  139.39   16.50
   4   9   4  152.98   22.70
   4   9   4  167.28   16.40
   4   9   4  156.58   16.70
   5 -10  -4   16.70   12.00
   5  10  -4   22.30   18.50
   5  10  -4  -14.60   13.60
   5  10  -4   24.60   13.70
   4 -10  -4   16.00   12.00
   4  10  -4   25.80    9.70
   4  10  -4    3.80   12.80
   4  10  -4   41.50   11.50
   4  10  -4    6.70   10.00
   4  10  -4   10.30   12.40
   3 -10  -4  101.29   15.60
  -3  10   4   73.19   13.20
   3  10  -4   81.29   11.00
  -3  10   4   55.89    8.80
   3  10  -4   49.70   10.00
   3  10  -4   44.00   12.70
   3  10  -4   82.59   16.80
  -2 -10   4  177.18   10.90
  -2  10   4  177.58   14.90
   2  10  -4  154.78   12.30
   2  10  -4  188.18   16.50
   2  10  -4  173.38   14.10
  -2  10   4  178.38   10.30
  -2  10   4  161.08   12.80
   2  10  -4  161.48   20.00
   2  10  -4  187.28   14.80
  -1  10   4   30.90    9.10
   1  10  -4   38.60    8.40
   1  10  -4   29.20    7.70
  -1  10   4   24.70    7.30
   1  10  -4   42.70   10.00
   1  10  -4    8.60   10.40
  -1  10   4   31.10    9.60
   0  10   4  495.45   20.80
   0  10   4  501.35   18.00
   0  10  -4  499.45   16.80
   0  10   4  505.25   16.80
   0  10  -4  511.75   16.10
   0  10  -4  473.15   14.90
   1  10   4    8.10    8.20
   1  10   4   12.40    8.40
   1  10   4   21.80   10.30
  -1  10  -4   11.70    7.20
   2  10   4  152.68   13.20
   2  10   4  168.88   15.30
   2  10   4  145.09   18.70
   3  10   4   17.30   11.00
   3  10   4   -9.40   11.80
   3  10   4    2.50    9.40
   4  10   4  -12.90   13.70
   4  10   4   26.20   12.60
   4  11  -4   18.70   12.10
   4  11  -4   23.40   14.00
   4  11  -4   11.50   10.30
   4  11  -4    3.50   10.20
   4  11  -4   18.60   13.10
   3  11  -4  -16.30    9.40
   3  11  -4    1.40   11.90
  -3  11   4   14.20    7.80
   3  11  -4    3.40    9.10
   3  11  -4   23.00   10.50
  -3  11   4   -1.50    8.40
   3  11  -4   25.00   12.40
  -2 -11   4  131.39   11.10
   2  11  -4  130.59   14.50
   2  11  -4  129.79   16.60
   2  11  -4  146.09   15.80
   2  11  -4  156.98   21.10
  -2  11   4  153.68   11.10
  -2  11   4  155.18   15.30
   2  11  -4  120.59   13.60
  -2  11   4  132.09   13.40
   1  11  -4   29.10    8.00
  -1  11   4   12.50    9.70
  -1  11   4   31.30    9.80
   1  11  -4   21.80   11.20
  -1  11   4   15.50    7.60
   1  11  -4   21.60    8.70
   1  11  -4   39.10   10.40
   0  11   4    6.40    9.90
   0  11   4   12.40    8.10
   0  11   4   -3.00    9.70
   0  11  -4   27.50    8.60
   0  11  -4    9.20    6.60
   0  11  -4   14.10    8.30
   1  11   4   99.19   13.50
   1  11   4   89.59   17.20
  -1  11  -4  123.69   12.10
   1  11   4   86.59   13.60
   2  11   4  324.27   21.70
   2  11   4  318.97   16.00
   2  11   4  333.07   17.70
   3  11   4   -5.00   12.70
   3  11   4  -14.40   11.30
   3  11   4    8.90   10.00
   4  11   4  103.29   17.30
   4  12  -4   33.20   14.20
   4  12  -4   49.30   12.00
   4  12  -4   28.60   13.40
   3  12  -4  171.48   23.00
  -3  12   4  141.69   14.00
   3  12  -4  186.18   19.40
   3  12  -4  200.48   19.60
   3  12  -4  176.08   16.00
   3  12  -4  154.08   14.80
  -2 -12   4   -3.70    7.20
   2  12  -4   -1.00    9.40
  -2  12   4    7.10    9.10
   2  12  -4   12.20    9.60
  -2  12   4   -3.10    9.50
   2  12  -4   10.00   12.10
  -2  12   4   -2.90    6.70
   2  12  -4    5.90   11.50
   2  12  -4   18.60   10.70
  -1  12   4   -6.90    9.60
  -1  12   4    1.90    7.70
  -1  12   4   -1.90   10.10
   1  12  -4    5.30   11.30
   1  12  -4    9.70   10.40
   1  12  -4    4.70    8.00
   1  12  -4   -6.20    8.80
   0  12   4  756.12   23.40
   0  12   4  834.32   22.10
   0  12   4  782.92   26.20
   0  12  -4  761.42   22.30
  -1  12  -4    7.50    8.20
   1  12   4    7.40    9.10
   1  12   4   -1.30    9.90
   1  12   4   -0.40   10.80
   2  12   4  128.89   15.60
   2  12   4  124.79   14.70
   2  12   4  117.39   20.10
   3  12   4  -17.70   13.20
   3  13  -4  146.49   16.50
  -3  13   4  116.39   17.90
   3  13  -4  111.69   18.90
   3  13  -4  131.89   24.40
   3  13  -4  118.29   19.20
  -2 -13   4   79.29   13.10
   2  13  -4   57.19   14.00
   2  13  -4   74.19   11.60
   2  13  -4   90.69   15.30
   2  13  -4   68.99   14.00
  -2  13   4   86.49   12.00
  -2  13   4   48.50   10.50
   2  13  -4   52.39   11.00
  -1  13   4   -5.50   10.10
   1  13  -4    5.90   12.20
   1  13  -4    8.30   10.90
   1  13  -4   -4.00   11.00
   1  13  -4   -1.60    9.00
  -1  13   4   10.50    8.30
  -1  13   4   -6.00   10.30
   0  13  -4   45.50   10.10
   0  13   4   48.20   11.50
   0  13   4   31.10   11.50
   0  13   4   62.19   10.20
   1  13   4   -1.40   10.60
  -1  13  -4   15.30    9.00
   1  13   4    8.50   11.60
   1  13   4    7.50    9.70
   2  13   4   39.90   13.80
   3  13   4  -10.70   14.10
   3  14  -4  156.18   25.80
   3  14  -4  113.29   20.00
  -2  14   4  175.68   16.90
   2  14  -4  195.98   20.40
   2  14  -4  195.88   25.30
   2  14  -4  142.39   18.50
  -1  14   4  157.18   17.10
  -1  14   4  126.19   18.20
  -1  14   4  184.98   14.70
   1  14  -4  159.78   16.00
   0  14  -4  230.88   16.90
   0  14   4  215.08   18.20
   0  14   4  238.28   16.20
   0  14   4  213.68   19.80
   1  14   4   28.20   12.60
   1  14   4   33.40   10.60
  -1  14  -4   25.00   10.00
   2  14   4   10.60   14.30
  -2  15   4   68.79   14.20
  -1  15   4   45.90   10.00
   0  15   4   37.60   10.80
   0  15  -4   38.40   11.10
   0  15   4    9.40   12.50
   1  15   4   47.10   14.10
  -1  15  -4   66.59   14.50
   6   0  -5   12.60   13.50
   6   0  -5   -9.90   12.00
   5   0  -5  404.76   23.60
   5   0  -5  410.26   21.30
   4   0  -5   22.00   11.40
   4   0  -5    2.00    8.80
   4   0  -5   -0.80    5.50
  -4   0   5    3.30    4.70
   3   0  -5  262.07   16.00
   3   0  -5  233.58    9.20
  -3   0   5  257.37   10.30
  -3   0   5  244.08    9.30
  -2   0   5   -0.10    5.00
   2   0  -5    4.40    5.80
  -2   0   5   -0.20    4.10
   2   0  -5    7.00    6.70
   2   0  -5   -1.90    4.10
  -1   0   5 1632.94   30.00
  -1   0   5 1613.74   32.10
  -1   0   5 1588.64   31.80
   1   0  -5 1668.93   32.20
   1   0  -5 1650.53   32.60
   1   0  -5 1597.94   30.10
  -1   0   5 1636.14   31.50
  -1   0   5 1657.63   30.60
   0   0   5    0.80    3.80
   0   0   5   -1.10    1.80
   0   0   5   -8.90    5.50
   0   0  -5   -0.20    6.20
   0   0  -5    0.10    4.70
   0   0   5    2.00    5.90
   0   0  -5   -0.40    4.50
   1   0   5 1231.48   24.90
   1   0   5 1185.98   23.80
   1   0   5 1256.87   25.80
   1   0   5 1259.67   25.00
   2   0   5   -4.40    6.80
   2   0   5    0.20    6.60
   2   0   5    2.00    4.90
   2   0   5    3.40    6.90
   3   0   5  110.39   14.20
   3   0   5  128.79   11.60
   3   0   5  131.89   12.40
   4   0   5    6.00    7.40
   4   0   5   -7.90    8.60
   4   0   5   -3.10    6.80
   4   0   5    1.10    7.70
   4   0   5   -1.20    8.50
   5   0   5    8.90    9.00
   6  -1  -5   -8.70   11.90
   6  -1  -5   15.70   13.20
   6   1  -5    4.60   13.10
   6   1  -5    6.60   12.00
   5  -1  -5   40.70   12.60
   5  -1  -5   38.40   10.60
   5   1  -5   28.70    6.60
   5   1  -5   16.00   10.50
   5   1  -5   30.80   13.00
   4  -1  -5   53.39   12.20
   4  -1  -5   40.40    9.50
  -4   1   5   62.19    8.90
   4   1  -5   52.79    6.90
   4   1  -5   40.50    9.80
   4   1  -5   47.50   12.60
   3  -1  -5   88.09   13.20
   3  -1  -5  114.99    8.20
  -3  -1   5  113.79    8.30
   3  -1  -5  121.39   13.60
   3   1  -5  110.89    8.90
   3   1  -5  121.09    7.30
  -3   1   5  123.79    9.50
   3   1  -5   97.59   13.90
  -3   1   5  119.99    7.40
   2  -1  -5   11.50    4.70
  -2  -1   5    2.30    4.90
   2  -1  -5    4.40    5.70
  -2  -1   5    3.70    4.10
   2  -1  -5   -0.70    1.40
  -2   1   5    8.60    3.90
   2   1  -5    7.10    6.30
  -2   1   5   14.50    5.50
  -2   1   5    7.10    3.80
   2   1  -5    4.40    4.10
   2   1  -5   -8.20    7.30
  -1  -1   5  136.49    8.20
   1  -1  -5  138.99    9.70
  -1  -1   5  132.19    7.30
   1  -1  -5  140.59    7.60
  -1  -1   5  162.08    9.60
  -1  -1   5  153.08   10.50
   1  -1  -5  147.29   11.00
   1   1  -5  133.39    7.60
  -1   1   5  143.99    9.30
  -1   1   5  133.09    8.60
   1   1  -5  163.28   10.90
  -1   1   5  143.99    8.80
   1   1  -5  138.69   11.20
  -1   1   5  143.99   10.70
   0  -1  -5  103.29   10.30
   0  -1   5   87.29    9.10
   0  -1  -5   85.29    7.10
   0  -1   5   79.49    8.20
   0  -1   5   56.19    5.80
   0  -1  -5   89.19    7.30
   0  -1   5   85.59    8.00
   0   1   5   91.49    8.30
   0   1  -5   66.99    9.90
   0   1  -5   86.49    7.10
   0   1   5   83.69    8.80
   0   1   5   63.69   10.10
   1  -1   5    9.30    6.00
   1  -1   5    3.50    4.80
   1  -1   5   22.60    5.70
   1   1   5   21.00    6.60
   1   1   5   21.40    6.40
   1   1   5    5.60    5.80
   1   1   5   15.40    5.50
   2  -1   5  196.48   11.90
   2  -1   5  175.28    9.60
   2  -1   5  187.78   11.30
   2   1   5  197.18   13.80
   2   1   5  178.58   11.00
   2   1   5  183.48   11.60
   2   1   5  187.18   11.80
   3  -1   5   29.50    8.10
   3  -1   5   22.90    8.10
   3   1   5   15.70    9.00
   3   1   5   23.70    9.00
   3   1   5   32.80    7.80
   3   1   5   51.39   11.00
   4  -1   5   10.00    6.50
   4  -1   5  -10.90    8.30
   4  -1   5    3.00    8.70
   4  -1   5   19.80    7.70
   4  -1   5  -11.40    7.40
   4   1   5    0.30    8.80
   4   1   5   -1.20    7.00
   4   1   5    9.80    7.50
   4   1   5    2.90    9.40
   5  -1   5  477.85   17.70
   5   1   5  427.76   17.60
   6  -2  -5  -10.60   11.30
   6  -2  -5   31.60   13.30
   6   2  -5    6.50   12.40
   6   2  -5   28.50   14.50
   5  -2  -5  172.88   17.40
   5  -2  -5  151.38   20.40
   5   2  -5  197.08   18.70
   5   2  -5  155.98   10.80
   5   2  -5  161.18   20.10
   4  -2  -5  130.89   16.20
   4  -2  -5  133.39   17.50
   4   2  -5  108.09   10.30
   4   2  -5  138.39   17.50
   4   2  -5  130.49   16.00
   3  -2  -5   38.60   10.90
   3  -2  -5   37.90    8.30
   3   2  -5   59.29    6.30
  -3   2   5   51.29    7.20
   3   2  -5   70.99   14.20
  -3   2   5   49.40    6.40
   3   2  -5   57.59    9.00
  -2  -2   5 1396.86   26.00
  -2  -2   5 1417.56   26.50
   2  -2  -5 1399.66   30.10
   2  -2  -5 1425.26   30.50
   2   2  -5 1374.76   26.20
   2   2  -5 1405.26   30.10
  -2   2   5 1429.66   29.90
  -2   2   5 1378.66   26.00
  -2   2   5 1411.66   25.40
   2   2  -5 1381.16   27.30
  -2   2   5 1401.66   27.50
   2   2  -5 1426.06   31.40
  -1  -2   5  510.55   14.40
  -1  -2   5  508.95   13.00
  -1  -2   5  509.85   14.40
   1  -2  -5  514.05   13.80
   1  -2  -5  513.35   16.20
   1  -2  -5  513.35   14.20
   1   2  -5  507.05   16.30
  -1   2   5  501.15   15.60
   1   2  -5  499.75   15.00
  -1   2   5  505.15   16.90
   1   2  -5  496.05   12.60
  -1   2   5  499.55   12.30
  -1   2   5  509.45   13.60
   0  -2   5   15.30    5.10
   0  -2   5   11.00    5.40
   0  -2  -5   12.20    7.40
   0  -2   5   11.70    5.90
   0  -2   5   15.60    5.30
   0   2  -5    5.90    5.60
   0   2   5   21.60    6.00
   0   2   5   19.20    6.40
   0   2   5   21.70    6.60
   0   2  -5   11.40    5.90
   0   2  -5   23.10    8.00
   0   2   5   17.50    5.50
   1  -2   5   81.39    8.80
   1  -2   5   56.79    7.10
   1   2   5   33.40    5.20
   1   2   5   69.09    9.50
   1   2   5   66.19    8.80
   1   2   5   51.89    7.80
   2  -2   5   19.70    7.50
   2  -2   5   10.00    6.10
   2   2   5   24.40    7.10
   2   2   5    5.90    7.50
   2   2   5   16.80    8.20
   3  -2   5  299.37   13.70
   3  -2   5  306.47   14.30
   3   2   5  313.87   14.90
   3   2   5  303.77   13.10
   3   2   5  300.87   17.10
   4  -2   5   11.20    8.20
   4  -2   5    8.10    8.90
   4   2   5    5.80    7.40
   4   2   5    2.30    7.40
   4   2   5   12.90   10.00
   4   2   5   -0.30    9.20
   5  -2   5   44.60    9.90
   5   2   5   34.50   11.80
   5   2   5   63.19   11.00
   6  -3  -5    0.70   12.40
   6  -3  -5    0.80   13.10
   6   3  -5    5.80   13.50
   6   3  -5   -3.10   11.80
   5  -3  -5  222.98   21.40
   5  -3  -5  258.87   19.30
   5   3  -5  221.48   12.30
   5   3  -5  182.08   20.60
   5   3  -5  227.68   19.90
   4  -3  -5  345.57   18.50
   4  -3  -5  356.86   20.50
   4   3  -5  318.77   18.20
   4   3  -5  344.67   13.50
   4   3  -5  329.77   20.10
  -3  -3   5  138.89    8.00
   3  -3  -5  120.29   14.50
   3  -3  -5  138.59   14.90
   3   3  -5  128.49   15.70
   3   3  -5  141.19   13.90
  -3   3   5  142.19    7.20
   3   3  -5  149.99   10.60
   3   3  -5  143.59    6.90
  -2  -3   5  154.58    7.90
   2  -3  -5  148.99   13.00
   2  -3  -5  161.98   12.30
  -2  -3   5  158.78    8.20
   2   3  -5  138.09    7.30
   2   3  -5  161.68   14.50
   2   3  -5  174.78    9.70
  -2   3   5  144.89   10.00
  -2   3   5  171.18   12.10
  -2   3   5  144.29    7.00
   2   3  -5  153.08   11.80
   1  -3  -5  127.59    9.30
   1  -3  -5  117.69    9.50
  -1  -3   5  123.59    8.40
  -1  -3   5  142.59    9.20
  -1   3   5  145.49    9.00
   1   3  -5  130.49    8.70
  -1   3   5  117.89   11.30
   1   3  -5  133.79   12.70
   1   3  -5  128.79   10.00
   1   3  -5  135.59    7.50
  -1   3   5  120.49    7.70
   0  -3   5  721.23   16.00
   0  -3   5  718.33   16.90
   0  -3  -5  725.33   19.60
   0   3   5  688.13   19.30
   0   3   5  719.63   17.20
   0   3  -5  729.13   20.10
   0   3   5  722.33   16.80
   0   3  -5  714.93   16.30
   1  -3   5   -1.60    6.10
   1  -3   5   11.40    5.00
   1   3   5    3.50    6.30
  -1   3  -5    2.50    4.40
   1   3   5    9.90    7.20
   1   3   5    0.90    3.60
   2  -3   5  176.48   12.20
   2   3   5  196.88   11.50
   2   3   5  206.38   12.30
   2   3   5  209.88   15.20
   3  -3   5  135.69   12.80
   3   3   5  138.19   12.80
   3   3   5  117.69   16.10
   3   3   5  144.79   11.40
   3   3   5  153.18   12.30
   4  -3   5   85.29   10.30
   4   3   5   96.79   16.90
   4   3   5   79.69   13.20
   4   3   5   78.59   11.90
   4   3   5   87.09   13.30
   5  -3   5  181.38   15.80
   5   3   5  157.28   15.60
   5   3   5  188.78   19.30
   5   3   5  196.48   20.20
   6  -4  -5    9.20   12.80
   6  -4  -5   48.60   13.60
   6   4  -5   53.79   17.50
   6   4  -5   11.50   13.10
   5  -4  -5   76.49   13.30
   5  -4  -5   61.69   12.60
   5   4  -5   74.99    9.20
   5   4  -5   88.79   15.00
   5   4  -5   43.80   12.20
   4  -4  -5  214.38   16.70
   4  -4  -5  191.88   18.80
   4   4  -5  204.68   19.00
   4   4  -5  216.98   15.70
   4   4  -5  218.68   12.60
   3  -4  -5   14.20    8.00
   3  -4  -5   10.40   10.30
  -3  -4   5   24.80    6.10
  -3   4   5   12.50    4.20
   3   4  -5   16.40   10.20
   3   4  -5    8.30    8.80
   3   4  -5    7.10    7.20
  -2  -4   5 1039.10   20.90
   2  -4  -5 1055.29   26.20
   2  -4  -5 1046.70   25.00
  -2  -4   5 1013.40   21.30
   2   4  -5 1029.40   25.20
  -2   4   5 1074.99   23.10
   2   4  -5 1034.90   22.50
  -2   4   5 1014.60   24.70
   2   4  -5 1017.20   27.10
  -1  -4   5   23.90    5.60
   1  -4  -5   12.80    6.10
  -1  -4   5   17.30    6.00
   1  -4  -5   14.80    5.00
   1  -4  -5   13.30    4.80
   1   4  -5   14.90    7.20
   1   4  -5   19.40    6.80
  -1   4   5    8.00    4.50
  -1   4   5   24.80    7.10
  -1   4   5   20.40    5.50
   0  -4  -5 1068.89   25.50
   0  -4   5 1057.19   22.50
   0  -4   5 1054.69   21.10
   0   4   5 1044.00   25.30
   0   4  -5 1055.49   26.20
   0   4   5 1060.89   22.40
   0   4   5 1079.69   22.90
   0   4  -5 1047.30   21.60
   1   4   5   88.79   12.40
   1   4   5   84.79   10.10
   2  -4   5   17.00    8.10
   2   4   5    4.30    8.20
   2   4   5    9.90    7.30
   2   4   5   15.90    9.10
   2   4   5   11.10    7.40
   3  -4   5  206.18   13.70
   3   4   5  194.78   11.90
   3   4   5  159.18   16.90
   3   4   5  197.68   13.10
   3   4   5  185.28   13.80
   4  -4   5   52.39    9.80
   4   4   5   30.30    8.70
   4   4   5   41.10   10.70
   4   4   5   11.10   11.60
   5  -4   5   38.60   10.50
   5   4   5   52.79   10.00
   5   4   5   49.60   13.40
   5   4   5   48.10   11.40
   6  -5  -5   22.40   13.70
   6  -5  -5   29.90   13.80
   6   5  -5   30.70   14.10
   5  -5  -5   42.40   12.80
   5  -5  -5   37.30   12.30
   5   5  -5   71.39   13.60
   5   5  -5    8.70   11.70
   5   5  -5   33.30    9.10
   4  -5  -5  178.48   16.30
   4  -5  -5  186.18   18.60
   4   5  -5  162.18   19.00
   4   5  -5  203.78   13.10
   4   5  -5  184.38   16.60
   3  -5  -5  969.40   27.40
   3  -5  -5  971.60   27.00
  -3   5   5  945.01   19.00
   3   5  -5  943.61   26.90
   3   5  -5 1017.70   23.50
   3   5  -5  996.60   29.60
   2  -5  -5   40.20    6.50
   2  -5  -5   51.89   10.80
   2  -5  -5   37.70    7.60
  -2  -5   5   44.50    6.00
  -2   5   5   55.29    8.50
  -2   5   5   49.70    6.20
  -2   5   5   52.69    7.90
   2   5  -5   54.39    9.90
   2   5  -5   33.30    8.80
   2   5  -5   59.49    7.70
  -1  -5   5  765.32   17.60
   1  -5  -5  740.03   18.50
   1  -5  -5  759.62   21.80
   1   5  -5  734.43   23.00
  -1   5   5  755.62   20.90
   1   5  -5  746.63   19.10
  -1   5   5  745.43   17.30
   0  -5   5  354.66   12.60
   0   5   5  351.76   12.60
   0   5  -5  344.57   12.40
   0   5   5  341.17   15.90
   0   5  -5  344.67   11.40
   0   5   5  358.96   13.10
   0   5  -5  329.27   17.40
   1   5   5   94.19   10.70
   1   5   5   84.59   13.60
   2  -5   5  335.67   15.50
   2   5   5  360.06   18.90
   2   5   5  367.06   15.60
   2   5   5  357.06   14.80
   2   5   5  347.87   13.90
   3  -5   5    8.60    8.30
   3   5   5   -9.60    7.80
   3   5   5   -2.10    7.00
   3   5   5   14.30    9.70
   3   5   5   10.90   10.40
   4  -5   5   66.49   10.70
   4   5   5   50.79   12.70
   4   5   5   57.89    9.60
   4   5   5   72.39   11.70
   5  -5   5   11.00   10.50
   5   5   5   -4.00    9.20
   5   5   5    7.60   10.90
   5   5   5  -28.40   12.40
   6  -6  -5   -3.00   13.00
   6  -6  -5  -19.80   12.90
   6   6  -5   -8.00   13.80
   5  -6  -5    8.40   11.50
   5  -6  -5    5.30   12.00
   5   6  -5   17.70   11.90
   5   6  -5   16.00   12.60
   5   6  -5   15.70    9.00
   4  -6  -5   97.39   15.70
   4  -6  -5   95.89   18.00
   4   6  -5   84.19   12.30
   4   6  -5  101.59   19.20
   4   6  -5   94.59   16.90
   3  -6  -5   82.99   16.40
   3  -6  -5  111.99   16.00
  -3   6   5   93.59   14.30
   3   6  -5   77.09   12.10
   3   6  -5   92.29   18.00
   3   6  -5   99.69   15.00
  -2  -6   5 2721.33   47.40
   2  -6  -5 2605.74   48.60
   2  -6  -5 2640.84   52.79
   2   6  -5 2649.24   51.59
  -2   6   5 2686.43   47.50
   2   6  -5 2626.14   54.29
  -2   6   5 2628.34   51.29
   2   6  -5 2686.83   49.50
   1  -6  -5   16.80   10.10
  -1  -6   5   10.40    6.40
  -1   6   5   24.50    8.50
   1   6  -5    8.30    5.20
   1   6  -5   14.90    8.10
   1   6  -5   12.50    8.60
  -1   6   5    7.90    6.80
   0  -6   5 1225.98   26.10
   0   6  -5 1135.29   23.90
   0   6   5 1219.38   26.10
   0   6   5 1243.48   25.90
   0   6   5 1216.48   29.10
   0   6  -5 1204.38   31.10
   0   6  -5 1229.68   25.60
   1   6   5    4.00    5.90
   1   6   5   17.70    8.90
   1   6   5   -3.80    5.40
   1   6   5   29.60    7.60
   2  -6   5  251.67   14.50
   2   6   5  225.48   13.00
   2   6   5  252.67   18.10
   2   6   5  212.88   13.30
   2   6   5  220.98   14.50
   3  -6   5   -1.20    9.00
   3   6   5   -7.10    8.20
   3   6   5    4.60    9.50
   3   6   5    1.70   10.90
   3   6   5   -5.00    7.30
   4  -6   5   21.20    9.80
   4   6   5   14.80   10.50
   4   6   5    0.40   12.00
   4   6   5    7.50    9.10
   5  -6   5   33.40   10.90
   5   6   5   20.60   12.20
   5   6   5   10.60   13.80
   5   6   5   15.30   10.40
   6  -7  -5   17.90   14.70
   5  -7  -5   41.50   12.60
   5  -7  -5   31.90   12.90
   5   7  -5   33.20    9.50
   5   7  -5   21.00   12.70
   5   7  -5   58.09   13.80
   4  -7  -5   82.59   16.30
   4  -7  -5  109.89   19.10
   4   7  -5   98.89   12.90
   4   7  -5  101.79   19.80
   4   7  -5  126.79   17.20
   3  -7  -5   -2.00   10.50
  -3   7   5    5.20    6.10
   3   7  -5    7.30    7.80
  -3   7   5   -1.60    8.20
   3   7  -5    1.30    9.90
  -3   7   5    1.90    4.40
   3   7  -5    9.90   10.80
   2  -7  -5  106.69   15.90
  -2  -7   5   92.89    9.40
  -2   7   5   92.69   14.80
  -2   7   5  100.99    8.70
   2   7  -5   94.99   11.90
  -2   7   5  108.79   10.30
   2   7  -5   94.99   14.00
   2   7  -5   97.49   18.10
  -1  -7   5   12.20    6.70
   1  -7  -5   18.20   11.20
  -1   7   5   16.50    8.00
   1   7  -5   14.20    8.40
   1   7  -5   22.40    9.40
  -1   7   5   11.50    8.60
  -1   7   5   15.70    6.20
  -1   7   5   18.10    7.50
   1   7  -5   20.30    7.40
   0  -7   5  285.57   13.20
   0   7   5  306.07   13.80
   0   7   5  300.97   17.30
   0   7  -5  300.87   13.00
   0   7   5  297.17   14.00
   0   7  -5  283.07   19.40
   0   7   5  293.37   12.60
   1  -7   5   32.30    8.40
   1   7   5   46.50    8.50
   1   7   5   33.60    7.60
   1   7   5   29.40    9.80
   1   7   5   41.80    8.40
   2  -7   5  309.47   15.40
   2   7   5  307.37   18.90
   2   7   5  312.27   15.60
   2   7   5  301.37   13.50
   2   7   5  327.77   14.90
   3  -7   5   41.90   10.30
   3   7   5   41.40    7.90
   3   7   5   25.40   10.40
   3   7   5   47.30    9.30
   3   7   5   35.80   12.20
   4  -7   5   -5.60   10.10
   4   7   5   12.30   12.70
   4   7   5    1.50   10.90
   4   7   5    1.50    9.70
   5  -8  -5  113.99   22.00
   5  -8  -5   75.49   14.70
   5   8  -5   69.39   14.60
   5   8  -5  106.09   19.20
   5   8  -5   82.29   11.20
   4  -8  -5  160.88   19.40
   4  -8  -5   98.29   16.60
   4   8  -5  124.79   18.40
   4   8  -5  121.99   13.70
   4   8  -5  126.49   21.20
   3  -8  -5  202.88   17.10
   3   8  -5  169.18   20.40
  -3   8   5  195.78   10.60
  -3   8   5  193.48    8.80
  -3   8   5  199.98   15.30
   3   8  -5  161.08   16.90
   3   8  -5  186.48   13.60
  -2  -8   5  429.96   13.80
   2  -8  -5  471.15   20.80
  -2   8   5  440.06   15.10
   2   8  -5  421.46   18.60
  -2   8   5  461.85   13.40
   2   8  -5  437.26   15.30
   2   8  -5  430.36   23.20
  -2   8   5  433.76   19.10
  -1  -8   5   -4.10    7.00
  -1   8   5   -2.40    7.90
  -1   8   5   -0.80    9.30
   1   8  -5   -0.40    8.70
   1   8  -5   -8.20    9.90
  -1   8   5    4.10    6.50
   1   8  -5  -22.00    7.30
   0  -8   5  978.80   23.20
   0   8   5  945.31   22.40
   0   8   5  923.41   26.70
   0   8   5  926.11   23.50
   0   8  -5  930.41   21.20
   0   8  -5  944.31   22.40
   0   8   5  917.61   23.50
   0   8  -5  915.71   29.20
   1  -8   5   55.59    9.30
   1   8   5   53.89    9.40
   1   8   5   53.79    9.10
   1   8   5   56.99   10.70
   1   8   5   56.99    8.60
  -1   8  -5   71.59   10.50
   2  -8   5    0.60    8.40
   2   8   5    2.70    7.50
   2   8   5   -3.30    7.30
   2   8   5    4.20   10.20
   2   8   5   15.90    9.90
   3  -8   5   23.30    9.80
   3   8   5    0.10   12.10
   3   8   5   24.20    9.40
   3   8   5    7.50   10.50
   3   8   5   16.30   10.40
   4  -8   5   54.09   11.60
   4   8   5   37.20   10.50
   4   8   5   57.29   12.60
   4   8   5    8.80   13.40
   5  -9  -5   55.19   13.90
   5  -9  -5   37.50   14.80
   5   9  -5   24.90   14.60
   5   9  -5   36.40   10.80
   4  -9  -5   51.29   12.90
   4   9  -5   29.00   13.00
   4   9  -5   39.70   14.40
   4   9  -5   41.60    9.80
   3  -9  -5  166.98   17.60
   3   9  -5  167.68   14.20
  -3   9   5  172.08   15.30
   3   9  -5  150.58   20.30
  -3   9   5  175.28   11.40
   3   9  -5  165.68   17.30
   2  -9  -5   56.49   12.40
  -2  -9   5   62.59    7.50
  -2   9   5   59.49    8.70
  -2   9   5   55.09    7.10
   2   9  -5   67.69   11.50
   2   9  -5   48.40   11.50
  -2   9   5   60.39   10.10
   2   9  -5   35.30    7.70
  -1  -9   5   14.60    7.50
   1   9  -5    8.40    8.10
  -1   9   5    6.30    8.30
   1   9  -5   15.60    9.10
  -1   9   5   -0.80    9.10
   1   9  -5    9.80   10.50
  -1   9   5   12.60    6.70
   0  -9   5  234.58   13.90
   0   9   5  226.78   17.70
   0   9   5  268.47   14.50
   0   9   5  269.77   13.40
   0   9  -5  275.77   13.60
   0   9  -5  241.48   20.80
   0   9  -5  271.37   12.20
   1  -9   5  100.59   13.10
   1   9   5   77.89   12.10
   1   9   5   82.89   16.30
   1   9   5   78.49   12.40
   1   9   5   88.99   12.30
  -1   9  -5   75.69    8.90
   2  -9   5   26.00    9.10
   2   9   5   17.30    8.20
   2   9   5   18.80    7.90
   2   9   5   12.10   10.50
   2   9   5   18.70   11.50
   3  -9   5  406.16   18.80
   3   9   5  419.86   19.60
   3   9   5  365.66   23.60
   3   9   5  409.86   18.90
   4  -9   5   73.49   15.80
   4   9   5   46.30   12.90
   4   9   5   40.40   15.10
   5 -10  -5  175.98   24.20
   5  10  -5   89.59   16.70
   4 -10  -5    7.20   12.50
   4  10  -5    7.90    9.80
   4  10  -5   -8.20   12.10
   4  10  -5   13.60   13.70
   3 -10  -5  220.08   18.50
  -3  10   5  208.88   12.80
  -3  10   5  214.18   16.40
   3  10  -5  216.28   18.50
   3  10  -5  214.18   15.10
   3  10  -5  180.58   22.40
  -2 -10   5   59.59    8.20
  -2  10   5   60.19   10.40
  -2  10   5   55.59    7.60
   2  10  -5   40.40    8.30
   2  10  -5   42.00   11.90
  -2  10   5   58.99    9.80
   2  10  -5   54.09   12.00
  -1 -10   5   39.10    8.40
   1  10  -5   35.00    9.20
  -1  10   5   34.30   10.50
   1  10  -5   32.70   11.20
   1  10  -5   51.19   10.20
  -1  10   5   49.00    7.90
  -1  10   5   37.20    9.50
   0  10  -5   -0.20    7.80
   0  10  -5   18.80    7.60
   0  10   5   -0.30    7.70
   0  10   5   -3.90    9.70
   0  10   5   10.10    9.00
   0  10  -5    8.30   10.50
   1  10   5    3.90   10.20
   1  10   5   -1.00    8.90
   1  10   5   -3.20    8.40
  -1  10  -5   11.40    8.00
   2  10   5   -5.10   11.50
   2  10   5   11.70   10.00
   2  10   5    4.10    8.30
   3 -10   5  212.28   17.20
   3  10   5  228.68   17.30
   3  10   5  214.68   17.50
   3  10   5  229.68   22.00
   4  10   5  -13.20   14.10
   4 -11  -5   28.80   13.40
   4  11  -5   32.70   12.20
   4  11  -5   28.00   14.10
   4  11  -5   34.90   14.70
   4  11  -5   30.30   10.90
   3  11  -5   86.59   17.70
  -3  11   5   65.59    9.90
   3  11  -5   37.00   10.00
  -3  11   5   62.09   10.30
   3  11  -5   46.40   13.20
  -2 -11   5    6.90    7.70
   2  11  -5   -2.00   11.30
  -2  11   5   18.40    9.80
  -2  11   5   -5.30    9.10
   2  11  -5   -6.00    8.30
  -2  11   5    4.80    7.00
   2  11  -5    2.30   11.10
   2  11  -5   -6.60    8.50
  -1 -11   5   11.40    8.00
  -1  11   5   -3.50    9.50
  -1  11   5   20.00    8.10
   1  11  -5   17.40    7.70
   1  11  -5   -1.50   11.00
   1  11  -5   19.70   10.20
   1  11  -5    6.10    9.10
  -1  11   5    0.40   10.30
   0  11   5    3.50    8.50
   0  11  -5   18.10    8.70
   0  11   5   10.00   10.00
   0  11   5    7.00   10.50
   1  11   5    0.80    9.00
   1  11   5   -8.70   10.60
   1  11   5   14.10   10.10
  -1  11  -5   25.90    8.40
   2  11   5   38.20    9.60
   2  11   5   24.70   12.70
   2  11   5   23.10   10.60
   3  11   5  167.58   22.60
   3  11   5  256.77   28.70
   4  12  -5   64.79   13.90
   4  12  -5   33.40   14.70
   3  12  -5  262.37   20.60
   3  12  -5  264.17   25.40
   3  12  -5  261.87   16.30
   3  12  -5  243.08   20.70
  -3  12   5  256.77   19.20
  -2 -12   5   10.80    8.00
  -2  12   5   -9.70    9.60
  -2  12   5   -2.50    9.60
   2  12  -5   -0.90    8.90
   2  12  -5  -11.80    9.00
   2  12  -5    8.40   11.70
   2  12  -5    8.70   12.20
  -2  12   5    0.70    7.20
  -1 -12   5   11.40    8.60
   1  12  -5   -4.60    9.30
   1  12  -5   15.20   10.50
   1  12  -5    2.70    7.70
  -1  12   5   -4.70   10.40
  -1  12   5    1.50    9.60
   1  12  -5    9.80   11.80
  -1  12   5    5.80    8.10
   0  12   5  163.78   16.20
   0  12   5  159.18   18.90
   0  12  -5  146.79   14.20
   0  12   5  161.08   14.50
  -1  12  -5  146.59   13.70
   1  12   5   98.49   18.70
   1  12   5  154.48   15.50
   1  12   5  135.79   15.60
   2  12   5   36.20   10.30
   2  12   5   20.80   10.90
   2  12   5    4.50   13.00
   3  12   5   31.00   15.20
   3  13  -5   -4.60   13.10
   3  13  -5    3.50   11.60
   3  13  -5    8.40   13.90
  -2 -13   5   15.80   14.50
  -2  13   5   -1.50   10.70
   2  13  -5    3.10    9.80
  -2  13   5   10.70   10.60
   2  13  -5   20.70   10.20
   2  13  -5   10.70   13.20
   2  13  -5   24.10   12.50
  -1 -13   5   18.30    9.70
  -1  13   5    1.60   11.20
  -1  13   5   18.00    8.90
   1  13  -5   14.90   13.20
   1  13  -5   10.00   10.20
  -1  13   5    7.70   11.00
   0  13   5   37.60    9.70
   0  13  -5   40.00   10.00
   0  13   5   15.70   11.90
   0  13   5   41.20   11.60
  -1  13  -5  -10.20    8.90
   1  13   5   -2.30   11.90
   1  13   5   -6.70    9.50
   1  13   5   -9.00   11.00
   2  13   5   72.99   15.30
  -2  14   5  355.76   19.70
   2  14  -5  402.26   29.50
   2  14  -5  421.46   22.90
  -1 -14   5  143.89   15.60
  -1  14   5  123.39   16.90
   1  14  -5  112.09   16.50
  -1  14   5  152.28   14.70
  -1  14   5  110.09   19.10
   0  14  -5  149.49   15.90
   0  14   5  143.29   21.00
   0  14   5  174.68   22.90
   0  14   5  147.89   15.70
  -1  14  -5  -11.10    9.70
   1  14   5   -3.10   13.00
  -1 -15   5   26.20   10.90
  -1  15   5   36.30   13.30
  -1  15   5   47.60   10.70
   0  15   5   77.09   15.00
   6   0  -6   -3.90   12.30
   6   0  -6   45.70   15.00
   5   0  -6   11.40   12.70
   5   0  -6    1.20   10.40
   4   0  -6  512.65   22.70
   4   0  -6  549.65   21.90
   3   0  -6   -5.40    7.60
  -3   0   6    8.40    6.50
   2   0  -6 2894.11   54.99
  -2   0   6 2911.41   51.59
   2   0  -6 2871.01   55.29
   1   0  -6    3.40    7.80
  -1   0   6   -4.60    6.20
  -1   0   6   -6.30    5.50
   1   0  -6    0.20    5.70
   0   0  -6 1130.09   24.60
   0   0   6 1093.29   24.40
   0   0   6 1044.80   22.10
   0   0   6 1012.10   23.40
   0   0  -6 1112.89   23.30
   1   0   6   -2.20    6.70
   1   0   6   -1.00    6.50
   1   0   6   17.80    7.50
   2   0   6  197.78   14.50
   2   0   6  175.18   12.60
   2   0   6  187.48   11.80
   3   0   6   -8.20    8.80
   3   0   6  -11.90    7.60
   3   0   6    4.80    8.30
   4   0   6   25.20   10.00
   4   0   6   11.00    9.80
   4   0   6   14.30    7.50
   4   0   6   24.00    8.80
   5   0   6   10.80   10.00
   6  -1  -6  325.17   22.10
   6  -1  -6  260.27   24.70
   6   1  -6  290.77   22.90
   6   1  -6  292.07   25.20
   5  -1  -6   64.89   12.20
   5  -1  -6  103.29   17.90
   5   1  -6   63.39   12.10
   5   1  -6   88.99   18.20
   4  -1  -6   19.30    9.60
  -4  -1   6   40.70    6.40
   4  -1  -6   33.90   11.60
   4   1  -6   26.30    9.60
   4   1  -6   40.60   12.10
   3  -1  -6   30.00   10.30
   3  -1  -6   30.00    8.60
  -3  -1   6   28.90    6.60
   3   1  -6   30.10    6.30
  -3   1   6   36.20    7.40
   3   1  -6    4.60    9.10
   3   1  -6   24.70    8.70
   2  -1  -6  137.89   12.70
   2  -1  -6  141.79   12.60
  -2   1   6  138.99   10.00
  -2   1   6  102.29   12.30
  -1  -1   6  193.08   10.10
   1  -1  -6  216.68   11.50
  -1  -1   6  171.48   11.80
   1  -1  -6  200.58   13.10
  -1   1   6  181.18    9.80
   1   1  -6  200.88   12.20
  -1   1   6  185.58   12.30
  -1   1   6  181.58   10.30
   1   1  -6  203.98   12.70
   0  -1   6 1058.39   23.20
   0  -1  -6 1044.10   24.30
   0  -1   6 1002.20   22.40
   0  -1   6 1027.60   21.60
   0  -1   6 1022.10   22.30
   0   1  -6 1004.30   23.50
   0   1   6 1037.30   24.10
   0   1  -6 1081.89   23.30
   0   1   6 1041.10   22.20
   1  -1   6   62.49    9.70
   1  -1   6   72.29   10.40
   1  -1   6   70.69    9.00
   1  -1   6   81.89   11.30
   1   1   6   94.69   13.00
   1   1   6   56.09    8.10
   2  -1   6  128.89   12.20
   2  -1   6  122.09   10.20
   2  -1   6  128.09   12.90
   2   1   6  117.79   12.40
   2   1   6  131.49   12.10
   2   1   6  150.58   14.90
   3  -1   6   28.20    8.20
   3  -1   6   27.20    8.40
   3  -1   6   22.30    9.50
   3   1   6   16.20    9.00
   3   1   6   33.40    8.50
   3   1   6    8.10    9.20
   4  -1   6   77.89   11.00
   4  -1   6   98.29   12.90
   4   1   6   61.69   11.40
   4   1   6   80.59    9.50
   4   1   6   89.19   13.90
   4   1   6   82.99   12.30
   5  -1   6    5.20   10.20
   5   1   6   20.50   10.70
   6  -2  -6   21.30   14.40
   6  -2  -6  -10.20   11.80
   6   2  -6   -0.50   12.40
   6   2  -6   16.80   14.50
   5  -2  -6   34.20   13.20
   5  -2  -6   33.60   11.20
   5   2  -6   36.10    7.50
   5   2  -6   41.70   14.10
   5   2  -6   24.30   11.30
   4  -2  -6   43.30   12.70
   4  -2  -6   32.00    9.70
   4   2  -6   50.99   11.50
   4   2  -6   30.30   10.10
   4   2  -6   33.00    7.50
  -3  -2   6   63.99    8.90
  -3  -2   6   71.79    7.10
   3  -2  -6   78.39   15.20
   3  -2  -6   65.89   14.20
   3   2  -6   56.39    9.80
  -3   2   6   68.19   10.80
   3   2  -6   68.39    7.40
  -3   2   6   67.39    7.50
   3   2  -6   67.59    7.70
   3   2  -6   62.69   11.60
   2  -2  -6 2025.70   40.80
  -2  -2   6 2041.40   37.40
   2   2  -6 2050.39   42.30
   2   2  -6 2063.29   41.30
  -2   2   6 1997.10   40.70
  -2   2   6 2110.09   38.40
  -2   2   6 1919.41   36.10
  -1  -2   6  386.96   13.70
   1  -2  -6  378.96   15.90
  -1  -2   6  401.86   12.50
   1  -2  -6  395.86   13.50
  -1   2   6  375.76   15.10
  -1   2   6  396.56   12.90
   1   2  -6  411.16   15.20
   1   2  -6  391.16   16.10
  -1   2   6  381.36   11.70
   0  -2   6  287.87   11.40
   0  -2  -6  277.27   14.60
   0  -2   6  305.77   12.90
   0  -2   6  309.67   11.50
   0   2   6  291.77   12.20
   0   2  -6  289.77   14.60
   0   2   6  293.07   11.30
   0   2   6  309.47   14.50
   0   2  -6  301.27   12.50
   1  -2   6  184.68    9.40
   1  -2   6  196.68   12.30
   1  -2   6  180.68   11.50
   1   2   6  201.38   14.90
   1   2   6  170.38   11.60
   2  -2   6  172.98   12.50
   2  -2   6  153.08   12.80
   2   2   6  168.48   13.20
   2   2   6  178.38   15.70
   2   2   6  163.08   12.60
   3  -2   6   -9.00    7.80
   3  -2   6   -2.80    7.30
   3   2   6    1.10    9.70
   3   2   6    9.70    9.30
   3   2   6    2.30    7.90
   4  -2   6   -8.00    9.30
   4  -2   6    5.40    8.90
   4   2   6   -8.20    7.90
   4   2   6   14.20    9.90
   4   2   6    2.10    8.30
   4   2   6   20.00   10.70
   5  -2   6   14.80   10.20
   5   2   6   -3.50   10.60
   6  -3  -6  237.78   24.30
   6  -3  -6  280.47   21.80
   6   3  -6  241.68   24.70
   5  -3  -6  -10.20   10.80
   5  -3  -6  -15.10   11.50
   5   3  -6    9.80   12.90
   5   3  -6  -15.40    7.20
   5   3  -6  -10.10   10.50
   4  -3  -6   86.59   15.70
   4  -3  -6   29.50   10.00
   4   3  -6   70.29   14.00
   4   3  -6   63.29    8.30
   4   3  -6   50.19   10.60
  -3  -3   6   18.00    6.20
   3  -3  -6   17.70    8.40
   3  -3  -6   12.60   10.90
  -3  -3   6    8.80    5.60
   3   3  -6   16.20    7.10
  -3   3   6    1.20    4.70
   3   3  -6   15.10    4.80
   3   3  -6   13.60    9.30
  -3   3   6   20.10    8.00
   3   3  -6   -7.10   10.40
   2  -3  -6  301.07   15.40
  -2  -3   6  303.17   11.60
  -2  -3   6  299.47   10.50
   2   3  -6  323.77   12.80
  -2   3   6  317.17   12.90
  -2   3   6  296.97   15.30
   2   3  -6  307.17   18.00
   2   3  -6  288.67   15.40
  -2   3   6  310.37   10.10
  -1  -3   6   10.70    6.00
   1  -3  -6   11.00    5.40
  -1  -3   6   23.90    6.90
   1  -3  -6   16.00    8.70
  -1   3   6   14.50    6.20
   1   3  -6    2.50    7.50
  -1   3   6   14.50    7.20
  -1   3   6   18.30    6.00
   1   3  -6   11.50    7.50
   0  -3   6    1.30    5.90
   0  -3  -6   -4.90    8.70
   0  -3   6   -2.80    5.70
   0   3  -6   11.00    6.40
   0   3   6   15.10    8.10
   0   3   6    0.80    7.00
   0   3  -6   -1.90    7.10
   0   3   6    6.70    6.40
   1  -3   6  333.47   14.20
   1  -3   6  410.96   13.60
   1   3   6  402.66   17.60
   1   3   6  386.16   14.40
   2  -3   6   94.69   12.60
   2   3   6   95.49   15.50
   2   3   6   69.69   10.40
   2   3   6   70.39   11.70
   3  -3   6  349.57   16.10
   3   3   6  351.46   19.50
   3   3   6  345.97   15.20
   3   3   6  348.47   14.90
   3   3   6  366.06   16.30
   4  -3   6   45.10   10.00
   4   3   6   12.10   11.30
   4   3   6   41.50    9.10
   4   3   6   37.60   10.70
   5  -3   6   19.00   10.60
   5   3   6   67.19   12.30
   5   3   6   14.00   13.90
   6  -4  -6   -6.60   13.10
   6  -4  -6   -6.90   12.70
   6   4  -6   -5.00   12.90
   5  -4  -6  139.29   21.00
   5  -4  -6  164.18   18.10
   5   4  -6  128.59   12.30
   5   4  -6  121.49   20.40
   5   4  -6  148.59   18.00
   4  -4  -6  168.28   18.70
   4  -4  -6  170.28   17.20
   4   4  -6  200.68   12.40
   4   4  -6  160.58   19.20
   4   4  -6  187.38   17.10
   3  -4  -6   23.60    9.00
  -3  -4   6   30.30    6.30
   3  -4  -6   30.60   11.80
   3   4  -6   32.60   11.60
   3   4  -6   25.80   10.20
  -3   4   6   30.90    5.10
   3   4  -6   36.90    7.90
  -3   4   6   43.30    8.90
  -2  -4   6  126.69    9.50
   2  -4  -6  114.29   15.10
   2  -4  -6  118.19   13.20
  -2   4   6  112.39    8.50
  -2   4   6  107.79   13.60
   2   4  -6  126.09   16.00
   2   4  -6  103.49   10.90
   2   4  -6  114.49   13.70
  -2   4   6   99.09   11.30
   1  -4  -6   49.30    9.60
  -1  -4   6   49.10    8.40
  -1  -4   6   41.50    6.90
   1   4  -6   30.80    8.60
  -1   4   6   37.50    8.80
  -1   4   6   39.80    6.90
   1   4  -6   40.50    8.60
   0  -4   6  179.78   11.20
   0  -4  -6  171.08   14.80
   0  -4   6  165.98    9.30
   0   4   6  165.58   11.60
   0   4   6  177.48   10.80
   0   4  -6  165.18   15.80
   0   4   6  157.48   14.60
   1   4   6 2072.99   39.60
   1   4   6 2035.90   42.70
   2  -4   6   63.99    9.80
   2   4   6   64.99   11.00
   2   4   6   57.69   10.00
   2   4   6   69.09    9.20
   3  -4   6   10.20    9.10
   3   4   6    5.10    8.10
   3   4   6    7.60    9.60
   3   4   6   14.00    8.60
   3   4   6   14.10   10.80
   4  -4   6   -8.60    9.40
   4   4   6  -13.60    8.50
   4   4   6   15.70   10.50
   4   4   6    0.70   11.70
   5  -4   6  108.29   19.90
   5   4   6   69.39   12.10
   5   4   6   56.19   14.50
   5   4   6   75.29   12.90
   6  -5  -6   -9.90   13.00
   6  -5  -6    3.70   13.70
   6   5  -6  -16.80   13.30
   5  -5  -6   -6.50   11.10
   5  -5  -6   -0.60   12.00
   5   5  -6   11.80   12.40
   5   5  -6    3.40   11.50
   5   5  -6   -1.80    8.50
   4  -5  -6    7.70    9.90
   4  -5  -6    4.80   11.40
   4   5  -6   -1.10   10.50
   4   5  -6    0.00   12.30
   4   5  -6    4.50    7.80
   3  -5  -6    1.90   11.50
   3  -5  -6   -7.60    8.40
  -3  -5   6   -4.10    5.80
  -3   5   6   -4.40    8.60
  -3   5   6   -2.20    5.00
   3   5  -6   -1.80    9.70
   3   5  -6  -11.00   10.90
   3   5  -6    6.50    7.80
  -2  -5   6  248.98   11.20
   2  -5  -6  244.08   17.10
   2  -5  -6  253.97   15.00
  -2   5   6  236.18   10.70
   2   5  -6  230.28   15.60
  -2   5   6  238.78   15.60
  -2   5   6  236.18   13.40
   2   5  -6  234.78   18.40
   2   5  -6  243.98   12.70
   1  -5  -6   59.49   10.30
  -1  -5   6   72.39    8.00
   1   5  -6   71.59    9.60
   1   5  -6   46.10    9.80
  -1   5   6   58.19    9.90
  -1   5   6   74.49    9.50
   0  -5   6  467.35   15.50
   0   5  -6  476.35   20.20
   0   5   6  450.55   15.20
   0   5   6  470.95   19.10
   0   5   6  494.65   16.00
   1  -5   6   39.30    7.30
   1   5   6   39.80   10.40
   1   5   6   42.80    8.40
   1   5   6   44.50    8.80
   2  -5   6   21.00    9.00
   2   5   6    1.80    7.80
   2   5   6   -8.00    8.70
   2   5   6    2.60    7.90
   2   5   6    8.70   10.00
   3  -5   6  451.85   18.20
   3   5   6  457.25   18.70
   3   5   6  467.65   22.80
   3   5   6  483.55   17.70
   3   5   6  486.75   16.40
   4  -5   6   -1.40   10.00
   4   5   6   15.60    9.30
   4   5   6   42.70   11.50
   4   5   6    3.60   12.30
   6  -6  -6   -1.40   13.40
   6  -6  -6    5.60   14.10
   6   6  -6  -32.60   13.30
   5  -6  -6   24.60   13.10
   5  -6  -6   32.00   12.50
   5   6  -6   23.30   12.80
   5   6  -6   44.90    9.70
   5   6  -6   51.09   14.00
   4  -6  -6    2.50   11.50
   4  -6  -6    1.90    9.90
   4   6  -6    2.70   10.70
   4   6  -6   11.70   12.70
   4   6  -6   10.30    8.70
  -3  -6   6   60.29    6.70
   3  -6  -6   48.50    9.60
   3  -6  -6   48.30   12.50
  -3   6   6   52.09   10.00
   3   6  -6   44.90    8.70
   3   6  -6   70.39   12.60
   3   6  -6   40.90   10.80
   2  -6  -6   52.29    8.50
   2  -6  -6   81.09   16.60
  -2  -6   6   60.39    7.60
   2   6  -6   59.79    8.80
  -2   6   6   69.99    9.50
   2   6  -6   47.60   11.00
  -2   6   6   61.69    9.60
   2   6  -6   60.79   11.30
  -2   6   6   48.10    9.90
   1  -6  -6 2236.88   42.40
  -1  -6   6 2341.97   42.70
   1  -6  -6 2014.50   46.10
  -1   6   6 2271.87   42.20
  -1   6   6 2279.67   46.00
   1   6  -6 2299.77   48.50
   1   6  -6 2251.47   43.40
   1   6  -6 2246.98   42.80
   0  -6   6   20.40    7.90
   0   6   6   21.20   10.00
   0   6  -6    8.90    7.10
   0   6   6   21.50    8.20
   0   6   6   24.40    8.50
   0   6  -6   16.90    9.80
   0   6  -6   10.30    5.20
   1  -6   6  139.39   12.00
   1   6   6  157.38   11.10
   1   6   6  156.28   17.30
   1   6   6  135.19   13.00
   1   6   6  145.69   12.70
   2  -6   6  101.59   13.40
   2   6   6  108.49   12.10
   2   6   6   85.89   16.70
   2   6   6  120.19   12.90
   2   6   6  108.49   13.60
   3  -6   6    2.30    9.50
   3   6   6   15.30   10.10
   3   6   6   -7.30    7.90
   3   6   6    4.90    8.90
   3   6   6    3.20   11.30
   4  -6   6    5.70   10.40
   4   6   6   13.40   11.10
   4   6   6  -11.60   12.60
   4   6   6    8.70    9.50
   5  -7  -6   -8.20   12.70
   5  -7  -6   10.40   12.20
   5   7  -6    6.70   12.70
   5   7  -6   28.30   14.10
   5   7  -6  -13.10    9.40
   4  -7  -6   80.19   12.60
   4  -7  -6   84.79   17.20
   4   7  -6   65.79   10.50
   4   7  -6   62.69   12.70
   4   7  -6   95.99   18.50
  -3  -7   6   -0.70    5.70
   3  -7  -6   -2.80    8.60
   3  -7  -6   -2.20   11.50
  -3   7   6    8.00    9.00
   3   7  -6   -0.20   11.60
  -3   7   6   -5.60    6.00
  -3   7   6    5.50    5.10
   3   7  -6   -0.80   10.10
   3   7  -6   -1.60    8.30
   2  -7  -6    7.90    7.80
  -2  -7   6    6.90    7.00
   2  -7  -6    5.50   11.50
  -2   7   6    2.70    9.20
   2   7  -6   16.80   10.60
   2   7  -6   -1.10   10.10
  -2   7   6    3.00    7.00
   2   7  -6    4.70    7.60
   1  -7  -6   23.30   12.70
   1  -7  -6   19.50    6.70
  -1  -7   6   19.50    7.60
  -1   7   6   37.50   10.40
   1   7  -6   29.00    8.30
  -1   7   6   31.30    9.10
  -1   7   6   45.30    8.70
   1   7  -6   31.60   10.90
   1   7  -6   32.10    9.40
   0  -7   6  640.84   18.70
   0   7   6  614.24   18.60
   0   7   6  628.84   23.20
   0   7  -6  649.83   18.30
   0   7   6  589.34   18.90
   0   7   6  627.64   17.90
   0   7  -6  495.05   15.90
   0   7  -6  602.44   25.20
   1  -7   6  138.49   12.60
   1   7   6  131.19   16.90
   1   7   6  118.89   11.90
   1   7   6  137.69   12.70
   1   7   6  130.29   12.90
   2  -7   6   12.00    9.40
   2   7   6   10.40   11.00
   2   7   6   16.80    8.60
   2   7   6   11.40    8.30
   2   7   6   25.00   10.00
   3  -7   6  202.18   15.90
   3   7   6  189.08   13.50
   3   7   6  185.88   20.50
   3   7   6  194.08   15.80
   3   7   6  224.28   15.40
   4  -7   6   14.80   10.90
   4   7   6   -8.10   13.30
   4   7   6    1.90   11.20
   4   7   6   -9.80    9.80
   5  -8  -6   42.40   14.30
   5  -8  -6   71.49   14.30
   5   8  -6   45.20   14.30
   5   8  -6   40.30   10.80
   4  -8  -6  253.57   21.90
   4  -8  -6  253.57   19.80
   4   8  -6  248.78   21.10
   4   8  -6  221.38   22.80
   4   8  -6  255.77   16.60
   3  -8  -6   38.80   10.10
   3  -8  -6   49.99   12.90
  -3  -8   6   45.20    6.70
  -3   8   6   49.10    6.30
  -3   8   6   47.00    7.80
   3   8  -6   47.70    9.90
   3   8  -6   50.39   13.10
   3   8  -6   34.70   11.50
  -3   8   6   43.90   10.10
  -2  -8   6   40.20    7.70
   2  -8  -6   59.79   13.10
  -2   8   6   48.10    6.90
   2   8  -6   30.40   11.40
   2   8  -6   62.59   11.70
  -2   8   6   35.30   10.20
  -2   8   6   49.70    8.20
   2   8  -6   38.50    7.70
  -1  -8   6  295.07   14.00
  -1   8   6  281.47   18.30
   1   8  -6  294.47   15.30
  -1   8   6  270.87   15.30
  -1   8   6  293.77   13.00
   1   8  -6  282.57   14.20
  -1   8   6  274.07   13.80
   1   8  -6  287.97   21.20
   0  -8   6   45.90    9.30
   0   8   6   52.79    9.50
   0   8  -6   37.70   11.00
   0   8  -6   43.70    8.50
   0   8   6   47.90    9.50
   0   8  -6   52.29    9.50
   0   8   6   28.80   10.70
   0   8   6   40.60    8.00
   1  -8   6  400.66   17.00
   1   8   6  370.26   15.80
   1   8   6  392.06   15.80
   1   8   6  377.36   16.40
   1   8   6  376.76   20.50
   2  -8   6    7.40    9.30
   2   8   6   -7.10    7.90
   2   8   6   -6.80    9.90
   2   8   6    1.90    8.20
   2   8   6    3.10   11.20
   3  -8   6    7.80   10.60
   3   8   6    1.80   11.00
   3   8   6  -19.90   12.10
   3   8   6   -1.60    9.30
   4   8   6   29.60   15.10
   5  -9  -6   26.40   13.20
   5  -9  -6   -1.90   13.90
   5   9  -6   13.60   14.50
   5   9  -6   27.40   11.50
   4  -9  -6  333.37   23.50
   4  -9  -6  301.27   21.00
   4   9  -6  318.97   22.30
   4   9  -6  274.07   17.10
   4   9  -6  309.57   25.00
   3  -9  -6   75.09   14.10
   3   9  -6   63.59   10.90
  -3   9   6   62.09    8.70
   3   9  -6   45.60   12.20
  -3   9   6   49.80   10.50
   3   9  -6   73.39   14.00
   2  -9  -6  219.28   19.00
  -2  -9   6  224.58   12.40
  -2   9   6  210.58   18.00
   2   9  -6  225.58   21.20
   2   9  -6  225.08   16.80
   2   9  -6  213.78   13.40
  -2   9   6  242.28   13.40
  -2   9   6  225.68   11.60
  -1  -9   6   -2.10    7.70
  -1   9   6    4.80    9.80
   1   9  -6   -3.00   10.40
  -1   9   6   -5.80    8.30
  -1   9   6    5.60    7.00
   1   9  -6   -1.10    9.00
   1   9  -6   -6.60    7.80
   0  -9   6  136.19   13.40
   0   9   6  122.49   13.30
   0   9   6  119.49   13.60
   0   9   6  119.09   12.30
   0   9  -6  105.99   12.40
   0   9  -6  107.89   20.30
   0   9   6  130.39   17.70
   1  -9   6   48.90   10.20
   1   9   6   35.30   10.40
   1   9   6   34.40    9.00
   1   9   6   32.20   11.50
   1   9   6   33.70    9.10
   2  -9   6    7.90    8.90
   2   9   6   17.90    9.00
   2   9   6   33.00   12.30
   2   9   6   34.50   10.70
   2   9   6   45.60    9.00
   3  -9   6  102.49   16.40
   3   9   6  100.29   15.40
   3   9   6   86.29   15.10
   3   9   6  110.29   16.50
   4   9   6   -7.00   14.20
   4 -10  -6  115.59   19.20
   4 -10  -6  192.68   22.00
   4  10  -6  108.29   22.40
   4  10  -6  121.49   15.90
   4  10  -6  173.28   20.90
   3 -10  -6    1.80   12.40
   3  10  -6    1.90   11.80
  -3  10   6   14.50    9.70
  -3  10   6    4.50    8.10
   3  10  -6   -3.80   11.70
   3  10  -6    2.80    9.80
  -2 -10   6  348.47   14.30
  -2  10   6  344.07   20.10
   2  10  -6  320.77   15.90
  -2  10   6  344.27   15.80
   2  10  -6  362.26   24.00
   2  10  -6  354.76   18.40
  -2  10   6  355.96   13.80
  -1 -10   6   62.09    9.50
   1  10  -6   41.30    9.30
  -1  10   6   29.00    9.70
   1  10  -6   52.59   10.80
  -1  10   6   43.30   11.20
   1  10  -6   32.30   12.00
  -1  10   6   39.70    8.10
   0 -10   6   17.30    9.10
   0  10   6   16.20   11.30
   0  10   6   16.70    9.90
   0  10  -6   25.10   12.00
   0  10   6   21.80    8.50
   0  10  -6   14.40    8.80
   1 -10   6    3.70    9.80
   1  10   6    3.70    8.70
   1  10   6   -4.50   11.50
   1  10   6   -3.30    9.80
   2 -10   6   16.10    9.50
   2  10   6   17.40   10.20
   2  10   6    3.60   12.00
   2  10   6   16.20    8.80
   3  10   6   20.70   16.10
   3  10   6    2.60   13.90
   4 -11  -6  276.17   23.60
   4 -11  -6  291.27   22.10
   4  11  -6  234.08   27.10
   4  11  -6  259.17   24.20
  -3  11   6    9.20   10.00
   3  11  -6   18.40   13.00
   3  11  -6   35.30   13.50
   3  11  -6    4.00    9.60
  -2 -11   6  150.58   12.80
   2  11  -6  174.08   16.80
   2  11  -6  190.18   23.10
  -2  11   6  154.88   12.30
  -2  11   6  152.68   18.10
  -2  11   6  156.98   14.20
   2  11  -6  172.18   15.10
  -1 -11   6   21.10    9.50
   1  11  -6   28.80   10.40
  -1  11   6   22.40    9.90
   1  11  -6    5.60   12.00
   1  11  -6    8.60    9.50
   1  11  -6   27.10    7.60
  -1  11   6   17.70    8.10
  -1  11   6   13.80   11.10
   0 -11   6  255.17   16.10
   0  11  -6  267.07   15.50
   0  11   6  255.97   15.40
   0  11   6  260.27   16.50
   0  11   6  226.28   20.60
   1 -11   6   71.29   11.40
   1  11   6   58.79   13.10
  -1  11  -6   55.09    9.40
   1  11   6   58.69   11.70
   1  11   6   65.59   10.80
   2 -11   6  102.59   15.10
   2  11   6   99.79   15.10
   2  11   6  115.29   15.30
   2  11   6  100.69   15.00
   3  11   6  -34.00   13.80
   4 -12  -6  447.56   26.00
   4  12  -6  417.26   24.70
   4  12  -6  357.56   29.10
   3  12  -6    8.10   13.30
   3  12  -6   20.60   13.70
  -3  12   6    9.90   10.70
   3  12  -6   19.40   11.10
  -2 -12   6  164.98   13.80
   2  12  -6  174.58   17.40
  -2  12   6  184.58   18.90
  -2  12   6  149.59   15.20
   2  12  -6  174.78   16.50
   2  12  -6  163.28   15.90
   2  12  -6  147.89   23.90
  -2  12   6  166.38   12.70
  -1 -12   6   -7.30    9.10
   1  12  -6   10.70   12.30
   1  12  -6   16.60    9.40
  -1  12   6    8.30   10.40
  -1  12   6   21.00    8.80
  -1  12   6   16.30   11.30
   0 -12   6   21.50   10.10
   0  12  -6   21.80    9.80
   0  12   6   48.00   11.60
   0  12   6   32.60    9.70
   0  12   6   16.20   12.30
   1 -12   6  150.78   16.50
   1  12   6  187.68   16.10
  -1  12  -6  188.08   14.90
   1  12   6  156.58   16.70
   1  12   6  147.99   21.10
   2  12   6   11.40   13.70
   3  13  -6   43.20   12.50
   3  13  -6   62.79   16.00
   3  13  -6   46.00   15.00
  -2  13   6    3.90   10.70
   2  13  -6    2.40   13.70
   2  13  -6   -1.50   12.20
  -2  13   6    4.80   11.50
  -1 -13   6    3.70    9.80
   1  13  -6   16.70   13.70
  -1  13   6   12.80   11.10
   1  13  -6    7.60   10.00
  -1  13   6   12.10    9.10
  -1  13   6    0.00   11.60
   0 -13   6  375.96   19.10
   0  13  -6  355.36   18.20
   0  13   6  338.37   23.40
   0  13   6  368.46   18.40
   0  13   6  341.37   20.00
  -1  13  -6   70.49   11.00
   1  13   6   45.40   14.10
   2  13   6  -16.70   13.50
   2  14  -6  238.58   28.10
  -2  14   6  219.28   25.40
  -2  14   6  195.28   17.80
  -1 -14   6  228.78   17.50
  -1  14   6  188.18   21.50
  -1  14   6  203.88   16.20
  -1  14   6  217.78   22.00
   0  14   6   57.19   14.40
   0  14   6   37.00   13.60
   0  14  -6   50.49   11.60
   6   0  -7   23.90   15.30
   6   0  -7   -9.30   12.10
   5   0  -7    0.20   10.60
   5   0  -7    9.20   13.10
  -4   0   7    6.20    6.80
   4   0  -7  -11.70   10.60
   4   0  -7   -7.60    9.10
   3   0  -7  647.04   23.30
   3   0  -7  622.54   22.40
  -3   0   7  629.24   17.50
   2   0  -7    0.00    9.90
   2   0  -7   -3.50    7.60
  -2   0   7    2.40    7.00
  -1   0   7  484.85   17.60
   1   0  -7  499.15   18.50
   1   0  -7  510.15   17.50
  -1   0   7  499.75   15.60
   0   0  -7    6.40    9.10
   0   0   7   -4.30    4.80
   0   0   7   -4.90    7.90
   0   0  -7    0.30    6.20
   1   0   7  699.93   19.80
   1   0   7  731.93   21.60
   2   0   7    8.30    8.50
   2   0   7   14.50    9.00
   2   0   7   -7.60    9.10
   3   0   7  224.28   16.60
   3   0   7  252.37   14.80
   3   0   7  249.68   15.50
   4   0   7    4.50   10.30
   4   0   7    8.60    9.10
   6  -1  -7   32.00   15.50
   6  -1  -7   25.60   13.20
   6   1  -7   17.30   13.50
   5  -1  -7   27.00   11.60
   5  -1  -7   17.60   13.30
   5   1  -7   45.80   14.50
   5   1  -7   35.20   11.60
   4  -1  -7   42.90   10.30
  -4  -1   7   65.69   10.10
   4  -1  -7   60.09   13.40
   4   1  -7   52.49   10.90
   4   1  -7   75.09   12.30
  -4   1   7   67.49   10.90
   3  -1  -7  347.07   18.90
   3  -1  -7  343.97   17.50
  -3  -1   7  350.26   13.40
   3   1  -7  369.76   20.00
   3   1  -7  342.57   19.10
  -3   1   7  358.76   14.20
   2  -1  -7   94.89   13.80
   2  -1  -7   79.39   14.10
  -2  -1   7   75.59   10.40
  -2   1   7   59.29    9.20
  -2   1   7   78.29    8.10
   2   1  -7   86.39   15.20
   2   1  -7   68.69   11.90
  -2   1   7   72.49   10.60
  -1  -1   7   15.80    7.10
   1  -1  -7   24.30   10.00
  -1  -1   7   21.20    8.00
   1  -1  -7   17.00    6.80
  -1   1   7   14.30    7.90
  -1   1   7   19.70    7.20
  -1   1   7   22.70    6.60
   1   1  -7   28.10    9.60
   1   1  -7   19.00    7.70
   0  -1   7   -2.20    7.70
   0  -1  -7  -10.80    9.10
   0   1   7    9.90    8.20
   0   1  -7    9.00    8.70
   0   1  -7   -7.10    6.80
   0   1   7    0.30    7.10
   1  -1   7 1593.54   33.10
   1  -1   7 1444.26   31.30
   1  -1   7 1584.24   32.50
   1   1   7 1557.54   34.30
   1   1   7 1603.84   32.60
   2  -1   7   -3.60    8.10
   2  -1   7   -2.70    8.20
   2   1   7    0.70    9.40
   2   1   7   -3.20    8.80
   2   1   7   11.20    8.50
   3  -1   7   95.69   13.50
   3  -1   7  112.59   14.70
   3  -1   7   95.69   14.20
   3   1   7   94.69   13.10
   3   1   7  106.79   14.10
   3   1   7  125.09   16.40
   4  -1   7   34.10    9.80
   4  -1   7   21.30   10.80
   4   1   7   18.20   11.60
   4   1   7   33.40   11.30
   4   1   7   10.00    8.70
   4   1   7   24.20    9.40
   6  -2  -7  283.37   22.90
   6  -2  -7  209.08   24.90
   6   2  -7  233.18   24.60
   5  -2  -7   66.69   12.50
   5  -2  -7   86.89   15.00
   5   2  -7  100.89   18.90
   5   2  -7   74.49   12.90
   4  -2  -7   20.10    9.90
   4  -2  -7   16.80   11.90
  -4  -2   7   12.70    6.50
   4   2  -7    2.90    9.50
   4   2  -7   22.60   11.00
  -4   2   7   19.80    8.10
  -3  -2   7    7.00    5.60
  -3  -2   7   11.30    6.70
   3  -2  -7   19.40    8.90
   3  -2  -7   16.50   10.90
  -3   2   7    7.00    8.00
   3   2  -7    8.20   11.80
   3   2  -7   11.30    9.50
  -2  -2   7   61.59   10.10
   2  -2  -7   67.29   11.70
   2  -2  -7   45.10    8.00
  -2   2   7   37.20    8.40
   2   2  -7   40.90    9.40
  -2   2   7   46.70    9.30
  -2   2   7   46.30    6.40
   2   2  -7   55.79   10.90
  -1  -2   7 1362.86   28.10
   1  -2  -7 1356.76   31.70
   1  -2  -7 1320.17   28.40
   1   2  -7 1370.66   31.50
  -1   2   7 1354.86   28.40
  -1   2   7 1311.57   30.60
  -1   2   7 1329.17   27.10
   1   2  -7 1341.57   30.00
   0  -2   7   13.90    7.60
   0  -2   7    4.70    5.30
   0  -2   7   12.20    7.10
   0  -2  -7   10.50   10.00
   0   2   7   -0.90    6.90
   0   2   7   11.20    8.70
   0   2  -7    4.50    8.40
   0   2   7    9.00    7.70
   0   2  -7   -0.60    7.50
   1  -2   7  343.37   15.40
   1  -2   7  304.07   12.10
   1  -2   7  300.67   14.60
   1   2   7  269.17   14.40
   1   2   7  281.17   17.20
   1   2   7  272.17   12.90
   2  -2   7   80.89   12.90
   2  -2   7   45.70    9.10
   2   2   7   39.90   10.40
   2   2   7   59.29   10.30
   2   2   7   39.20    9.00
   3  -2   7   83.09   10.60
   3   2   7  102.69   14.30
   3   2   7   79.69   12.10
   3   2   7   81.69   10.20
   4  -2   7   50.19   10.70
   4  -2   7   50.59   11.60
   4   2   7   54.79    9.80
   4   2   7   38.10    9.90
   4   2   7   57.99   11.60
   4   2   7   47.20   11.90
   6  -3  -7  176.28   21.00
   6  -3  -7  130.39   24.10
   6   3  -7  162.58   24.30
   5  -3  -7  217.48   21.30
   5  -3  -7  216.18   19.60
   5   3  -7  202.58   13.10
   5   3  -7  209.18   21.70
   5   3  -7  209.48   19.50
   4  -3  -7    8.20    9.30
   4  -3  -7   11.70   12.00
   4   3  -7   12.80   12.10
   4   3  -7    3.90    7.50
   4   3  -7   -5.20    9.80
  -3  -3   7   16.60    6.90
   3  -3  -7   17.60   12.00
   3  -3  -7   15.90    8.50
   3   3  -7   11.50   11.60
   3   3  -7   15.10    7.60
  -3   3   7   14.60    8.20
   3   3  -7   -2.40    9.60
  -2  -3   7   -2.80    6.90
   2  -3  -7    4.90    7.70
   2  -3  -7   14.00    7.50
  -2   3   7   -6.70    7.90
  -2   3   7    0.00    8.40
  -2   3   7    9.60    6.30
   2   3  -7   23.80   10.50
   2   3  -7    6.50    8.80
   1  -3  -7   46.50   11.40
  -1  -3   7   29.40    7.80
   1  -3  -7   30.70    6.40
  -1   3   7    5.10    5.10
   1   3  -7   40.20   10.20
   1   3  -7   30.40    9.00
  -1   3   7   21.60    8.90
  -1   3   7   47.00    7.70
   0  -3   7  528.85   16.60
   0  -3   7  511.85   15.40
   0  -3  -7  529.65   20.30
   0   3  -7  490.45   16.60
   0   3   7  511.75   19.60
   0   3  -7  515.35   20.00
   0   3   7  503.25   17.20
   0   3   7  550.44   16.30
   1  -3   7  675.43   18.70
   1  -3   7  652.53   19.30
   1  -3   7  641.74   16.00
   1   3   7  645.14   19.40
   1   3   7  644.24   18.70
   1   3   7  659.33   22.60
   2  -3   7   16.00    8.80
   2  -3   7   14.50    7.20
   2   3   7   -5.60    8.10
   2   3   7   14.30   10.30
   2   3   7   -0.30    9.20
   3  -3   7  151.98   14.40
   3   3   7  126.79   17.60
   3   3   7  130.49   14.60
   3   3   7  148.39   13.60
   4  -3   7  103.59   14.90
   4  -3   7   97.99   15.50
   4   3   7  115.59   19.00
   4   3   7  116.19   14.10
   4   3   7   96.99   15.40
   6  -4  -7  107.89   21.20
   6  -4  -7   72.29   14.90
   6   4  -7   54.39   15.10
   5  -4  -7   54.39   12.70
   5  -4  -7   55.39   14.50
   5   4  -7   59.39   14.50
   5   4  -7   54.99    9.30
   5   4  -7   31.70   12.80
   4  -4  -7 1166.78   33.40
   4  -4  -7 1111.19   31.90
   4   4  -7 1079.89   33.60
   4   4  -7 1155.08   32.80
   4   4  -7 1102.69   26.20
   3  -4  -7    8.10   11.70
   3  -4  -7    4.60    8.70
  -3  -4   7   11.20    6.70
   3   4  -7    4.60   11.40
   3   4  -7   12.30    8.00
   3   4  -7   15.80   10.20
  -3   4   7   15.00    8.60
   2  -4  -7   85.39   13.60
  -2  -4   7   80.39   10.70
   2  -4  -7   90.29   14.50
   2   4  -7   83.49   17.30
   2   4  -7   84.49   14.40
  -2   4   7   83.59   15.20
   2   4  -7   85.09   11.50
  -2   4   7  104.49   12.70
  -2   4   7   80.39    9.40
   1  -4  -7    8.90   10.60
   1  -4  -7   13.90    6.00
  -1  -4   7    7.70    7.40
  -1   4   7   32.10    9.60
   1   4  -7    7.70    9.30
   1   4  -7   23.20    9.50
  -1   4   7   15.30    7.20
   0  -4   7   32.90    7.00
   0  -4   7   25.80    8.00
   0  -4  -7   18.30   11.50
   0   4   7    9.80    9.50
   0   4  -7   24.50    8.30
   0   4  -7   33.90    9.40
   0   4   7   16.60    8.20
   0   4   7   39.30    8.50
   1  -4   7    0.80    7.60
   1   4   7   -3.50    8.40
   1   4   7    8.30   10.60
   1   4   7   -3.40    8.10
   2  -4   7  379.26   17.00
   2   4   7  378.46   20.70
   2   4   7  368.26   16.20
   2   4   7  394.66   16.90
   3  -4   7    9.20    9.70
   3   4   7   -1.20   11.10
   3   4   7    6.40   10.40
   3   4   7   -4.90    8.70
   3   4   7   -3.70    8.80
   4  -4   7    8.40   10.70
   4   4   7   19.00    9.90
   4   4   7   26.70   13.10
   4   4   7   29.90   11.60
   6  -5  -7  283.57   27.50
   6   5  -7  282.87   27.30
   5  -5  -7   83.99   15.10
   5  -5  -7   61.59   13.10
   5   5  -7   81.29   10.40
   5   5  -7   71.09   13.80
   5   5  -7  105.99   18.50
   4  -5  -7    7.20   10.10
   4  -5  -7    9.50   12.20
   4   5  -7   -7.90   10.90
   4   5  -7    5.90    8.40
   4   5  -7    7.80   12.90
   3  -5  -7  454.55   20.90
  -3  -5   7  431.66   13.80
   3  -5  -7  446.56   21.60
  -3   5   7  451.35   17.10
   3   5  -7  399.16   22.30
   3   5  -7  447.86   16.50
  -3   5   7  446.36   19.90
   3   5  -7  459.75   20.70
  -2  -5   7  278.77   12.90
   2  -5  -7  297.27   16.50
   2  -5  -7  279.77   18.50
   2   5  -7  278.57   20.80
   2   5  -7  242.08   17.00
  -2   5   7  257.27   17.50
  -2   5   7  275.47   14.90
  -2   5   7  267.37   11.70
   2   5  -7  263.37   14.40
  -1  -5   7   22.20    8.00
   1  -5  -7   18.40   11.10
   1  -5  -7   13.60    6.20
  -1   5   7   20.30    9.90
   1   5  -7   14.30    9.30
   1   5  -7   21.10   10.00
  -1   5   7   19.80    7.20
  -1   5   7    5.00    7.60
   0  -5   7   12.20    8.30
   0  -5   7   15.00    6.60
   0   5  -7   14.90    9.80
   0   5   7   18.50    8.70
   0   5   7   16.10    8.70
   0   5  -7   11.70    8.10
   0   5   7   24.60   10.30
   1  -5   7  587.44   18.30
   1   5   7  571.04   18.80
   1   5   7  604.44   23.00
   1   5   7  582.24   18.70
   2  -5   7    1.80    9.30
   2   5   7   15.50    8.70
   2   5   7    8.40   10.70
   2   5   7   12.20    9.60
   3  -5   7   -3.70   10.10
   3   5   7  -12.80    8.70
   3   5   7   10.60    9.30
   3   5   7  -12.70   11.30
   3   5   7    5.50   10.40
   4  -5   7  168.78   16.60
   4   5   7  152.08   15.60
   4   5   7  135.59   21.30
   4   5   7  163.98   17.30
   5  -6  -7    3.70   13.30
   5  -6  -7   23.10   12.30
   5   6  -7   40.80   15.10
   5   6  -7   28.30   13.30
   5   6  -7   30.70    9.50
   4  -6  -7  159.88   20.50
   4  -6  -7  146.19   19.00
   4   6  -7  173.18   13.90
   4   6  -7  143.99   20.40
   4   6  -7  160.28   19.70
   3  -6  -7   19.20   12.60
   3  -6  -7   10.10    9.00
  -3  -6   7   12.90    6.90
  -3   6   7   11.30    6.00
   3   6  -7   -4.90   10.00
   3   6  -7  -10.90   11.60
   3   6  -7   11.20    8.40
  -3   6   7   17.10   10.00
   2  -6  -7  278.67   16.30
  -2  -6   7  281.27   13.00
   2  -6  -7  270.77   19.40
   2   6  -7  277.37   16.90
  -2   6   7  272.47   18.00
  -2   6   7  276.17   15.20
  -2   6   7  284.57   12.50
   2   6  -7  276.17   20.80
   2   6  -7  268.87   14.40
  -1  -6   7   45.60    8.90
   1  -6  -7   53.19   11.90
   1  -6  -7   44.80    6.90
   1   6  -7   56.09   10.40
   1   6  -7   45.90   11.40
   1   6  -7   46.50    8.60
  -1   6   7   47.20   11.10
  -1   6   7   51.89    8.80
  -1   6   7   71.39    9.10
   0  -6   7  238.28   14.60
   0   6   7  244.88   18.50
   0   6  -7  198.78   20.60
   0   6   7  252.37   14.20
   0   6   7  250.37   14.80
   0   6  -7  235.58   12.50
   1  -6   7   59.39    8.80
   1   6   7   47.30   11.50
   1   6   7   38.90    9.60
   1   6   7   51.29    9.30
   2  -6   7   48.80   10.60
   2   6   7   61.89   10.90
   2   6   7   32.40    9.40
   2   6   7   44.00   12.20
   2   6   7   32.50    9.40
   3  -6   7   23.10   10.80
   3   6   7    9.20   12.10
   3   6   7   20.40    9.70
   3   6   7   16.60   10.90
   3   6   7   20.10    9.20
   4  -6   7   30.40   11.70
   4   6   7   36.40   13.10
   4   6   7  -12.00   13.50
   4   6   7   19.90   10.30
   5  -7  -7    8.80   12.70
   5  -7  -7   17.00   14.30
   5   7  -7   27.00   10.20
   5   7  -7   65.59   19.90
   5   7  -7   -8.10   12.80
   4  -7  -7   -3.30   10.60
   4  -7  -7   -6.50   12.70
   4   7  -7   18.80    9.20
   4   7  -7  -10.20   11.70
   4   7  -7   14.70   13.80
   3  -7  -7  179.28   18.90
   3  -7  -7  167.18   18.10
  -3  -7   7  171.38   11.10
   3   7  -7  177.28   18.80
  -3   7   7  191.28   17.80
   3   7  -7  181.88   20.50
   3   7  -7  169.08   13.90
  -3   7   7  168.88   10.60
   2  -7  -7  343.77   20.80
   2  -7  -7  368.66   17.60
  -2  -7   7  362.56   14.20
   2   7  -7  388.46   18.20
  -2   7   7  362.16   19.30
   2   7  -7  336.37   22.40
  -2   7   7  361.16   13.80
  -2   7   7  358.06   16.70
   2   7  -7  360.86   14.80
   1  -7  -7  131.19   16.00
  -1  -7   7  128.49   12.80
   1  -7  -7  135.29   11.80
  -1   7   7  138.29   13.50
  -1   7   7  124.69   12.00
   1   7  -7  127.99   13.30
   1   7  -7  116.79   12.80
  -1   7   7  134.69   16.80
   1   7  -7  155.28   19.40
   0  -7   7   26.40    8.80
   0   7   7   21.00   10.50
   0   7  -7   11.80    7.60
   0   7  -7    2.30   10.10
   0   7   7   14.80    8.90
   0   7   7  -14.30    8.10
   1  -7   7  116.99   13.00
   1   7   7   85.69   13.00
   1   7   7   85.99   11.90
   1   7   7  110.89   17.70
   1   7   7   92.59   13.50
   2  -7   7   42.20   10.90
   2   7   7   40.50   12.50
   2   7   7   47.80    9.90
   2   7   7   59.79    9.90
   2   7   7   60.99   10.90
   3  -7   7   15.60   10.50
   3   7   7   -6.70    8.60
   3   7   7   -5.60    9.40
   3   7   7  -17.80   12.50
   3   7   7   14.20   11.60
   4   7   7   15.90   15.10
   5  -8  -7   21.80   14.60
   5  -8  -7   12.10   13.10
   5   8  -7   42.20   11.20
   5   8  -7    9.90   13.90
   4  -8  -7  564.34   27.50
   4  -8  -7  583.74   25.60
   4   8  -7  577.74   26.20
   4   8  -7  529.15   27.70
   4   8  -7  579.44   20.40
   3  -8  -7   86.59   14.70
  -3  -8   7   77.79   10.50
   3  -8  -7   64.79   11.10
  -3   8   7   85.29   10.30
   3   8  -7   87.09   14.60
   3   8  -7   74.69   10.50
  -3   8   7   72.09   11.60
  -3   8   7   78.19    9.30
   3   8  -7   50.79   12.70
  -2  -8   7    1.40    7.50
   2  -8  -7    5.90   13.00
   2  -8  -7    6.50    7.80
  -2   8   7   -7.20    6.50
  -2   8   7   10.20    8.00
   2   8  -7    8.80   10.80
   2   8  -7    2.50    7.10
   2   8  -7   -6.60   10.50
  -2   8   7    7.80   10.30
  -1  -8   7  241.38   14.10
   1  -8  -7  260.67   13.60
  -1   8   7  251.77   14.20
   1   8  -7  247.48   15.00
  -1   8   7  243.68   15.50
   1   8  -7  249.48   21.40
   1   8  -7  280.77   14.80
  -1   8   7  260.07   13.00
  -1   8   7  253.07   18.70
   0  -8   7   27.20    9.20
   0   8  -7   12.30   10.90
   0   8   7   14.20    8.20
   0   8   7   18.70    9.30
   0   8   7   17.00    9.50
   0   8   7   25.50   11.30
   1  -8   7  152.38   15.00
   1   8   7  124.39   13.70
   1   8   7  124.59   13.80
   1   8   7  141.89   14.40
   1   8   7  128.29   18.40
   2  -8   7   77.09   11.50
   2   8   7   50.89    9.90
   2   8   7   52.79    9.70
   2   8   7   54.49   13.50
   2   8   7   50.89   11.00
   3  -8   7   25.40   11.30
   3   8   7   49.10   11.00
   3   8   7   43.20   12.00
   3   8   7    6.60   13.30
   5  -9  -7   51.69   14.70
   5  -9  -7   85.99   17.10
   5   9  -7   63.39   16.10
   4  -9  -7   49.99   14.80
   4  -9  -7   38.50   12.80
   4   9  -7   11.60   13.00
   4   9  -7   31.40   10.60
   4   9  -7   68.69   15.70
   3  -9  -7  112.39   19.10
   3  -9  -7  160.48   19.20
   3   9  -7  133.59   19.00
  -3   9   7  126.79   12.20
  -3   9   7  139.59   17.90
   3   9  -7  134.19   14.60
   3   9  -7  113.29   21.90
  -2  -9   7   15.90    8.20
   2  -9  -7   15.30   13.20
   2  -9  -7    9.00    8.20
  -2   9   7   10.80    8.40
   2   9  -7    1.50    7.70
   2   9  -7    1.50   11.10
  -2   9   7    4.10    6.90
  -2   9   7   17.20   10.90
   2   9  -7   15.20   11.60
  -1  -9   7  127.29   13.00
   1  -9  -7  113.49   12.40
  -1   9   7  114.69   13.10
   1   9  -7   92.09   13.60
  -1   9   7  112.29   11.90
   1   9  -7  127.59   13.50
   1   9  -7  124.09   21.40
  -1   9   7  111.59   14.50
  -1   9   7  102.49   18.10
   0  -9   7   34.90   10.00
   0   9   7   36.60    9.60
   0   9  -7   41.20    9.40
   0   9   7   18.50   11.70
   0   9   7   42.60   10.40
   0   9   7   46.60    9.20
   0   9  -7   22.40   12.00
   1  -9   7  116.59   15.10
   1   9   7  139.69   14.50
   1   9   7  151.28   19.50
   1   9   7   99.99   15.20
   1   9   7  125.69   14.70
   2  -9   7   29.80   10.40
   2   9   7   35.00    9.20
   2   9   7   34.40    9.80
   2   9   7   19.80   13.00
   2   9   7   30.80   10.70
   3   9   7   36.60   14.70
   4 -10  -7    6.90   14.40
   4 -10  -7   20.40   12.20
   4  10  -7    4.30   11.30
   4  10  -7   12.50   13.50
   4  10  -7   44.80   15.90
   3 -10  -7   -5.00    9.90
   3 -10  -7   16.10   14.00
   3  10  -7   -7.10   11.90
   3  10  -7    3.40    9.80
  -3  10   7    5.90   10.40
   3  10  -7   15.60   13.10
  -2 -10   7    7.80    8.40
   2 -10  -7    8.20    8.40
  -2  10   7   -9.10   10.80
   2  10  -7    7.30   11.40
  -2  10   7    4.40    7.10
  -2  10   7   12.20    9.10
   2  10  -7   16.70   12.10
   2  10  -7    4.90    8.60
  -1 -10   7 1030.40   26.00
   1  10  -7 1009.40   26.30
  -1  10   7  998.10   25.80
  -1  10   7 1017.00   25.00
  -1  10   7  998.20   30.90
   1  10  -7  988.70   26.00
   1  10  -7  985.70   34.60
   0 -10   7   58.09   10.70
   0  10   7   34.10   12.40
   0  10   7   66.89   11.50
   0  10   7   42.50    9.60
   0  10  -7   53.39   10.00
   1 -10   7   44.30   11.40
   1  10   7   52.39   10.50
   1  10   7   91.09   12.80
   1  10   7   31.50   13.10
   1  10   7   73.09   10.90
   2 -10   7   22.50   10.30
   2  10   7    5.50    9.20
   2  10   7   14.10    9.70
   2  10   7   21.60   11.20
   2  10   7   -8.80   12.80
   3  10   7    3.60   14.40
   4 -11  -7   27.10   13.40
   4 -11  -7   37.20   15.20
   4  11  -7   19.90   14.40
   3 -11  -7  104.89   20.00
  -3  11   7   41.00   12.00
   3  11  -7   65.59   15.30
   3  11  -7   45.20   10.60
   3  11  -7   39.10   13.90
  -2 -11   7   21.20    9.00
   2  11  -7   20.70   12.10
   2  11  -7   -0.10    9.20
   2  11  -7    0.90   12.20
  -2  11   7   11.20   10.00
  -2  11   7   11.30   11.80
  -2  11   7    4.70    7.70
  -1 -11   7   24.60   10.00
   1  11  -7   31.00   10.10
  -1  11   7   29.50   12.30
  -1  11   7   44.30   10.60
   1  11  -7   32.60   13.20
  -1  11   7   53.89    9.30
   0 -11   7   -1.30    9.70
   0  11   7    6.80   12.10
   0  11   7   15.60   10.60
   0  11   7    1.60    9.10
   0  11  -7    5.70    9.70
   1 -11   7  385.66   20.20
   1  11   7  433.26   19.90
   1  11   7  371.56   24.60
   1  11   7  380.86   18.90
   2  11   7   14.80   14.10
   3 -12  -7  219.58   21.20
   3  12  -7  189.68   22.50
  -3  12   7  173.38   20.10
   3  12  -7  173.48   26.30
  -2 -12   7    0.40    9.00
   2  12  -7    8.70   10.60
  -2  12   7    5.40    8.30
   2  12  -7    9.70   13.50
  -2  12   7    9.70   10.50
  -2  12   7    3.30   11.90
   2  12  -7   14.40   12.80
  -1 -12   7  204.68   16.20
   1  12  -7  198.98   16.50
  -1  12   7  222.68   21.40
  -1  12   7  255.77   15.90
  -1  12   7  196.48   16.70
   1  12  -7  229.08   26.00
   0 -12   7    1.10   10.40
   0  12   7   26.50   11.30
   0  12   7    3.80   12.50
   0  12  -7   11.60   10.40
   0  12   7   25.80   10.00
   1  12   7  129.59   22.00
   1  12   7  151.38   20.30
   2  12   7   55.49   16.00
  -2  13   7  233.68   22.90
  -2  13   7  237.88   17.90
   2  13  -7  259.97   28.10
  -1 -13   7   48.70   11.10
  -1  13   7   40.30   12.10
   1  13  -7   47.40   15.20
  -1  13   7   32.30   13.80
  -1  13   7   66.39   10.90
   0 -13   7   63.09   14.80
   0  13  -7   40.00   11.40
   0  13   7   42.90   14.70
   0  13   7   61.19   11.50
   1  13   7   65.09   15.90
   6   0  -8   54.19   15.00
   5   0  -8  -13.60   13.30
   5   0  -8   -6.20   11.00
  -4   0   8  371.46   14.60
   4   0  -8  346.47   20.10
   4   0  -8  339.67   21.70
   3   0  -8    3.80    9.00
  -3   0   8   -1.40    7.90
  -3   0   8    5.10    5.40
   3   0  -8  -13.50   11.20
   2   0  -8   -7.40   11.30
  -2   0   8   -6.90    8.10
   2   0  -8    0.60    8.60
   1   0  -8    1.10    7.80
   1   0  -8  -12.70   10.70
  -1   0   8   20.10    8.50
  -1   0   8   -8.00    8.70
   0   0  -8  571.34   20.40
   0   0  -8  556.94   18.10
   0   0   8  537.65   17.10
   0   0   8  550.44   20.30
   1   0   8   -8.40    8.60
   1   0   8    0.90    9.40
   2   0   8  226.18   14.90
   2   0   8  214.38   15.10
   2   0   8  247.78   16.70
   3   0   8   17.90    9.70
   3   0   8    5.50   10.20
   3   0   8    7.50   10.70
   4   0   8   45.90   12.50
   4   0   8   42.10   10.90
   6  -1  -8   21.20   13.90
   6   1  -8   15.50   13.80
   5  -1  -8  187.98   21.80
   5  -1  -8  180.98   20.80
   5   1  -8  200.68   22.20
   5   1  -8  245.68   20.70
   4  -1  -8  113.19   16.60
   4  -1  -8   65.79   11.60
  -4  -1   8   91.09   11.30
  -4   1   8   76.09   11.90
   4   1  -8   63.29   11.70
   4   1  -8   89.39   16.00
  -3  -1   8   -2.50    7.20
   3  -1  -8   11.20   11.30
   3  -1  -8   -1.00    8.70
  -3   1   8   -6.70    5.00
   3   1  -8  -12.80   11.80
   3   1  -8   -1.60    9.10
  -3   1   8   10.10    8.00
  -2  -1   8   42.90    8.60
   2  -1  -8   58.29   12.60
   2  -1  -8   32.90    8.90
   2   1  -8   53.59   12.10
  -2   1   8   34.70    9.80
  -2   1   8   41.10    7.10
   2   1  -8   43.70   10.00
  -2   1   8   42.50    8.80
   1  -1  -8  270.37   17.70
   1  -1  -8  264.17   15.20
  -1  -1   8  248.38   13.90
  -1  -1   8  257.87   16.50
   1   1  -8  256.97   17.00
  -1   1   8  266.47   14.30
  -1   1   8  263.67   12.60
   1   1  -8  289.67   17.00
  -1   1   8  252.87   16.70
   0  -1   8   67.19   10.10
   0  -1  -8   66.99   12.30
   0  -1   8   57.39    8.60
   0   1   8   72.59    9.60
   0   1  -8   78.29   11.70
   0   1   8   46.10   10.40
   0   1   8   73.49    9.30
   0   1  -8   34.60    8.30
   1  -1   8   -0.20    9.20
   1  -1   8   11.70    8.70
   1   1   8   13.30    9.20
   1   1   8   21.20    8.50
   1   1   8   20.00   10.00
   2  -1   8  246.78   15.40
   2  -1   8  282.97   16.80
   2   1   8  273.97   15.70
   2   1   8  261.47   18.40
   2   1   8  270.87   15.60
   3  -1   8   -8.20   10.60
   3  -1   8    7.80    9.40
   3   1   8    9.30    9.50
   3   1   8    9.20   10.90
   3   1   8   -0.70   10.70
   4  -1   8  119.59   15.60
   4  -1   8  141.59   16.80
   4   1   8  122.19   14.50
   4   1   8  123.09   15.40
   4   1   8  110.69   16.30
   6  -2  -8  375.36   27.90
   6   2  -8  344.17   27.60
   5  -2  -8   70.39   15.40
   5  -2  -8   41.70   12.50
   5   2  -8   25.50   12.40
   5   2  -8   55.39   14.30
   4  -2  -8   22.80   10.80
   4  -2  -8   38.70   13.10
  -4  -2   8   40.70    7.60
   4   2  -8   33.40   13.20
  -4   2   8   35.90    9.10
   4   2  -8   11.70   10.80
   3  -2  -8  122.29   15.10
   3  -2  -8  100.09   16.60
  -3  -2   8  129.09   11.50
   3   2  -8  116.09   18.10
  -3   2   8  131.19   12.70
   3   2  -8  117.19   16.50
  -3   2   8  126.89    8.40
   2  -2  -8    8.50    8.30
   2  -2  -8   -0.60   12.00
  -2  -2   8    6.20    7.90
   2   2  -8   -1.70   11.30
  -2   2   8   11.90    6.60
  -2   2   8    0.90    9.40
  -2   2   8   -1.90    8.20
   2   2  -8    3.60    9.20
   1  -2  -8   97.99   16.50
  -1  -2   8  102.79   12.50
   1  -2  -8  107.79   13.10
   1   2  -8   77.49   14.60
  -1   2   8  122.49   12.80
  -1   2   8   93.99   10.90
  -1   2   8   79.39   14.80
   1   2  -8   71.39   10.20
   0  -2   8 1190.38   28.40
   0  -2  -8 1222.08   30.80
   0  -2   8 1155.98   27.10
   0   2   8 1158.68   26.60
   0   2   8 1191.78   30.40
   0   2  -8 1173.28   29.40
   0   2   8 1211.08   27.70
   0   2  -8 1188.48   27.90
   1  -2   8    6.10    8.50
   1  -2   8    3.40    8.60
   1   2   8    1.70   10.00
   1   2   8  -12.90    8.10
   1   2   8   10.10    9.20
   2  -2   8  272.87   15.40
   2  -2   8  230.08   15.30
   2   2   8  227.58   15.40
   2   2   8  248.78   18.50
   2   2   8  219.88   15.20
   3  -2   8   -8.50    9.40
   3   2   8    4.70   11.10
   3   2   8   -7.00   10.70
   3   2   8    3.90    9.70
   4  -2   8  124.29   16.30
   4  -2   8  137.29   15.90
   4   2   8  125.69   16.50
   4   2   8  116.09   15.20
   6  -3  -8    4.40   13.50
   6   3  -8    1.50   13.80
   5  -3  -8   86.59   13.90
   5  -3  -8  160.48   20.10
   5   3  -8  149.19   19.70
   5   3  -8   88.29   14.40
   4  -3  -8   14.30   10.50
   4  -3  -8   36.90   13.50
  -4  -3   8   16.90    7.20
  -4   3   8   26.00    9.20
   4   3  -8   47.00   14.70
   4   3  -8    3.80   11.30
   3  -3  -8   85.19   15.10
   3  -3  -8   95.99   16.70
  -3  -3   8   97.59   11.00
  -3   3   8   95.49    8.20
  -3   3   8   79.69   12.50
   3   3  -8   92.89   18.50
   3   3  -8   95.99   16.80
   2  -3  -8  298.87   17.20
   2  -3  -8  312.47   19.70
  -2  -3   8  298.17   14.20
  -2   3   8  306.27   15.20
  -2   3   8  304.17   12.10
   2   3  -8  304.97   18.20
   2   3  -8  297.97   20.40
  -2   3   8  299.27   18.20
  -1  -3   8  266.47   14.20
   1  -3  -8  275.47   18.80
   1  -3  -8  274.77   14.00
   1   3  -8  257.77   19.30
  -1   3   8  264.87   14.10
  -1   3   8  235.08   17.50
   1   3  -8  284.07   17.10
  -1   3   8  275.37   13.50
   0  -3  -8   72.39   13.70
   0  -3   8   71.19    9.90
   0   3   8   57.19   11.10
   0   3  -8   49.10   10.00
   0   3   8   72.89   10.40
   0   3   8   71.99   12.00
   0   3  -8   66.59   13.00
   1  -3   8  436.06   17.00
   1  -3   8  440.36   16.90
   1   3   8  425.16   17.30
   1   3   8  436.36   21.20
   1   3   8  421.36   16.70
   2  -3   8  376.66   15.70
   2  -3   8  350.86   16.90
   2   3   8  341.27   16.70
   2   3   8  346.07   21.00
   2   3   8  326.27   17.20
   3  -3   8   11.20    9.80
   3   3   8   35.00   11.10
   3   3   8   31.80   12.10
   3   3   8    6.50    9.80
   4  -3   8   35.00   12.70
   4  -3   8   39.90   11.60
   4   3   8   48.30   10.70
   4   3   8   38.20   12.20
   4   3   8   24.00   13.40
   5  -4  -8   84.29   15.80
   5  -4  -8   56.59   12.80
   5   4  -8  113.19   19.30
   5   4  -8   63.59   13.70
   5   4  -8   89.09   13.10
   4  -4  -8   42.00   10.90
   4  -4  -8   76.49   14.80
   4   4  -8   28.90    8.70
   4   4  -8   43.40   14.50
   4   4  -8   27.50   12.00
  -3  -4   8 1342.97   28.50
   3  -4  -8 1343.07   35.40
   3  -4  -8 1371.86   34.30
   3   4  -8 1337.87   36.50
   3   4  -8 1388.86   35.40
  -3   4   8 1366.36   34.10
  -3   4   8 1312.77   26.40
  -3   4   8 1391.76   30.80
   2  -4  -8   43.60    8.60
  -2  -4   8   69.09    9.10
   2  -4  -8   64.29   12.40
  -2   4   8   50.69   10.60
   2   4  -8   55.99   11.80
  -2   4   8   64.39    8.20
   2   4  -8   46.90   11.00
  -2   4   8   81.19   12.90
   1  -4  -8   35.00   13.00
  -1  -4   8   37.30    8.80
   1  -4  -8   39.50    7.10
  -1   4   8   32.70   10.60
   1   4  -8   44.60   10.90
  -1   4   8   55.09    8.90
   1   4  -8   44.90   11.20
  -1   4   8   48.10    8.90
   0  -4   8   20.80    9.00
   0  -4  -8   14.10   12.30
   0   4  -8   33.40    9.50
   0   4   8   33.20    9.00
   0   4   8   38.30    9.50
   0   4   8    8.20   10.50
   0   4  -8   18.20    9.90
   1  -4   8   59.09    9.20
   1   4   8   50.69   11.60
   1   4   8   70.19   10.30
   1   4   8   57.29    9.90
   2  -4   8  113.19   14.40
   2   4   8  112.59   14.30
   2   4   8  102.49   13.90
   2   4   8  102.69   18.20
   3  -4   8   -4.60    9.80
   3   4   8    5.00   12.20
   3   4   8    6.10    9.70
   3   4   8   10.60    9.50
   3   4   8   -6.60   10.50
   4  -4   8   39.00   11.70
   4   4   8   39.70   11.00
   4   4   8   26.30   14.40
   5  -5  -8  340.77   25.10
   5  -5  -8  316.87   23.00
   5   5  -8  290.67   16.90
   5   5  -8  281.97   25.60
   5   5  -8  367.06   24.20
   4  -5  -8   -4.80   12.90
   4  -5  -8  -12.90    9.90
   4   5  -8   -9.50   11.30
   4   5  -8    0.60    8.90
   4   5  -8   13.20   13.90
   3  -5  -8    7.70    9.00
  -3  -5   8   26.20    7.50
   3  -5  -8   15.90   12.70
   3   5  -8   23.80   10.80
  -3   5   8   20.70    9.60
   3   5  -8   30.20    8.90
  -3   5   8   33.70    6.60
   3   5  -8   25.20   12.60
  -3   5   8   29.60   10.50
  -2  -5   8   34.50    8.20
   2  -5  -8   30.70   11.50
   2  -5  -8   20.30    7.90
   2   5  -8   17.10   10.40
  -2   5   8   27.30    7.50
   2   5  -8   30.40   11.50
  -2   5   8   24.40    9.30
  -2   5   8   36.80   10.20
  -1  -5   8  513.35   17.60
   1  -5  -8  505.05   22.60
   1   5  -8  502.55   23.80
   1   5  -8  497.25   19.40
  -1   5   8  537.65   21.60
  -1   5   8  502.15   17.40
  -1   5   8  534.05   16.90
   0  -5   8  136.39   13.50
   0   5  -8  130.19   12.40
   0   5   8  117.09   12.90
   0   5   8  120.79   17.30
   0   5   8  121.09   14.10
   0   5  -8  121.79   18.80
   1  -5   8  364.16   15.60
   1   5   8  369.06   20.70
   1   5   8  370.36   16.60
   1   5   8  383.26   17.00
   2  -5   8   21.70   10.30
   2   5   8   22.50   12.40
   2   5   8   12.60    9.60
   2   5   8   17.00   10.00
   3  -5   8   -6.70    9.90
   3   5   8  -10.10   12.70
   3   5   8   -9.00    9.70
   3   5   8   15.40   11.80
   3   5   8    9.00    9.70
   4   5   8  -12.30   13.90
   5  -6  -8  196.68   23.80
   5  -6  -8  190.88   21.40
   5   6  -8  162.68   23.70
   5   6  -8  179.78   15.90
   4  -6  -8   -2.80   13.10
   4  -6  -8   -6.90   10.50
   4   6  -8    8.00   14.10
   4   6  -8   12.50    9.40
   4   6  -8  -18.40   11.40
   3  -6  -8  301.57   21.10
  -3  -6   8  283.47   13.30
   3  -6  -8  299.87   19.80
   3   6  -8  277.97   22.60
  -3   6   8  282.17   11.70
   3   6  -8  285.97   20.00
   3   6  -8  291.47   15.90
  -3   6   8  290.17   19.90
  -3   6   8  267.37   16.50
  -2  -6   8    4.20    7.80
   2  -6  -8    6.40   11.00
   2  -6  -8   -2.50    7.70
   2   6  -8    2.50   10.20
   2   6  -8    9.30   11.10
   2   6  -8    1.70    8.00
  -2   6   8   13.60    9.30
  -2   6   8    5.30   10.00
  -2   6   8   13.80    7.50
   1  -6  -8 1193.98   32.50
  -1  -6   8 1206.78   27.50
  -1   6   8 1152.98   31.50
  -1   6   8 1167.18   27.60
   1   6  -8 1165.88   28.30
  -1   6   8 1163.68   26.70
   1   6  -8 1148.79   33.40
   0  -6   8   13.60    9.30
   0   6   8   -1.30    8.90
   0   6  -8   18.20    8.30
   0   6  -8   10.00   10.70
   0   6   8   16.70    9.20
   0   6   8   16.70   10.90
   1  -6   8   23.30    8.90
   1   6   8   22.30   12.10
   1   6   8   27.60    9.90
   1   6   8   18.70   10.40
   2  -6   8    3.60   10.60
   2   6   8  -12.80   11.70
   2   6   8    3.30    9.60
   2   6   8  -13.90    9.10
   2   6   8   -2.10    9.50
   3  -6   8   25.60   11.50
   3   6   8   12.20   13.60
   3   6   8   -3.30   10.00
   3   6   8   22.40   10.30
   3   6   8   22.10   11.80
   5  -7  -8  205.38   25.50
   5  -7  -8  190.08   22.20
   5   7  -8  225.58   16.80
   5   7  -8  200.28   25.50
   4  -7  -8   71.89   15.40
   4  -7  -8   60.99   12.40
   4   7  -8   60.39   14.20
   4   7  -8   61.49   15.30
   4   7  -8   58.19   10.70
   3  -7  -8    7.30    9.50
   3  -7  -8   -0.40   13.30
  -3  -7   8    5.80    7.80
   3   7  -8   -0.40    9.10
  -3   7   8    2.00   10.80
   3   7  -8  -20.20   11.20
   3   7  -8    3.80   12.60
  -3   7   8    5.20    7.00
  -2  -7   8  373.46   15.40
   2  -7  -8  345.07   17.70
   2  -7  -8  364.86   21.90
   2   7  -8  344.17   15.60
   2   7  -8  335.17   23.70
   2   7  -8  371.26   19.20
  -2   7   8  373.36   14.70
  -2   7   8  344.07   17.50
  -2   7   8  357.06   20.60
  -1  -7   8  242.48   14.80
   1  -7  -8  238.98   18.00
  -1   7   8  227.38   13.60
  -1   7   8  220.88   19.20
  -1   7   8  239.68   15.20
   1   7  -8  227.98   21.50
   1   7  -8  239.38   15.10
   0  -7   8   47.70   10.10
   0   7  -8   43.20   11.90
   0   7   8   61.59   10.60
   0   7   8   22.00   11.60
   0   7   8   41.20   10.10
   1  -7   8  259.87   16.00
   1   7   8  261.87   16.80
   1   7   8  243.28   15.80
   1   7   8  250.27   14.50
   1   7   8  260.27   21.40
   2  -7   8   60.29   12.00
   2   7   8   28.90   13.10
   2   7   8   43.60   10.70
   2   7   8   51.39   10.80
   2   7   8   55.39   10.70
   3  -7   8   19.70   12.10
   3   7   8   26.60   10.90
   3   7   8   36.50   16.00
   3   7   8   -4.80   14.00
   5  -8  -8   19.80   13.60
   5   8  -8   18.30   14.80
   4  -8  -8   67.19   13.30
   4  -8  -8  103.79   16.80
   4   8  -8   80.49   14.80
   4   8  -8   86.49   11.60
   4   8  -8  106.89   20.50
  -3  -8   8  547.55   17.10
   3  -8  -8  516.15   25.10
   3  -8  -8  528.05   24.10
  -3   8   8  553.14   23.60
   3   8  -8  559.04   23.90
  -3   8   8  527.35   16.00
   3   8  -8  487.05   19.40
   3   8  -8  514.95   26.60
   2  -8  -8   -5.10    8.00
  -2  -8   8    8.80    8.60
   2  -8  -8   11.50   13.90
   2   8  -8    1.50   11.40
   2   8  -8    5.70    8.10
   2   8  -8   23.70   12.10
  -2   8   8    3.40   11.00
  -2   8   8  -10.10    8.80
  -2   8   8    8.20    8.30
  -1  -8   8   58.59   10.40
  -1   8   8   45.60    8.60
  -1   8   8   28.00   10.50
  -1   8   8   53.19   10.20
   1   8  -8   62.59   11.00
  -1   8   8   60.19   12.50
   1   8  -8   56.29   12.70
   1   8  -8   43.40    9.70
   0  -8   8    3.10   10.00
   0   8   8   13.00   10.10
   0   8   8   11.20   12.00
   0   8   8   -0.80    9.40
   0   8  -8   13.70   12.10
   0   8   8   12.00    8.70
   1  -8   8    6.40    9.90
   1   8   8   -7.80    9.00
   1   8   8   11.30    9.70
   1   8   8    9.10   10.40
   1   8   8   -1.10   12.50
   2  -8   8  134.39   15.80
   2   8   8  160.88   14.70
   2   8   8  122.49   14.90
   2   8   8  125.09   21.40
   2   8   8  154.88   15.50
   3   8   8   14.00   14.70
   4  -9  -8  -13.40   14.20
   4  -9  -8    2.00   11.90
   4   9  -8    3.10   10.20
   4   9  -8   -3.70   13.40
   4   9  -8   29.00   15.20
   3  -9  -8    8.70   14.00
   3  -9  -8    6.20   10.30
   3   9  -8   16.80   10.00
   3   9  -8    1.20   12.50
  -3   9   8   10.80   11.10
   3   9  -8  -11.50   12.40
   2  -9  -8   -4.00    8.90
   2  -9  -8    4.00   14.00
  -2  -9   8    8.60    8.70
  -2   9   8   13.20   11.80
   2   9  -8   11.20    8.90
  -2   9   8   -2.00    7.30
  -2   9   8   -9.40    8.40
   2   9  -8   25.00   11.80
   2   9  -8   11.00   11.80
  -1  -9   8   -3.70    9.40
  -1   9   8    1.10   11.80
   1   9  -8   11.00    9.50
  -1   9   8    0.90    9.30
  -1   9   8   24.60   10.00
  -1   9   8    1.60    8.10
   1   9  -8   21.30   10.10
   1   9  -8    6.70   11.90
   0  -9   8   -8.60    9.60
   0   9   8    7.30   10.40
   0   9  -8   13.80   12.60
   0   9   8    7.50   10.00
   0   9   8    9.70    9.00
   0   9   8    4.70   12.40
   1  -9   8  160.08   16.40
   1   9   8  161.58   16.20
   1   9   8  195.98   15.90
   1   9   8  150.48   15.50
   1   9   8  124.29   20.70
   2  -9   8  268.57   17.40
   2   9   8  236.88   23.50
   2   9   8  222.98   16.50
   2   9   8  238.18   17.10
   2   9   8  232.28   16.70
   3   9   8    5.90   15.30
   4 -10  -8    5.70   12.50
   4 -10  -8   26.30   19.40
   4  10  -8   -7.80   14.10
   3 -10  -8   14.80   10.50
   3 -10  -8   35.40   15.40
   3  10  -8   18.20   13.50
   3  10  -8    9.20   10.00
   3  10  -8   36.70   14.40
  -3  10   8   20.60   12.10
  -2 -10   8    5.20    8.80
  -2  10   8    0.30   11.70
  -2  10   8    5.40    7.90
   2  10  -8   15.20   11.40
   2  10  -8   -4.50   12.60
  -2  10   8    7.30    9.30
   2  10  -8    5.40    9.10
  -1 -10   8   30.70   10.40
  -1  10   8   19.00    8.60
   1  10  -8   25.20   13.20
  -1  10   8   13.70   12.20
  -1  10   8   17.60   10.10
   1  10  -8   28.40   10.30
   0 -10   8  101.89   15.40
   0  10   8  117.19   14.50
   0  10   8  120.09   20.40
   0  10   8  129.69   15.40
   0  10   8  133.69   15.50
   1 -10   8   52.09   12.30
   1  10   8   39.40   14.70
   1  10   8   45.80   12.50
   1  10   8   57.09   11.20
   1  10   8   33.10   10.60
   2  10   8  195.38   16.70
   2  10   8  189.58   23.40
   3  11  -8   16.00   14.10
   3  11  -8   70.99   15.80
  -3  11   8   20.80   12.30
  -2 -11   8   24.20   10.00
   2  11  -8   -2.10    9.70
   2  11  -8   17.70   12.40
  -2  11   8    0.90    8.10
  -2  11   8   -0.40   12.40
  -2  11   8  -10.60    9.90
   2  11  -8   18.80   13.60
  -1 -11   8   15.00   10.00
  -1  11   8   10.60   10.50
   1  11  -8   -3.90   10.30
  -1  11   8   -0.50   12.60
   1  11  -8   13.80   13.40
  -1  11   8   10.70    8.80
   0 -11   8   22.30   11.30
   0  11   8   22.10   11.60
   0  11   8    6.00    9.50
   0  11   8   -1.60   13.50
   1  11   8    0.80   13.80
   2  11   8  330.17   26.80
  -3  12   8   71.99   14.30
   3  12  -8   74.49   16.70
   3  12  -8  115.09   21.80
  -2 -12   8   26.50   10.60
   2  12  -8   26.70   15.20
  -2  12   8   33.80   10.20
  -2  12   8   21.20   11.50
  -2  12   8   20.40   13.40
  -1 -12   8    6.10   10.40
  -1  12   8   13.40    9.70
  -1  12   8   21.70   11.80
   1  12  -8   36.30   15.00
  -1  12   8    3.40   12.90
   0 -12   8    2.90   13.50
   0  12   8    9.60   10.80
   0  12   8  -18.90   13.40
   1  12   8  -14.70   14.70
  -1 -13   8  145.29   17.30
   1  13  -8  136.99   27.60
  -1  13   8   93.19   16.10
  -1  13   8  135.59   16.40
   5   0  -9   75.79   13.90
   5   0  -9  130.89   20.20
   4   0  -9   -3.30   10.40
   4   0  -9   -6.40   11.70
  -4   0   9   -3.90    8.40
   3   0  -9 2655.93   56.19
  -3   0   9 2633.54   48.10
   3   0  -9 2738.93   56.39
  -3   0   9 2659.73   50.69
  -2   0   9    0.00    8.50
   2   0  -9    1.60   12.10
   2   0  -9    0.40    9.00
   1   0  -9   68.29   13.30
  -1   0   9   79.29   10.20
   1   0  -9   59.39    9.60
  -1   0   9   68.99   11.30
   0   0   9    2.10    7.50
   0   0  -9  -12.20   10.90
   0   0   9   -3.60    9.40
   0   0  -9   21.50    7.20
   1   0   9    9.60    9.50
   1   0   9   12.30   10.10
   1   0   9   26.40    9.50
   2   0   9   -4.80    9.90
   2   0   9    1.30    9.90
   2   0   9    8.10   10.70
   3   0   9   39.70   12.30
   3   0   9   52.89   11.20
   5  -1  -9    3.60   12.10
   5  -1  -9    0.10   14.50
   5   1  -9   26.20   14.30
   5   1  -9   -2.30   11.80
   4  -1  -9  151.38   20.30
  -4  -1   9  181.98   13.10
   4  -1  -9  167.38   17.80
  -4   1   9  185.18   14.00
   4   1  -9  124.89   20.10
   4   1  -9  156.58   20.20
  -3  -1   9  123.29   12.80
   3  -1  -9  133.89   17.90
   3  -1  -9  122.89   18.40
   3   1  -9  112.69   18.70
  -3   1   9  154.28    9.50
   3   1  -9  163.68   18.50
  -3   1   9  153.18   13.40
  -2  -1   9   74.99    9.80
   2  -1  -9   57.49    9.80
   2  -1  -9   75.79   13.70
  -2   1   9   74.19    9.80
  -2   1   9   90.39   10.00
  -2   1   9   95.39   16.10
   2   1  -9   80.59   13.40
   2   1  -9   51.09   10.40
  -1  -1   9   89.99   15.50
   1  -1  -9   53.19    8.90
   1  -1  -9   79.89   13.60
  -1  -1   9   88.89   13.00
  -1   1   9   65.39   11.10
   1   1  -9   59.89    9.80
  -1   1   9   70.49   11.30
   1   1  -9   78.19   16.10
  -1   1   9   69.69   10.10
   0  -1   9  100.09   15.60
   0  -1   9  104.39   11.80
   0  -1  -9  109.89   16.40
   0   1  -9  120.89   14.30
   0   1   9  103.39   12.40
   0   1   9  100.79   12.60
   0   1   9   93.89   16.20
   0   1  -9  100.69   15.00
   1  -1   9   17.30    9.80
   1  -1   9    5.70    9.60
   1   1   9   17.20    9.20
   1   1   9   17.60   10.90
   1   1   9   28.60    9.80
   2  -1   9  100.09   14.50
   2  -1   9   43.60   10.20
   2   1   9   56.59   10.80
   2   1   9   59.59   11.40
   2   1   9   56.09   12.00
   3  -1   9  210.48   17.30
   3  -1   9  203.18   16.90
   3   1   9  208.98   16.30
   3   1   9  210.58   17.20
   3   1   9  192.98   19.60
   5  -2  -9  553.74   27.80
   5  -2  -9  527.75   26.80
   5   2  -9  569.64   25.90
   5   2  -9  526.35   28.10
   4  -2  -9   -5.70   12.10
   4  -2  -9    0.30   10.40
  -4  -2   9   -4.00    7.70
  -4   2   9   -6.60    8.90
   4   2  -9   -1.30   13.40
   4   2  -9  -13.90   11.00
   3  -2  -9  363.06   20.60
   3  -2  -9  327.07   20.50
  -3  -2   9  334.27   15.10
  -3   2   9  337.17   15.90
   3   2  -9  343.87   22.30
   3   2  -9  324.57   21.40
  -3   2   9  334.47   11.80
   2  -2  -9   56.79   13.50
   2  -2  -9   30.80    9.00
  -2  -2   9   66.29    9.40
  -2   2   9   43.70    9.50
  -2   2   9   43.60    7.70
  -2   2   9   43.90   10.70
   2   2  -9   41.20   10.50
   2   2  -9   44.10   12.50
  -1  -2   9    3.10    8.70
   1  -2  -9    7.20    7.50
   1  -2  -9  -15.60   11.70
  -1   2   9    1.50    8.10
  -1   2   9   -3.00    9.80
  -1   2   9    3.00    9.10
   1   2  -9    7.00   11.50
   1   2  -9    2.30    9.20
   0  -2   9  186.98   13.70
   0  -2   9  191.28   15.80
   0  -2  -9  218.68   18.30
   0   2   9  201.38   14.50
   0   2   9  203.38   17.50
   0   2   9  203.98   13.90
   0   2  -9  189.38   15.50
   0   2  -9  214.28   16.70
   1  -2   9    3.90    9.10
   1  -2   9   -7.60    9.10
   1   2   9    6.70    9.60
   1   2   9    5.40   10.90
   1   2   9    1.80    9.50
   2  -2   9   14.80    9.80
   2  -2   9    0.60    9.40
   2   2   9   10.30   11.90
   2   2   9   39.10   10.60
   2   2   9    5.20   10.10
   3  -2   9   10.40   10.60
   3  -2   9   -3.10   11.40
   3   2   9   24.10   12.10
   3   2   9   12.70   12.40
   3   2   9   -2.10   10.50
   5  -3  -9  118.59   22.00
   5  -3  -9  149.59   21.20
   5   3  -9   96.29   15.40
   5   3  -9  150.98   20.80
   4  -3  -9    0.20   13.00
   4  -3  -9   -1.60   10.40
  -4  -3   9    1.00    7.90
  -4   3   9   18.90    9.60
   4   3  -9   -0.80   11.50
   4   3  -9    6.70   13.30
   3  -3  -9  239.98   18.50
  -3  -3   9  249.08   13.80
   3  -3  -9  229.28   19.30
   3   3  -9  249.08   21.20
   3   3  -9  258.07   19.90
  -3   3   9  234.58   15.40
  -3   3   9  249.28   10.90
  -2  -3   9  360.56   15.60
   2  -3  -9  339.17   20.90
   2  -3  -9  340.77   17.90
  -2   3   9  362.96   13.50
   2   3  -9  370.66   22.10
  -2   3   9  357.96   16.50
   2   3  -9  370.76   19.60
  -2   3   9  360.76   19.50
   1  -3  -9   45.70   12.90
  -1  -3   9   42.00    9.50
   1  -3  -9   39.40    7.50
   1   3  -9   53.29   10.70
  -1   3   9   34.40   10.70
   1   3  -9   57.09   11.80
  -1   3   9   51.49    9.20
  -1   3   9   50.09    9.30
   0  -3  -9  185.38   18.80
   0  -3   9  194.68   14.20
   0   3  -9  193.78   17.90
   0   3   9  168.38   13.70
   0   3   9  168.58   18.10
   0   3   9  181.68   15.10
   0   3  -9  168.78   14.60
   1  -3   9   10.60    8.50
   1  -3   9    3.70    8.90
   1   3   9   13.60    9.70
   1   3   9   -2.70   11.20
   1   3   9   -8.20    9.90
   2  -3   9  546.15   20.60
   2   3   9  514.35   20.10
   2   3   9  530.85   24.70
   2   3   9  561.04   20.20
   3  -3   9  100.89   15.90
   3   3   9  107.49   20.00
   3   3   9  112.59   16.30
   3   3   9  122.19   15.50
   5  -4  -9   21.90   12.90
   5  -4  -9   47.90   16.00
   5   4  -9   13.90   13.50
   5   4  -9   54.99   21.70
   4  -4  -9  231.98   21.20
   4  -4  -9  210.88   21.50
   4   4  -9  227.58   23.10
   4   4  -9  255.37   21.80
  -4   4   9  237.68   15.90
   3  -4  -9  251.47   19.10
  -3  -4   9  257.37   13.90
   3  -4  -9  215.08   18.70
  -3   4   9  225.88   11.10
   3   4  -9  220.98   21.50
  -3   4   9  243.68   19.60
  -3   4   9  235.18   15.80
   3   4  -9  259.87   20.00
  -2  -4   9  192.78   13.70
   2  -4  -9  189.68   19.00
   2  -4  -9  167.18   15.60
   2   4  -9  147.09   19.90
   2   4  -9  180.38   18.00
  -2   4   9  182.18   14.70
  -2   4   9  170.48   11.90
  -2   4   9  190.78   17.90
   1  -4  -9   27.00   13.00
  -1  -4   9   13.20    9.00
  -1   4   9   22.20    8.60
  -1   4   9   24.10    8.80
   1   4  -9    8.60   10.40
  -1   4   9   10.50   10.60
   1   4  -9   16.90   10.90
   0  -4   9  224.48   15.30
   0   4  -9  228.18   14.70
   0   4   9  209.08   19.40
   0   4   9  255.57   14.80
   0   4  -9  256.57   19.80
   0   4   9  211.48   15.60
   1  -4   9    9.00    8.70
   1   4   9   -1.00    9.70
   1   4   9   21.00   11.90
   1   4   9   -0.90    9.70
   2  -4   9   13.90   10.30
   2   4   9   16.70   12.50
   2   4   9    4.00    9.80
   2   4   9   -2.60   10.00
   3  -4   9   12.20   11.10
   3   4   9   40.80   12.20
   3   4   9    9.00   10.20
   3   4   9   -0.70   13.40
   3   4   9   15.40   10.80
   5  -5  -9    6.00   12.50
   5   5  -9  -19.40   12.80
   4  -5  -9   32.00   14.70
   4  -5  -9   24.20   11.20
   4   5  -9   23.80   12.70
   4   5  -9   42.70   15.50
   3  -5  -9   -7.30   12.60
  -3  -5   9   -7.80    7.80
   3  -5  -9  -14.60    9.10
  -3   5   9   -8.00    9.70
  -3   5   9    9.80    7.00
   3   5  -9   22.90   13.40
  -3   5   9    7.70   11.10
   3   5  -9   -4.80   11.40
   2  -5  -9   42.60   12.70
   2  -5  -9   21.00    8.40
  -2  -5   9   32.40    9.20
  -2   5   9   19.80    9.60
  -2   5   9   37.70   11.60
   2   5  -9   58.39   12.60
  -2   5   9   39.50    8.40
   2   5  -9    6.60   10.80
  -1  -5   9   40.40    9.50
   1  -5  -9   31.10   13.40
   1   5  -9   51.39   11.40
  -1   5   9   36.80    9.30
  -1   5   9   33.40    8.90
   1   5  -9   27.90   11.00
  -1   5   9   28.70   11.30
   0  -5   9  207.28   15.50
   0   5   9  201.98   14.70
   0   5  -9  190.18   14.00
   0   5  -9  218.58   21.20
   0   5   9  196.88   15.90
   0   5   9  209.38   19.70
   1  -5   9   54.29    9.60
   1   5   9   54.29   10.80
   1   5   9   48.60   11.40
   1   5   9   40.40   13.20
   2  -5   9  626.84   22.00
   2   5   9  619.94   21.40
   2   5   9  589.84   26.40
   2   5   9  589.74   21.40
   3  -5   9   10.90   11.50
   3   5   9   14.80   10.90
   3   5   9    8.20   13.90
   3   5   9   24.20   11.00
   5  -6  -9   16.60   12.60
   5   6  -9   14.40   14.30
   5   6  -9   26.80   10.50
   4  -6  -9   -6.50   10.40
   4  -6  -9   -4.90   14.10
   4   6  -9    2.50    9.40
   4   6  -9   19.40   14.30
   4   6  -9  -12.70   12.30
  -3  -6   9   -2.20    8.10
   3  -6  -9    1.30    9.40
   3  -6  -9  -16.40   13.40
  -3   6   9    2.90   11.50
  -3   6   9    0.00    9.80
   3   6  -9   10.20   13.60
   3   6  -9   -3.60   11.60
   2  -6  -9  460.95   22.60
  -2  -6   9  476.75   17.80
   2  -6  -9  468.25   19.60
   2   6  -9  459.65   25.40
  -2   6   9  489.45   19.40
   2   6  -9  484.35   21.30
  -2   6   9  472.95   16.20
  -2   6   9  468.55   23.20
  -1  -6   9   -5.10    9.00
   1  -6  -9    9.20   13.90
  -1   6   9   -7.10    8.60
  -1   6   9   -4.60    8.40
   1   6  -9   10.70   10.60
  -1   6   9  -12.10   10.30
   1   6  -9    7.80   11.20
   0  -6   9  400.46   18.20
   0   6  -9  476.35   25.00
   0   6   9  385.76   22.80
   0   6   9  395.46   18.50
   0   6   9  391.36   17.70
   1  -6   9   -5.00    9.10
   1   6   9   -7.70   12.00
   1   6   9    5.60   10.30
   1   6   9  -10.00   10.20
   2  -6   9   17.40   11.30
   2   6   9   22.60   10.80
   2   6   9    3.40    9.70
   2   6   9    0.10   13.30
   2   6   9   -4.00   10.40
   3   6   9   35.60   11.30
   3   6   9   16.80   14.70
   5  -7  -9   -1.70   12.60
   5   7  -9    2.50   14.50
   4  -7  -9  134.59   21.40
   4  -7  -9  108.39   21.20
   4   7  -9  140.89   21.70
   4   7  -9  118.09   16.10
   4   7  -9   96.19   15.50
   3  -7  -9   23.00   14.50
  -3  -7   9   15.70    8.80
   3  -7  -9   -4.30    9.60
   3   7  -9   -0.30   11.70
  -3   7   9   13.20   10.30
  -3   7   9   22.00   11.70
   3   7  -9   13.60   13.10
   3   7  -9   -1.90    9.40
   2  -7  -9   -0.50   12.30
   2  -7  -9   -5.30    9.20
  -2  -7   9   -0.90    9.10
  -2   7   9    9.30   11.40
   2   7  -9   10.30   12.10
  -2   7   9    0.30    9.90
   2   7  -9    1.10   11.90
  -2   7   9    5.40    8.70
  -1  -7   9   11.80    9.60
   1  -7  -9   15.70   13.20
   1   7  -9   15.20   10.90
  -1   7   9    0.40   11.70
   1   7  -9    8.60   11.60
  -1   7   9    0.20    9.20
  -1   7   9   -1.90    9.00
   0  -7   9   46.80   11.00
   0   7   9   38.50   10.70
   0   7  -9   50.19   13.20
   0   7   9   50.89   11.00
   0   7   9   21.80   12.30
   1  -7   9   17.00    9.90
   1   7   9    3.70   11.30
   1   7   9   -0.90   12.20
   1   7   9   14.70    8.90
   1   7   9    3.10   10.40
   2  -7   9  355.36   19.60
   2   7   9  332.17   19.00
   2   7   9  348.07   18.60
   2   7   9  306.07   18.30
   2   7   9  305.77   24.80
   3   7   9   -8.10   14.40
   4  -8  -9  118.09   18.30
   4  -8  -9   55.49   13.20
   4   8  -9   57.89   15.00
   4   8  -9  137.39   21.90
   4   8  -9   81.39   12.50
  -3  -8   9  268.97   15.30
   3  -8  -9  227.88   22.50
   3  -8  -9  211.38   19.80
   3   8  -9  238.18   24.20
  -3   8   9  243.08   21.30
   3   8  -9  227.68   17.00
   3   8  -9  268.37   20.90
  -2  -8   9  309.87   16.60
   2  -8  -9  298.97   22.70
   2   8  -9  300.37   24.40
  -2   8   9  308.67   15.30
   2   8  -9  333.77   16.00
   2   8  -9  328.37   19.90
  -2   8   9  302.77   21.80
  -2   8   9  333.77   17.70
  -1  -8   9   31.30   10.10
  -1   8   9   38.40   11.10
  -1   8   9   44.30   12.90
   1   8  -9   46.20   13.10
   1   8  -9   48.50   12.70
  -1   8   9   55.19   10.80
   0  -8   9   40.60   11.40
   0   8   9   35.20   10.80
   0   8   9   21.70   10.30
   0   8  -9   41.00   13.60
   0   8   9   29.20   12.90
   0   8   9   37.40   10.00
   1  -8   9    1.70   10.90
   1   8   9   17.20   11.60
   1   8   9   -3.40   10.10
   1   8   9   -7.10   12.90
   1   8   9    0.20    9.60
   2   8   9    4.30   10.70
   2   8   9    4.40   14.50
   4  -9  -9    5.30   12.20
   4   9  -9   10.20   14.00
   3  -9  -9   40.00   15.40
   3   9  -9   38.60   14.80
   3   9  -9   23.70   13.90
  -3   9   9   35.10   12.70
   3   9  -9   19.90   10.70
  -2  -9   9   24.10    9.80
   2  -9  -9   58.99   15.80
  -2   9   9   32.90    8.60
  -2   9   9   27.70    9.60
   2   9  -9   35.20   13.30
  -2   9   9   48.50   11.00
   2   9  -9   30.50   12.70
  -2   9   9   20.40   12.40
   2   9  -9   32.40    9.60
  -1  -9   9  255.37   17.00
  -1   9   9  225.78   17.70
   1   9  -9  260.77   25.20
  -1   9   9  231.68   21.90
  -1   9   9  244.18   16.20
  -1   9   9  256.87   15.30
   0  -9   9   39.20   11.70
   0   9   9    1.10   11.00
   0   9   9   35.20   10.00
   0   9   9    8.10   10.40
   0   9   9   17.20   13.10
   1  -9   9   37.70   12.40
   1   9   9   49.10   12.40
   1   9   9   38.90   11.60
   1   9   9   28.10   14.10
   1   9   9   38.20   11.00
   2   9   9  118.19   17.50
   2   9   9  138.89   17.00
  -3  10   9   15.00   13.10
   3  10  -9   10.10   14.80
   3  10  -9   -7.90   13.50
  -2 -10   9    8.50   10.10
  -2  10   9   22.00   10.20
   2  10  -9    2.60   13.20
   2  10  -9   20.10   15.80
   2  10  -9    4.00    9.90
  -2  10   9    6.30    8.30
  -2  10   9    5.00   12.90
  -1 -10   9   25.80   10.90
  -1  10   9    6.80    9.00
  -1  10   9   18.50   10.80
   1  10  -9    0.70   13.40
  -1  10   9    5.70   13.00
  -1  10   9    3.20   10.30
   0 -10   9   37.00   12.20
   0  10   9   42.40   11.50
   0  10   9   31.30   14.10
   0  10   9   59.19   12.60
   0  10   9   36.40   10.40
   1  10   9   34.70   11.70
   1  10   9   -6.50   13.90
   3  11  -9   80.29   16.30
  -3  11   9   64.79   14.70
   3  11  -9   53.99   15.40
  -2 -11   9  164.68   16.50
  -2  11   9  138.29   14.40
   2  11  -9  192.08   26.50
  -2  11   9  143.49   15.90
  -2  11   9  160.78   22.60
  -1 -11   9   61.99   12.40
   1  11  -9  140.49   26.90
  -1  11   9   28.80   10.20
  -1  11   9   39.40   15.00
  -1  11   9   42.70   12.30
   0  11   9  -10.70   13.70
   1  11   9   13.10   15.20
  -1  12   9    0.00   14.40
  -1  12   9    9.30   14.60
   1  12  -9   16.40   15.30
   5   0 -10  -27.30   12.00
  -4   0  10  591.64   19.80
   4   0 -10  596.74   26.20
   4   0 -10  565.34   27.00
  -3   0  10   -3.10    8.90
   3   0 -10   -5.30   13.30
   3   0 -10   -3.50   10.60
  -3   0  10    2.20    6.90
  -2   0  10 1652.93   35.60
  -2   0  10 1613.54   33.50
   2   0 -10 1603.14   38.80
   2   0 -10 1635.74   40.20
   1   0 -10   -7.90   12.40
  -1   0  10    2.90   10.50
   1   0 -10   -4.80    8.40
  -1   0  10  -15.00    8.80
   0   0  10   24.80    9.10
   0   0  10   10.20    9.70
   0   0 -10  -12.20   12.00
   0   0  10    0.50   10.70
   1   0  10    6.40   10.50
   1   0  10  -14.90   10.90
   1   0  10    9.60   10.60
   2   0  10  102.39   17.80
   2   0  10   77.19   12.10
   2   0  10  108.09   15.80
   3   0  10   15.10   11.60
   5  -1 -10   -7.80   12.40
   5   1 -10    4.20   13.10
   4  -1 -10   59.59   12.70
   4  -1 -10   86.89   15.70
  -4  -1  10   87.09   10.70
   4   1 -10   69.99   13.70
   4   1 -10  121.19   20.20
  -4   1  10   82.99   13.90
   3  -1 -10    8.00   13.70
  -3  -1  10    0.80    9.00
   3  -1 -10    3.10   10.80
  -3   1  10    5.10    9.60
  -3   1  10   12.80    6.80
   3   1 -10   19.90   14.20
   3   1 -10    5.90   11.10
  -2  -1  10   56.39   10.40
   2  -1 -10   44.10   14.50
   2  -1 -10   35.00   10.00
   2   1 -10   47.00   14.20
  -2   1  10   39.20   10.10
  -2   1  10   52.29    8.50
  -2   1  10   58.59   11.90
   2   1 -10   32.90   10.70
   1  -1 -10  122.39   18.70
  -1  -1  10  148.99   17.20
  -1  -1  10  143.59   14.60
   1  -1 -10  109.59   15.10
   1   1 -10  111.79   17.70
  -1   1  10  120.19   14.70
  -1   1  10  126.89   17.70
  -1   1  10  140.09   12.80
   1   1 -10  113.79   17.20
   0  -1  10  397.26   17.10
   0  -1  10  431.56   20.30
   0  -1 -10  421.46   21.60
   0   1 -10  418.56   20.40
   0   1 -10  426.76   18.80
   0   1  10  436.46   21.40
   0   1  10  426.86   17.40
   0   1  10  398.26   17.30
   1  -1  10   -8.40   10.00
   1  -1  10    6.90   10.50
   1   1  10   -4.80    9.90
   1   1  10   -9.20    9.80
   1   1  10    4.40   11.40
   2  -1  10  103.79   15.30
   2  -1  10  142.49   16.30
   2  -1  10  125.19   17.90
   2   1  10  142.39   15.30
   2   1  10  131.09   16.00
   2   1  10  104.19   14.10
   3  -1  10   11.30   11.70
   3   1  10   18.90   11.70
   5  -2 -10   71.29   14.80
   5   2 -10   58.09   15.10
   4  -2 -10  257.87   20.80
  -4  -2  10  229.98   14.70
   4  -2 -10  291.67   22.70
   4   2 -10  238.18   23.60
   4   2 -10  292.87   23.10
  -4   2  10  272.87   16.40
   3  -2 -10  -11.40    9.40
  -3  -2  10    0.50    8.90
   3  -2 -10   -2.10   13.90
   3   2 -10    1.00   13.40
  -3   2  10   -3.30    9.60
  -3   2  10    3.60    6.80
   3   2 -10    0.40   11.00
  -2  -2  10  235.78   15.50
   2  -2 -10  229.98   20.50
   2  -2 -10  243.88   18.20
  -2   2  10  250.97   13.10
   2   2 -10  243.68   19.80
   2   2 -10  191.08   20.50
  -2   2  10  254.97   15.80
  -2   2  10  256.67   19.50
  -1  -2  10   23.40   10.10
   1  -2 -10   -1.40    7.70
   1  -2 -10    6.70   13.00
  -1   2  10    9.70    8.90
   1   2 -10    3.40   12.40
  -1   2  10   -1.00    9.90
   1   2 -10   12.00   10.00
  -1   2  10    5.80   10.90
   0  -2 -10   20.30   13.80
   0  -2  10   10.50   10.20
   0  -2  10   -7.50    8.90
   0   2  10   13.60    9.80
   0   2  10    7.00   11.40
   0   2 -10   21.30    9.20
   0   2 -10    3.40   11.40
   0   2  10   25.90    9.90
   1  -2  10    5.00   10.40
   1  -2  10   19.80   10.10
   1   2  10    3.20   10.40
   1   2  10   18.80   10.30
   1   2  10    2.90   11.90
   2  -2  10   14.30   10.60
   2   2  10   23.20   10.60
   2   2  10   18.70   10.70
   2   2  10   24.80   12.90
   3  -2  10   39.10   14.40
   3   2  10   31.90   16.50
   3   2  10   50.89   12.00
   5  -3 -10   29.90   13.70
   5   3 -10   14.90   14.00
   4  -3 -10  323.77   22.40
   4  -3 -10  299.07   22.70
  -4  -3  10  303.07   15.70
  -4   3  10  329.87   17.40
   4   3 -10  347.77   23.80
   4   3 -10  309.87   25.10
   3  -3 -10   14.20   10.20
  -3  -3  10   34.80    9.40
   3  -3 -10   48.40   14.70
  -3   3  10   35.10   10.70
   3   3 -10   23.70   12.00
  -3   3  10   42.00    8.50
   3   3 -10   44.00   14.30
   2  -3 -10  223.78   20.70
   2  -3 -10  137.29   16.70
  -2  -3  10  175.18   14.70
  -2   3  10  154.08   18.70
  -2   3  10  186.78   12.50
   2   3 -10  150.78   20.30
   2   3 -10  163.68   19.10
  -2   3  10  166.38   15.50
   1  -3 -10   38.10   14.10
  -1  -3  10   25.90   10.00
  -1   3  10   25.70   11.30
   1   3 -10   17.20   10.90
   1   3 -10   18.90   12.40
  -1   3  10   19.20    9.60
  -1   3  10    9.10    9.20
   0  -3 -10  223.68   19.70
   0  -3  10  216.48   16.10
   0   3  10  224.18   16.00
   0   3 -10  231.08   19.50
   0   3  10  206.18   19.50
   0   3  10  223.08   16.50
   0   3 -10  223.68   16.40
   1  -3  10   31.90   10.60
   1  -3  10   10.80    9.50
   1   3  10   26.80   11.10
   1   3  10    4.80   12.40
   1   3  10  -14.50   10.20
   2  -3  10  114.99   16.00
   2   3  10  105.79   15.00
   2   3  10  155.78   15.70
   2   3  10  125.29   16.20
   3   3  10  309.87   19.40
   3   3  10  318.17   25.10
   5  -4 -10   48.60   14.00
   5   4 -10   19.30   14.60
   4  -4 -10   21.20   11.50
   4  -4 -10   49.80   15.30
   4   4 -10   50.49   15.70
  -4   4  10   44.70   11.00
   4   4 -10   22.60   13.00
   3  -4 -10  258.57   20.90
  -3  -4  10  272.97   15.30
   3  -4 -10  245.08   19.80
   3   4 -10  257.97   23.60
  -3   4  10  279.37   17.00
   3   4 -10  270.37   21.70
  -3   4  10  255.47   20.90
   2  -4 -10  142.99   16.40
   2  -4 -10  162.38   20.60
  -2  -4  10  186.68   15.10
   2   4 -10  185.68   20.70
  -2   4  10  156.88   15.80
  -2   4  10  178.98   12.80
  -2   4  10  218.68   20.00
   2   4 -10  199.48   18.50
  -1  -4  10   12.80    9.80
   1  -4 -10   -8.90   13.50
  -1   4  10   12.40    9.50
  -1   4  10  -10.30   11.00
   1   4 -10    7.60   11.00
   1   4 -10   -7.80   11.50
  -1   4  10    5.00    8.80
   0  -4  10   58.49   10.90
   0   4  10   50.49   12.60
   0   4 -10   49.20   11.60
   0   4  10   68.29   11.40
   0   4  10   45.40   11.10
   0   4 -10   58.89   11.60
   1  -4  10  176.08   15.10
   1   4  10  193.78   21.40
   1   4  10  165.88   16.10
   1   4  10  202.08   16.80
   2  -4  10   20.50   11.30
   2   4  10   17.40   13.80
   2   4  10   15.20   11.10
   2   4  10   22.80   11.00
   3   4  10   36.70   15.10
   3   4  10   25.10   12.10
   5  -5 -10  -13.70   12.90
   5   5 -10   11.60   14.40
   4  -5 -10   13.40   15.20
   4  -5 -10  -17.90   10.60
   4   5 -10  -10.20   12.70
  -4   5  10    7.30   10.60
   4   5 -10    1.80   14.60
   3  -5 -10   61.29   11.20
  -3  -5  10  117.59   13.60
   3  -5 -10   75.99   15.10
  -3   5  10  108.39   19.20
  -3   5  10   75.49   11.90
   3   5 -10  101.59   19.20
   3   5 -10   54.59   13.20
  -2  -5  10   22.50    9.90
   2  -5 -10   13.10   14.40
  -2   5  10   17.50   10.50
   2   5 -10    1.90   11.50
  -2   5  10    9.90   11.90
   2   5 -10   16.10   12.90
  -2   5  10   13.40    8.60
  -1  -5  10    4.90   10.00
   1  -5 -10   -3.30   14.40
   1   5 -10    2.10   11.40
  -1   5  10   -3.80    9.40
   1   5 -10    7.30   11.60
  -1   5  10    5.20    8.90
  -1   5  10    4.10   11.70
   0  -5  10  116.49   15.60
   0   5  10  107.29   16.00
   0   5 -10  132.19   20.90
   0   5  10  130.09   15.20
   0   5  10  120.69   20.40
   1  -5  10   17.70    9.90
   1   5  10   10.20   10.40
   1   5  10   13.60   11.20
   1   5  10    8.00   12.80
   2  -5  10    5.30   11.20
   2   5  10   -0.40   14.00
   2   5  10   14.00   11.70
   2   5  10   -1.90   10.70
   4  -6 -10   20.80   19.50
   4  -6 -10  -10.50   11.40
   4   6 -10   -6.10   13.30
   4   6 -10   24.90   15.50
   3  -6 -10   -0.30   13.30
   3  -6 -10   -6.40    9.60
  -3  -6  10    2.00    9.10
  -3   6  10    7.80   10.70
   3   6 -10   12.30   13.50
   3   6 -10    1.60   12.20
  -3   6  10    8.90   12.30
   2  -6 -10   26.60   13.90
  -2  -6  10   47.80   10.70
   2   6 -10   19.50   12.30
   2   6 -10   52.39   14.20
  -2   6  10   51.39   11.40
  -2   6  10   54.79   13.30
  -2   6  10   50.29    9.50
  -1  -6  10   72.89   11.60
   1  -6 -10   75.89   16.70
   1   6 -10   74.99   12.90
  -1   6  10   67.89   13.70
  -1   6  10   58.09   10.70
   1   6 -10   42.60   12.80
  -1   6  10   60.19   10.80
   0  -6  10   55.89   11.60
   0   6  10   54.49   13.90
   0   6 -10   52.09   13.40
   0   6  10   61.09   11.60
   0   6  10   71.09   12.10
   1  -6  10   91.99   14.90
   1   6  10  105.89   16.10
   1   6  10   56.79   14.30
   1   6  10   54.09   12.10
   2   6  10   22.00   14.80
   2   6  10   11.70   11.70
   4  -7 -10   25.80   12.50
   4   7 -10  121.29   22.60
   4   7 -10   44.50   15.40
   3  -7 -10   61.89   16.40
  -3  -7  10   71.49   10.70
   3   7 -10   34.80   13.60
  -3   7  10   63.49   12.10
   3   7 -10   62.39   15.20
  -3   7  10   49.30   14.00
  -2  -7  10   15.20   10.10
   2  -7 -10   12.50   13.40
   2   7 -10   32.70   13.10
   2   7 -10    4.60   12.60
  -2   7  10   26.10    9.40
  -2   7  10   -3.30   12.40
  -2   7  10   11.00   10.60
  -1  -7  10   13.00   10.40
  -1   7  10    0.70    9.80
  -1   7  10   20.00   13.10
  -1   7  10    0.80    9.70
   1   7 -10    3.30   12.30
   0  -7  10   15.60   11.30
   0   7  10   22.00   11.10
   0   7  10   18.10   13.30
   0   7  10   17.20   11.10
   0   7 -10   31.30   13.40
   1  -7  10   19.00   11.00
   1   7  10   32.20   12.40
   1   7  10    4.10   11.00
   1   7  10   17.40   13.80
   2   7  10  -12.70   14.60
   2   7  10   -1.40   11.40
   4   8 -10   45.60   15.40
   3  -8 -10  188.78   28.60
   3   8 -10  233.58   21.90
  -3   8  10  225.78   22.80
   3   8 -10  182.18   26.00
   2  -8 -10  503.95   26.10
  -2  -8  10  506.05   20.20
  -2   8  10  494.05   18.60
   2   8 -10  503.85   28.60
  -2   8  10  519.05   25.40
  -2   8  10  469.75   20.90
   2   8 -10  480.35   23.00
  -1  -8  10   19.50   10.70
   1   8 -10    5.80   12.80
  -1   8  10   15.20   11.20
  -1   8  10   14.40   13.10
  -1   8  10   18.50   10.50
   0  -8  10  -14.40   10.40
   0   8  10    0.80   13.00
   0   8  10    7.80   11.00
   0   8  10   -8.30   10.50
   1   8  10   33.10   11.80
   1   8  10   23.00   15.00
   2   8  10   76.59   16.90
   3   9 -10   44.20   15.50
   3   9 -10   49.60   16.20
  -3   9  10   51.59   14.10
  -2  -9  10   37.50   11.20
  -2   9  10   50.09   14.60
   2   9 -10   50.49   14.80
  -2   9  10   45.10    9.60
  -2   9  10   41.70   11.00
  -1  -9  10   13.50   11.10
  -1   9  10    0.40   11.50
  -1   9  10    9.80    9.50
  -1   9  10   -9.50   13.10
  -1   9  10   22.60   11.40
   1   9 -10   17.90   14.50
   0  -9  10  275.57   19.10
   0   9  10  270.77   17.70
   0   9  10  243.48   24.30
   0   9  10  282.47   18.70
   0   9  10  280.97   19.30
   1   9  10    7.10   12.80
   1   9  10   -3.60   14.60
  -2 -10  10  272.57   18.60
  -2  10  10  270.97   24.50
   2  10 -10  262.87   28.50
  -2  10  10  262.87   17.10
  -2  10  10  227.38   16.10
  -1 -10  10   32.00   11.90
  -1  10  10   14.10    9.90
   1  10 -10   35.20   15.40
  -1  10  10   14.80   11.40
  -1  10  10   46.10   14.90
   0  10  10   40.60   15.90
   1  11 -10  258.77   30.60
  -1  11  10  188.98   24.50
   5   0 -11   61.69   15.60
   4   0 -11  -15.70   15.00
  -4   0  11    1.40    9.90
   4   0 -11  -32.50   11.70
   3   0 -11  350.26   23.80
  -3   0  11  373.66   15.50
  -3   0  11  372.26   17.90
   3   0 -11  359.16   23.80
  -2   0  11  -15.90    8.60
   2   0 -11    2.40   10.70
   2   0 -11  -15.70   14.10
  -2   0  11   -6.40    9.90
  -1   0  11  894.81   29.10
  -1   0  11  919.61   24.70
  -1   0  11  884.61   26.10
   1   0 -11  925.31   32.30
   1   0 -11  906.11   29.70
   0   0  11    3.10   10.40
   0   0 -11    3.30   13.60
   0   0  11    4.00    9.50
   0   0  11    4.80   11.50
   1   0  11    9.20   10.80
   1   0  11    9.90   11.00
   1   0  11   20.10   11.90
   2   0  11   13.70   11.50
   5  -1 -11    0.80   13.80
   5   1 -11   38.70   15.00
  -4  -1  11  123.79   14.90
   4  -1 -11   61.49   13.90
   4  -1 -11  137.19   21.60
  -4   1  11  115.29   15.60
   4   1 -11   69.69   14.40
   4   1 -11  117.29   18.30
   3  -1 -11   -1.30   11.10
   3  -1 -11   12.20   15.00
  -3  -1  11    1.00    8.40
  -3  -1  11    8.00    9.70
   3   1 -11   -8.70   11.40
  -3   1  11    4.90   10.30
   3   1 -11   -2.70   14.30
  -2  -1  11   95.29   14.90
   2  -1 -11   92.89   18.10
   2  -1 -11  120.89   20.20
  -2   1  11  110.19   13.10
   2   1 -11   96.79   19.60
   2   1 -11   94.59   19.60
  -2   1  11   91.49   15.20
  -1  -1  11   53.09   11.50
   1  -1 -11   72.29   15.70
   1   1 -11   43.90   10.70
  -1   1  11   65.69   10.70
  -1   1  11   56.59   12.60
   1   1 -11   67.99   15.00
  -1   1  11   57.69   11.70
   0  -1  11    3.70    9.30
   0  -1 -11   -7.30   13.60
   0  -1  11    6.70   11.20
   0   1  11   13.10   10.00
   0   1  11    6.20   10.10
   0   1  11    4.40   11.90
   0   1 -11   -6.20   12.60
   1  -1  11   56.99   12.00
   1  -1  11   67.09   12.50
   1  -1  11   63.89   12.30
   1   1  11   66.49   12.30
   1   1  11   60.69   12.70
   1   1  11   80.09   13.90
   2  -1  11   16.40   12.40
   2   1  11  -14.90   11.80
   2   1  11    1.70   12.80
   5  -2 -11   13.30   13.70
   5   2 -11   10.70   14.60
   4  -2 -11   79.19   14.00
  -4  -2  11  128.59   15.00
   4  -2 -11  102.99   20.80
   4   2 -11  142.09   21.60
   4   2 -11   79.09   15.10
  -4   2  11  115.89   15.90
   3  -2 -11   -9.00   14.30
  -3  -2  11   -5.20    9.60
   3  -2 -11   -2.60   10.90
  -3   2  11   -2.60   10.20
   3   2 -11  -14.10   11.40
   3   2 -11   -2.00   14.20
   2  -2 -11   13.80   14.60
  -2  -2  11   15.40   10.20
   2  -2 -11   -5.10    9.40
   2   2 -11    5.20   10.80
   2   2 -11   33.50   14.40
  -2   2  11   16.80   10.30
  -2   2  11   35.40   12.30
  -2   2  11   19.20    9.30
   1  -2 -11  478.25   24.90
  -1  -2  11  463.65   19.90
  -1   2  11  474.95   23.50
   1   2 -11  448.56   23.30
   1   2 -11  489.45   23.10
  -1   2  11  469.25   18.60
  -1   2  11  468.95   20.00
   0  -2  11    3.70    9.60
   0  -2  11   18.00   10.70
   0  -2 -11   28.70   14.00
   0   2  11   13.70   12.20
   0   2 -11   -2.20   12.30
   0   2  11    1.70   10.20
   0   2  11    9.40   10.40
   1  -2  11   32.00   11.70
   1  -2  11   38.20   11.20
   1   2  11   18.20   12.70
   1   2  11   42.10   12.20
   1   2  11   41.60   11.90
   2   2  11   16.00   13.70
   2   2  11   -3.90   11.40
   4  -3 -11   10.90   12.30
   4   3 -11   53.39   16.60
  -4   3  11   46.10   11.90
   4   3 -11    3.80   13.30
  -3  -3  11   -1.80    9.50
   3  -3 -11   -0.80   14.90
   3  -3 -11   -3.50   10.40
   3   3 -11  -12.10   12.00
  -3   3  11   -3.30   10.70
   3   3 -11  -13.10   14.20
  -2  -3  11  276.27   17.10
   2  -3 -11  253.27   22.90
  -2   3  11  224.48   17.40
   2   3 -11  257.07   20.60
  -2   3  11  247.48   21.40
   2   3 -11  236.78   22.00
  -2   3  11  257.07   14.40
  -1  -3  11   29.80   11.30
   1  -3 -11   28.10   15.40
   1   3 -11   31.50   11.50
  -1   3  11   34.10   10.20
  -1   3  11   60.09   11.40
  -1   3  11   26.50   12.90
   1   3 -11   42.90   14.00
   0  -3  11   17.40   11.10
   0   3  11   38.70   11.30
   0   3  11   47.00   13.70
   0   3  11   42.10   11.80
   0   3 -11   32.70   11.60
   1  -3  11   76.79   12.30
   1   3  11   73.39   14.50
   1   3  11   60.09   12.40
   1   3  11   85.09   13.30
   2   3  11   31.80   12.20
   2   3  11   19.40   14.70
   4  -4 -11  256.47   23.80
  -4   4  11  336.97   19.10
   4   4 -11  361.76   26.30
   4   4 -11  292.27   26.90
   3  -4 -11    3.60   10.70
  -3  -4  11   38.40   10.30
   3  -4 -11   33.40   15.80
   3   4 -11   14.10   12.60
  -3   4  11   21.20   11.30
   3   4 -11   37.60   15.20
   2  -4 -11  222.18   22.90
  -2  -4  11  237.08   16.40
   2   4 -11  215.18   23.20
   2   4 -11  202.98   20.20
  -2   4  11  223.48   14.40
  -2   4  11  187.08   20.80
  -2   4  11  217.08   17.30
   1  -4 -11   74.09   17.30
  -1  -4  11   78.19   12.10
  -1   4  11   86.89   14.30
   1   4 -11   60.69   12.70
   1   4 -11   84.59   14.60
  -1   4  11   68.79   13.60
  -1   4  11   77.69   11.80
   0  -4  11    8.80   10.90
   0   4  11   11.70   10.70
   0   4  11   -5.00   10.90
   0   4 -11   23.60   11.30
   0   4  11    4.60   12.90
   1  -4  11   14.30   11.00
   1   4  11   56.89   12.70
   1   4  11    2.90   11.60
   1   4  11   24.50   14.10
   2   4  11    5.40   14.50
   2   4  11   -8.40   13.20
   4  -5 -11  -23.00   11.80
   4   5 -11   -7.90   14.00
  -4   5  11    8.50   11.60
   3  -5 -11   10.40   14.30
  -3  -5  11   -3.00   10.00
   3   5 -11    1.90   14.30
   3   5 -11    4.30   12.60
  -3   5  11    1.20   12.70
  -3   5  11   -1.50   11.20
  -2  -5  11  363.96   18.10
   2  -5 -11  340.67   24.50
  -2   5  11  331.17   16.00
   2   5 -11  323.87   25.10
  -2   5  11  328.77   19.10
   2   5 -11  334.67   21.80
  -2   5  11  329.27   23.20
   1  -5 -11   55.99   16.70
  -1  -5  11   48.10   11.50
  -1   5  11   48.70   13.70
  -1   5  11   32.80   10.60
   1   5 -11   42.10   13.30
  -1   5  11   48.50   11.00
   1   5 -11   46.10   12.70
   0  -5  11   57.79   12.50
   0   5  11   78.69   12.50
   0   5  11   60.19   12.20
   0   5  11   49.40   14.00
   0   5 -11  105.79   22.10
   1  -5  11    3.60   12.70
   1   5  11  -12.20   13.80
   1   5  11   11.30   12.00
   1   5  11    2.70   11.40
   2   5  11  -12.40   14.80
   4   6 -11  258.07   27.40
   3  -6 -11  -23.10   20.90
  -3  -6  11    9.40   10.30
   3   6 -11   33.40   15.90
   3   6 -11    1.00   13.10
  -3   6  11    3.60   13.30
  -3   6  11   -6.80   11.20
   2  -6 -11  221.68   23.60
  -2  -6  11  227.38   17.10
  -2   6  11  225.08   22.10
  -2   6  11  235.78   15.00
   2   6 -11  189.78   24.70
  -2   6  11  189.08   17.70
   2   6 -11  233.48   20.70
   1  -6 -11   34.90   16.20
  -1  -6  11   42.90   11.80
  -1   6  11   46.20   11.30
   1   6 -11   42.40   13.40
  -1   6  11   38.10   10.90
  -1   6  11    6.20   13.30
   0  -6  11   36.30   11.90
   0   6  11   74.89   12.90
   0   6  11   56.99   14.50
   0   6  11   46.00   12.40
   1   6  11   -4.30   14.40
   1   6  11  -19.80   11.20
  -3  -7  11   16.20   10.80
   3   7 -11   16.50   15.60
  -3   7  11   20.40   14.40
   3   7 -11  -14.00   13.70
  -2  -7  11  318.47   18.90
   2  -7 -11  307.27   25.90
   2   7 -11  315.97   26.70
  -2   7  11  283.37   16.40
   2   7 -11  277.97   21.30
  -2   7  11  257.97   19.70
  -2   7  11  297.27   23.80
  -1  -7  11   30.50   11.60
  -1   7  11   50.19   14.70
  -1   7  11   25.70   10.90
   1   7 -11   35.60   13.80
  -1   7  11   13.30   10.80
   0  -7  11   84.49   15.30
   0   7  11   81.29   13.50
   0   7  11   90.29   16.30
   0   7  11   60.79   13.20
   1   7  11   45.30   16.00
  -3   8  11   71.99   15.80
   3   8 -11   40.20   15.50
   3   8 -11  106.19   21.60
  -2  -8  11  313.47   19.40
  -2   8  11  313.47   17.80
  -2   8  11  334.17   24.90
   2   8 -11  356.76   28.60
  -1  -8  11   83.09   13.30
  -1   8  11   60.49   16.10
   1   8 -11   61.89   15.70
   0   8  11   15.40   15.40
  -2  -9  11   14.60   11.60
   2   9 -11   12.60   14.80
  -2   9  11   16.90   14.90
  -2   9  11    2.20   11.00
  -2   9  11   12.60    9.80
  -1   9  11   25.00   12.50
  -1   9  11   -1.20   14.70
   1   9 -11   26.70   15.50
   0   9  11   30.20   16.00
  -4   0  12   83.09   12.90
   4   0 -12   39.60   14.70
   3   0 -12  -23.60   11.40
  -3   0  12   -6.70   10.50
   3   0 -12    7.50   16.10
  -2   0  12  129.49   13.90
  -2   0  12   89.79   12.40
   2   0 -12  114.39   21.80
   1   0 -12  -11.10   14.20
  -1   0  12    9.80   12.30
  -1   0  12   17.70   10.50
  -1   0  12   -9.10   10.80
   0   0  12    1.70   10.20
   0   0  12   10.50   12.30
   0   0  12   13.20   11.00
   0   0 -12   14.70   14.20
   1   0  12   11.50   12.80
  -4  -1  12  133.29   16.70
   4  -1 -12  101.89   16.10
  -4   1  12  128.29   17.10
   4   1 -12  106.79   16.30
   3  -1 -12   34.40   16.80
   3  -1 -12   26.40   12.60
  -3  -1  12   45.20   11.20
   3   1 -12   52.39   16.90
  -3   1  12   43.10   12.10
   3   1 -12   30.10   12.90
  -2  -1  12   57.59   11.10
   2  -1 -12   61.09   17.00
  -2  -1  12   67.29   12.20
   2   1 -12   57.99   16.70
  -2   1  12   54.09   12.00
   2   1 -12   26.60   11.70
  -2   1  12   60.49   10.80
   1  -1 -12  112.79   17.70
  -1  -1  12   65.49   12.20
  -1   1  12   97.19   14.90
  -1   1  12   82.59   13.00
   1   1 -12   79.69   16.60
  -1   1  12  122.89   20.60
   0  -1  12    1.60   10.70
   0  -1  12   25.70   12.20
   0  -1  12   12.20   11.30
   0   1  12  -18.50   10.40
   0   1  12   24.60   11.90
   0   1  12    3.80   12.70
   0   1 -12    8.90   14.10
   1   1  12   21.40   13.40
  -4  -2  12  110.79   17.90
   4  -2 -12   53.89   14.90
   4   2 -12   73.39   15.70
  -4   2  12  108.59   13.50
  -3  -2  12   10.40   10.80
   3  -2 -12  -11.60   15.90
   3   2 -12    4.70   15.70
  -3   2  12   10.90   11.40
   3   2 -12  -14.00   12.40
  -2  -2  12  -14.10   10.80
   2  -2 -12  -16.40   15.10
  -2   2  12   19.30   10.00
  -2   2  12   -5.30   10.50
   2   2 -12   -3.60   14.80
   2   2 -12   -9.80   11.10
  -2   2  12    5.80   12.90
   1  -2 -12  188.98   23.00
  -1  -2  12  172.78   17.60
  -1   2  12  162.08   17.00
   1   2 -12  176.48   20.60
  -1   2  12  159.48   15.70
  -1   2  12  166.78   21.40
   0  -2  12   19.80   11.10
   0   2  12   16.40   11.40
   0   2  12   51.49   11.80
   0   2  12   25.90   13.50
   1   2  12   29.90   14.30
   4  -3 -12  -12.20   13.00
   4   3 -12  -15.80   13.60
  -4   3  12   19.10   12.60
  -3  -3  12    7.60   10.80
   3  -3 -12  -10.70   24.60
   3   3 -12    8.00   15.80
   3   3 -12  -15.60   12.90
  -3   3  12  -26.80   10.90
   2  -3 -12  -17.30   15.40
  -2  -3  12   10.90   11.10
  -2   3  12    3.30   13.00
  -2   3  12   32.80   10.20
  -2   3  12    5.90   11.40
   2   3 -12   -2.30   12.00
   2   3 -12    0.30   14.80
  -1  -3  12  212.48   18.10
   1  -3 -12  230.58   24.20
  -1   3  12  191.28   17.10
   1   3 -12  247.78   32.60
  -1   3  12  233.08   22.30
   1   3 -12  194.48   20.70
  -1   3  12  238.28   16.80
   0  -3  12   -0.80   11.50
   0   3  12   24.10   11.90
   0   3  12   10.30   13.50
   0   3  12    5.00   11.90
   1   3  12  232.18   24.30
   4   4 -12  -26.90   13.90
  -3  -4  12  216.98   17.20
  -3   4  12  214.58   19.50
   3   4 -12  177.18   25.10
   3   4 -12  215.18   23.90
   2  -4 -12   38.90   17.00
  -2  -4  12   35.20   11.40
  -2   4  12   16.30   12.20
  -2   4  12   32.40   13.60
  -2   4  12   24.90   10.40
   2   4 -12   41.00   15.70
   2   4 -12   25.10   13.10
  -1  -4  12  293.87   19.40
   1  -4 -12  327.97   25.80
   1   4 -12  304.07   24.00
  -1   4  12  265.57   18.60
  -1   4  12  302.57   23.80
  -1   4  12  301.57   18.00
   0   4  12   13.50   14.30
   0   4  12    6.90   11.90
   1   4  12    6.50   14.50
  -3  -5  12   19.40   11.30
   3   5 -12   -2.40   13.60
   3   5 -12   35.60   16.70
  -3   5  12   39.70   14.30
  -2  -5  12    3.60   11.20
   2  -5 -12    8.30   21.40
  -2   5  12   43.60   10.80
   2   5 -12   12.30   15.00
  -2   5  12   20.90   14.10
   2   5 -12    0.70   12.90
   1  -5 -12  340.57   26.00
  -1  -5  12  242.78   19.30
  -1   5  12  265.47   17.70
   1   5 -12  294.07   25.00
  -1   5  12  271.07   23.90
   0   5  12   87.39   18.10
   0   5  12   76.59   16.50
   1   5  12  182.88   24.90
  -3  -6  12  193.98   18.00
  -3   6  12  220.98   24.70
   3   6 -12  209.68   28.00
   3   6 -12  215.18   23.10
  -2  -6  12   30.50   12.10
   2   6 -12   10.30   14.00
  -2   6  12   32.20   14.90
  -2   6  12   23.10   10.60
  -1   6  12  305.97   18.80
  -1   6  12  336.07   25.80
   1   6 -12  364.96   27.90
   0   6  12   -2.70   14.80
  -2  -7  12   55.19   13.60
   2   7 -12   60.99   15.90
  -2   7  12   55.39   15.70
  -2   7  12   67.39   12.10
  -1   7  12  254.47   18.00
  -1   7  12  221.48   25.00
   1   7 -12  283.57   28.70
   0   7  12   -4.50   14.70
  -2   0  13   21.00   10.80
   2   0 -13  -35.40   16.50
  -1   0  13    9.90   11.10
   1   0 -13    5.10   16.90
   0   0  13   11.40   13.20
  -3  -1  13   34.40   19.70
   2  -1 -13   23.40   16.70
  -2  -1  13   36.70   11.40
   2   1 -13   45.10   17.90
  -2   1  13   34.30   11.50
   1  -1 -13  332.07   26.30
  -1  -1  13  295.27   18.20
  -1   1  13  320.57   18.70
   1   1 -13  316.37   25.00
  -1   1  13  314.17   24.20
   0  -1  13   17.60   13.00
   0   1  13   32.40   14.20
  -3  -2  13   11.90   14.20
   3   2 -13   -6.20   13.70
   2   2 -13    8.30   17.20
  -2   2  13   17.60   11.30
   1  -2 -13   29.30   17.80
   1   2 -13   20.80   18.50
  -1   2  13   39.50   12.50
  -1   2  13   35.50   14.50
   0   2  13   50.79   15.20
   3   3 -13    1.20   13.70
  -2   3  13   25.30   11.20
  -2   3  13   32.00   14.40
   2   3 -13    0.00   16.70
   1  -3 -13  234.98   26.20
  -1   3  13  199.28   23.70
  -1   3  13  201.78   17.50
   0   3  13   96.49   16.40
   2   4 -13    1.20   16.70
  -2   4  13   19.70   14.80
   2   4 -13   27.00   17.00
  -2   4  13   32.00   11.70
  -1   4  13   19.40   14.70
  -1   4  13   14.40   14.90

_computing_structure_solution     'SHELXT 2014/4 (Sheldrick, 2014)'
)
_shelx_hkl_checksum   39614

;
_shelx_hkl_checksum              20851
loop_
_space_group_symop_operation_xyz
'x, y, z'
'-x+1/2, y+1/2, -z+1/2'
'-x, -y, -z'
'x-1/2, -y-1/2, z-1/2'
loop_
_atom_site_label
_atom_site_type_symbol
_atom_site_fract_x
_atom_site_fract_y
_atom_site_fract_z
_atom_site_U_iso_or_equiv
_atom_site_adp_type
_atom_site_occupancy
_atom_site_site_symmetry_order
_atom_site_calc_flag
_atom_site_refinement_flags_posn
_atom_site_refinement_flags_adp
_atom_site_refinement_flags_occupancy
_atom_site_disorder_assembly
_atom_site_disorder_group
Ti1 Ti 0.79179(14) 0.70614(6) 0.26529(7) 0.01672(19) Uani 1 1 d . U . . .
P1 P 0.37509(19) 0.70222(8) 0.47838(9) 0.0130(2) Uani 1 1 d . U . . .
O1 O 0.6176(5) 0.6951(2) 0.4148(3) 0.0201(6) Uani 1 1 d . U . . .
O2 O 0.1291(5) 0.7511(2) 0.3837(3) 0.0173(6) Uani 1 1 d . U . . .
O3 O 0.4503(5) 0.7693(2) 0.6076(2) 0.0166(6) Uani 1 1 d . U . . .
P2 P 0.9112(17) 0.4589(4) 0.1887(9) 0.0179(11) Uani 0.51(2) 1 d D U P A 1
O4 O 0.948(3) 0.5608(10) 0.2806(16) 0.021(3) Uani 0.51(2) 1 d D U P A 1
O5 O 0.828(5) 0.3605(14) 0.260(2) 0.025(3) Uani 0.51(2) 1 d D U P A 1
O6 O 0.730(3) 0.4755(6) 0.0555(7) 0.035(3) Uani 0.51(2) 1 d D U P A 1
H2 H 1.15(2) 0.453(10) 0.175(12) 0.050 Uiso 0.51(2) 1 d . U P A 1
P2' P 0.9821(18) 0.4474(5) 0.2258(9) 0.0174(11) Uani 0.49(2) 1 d D U P A 2
O4' O 0.905(3) 0.5550(10) 0.2905(14) 0.0113(19) Uani 0.49(2) 1 d D U P A 2
O5' O 0.855(5) 0.3499(13) 0.2782(19) 0.015(2) Uani 0.49(2) 1 d D U P A 2
O6' O 0.896(3) 0.4534(8) 0.0753(8) 0.038(3) Uani 0.49(2) 1 d D U P A 2
H2' H 1.26(3) 0.431(10) 0.248(12) 0.050 Uiso 0.49(2) 1 d . U P A 2
O7 O 0.4698(6) 0.6471(3) 0.1459(3) 0.0251(7) Uani 1 1 d . U . . .
H1 H 0.3265 0.6149 0.4971 0.050 Uiso 1 1 d . . . . .
H7A H 0.3344 0.6936 0.1148 0.050 Uiso 1 1 d . . . . .
H7B H 0.5002 0.6172 0.0625 0.050 Uiso 1 1 d . . . . .
loop_
_atom_site_aniso_label
_atom_site_aniso_U_11
_atom_site_aniso_U_22
_atom_site_aniso_U_33
_atom_site_aniso_U_23
_atom_site_aniso_U_13
_atom_site_aniso_U_12
Ti1 0.0208(4) 0.0158(3) 0.0155(3) 0.0045(3) 0.0083(3) 0.0071(3)
P1 0.0157(4) 0.0135(4) 0.0103(4) -0.0011(4) 0.0042(3) -0.0017(4)
O1 0.0196(13) 0.0264(15) 0.0160(13) -0.0017(11) 0.0078(11) 0.0016(11)
O2 0.0173(13) 0.0180(13) 0.0153(13) -0.0014(11) 0.0006(10) -0.0014(11)
O3 0.0195(14) 0.0193(14) 0.0110(12) -0.0036(10) 0.0032(10) -0.0037(11)
P2 0.026(2) 0.0078(13) 0.023(3) 0.0006(14) 0.0124(18) -0.0001(14)
O4 0.023(4) 0.016(3) 0.026(4) -0.004(3) 0.013(3) -0.003(3)
O5 0.041(7) 0.013(4) 0.021(5) 0.002(3) 0.004(4) -0.006(4)
O6 0.068(7) 0.017(3) 0.018(3) 0.000(2) 0.004(3) -0.002(4)
P2' 0.029(3) 0.0099(15) 0.018(2) -0.0020(14) 0.0136(19) -0.0030(15)
O4' 0.016(4) 0.008(3) 0.013(3) 0.000(2) 0.010(3) -0.004(2)
O5' 0.025(5) 0.007(4) 0.014(5) 0.002(3) 0.007(4) -0.003(3)
O6' 0.076(9) 0.026(4) 0.014(3) -0.007(3) 0.012(4) -0.016(5)
O7 0.0226(15) 0.0298(17) 0.0207(15) -0.0035(12) 0.0000(12) -0.0017(12)
loop_
_atom_type_symbol
_atom_type_description
_atom_type_scat_dispersion_real
_atom_type_scat_dispersion_imag
_atom_type_scat_source
O O 0.0106 0.0060 'International Tables Vol C Tables 4.2.6.8 and 6.1.1.4'
H H 0.0000 0.0000 'International Tables Vol C Tables 4.2.6.8 and 6.1.1.4'
P P 0.1023 0.0942 'International Tables Vol C Tables 4.2.6.8 and 6.1.1.4'
Ti Ti 0.2776 0.4457 'International Tables Vol C Tables 4.2.6.8 and 6.1.1.4'
loop_
_geom_angle_atom_site_label_1
_geom_angle_atom_site_label_2
_geom_angle_atom_site_label_3
_geom_angle
_geom_angle_site_symmetry_1
_geom_angle_site_symmetry_3
_geom_angle_publ_flag
O5' Ti1 O4' 172.8(8) 2_655 . ?
O5' Ti1 O1 91.3(6) 2_655 . ?
O4' Ti1 O1 90.2(4) . . ?
O4 Ti1 O1 97.1(5) . . ?
O5' Ti1 O2 97.8(7) 2_655 1_655 ?
O4' Ti1 O2 89.2(4) . 1_655 ?
O4 Ti1 O2 85.1(4) . 1_655 ?
O1 Ti1 O2 91.26(12) . 1_655 ?
O5' Ti1 O7 87.6(7) 2_655 . ?
O4' Ti1 O7 85.4(4) . . ?
O4 Ti1 O7 89.4(4) . . ?
O1 Ti1 O7 90.10(12) . . ?
O2 Ti1 O7 174.44(12) 1_655 . ?
O4 Ti1 O5 172.6(10) . 2_655 ?
O1 Ti1 O5 89.3(7) . 2_655 ?
O2 Ti1 O5 91.2(7) 1_655 2_655 ?
O7 Ti1 O5 94.2(7) . 2_655 ?
O5' Ti1 O3 83.2(6) 2_655 4_675 ?
O4' Ti1 O3 95.1(4) . 4_675 ?
O4 Ti1 O3 88.3(5) . 4_675 ?
O1 Ti1 O3 174.48(12) . 4_675 ?
O2 Ti1 O3 90.20(11) 1_655 4_675 ?
O7 Ti1 O3 88.95(12) . 4_675 ?
O5 Ti1 O3 85.3(7) 2_655 4_675 ?
O1 P1 O2 112.41(16) . . ?
O1 P1 O3 109.16(16) . . ?
O2 P1 O3 110.91(16) . . ?
O1 P1 H1 104.6 . . ?
O2 P1 H1 107.3 . . ?
O3 P1 H1 112.4 . . ?
P1 O1 Ti1 153.09(19) . . ?
P1 O2 Ti1 140.71(18) . 1_455 ?
P1 O3 Ti1 135.76(16) . 4_576 ?
O6 P2 O5 111.6(9) . . ?
O6 P2 O4 114.7(7) . . ?
O5 P2 O4 110.4(10) . . ?
O6 P2 H2 109(6) . . ?
O5 P2 H2 113(6) . . ?
O4 P2 H2 97(5) . . ?
P2 O4 Ti1 133.9(11) . . ?
P2 O5 Ti1 143.2(14) . 2_645 ?
O5' P2' O6' 110.5(8) . . ?
O5' P2' O4' 110.1(10) . . ?
O6' P2' O4' 110.5(7) . . ?
O5' P2' H2' 109(5) . . ?
O6' P2' H2' 103(5) . . ?
O4' P2' H2' 113(5) . . ?
P2' O4' Ti1 147.3(10) . . ?
P2' O5' Ti1 144.4(13) . 2_645 ?
Ti1 O7 H7A 117.8 . . ?
Ti1 O7 H7B 114.4 . . ?
H7A O7 H7B 100.5 . . ?
loop_
_geom_bond_atom_site_label_1
_geom_bond_atom_site_label_2
_geom_bond_distance
_geom_bond_site_symmetry_2
_geom_bond_publ_flag
Ti1 O5' 1.912(16) 2_655 ?
Ti1 O4' 1.924(12) . ?
Ti1 O4 1.926(13) . ?
Ti1 O1 1.934(3) . ?
Ti1 O2 1.950(3) 1_655 ?
Ti1 O7 1.953(3) . ?
Ti1 O5 1.970(16) 2_655 ?
Ti1 O3 1.978(3) 4_675 ?
P1 O1 1.519(3) . ?
P1 O2 1.525(3) . ?
P1 O3 1.529(3) . ?
P1 H1 1.1147 . ?
O2 Ti1 1.950(3) 1_455 ?
O3 Ti1 1.978(3) 4_576 ?
P2 O6 1.483(8) . ?
P2 O5 1.509(10) . ?
P2 O4 1.541(9) . ?
P2 H2 1.26(12) . ?
O5 Ti1 1.969(16) 2_645 ?
P2' O5' 1.503(10) . ?
P2' O6' 1.508(8) . ?
P2' O4' 1.553(9) . ?
P2' H2' 1.41(13) . ?
O5' Ti1 1.912(16) 2_645 ?
O7 H7A 0.8944 . ?
O7 H7B 0.9706 . ?
loop_
_geom_hbond_atom_site_label_D
_geom_hbond_atom_site_label_H
_geom_hbond_atom_site_label_A
_geom_hbond_distance_DH
_geom_hbond_distance_HA
_geom_hbond_distance_DA
_geom_hbond_angle_DHA
_geom_hbond_site_symmetry_A
O7 H7A O1 0.89 2.50 3.259(4) 143.2 4_575
O7 H7A O3 0.89 1.99 2.780(4) 146.1 4_575
O7 H7B O2 0.97 2.62 3.215(4) 119.9 4_675
O7 H7B O6 0.97 2.09 2.735(12) 122.4 .
O7 H7B O6 0.97 1.86 2.565(8) 126.6 3_665
O7 H7B O6' 0.97 2.35 2.869(11) 112.5 3_665
