#------------------------------------------------------------------------------
#$Date: 2021-07-05 19:13:21 +0300 (Mon, 05 Jul 2021) $
#$Revision: 267002 $
#$URL: file:///home/coder/svn-repositories/cod/cif/7/12/83/7128397.cif $
#------------------------------------------------------------------------------
#
# This file is available in the Crystallography Open Database (COD),
# http://www.crystallography.net/
#
# All data on this site have been placed in the public domain by the
# contributors.
#
data_7128397
loop_
_publ_author_name
'Hung, Ling-I'
'Hsieh, Tsung-Hsiu'
'Syu, Jhao-Yang'
'Chen, Pei-Lin'
'Lin, Chia-Her'
'Wang, Sue-Lein'
_publ_section_title
;
 A titanium(iii) phosphite exhibits polymorph-distinct redox activity
 involving proton-coupled electron transfer.
;
_journal_issue                   53
_journal_name_full
'Chemical communications (Cambridge, England)'
_journal_page_first              6542
_journal_page_last               6545
_journal_paper_doi               10.1039/d1cc01190a
_journal_volume                  57
_journal_year                    2021
_chemical_formula_sum            'H5 O7 P2 Ti'
_chemical_formula_weight         226.88
_chemical_name_systematic        alpha-III
_chemical_properties_physical    Oxygen-sensitive
_space_group_crystal_system      monoclinic
_space_group_IT_number           14
_space_group_name_Hall           '-P 2yn'
_space_group_name_H-M_alt        'P 1 21/n 1'
_atom_sites_solution_hydrogens   difmap
_audit_creation_method           SHELXL-2014/6
_audit_update_record
;
2021-02-17 deposited with the CCDC.	2021-05-31 downloaded from the CCDC.
;
_cell_angle_alpha                90
_cell_angle_beta                 100.078(3)
_cell_angle_gamma                90
_cell_formula_units_Z            4
_cell_length_a                   5.0662(2)
_cell_length_b                   12.5792(8)
_cell_length_c                   10.2257(6)
_cell_measurement_reflns_used    6002
_cell_measurement_temperature    296(2)
_cell_measurement_theta_max      28.40
_cell_measurement_theta_min      2.59
_cell_volume                     641.62(6)
_computing_cell_refinement       'SAINT V8.34A (Bruker AXS Inc., 2013)'
_computing_data_collection       'APEX2 (Bruker AXS, 2010)'
_computing_data_reduction        'SAINT V8.34A (Bruker AXS Inc., 2013)'
_computing_molecular_graphics    'SHELXTL (Sheldrick, 2008)'
_computing_publication_material  SHELXTL
_computing_structure_refinement  'SHELXL-2014/6 (Sheldrick, 2014)'
_diffrn_ambient_temperature      296(2)
_diffrn_detector_area_resol_mean 8.3333
_diffrn_measured_fraction_theta_full 1.000
_diffrn_measured_fraction_theta_max 0.993
_diffrn_measurement_device_type  'Bruker APEX-II CCD'
_diffrn_measurement_method       '\f and \w scans'
_diffrn_radiation_type           MoK\a
_diffrn_radiation_wavelength     0.71073
_diffrn_reflns_av_R_equivalents  0.0326
_diffrn_reflns_av_unetI/netI     0.0319
_diffrn_reflns_Laue_measured_fraction_full 1.000
_diffrn_reflns_Laue_measured_fraction_max 0.993
_diffrn_reflns_limit_h_max       6
_diffrn_reflns_limit_h_min       -6
_diffrn_reflns_limit_k_max       16
_diffrn_reflns_limit_k_min       -15
_diffrn_reflns_limit_l_max       13
_diffrn_reflns_limit_l_min       -12
_diffrn_reflns_number            6002
_diffrn_reflns_point_group_measured_fraction_full 1.000
_diffrn_reflns_point_group_measured_fraction_max 0.993
_diffrn_reflns_theta_full        25.242
_diffrn_reflns_theta_max         28.404
_diffrn_reflns_theta_min         2.591
_exptl_absorpt_coefficient_mu    1.815
_exptl_absorpt_correction_T_max  0.9485
_exptl_absorpt_correction_T_min  0.8331
_exptl_absorpt_correction_type   multi-scan
_exptl_absorpt_process_details   'SADABS V2014/4 (Bruker AXS Inc.)'
_exptl_crystal_colour            Blue
_exptl_crystal_density_diffrn    2.349
_exptl_crystal_density_meas      ?
_exptl_crystal_density_method    'not measured'
_exptl_crystal_description       Columnar
_exptl_crystal_F_000             452
_exptl_crystal_preparation       'Magnetic properties'
_exptl_crystal_size_max          0.16
_exptl_crystal_size_mid          0.06
_exptl_crystal_size_min          0.05
_refine_diff_density_max         0.414
_refine_diff_density_min         -0.401
_refine_diff_density_rms         0.094
_refine_ls_extinction_method     none
_refine_ls_goodness_of_fit_ref   1.118
_refine_ls_hydrogen_treatment    noref
_refine_ls_matrix_type           full
_refine_ls_number_parameters     128
_refine_ls_number_reflns         1600
_refine_ls_number_restraints     114
_refine_ls_restrained_S_all      1.085
_refine_ls_R_factor_all          0.0321
_refine_ls_R_factor_gt           0.0258
_refine_ls_shift/su_max          0.000
_refine_ls_shift/su_mean         0.000
_refine_ls_structure_factor_coef Fsqd
_refine_ls_weighting_details
'w=1/[\s^2^(Fo^2^)+(0.0334P)^2^+0.3455P] where P=(Fo^2^+2Fc^2^)/3'
_refine_ls_weighting_scheme      calc
_refine_ls_wR_factor_gt          0.0682
_refine_ls_wR_factor_ref         0.0722
_reflns_Friedel_coverage         0.000
_reflns_number_gt                1408
_reflns_number_total             1600
_reflns_threshold_expression     'I > 2\s(I)'
_cod_data_source_file            d1cc01190a2.cif
_cod_data_source_block           alpha-III
_cod_depositor_comments
;
The following automatic conversions were performed:

data item '_exptl_crystal_density_meas' value 'not measured' was
changed to '?' -- the value is perceived as not measured.

Automatic conversion script
Id: cif_fix_values 7556 2019-12-06 15:28:31Z antanas 

 Adding full bibliography for 7128397--7128400.cif.
;
_cod_original_sg_symbol_H-M      'P 21/n'
_cod_database_code               7128397
_shelx_space_group_comment
;
The symmetry employed for this shelxl refinement is uniquely defined
by the following loop, which should always be used as a source of
symmetry information in preference to the above space-group names.
They are only intended as comments.
;
_shelxl_version_number           2014/6
_shelx_res_file
;
TITL 84_5_0m_a.res in P2(1)/n
CELL  0.71073   5.0662  12.5792  10.2257   90.000  100.078   90.000
ZERR    4.000   0.0002   0.0008   0.0006    0.000    0.003    0.000
LATT 1
SYMM 1/2-X, 1/2+Y, 1/2-Z
SFAC O  H  P  Ti
UNIT 28  20  8  4
L.S. 4
ACTA
BOND $H
FMAP 2
PLAN 5
EQIV $1 -x+2, -y+1, -z+1
HTAB P2 O1_$1
EQIV $2 -x+3/2, y-1/2, -z+1/2
HTAB O6 O2_$2
EQIV $3 -x+2, -y+1, -z
HTAB P2' O6'_$3
EQIV $4 -x+1, -y+1, -z
HTAB P2' O7_$4
EQIV $5 x+1, y, z
HTAB O6' O7_$5
EQIV $6 x-1/2, -y+3/2, z-1/2
HTAB O7 O3_$6
EQIV $7 x-1, y, z
HTAB O7 O6_$7
HTAB O7 O6'_$7
DELU 0.02 P2 > O6 P2' > O6'
SIMU 0.01 P2 > O6 P2' > O6'
TEMP 23.000
WGHT    0.033400    0.345500
FVAR       0.62000   0.69264
TI1   4    0.780348    0.701442    0.264509    11.00000    0.00805    0.00766 =
         0.01035    0.00000    0.00261    0.00077
P1    3    0.358074    0.690027    0.478701    11.00000    0.01022    0.01095 =
         0.00843   -0.00045    0.00257   -0.00145
O1    1    0.600260    0.665990    0.415052    11.00000    0.01600    0.02346 =
         0.01295    0.00279    0.00658    0.00481
O2    1    0.133628    0.745523    0.384616    11.00000    0.01030    0.01611 =
         0.01462   -0.00143   -0.00095   -0.00138
O3    1    0.444654    0.755241    0.605222    11.00000    0.01222    0.01967 =
         0.01091   -0.00454    0.00144   -0.00108
PART 1  21.00
P2    3    1.039853    0.445343    0.254728    21.00000    0.01306    0.00723 =
         0.02184    0.00022    0.00185    0.00069
O4    1    0.908813    0.553224    0.244261    21.00000    0.01730    0.00809 =
         0.02273    0.00219    0.00255    0.00500
O5    1    0.850001    0.353750    0.223319    21.00000    0.02061    0.00972 =
         0.03306   -0.00351    0.00769   -0.00514
O6    1    1.261013    0.445812    0.169601    21.00000    0.01837    0.01183 =
         0.05169   -0.00352    0.01756   -0.00045
AFIX   1
H2    2    1.169312    0.434344    0.381586    21.00000    0.05000
H6    2    1.292700    0.376900    0.129200    21.00000    0.05000
AFIX   0
SAME P2   O4   O5   O6
PART 2  -21.00
P2'   3    0.949898    0.451753    0.188836   -21.00000    0.01773    0.01061 =
         0.02142   -0.00048    0.00700   -0.00114
O4'   1    0.942600    0.549765    0.271573   -21.00000    0.01158    0.00935 =
         0.01494    0.00390   -0.00505    0.00286
O5'   1    0.889679    0.349758    0.253445   -21.00000    0.01992    0.00984 =
         0.01613   -0.00120    0.00383   -0.00582
O6'   1    1.215717    0.447866    0.136483   -21.00000    0.02099    0.01272 =
         0.03869   -0.00210    0.01467   -0.00122

AFIX   1
H2'   2    0.803600    0.462400    0.060600   -21.00000    0.05000
H6'   2    1.359124    0.486559    0.083418   -21.00000    0.05000
AFIX   0
PART 0
O7    1    0.440291    0.651496    0.133428    11.00000    0.01085    0.01754 =
         0.02309    0.00019   -0.00069   -0.00179
AFIX   1
H1    2    0.267800    0.598400    0.505200    11.00000    0.05000
H7A   2    0.296000    0.682800    0.116900    11.00000    0.05000
H7B   2    0.412300    0.584300    0.136000    11.00000    0.05000

AFIX   0
HKLF 4

REM  84_5_0m_a.res in P2(1)/n
REM R1 =  0.0258 for    1408 Fo > 4sig(Fo)  and  0.0321 for all    1600 data
REM    128 parameters refined using    114 restraints

END

WGHT      0.0334      0.3455

REM Highest difference peak  0.414,  deepest hole -0.401,  1-sigma level  0.094
Q1    1   0.5449  0.6840  0.1998  11.00000  0.05    0.41
Q2    1   0.5880  0.7023  0.2150  11.00000  0.05    0.41
Q3    1   0.2545  0.7309  0.4337  11.00000  0.05    0.39
Q4    1   1.1336  0.4405  0.1861  11.00000  0.05    0.37
Q5    1   0.4356  0.7349  0.5222  11.00000  0.05    0.37
;
_shelx_res_checksum              13138
_shelx_hkl_file
;
   1   0   0    0.20    0.70
   1   0   0   -0.30    0.70
   2   0   0   80.69    4.40
   2   0   0   76.99    3.30
   2   0   0   78.59    4.20
   3   0   0    1.00    1.60
   3   0   0    1.90    1.50
   4   0   0    2.40    2.30
   4   0   0    5.00    2.40
  -4   0   0    4.70    1.70
   5   0   0    3.00    2.40
  -5   0   0    1.80    1.80
  -6   0   0   99.59    6.70
   6   0   0   81.59    8.00
   0  -1   0   -6.20    0.30
   0  -1   0   -6.30    0.40
   0   1   0   -6.50    0.40
   0   1   0   -6.20    0.40
   1  -1   0  812.92   32.00
  -1  -1   0  824.82   31.60
   1  -1   0  823.52   32.20
  -1   1   0  765.82   31.90
   1   1   0  843.82   31.60
  -1   1   0  805.62   32.40
  -2  -1   0  528.85   21.60
   2  -1   0  545.15   22.40
   2  -1   0  554.84   22.20
   2   1   0  539.75   21.40
   2   1   0  536.95   21.30
  -2   1   0  538.45   21.60
  -3  -1   0   80.09    4.40
   3  -1   0   73.19    5.20
   3  -1   0   80.19    5.60
   3   1   0   79.89    4.70
   3   1   0   81.09    4.60
   3   1   0   77.99    3.80
   4  -1   0   68.99    6.10
   4  -1   0   71.79    6.30
   4   1   0   68.19    5.10
   4   1   0   67.89    5.20
   5  -1   0   62.69    6.70
  -5  -1   0   72.79    5.10
   5   1   0   67.69    6.10
  -6  -1   0  388.16   17.70
   6  -1   0  357.16   19.40
  -6   1   0  367.96   17.60
   6   1   0  371.86   18.50
   0  -2   0 4276.97  161.88
   0  -2   0 4305.97  163.68
   0   2   0 4097.59  163.78
   0   2   0 4317.07  163.78
   0   2   0 4056.19  163.18
   1  -2   0  240.68   10.60
   1  -2   0  228.08   10.70
  -1  -2   0  239.98    9.60
   1   2   0  244.28    9.70
   1   2   0  242.08    9.70
   1   2   0  229.78    9.60
   1   2   0  236.28    9.60
  -1   2   0  223.98   10.50
   2  -2   0  930.71   37.20
   2  -2   0  874.21   36.80
  -2  -2   0  894.71   35.80
   2   2   0  927.91   35.50
  -2   2   0  915.21   35.20
   2   2   0  926.51   35.50
   3  -2   0  460.95   20.60
   3  -2   0  470.15   20.30
  -3  -2   0  460.65   19.00
   3   2   0  452.35   18.70
   3   2   0  472.85   18.80
  -3   2   0  441.16   18.90
   4  -2   0  169.98   10.30
  -4  -2   0  175.48    8.30
   4   2   0  158.88    7.40
   4   2   0  159.28    8.40
   4   2   0  163.98    8.40
   5  -2   0  447.16   21.80
  -5  -2   0  440.76   19.50
   5   2   0  440.56   19.90
  -6  -2   0    4.30    2.30
   6  -2   0    2.80    3.60
   6   2   0    2.80    2.70
  -6   2   0    3.50    2.30
   0  -3   0   -1.40    1.50
   0   3   0   -0.10    1.60
   0   3   0   -1.90    1.40
   0   3   0    0.70    1.50
  -1  -3   0 2360.46   89.99
   1  -3   0 2357.26   91.39
   1  -3   0 2312.97   91.09
   1   3   0 2293.57   90.29
   1   3   0 2279.17   90.39
  -1   3   0 2327.27   91.09
   1   3   0 2431.46   90.19
   1   3   0 2313.77   89.79
  -2  -3   0    4.50    1.10
   2  -3   0    4.00    2.00
   2  -3   0    5.50    2.40
   2   3   0    4.50    1.10
   2   3   0    4.60    1.20
  -2   3   0    5.70    2.00
   3  -3   0  112.59    7.80
  -3  -3   0  112.09    5.70
   3  -3   0  106.49    7.20
   3   3   0  114.99    5.60
   3   3   0  114.89    5.60
  -3   3   0  113.99    6.70
   4  -3   0  258.27   14.90
  -4  -3   0  284.27   12.70
   4   3   0  285.57   12.60
   4   3   0  275.67   12.40
   5  -3   0  366.26   19.60
  -5  -3   0  375.36   16.90
   5   3   0  374.86   16.90
  -6  -3   0   43.00    4.70
   6  -3   0   48.60    7.20
  -6   3   0   39.20    4.70
   6   3   0   38.30    4.60
   0  -4   0  653.33   27.20
   0   4   0  652.63   27.10
   0   4   0  640.34   27.20
   0   4   0  662.23   27.50
   1  -4   0   73.69    5.70
  -1   4   0   76.79    5.50
   1   4   0   67.39    4.60
   1   4   0   73.59    4.60
   1   4   0   74.29    4.50
   2  -4   0   40.60    5.10
  -2   4   0   44.10    4.50
   2   4   0   42.90    3.10
   2   4   0   39.30    3.30
   3  -4   0 1284.87   52.49
   3  -4   0 1282.07   52.09
  -3  -4   0 1240.58   49.30
   3   4   0 1226.88   49.20
   3   4   0 1256.97   49.20
  -3   4   0 1226.98   48.40
  -3   4   0 1257.67   50.59
  -4  -4   0   55.69    3.90
   4  -4   0   47.20    6.60
   4   4   0   52.09    4.20
   4   4   0   55.89    4.10
   5  -4   0  163.68   12.20
  -5  -4   0  178.88    9.20
   5   4   0  174.38    9.20
  -6  -4   0   -0.10    1.90
   6  -4   0   -5.60    3.50
   6   4   0   -2.30    2.00
   0  -5   0    3.60    2.00
   0   5   0    0.10    1.80
   1  -5   0  142.79    8.70
   1   5   0  157.18    8.10
  -1   5   0  139.49    8.60
   1   5   0  141.49    7.80
   2  -5   0  226.28   12.10
   2   5   0  201.08    9.80
  -2   5   0  222.28   11.50
   2   5   0  203.68   10.10
   3  -5   0    3.90    3.00
  -3   5   0    1.20    1.10
   3   5   0   -0.10    1.50
  -3   5   0   -1.00    2.50
   3   5   0   -0.70    1.30
   4  -5   0  114.29   10.50
  -4  -5   0  130.19    6.90
   4   5   0  133.29    7.10
   4   5   0  135.99    7.20
  -5  -5   0  364.16   16.20
   5  -5   0  348.87   20.00
   5   5   0  349.27   16.00
  -6  -5   0   74.99    6.40
   6  -5   0   60.59    9.00
   6   5   0   56.99    5.40
   0  -6   0   94.49    6.90
   0   6   0  109.19    7.20
  -1  -6   0 1921.11   74.09
   1  -6   0 1890.11   75.49
   1   6   0 1899.51   74.29
   1   6   0 1781.32   74.59
  -1   6   0 1880.11   74.99
   2  -6   0  161.08   10.50
  -2   6   0  152.88    9.80
   2   6   0  160.08    8.40
   2   6   0  159.68    8.70
   3  -6   0  291.77   16.70
  -3   6   0  308.27   13.10
   3   6   0  319.87   14.00
   3   6   0  306.37   14.20
  -3   6   0  296.37   15.80
   4  -6   0  110.89   10.50
   4   6   0  114.79    6.70
   5  -6   0  747.23   36.10
   5   6   0  750.12   31.30
   6  -6   0   13.60    5.30
   0  -7   0   -0.90    2.10
   0   7   0   -1.90    2.30
   1  -7   0  699.93   31.20
  -1  -7   0  715.53   29.90
   1   7   0  664.53   30.30
   1   7   0  706.43   29.90
  -1   7   0  720.53   30.80
   2  -7   0  647.24   30.10
  -2   7   0  653.93   29.40
   2   7   0  668.83   27.90
   2   7   0  636.14   28.10
   3  -7   0  103.69   10.10
  -3   7   0  109.69    9.40
   3   7   0   78.09    6.30
   3   7   0   84.99    6.20
   4  -7   0  157.88   12.80
   4   7   0  176.28    9.30
   5  -7   0  120.29   12.40
   5   7   0  132.39    7.90
   6  -7   0    5.90    5.20
   6   7   0    2.80    2.30
   0  -8   0 3401.36  131.39
   0   8   0 3240.08  130.89
  -1  -8   0  204.18   10.90
   1  -8   0  179.88   11.90
   1   8   0  191.98   10.90
  -1   8   0  176.98   11.50
   2  -8   0  250.77   14.70
   2   8   0  236.88   12.70
  -2   8   0  248.08   14.30
   2   8   0  239.18   13.10
   3  -8   0  108.59   10.90
   3   8   0  102.49    7.30
  -3   8   0  109.89    9.90
   4  -8   0   97.09   10.70
   4   8   0   76.89    6.60
   5  -8   0   56.59    8.90
   5   8   0   54.09    5.50
   0  -9   0   -4.20    2.40
   0   9   0    4.50    3.20
  -1  -9   0   83.79    7.70
   1  -9   0   74.29    8.40
  -1   9   0   81.59    8.70
   1   9   0   77.19    7.60
   2  -9   0  796.82   37.40
   2   9   0  833.02   35.30
  -2   9   0  812.82   36.80
   3  -9   0  270.47   17.10
   3   9   0  270.27   14.20
  -3   9   0  258.27   16.30
   4  -9   0  601.94   30.90
   4   9   0  590.84   26.60
   5  -9   0   -2.80    4.50
   5   9   0    1.30    2.70
   0 -10   0  334.37   17.50
   0  10   0  294.17   17.00
  -1 -10   0    2.20    3.30
   1 -10   0    5.30    4.10
  -1  10   0    8.90    4.10
   1  10   0    7.90    4.00
   2 -10   0 1676.83   72.69
   2  10   0 1738.83   70.49
  -2  10   0 1739.23   72.09
   3 -10   0    0.30    4.00
   3  10   0    3.60    3.00
  -3  10   0    7.30    4.70
   4 -10   0   19.50    6.50
   4  10   0   17.00    4.10
   5 -10   0   17.00    6.90
   5  10   0   25.80    4.80
   0 -11   0    3.20    3.50
   0  11   0    0.60    3.70
   1 -11   0  869.11   39.40
   1  11   0  829.22   37.90
  -1  11   0  843.22   38.70
   2 -11   0  261.67   17.30
   2  11   0  267.47   15.30
  -2  11   0  276.97   17.00
   3 -11   0   26.70    6.80
   3  11   0   29.40    5.20
   4 -11   0  596.24   32.10
   4  11   0  584.74   27.50
   5 -11   0   48.90    9.90
   5  11   0   44.90    6.20
   0  12   0  516.05   26.20
   1 -12   0    8.20    4.80
  -1  12   0   -0.80    4.10
   1  12   0    3.20    4.10
   2 -12   0  205.68   15.60
  -2  12   0  188.08   14.70
   2  12   0  226.98   14.00
   3 -12   0  192.88   17.10
   3  12   0  153.28   11.60
   4 -12   0  242.28   19.30
   4  12   0  268.37   15.60
   0  13   0   -0.40    4.00
   1 -13   0    9.40    4.90
  -1  13   0   -0.40    3.90
   1  13   0    3.20    4.30
   2 -13   0  113.29   12.30
   2  13   0  113.19   11.10
  -2  13   0   99.09   11.40
   3 -13   0   83.39   11.50
   3  13   0   82.89    9.30
   4 -13   0    5.10    6.20
   4  13   0   -0.70    3.40
   0  14   0    6.10    5.00
   1  14   0  234.08   16.50
  -1  14   0  269.77   17.90
   2 -14   0   31.10    7.80
  -2  14   0   54.89    9.60
   2  14   0   60.99    8.50
   3 -14   0  118.99   14.50
   3  14   0  129.99   12.20
   0  15   0    0.70    5.00
  -1  15   0    1.70    5.20
   1  15   0    9.10    5.40
  -2  15   0  167.48   16.00
   2  15   0  146.19   14.10
   0  16   0  422.46   25.70
  -1  16   0   42.10    9.00
   1  16   0   47.60    8.70
   6   0  -1   -1.70    2.90
  -6   0   1   -1.40    1.80
   5   0  -1  178.58   10.80
  -5   0   1  176.98    9.40
  -4   0   1    2.00    1.50
   4   0  -1    4.10    2.40
   4   0  -1   -4.00    1.80
   3   0  -1    0.70    1.50
   3   0  -1    2.60    1.80
   2   0  -1   -3.50    1.40
   2   0  -1   -4.90    0.50
  -2   0   1   -3.30    1.20
   2   0  -1   -6.40    1.20
  -1   0   1  166.58    7.50
  -1   0   1  158.38    7.40
   1   0  -1  172.48    6.90
   1   0  -1  157.48    7.50
  -1   0   1  175.48    6.80
   1   0  -1  172.18    7.50
   0   0  -1   -7.70    0.30
   0   0   1   -7.70    0.50
   0   0  -1   -7.80    0.40
   0   0   1   -7.40    0.50
   0   0   1   -8.00    0.40
   0   0  -1   -7.40    0.50
  -1   0  -1 4276.27  164.88
   1   0   1 4323.17  164.78
   1   0   1 4279.77  165.78
   1   0   1 4239.18  164.98
   2   0   1   -1.70    0.90
   2   0   1   -0.90    0.70
   2   0   1    0.40    1.00
   3   0   1  623.54   25.00
   3   0   1  615.84   25.10
   3   0   1  598.64   24.00
   4   0   1    0.30    1.80
  -4   0  -1   -1.00    1.20
   4   0   1    0.30    1.90
   5   0   1    6.80    2.50
   6   0   1   -1.40    2.60
  -6   0  -1    0.90    1.80
   6  -1  -1   11.00    4.20
  -6  -1   1   20.10    3.40
   6   1  -1   24.30    4.50
  -6   1   1   12.80    3.00
   5  -1  -1    5.40    3.20
  -5  -1   1    2.80    1.70
  -5   1   1    0.60    1.50
   5   1  -1    5.30    2.70
  -4  -1   1  202.58    9.70
   4  -1  -1  212.68   11.50
   4  -1  -1  190.08   10.90
   4   1  -1  188.38   10.40
   4   1  -1  218.08   10.70
  -3  -1   1   72.19    4.20
   3  -1  -1   71.79    5.30
   3  -1  -1   77.09    5.60
   3   1  -1   69.39    4.70
  -3   1   1   72.39    4.50
   3   1  -1   71.29    3.40
   3   1  -1   73.79    4.90
   2  -1  -1  447.66   18.60
  -2  -1   1  431.66   17.70
   2  -1  -1  431.56   18.70
  -2  -1   1  433.96   17.40
   2   1  -1  455.05   18.20
   2   1  -1  424.96   18.00
   2   1  -1  435.46   17.30
   1  -1  -1  279.57   12.40
   1  -1  -1  287.07   12.30
  -1  -1   1  291.57   11.50
  -1  -1   1  280.57   12.20
   1   1  -1  292.87   12.00
  -1   1   1  285.77   11.50
   1   1  -1  301.17   11.60
   1   1  -1  284.67   12.00
  -1   1   1  290.07   12.30
   0  -1  -1   -1.00    0.60
   0  -1   1    0.20    0.80
   0  -1  -1   -1.80    0.50
   0  -1   1   -1.30    0.70
   0  -1   1    0.20    0.50
   0   1  -1   -1.80    0.60
   0   1  -1   -1.60    0.40
   0   1   1    0.80    0.80
   0   1   1   -1.40    0.60
   0   1  -1    0.40    0.80
   1  -1   1  785.52   31.70
   1  -1   1  839.42   31.10
   1  -1   1  801.42   31.60
  -1  -1  -1  755.92   31.10
  -1   1  -1  805.02   31.10
   1   1   1  782.82   31.20
   2  -1   1  437.36   16.70
  -2  -1  -1  419.86   17.20
   2  -1   1  433.96   17.90
   2  -1   1  418.26   17.60
  -2   1  -1  413.06   16.70
   2   1   1  416.76   17.10
   3  -1   1  497.65   21.40
   3  -1   1  511.15   21.70
   3   1   1  509.05   20.60
   3   1   1  500.45   20.40
   3   1   1  517.65   20.40
  -4  -1  -1   23.30    3.00
   4  -1   1   17.20    3.20
   4  -1   1   24.80    3.90
  -4   1  -1   21.40    3.00
   4   1   1   25.10    2.90
   4   1   1   26.80    3.20
   4   1   1   21.50    1.80
   5  -1   1  869.61   37.50
  -5  -1  -1  851.41   36.00
   5   1   1  865.31   36.30
  -5   1  -1  902.11   36.30
   6  -1   1    3.30    3.30
  -6  -1  -1    5.20    2.30
   6   1   1    6.10    2.90
  -6   1  -1    2.10    2.00
   6  -2  -1   14.30    4.30
  -6  -2   1    5.20    2.40
   6   2  -1    3.50    2.80
  -6   2   1   10.30    2.60
   5  -2  -1  543.55   25.10
  -5  -2   1  508.85   22.40
   5   2  -1  517.55   23.30
   4  -2  -1  210.28   11.80
  -4  -2   1  199.38    9.50
   4   2  -1  199.18   10.20
   4   2  -1  199.98   10.30
   4   2  -1  193.18    8.50
   3  -2  -1  539.05   22.80
   3  -2  -1  491.15   22.30
  -3   2   1  499.25   21.40
   3   2  -1  503.85   21.30
   3   2  -1  519.75   21.40
   2  -2  -1  154.28    8.60
   2  -2  -1  179.38    9.10
  -2  -2   1  179.08    7.40
   2   2  -1  166.48    7.80
  -2   2   1  160.58    8.40
   2   2  -1  168.48    7.80
  -2   2   1  168.58    6.90
   1  -2  -1  475.95   20.60
  -1  -2   1  507.15   19.60
   1  -2  -1  517.85   20.90
  -1   2   1  488.45   20.60
   1   2  -1  514.05   19.60
   1   2  -1  498.85   20.20
   1   2  -1  491.35   20.30
   0  -2   1  302.97   13.30
   0  -2  -1  339.87   13.20
   0  -2  -1  311.67   13.10
   0   2   1  341.87   13.20
   0   2  -1  310.27   13.30
   0   2  -1  300.67   13.40
   0   2   1  309.07   13.20
   1  -2   1 3051.79  121.89
   1  -2   1 3033.60  121.99
   1   2   1 3190.28  121.09
  -1   2  -1 3188.28  121.79
  -1   2  -1 3284.97  121.09
  -2  -2  -1   53.89    3.10
   2  -2   1   49.50    4.50
   2  -2   1   49.90    4.00
  -2   2  -1   55.39    2.90
  -2   2  -1   54.79    3.70
   3  -2   1  915.21   38.20
   3  -2   1  917.81   38.60
  -3  -2  -1  957.50   37.20
   3   2   1  941.01   37.00
   4  -2   1   61.79    6.50
  -4  -2  -1   74.59    4.60
   4   2   1   70.19    4.40
   4   2   1   66.69    4.10
   4   2   1   69.19    4.40
   5  -2   1  169.18   11.40
  -5  -2  -1  188.88    9.60
  -5   2  -1  188.68    9.80
   5   2   1  180.08    9.50
   6  -2   1  153.78   11.30
  -6  -2  -1  156.18    9.10
  -6   2  -1  144.59    9.20
   6   2   1  150.68    9.20
  -6  -3   1  325.47   15.40
   6  -3  -1  324.47   18.90
   6   3  -1  310.97   16.20
  -5  -3   1   48.90    4.60
   5  -3  -1   57.99    7.20
   5   3  -1   60.39    5.50
  -4  -3   1  776.82   30.70
   4  -3  -1  789.12   33.50
   4   3  -1  722.23   29.80
   4   3  -1  755.22   31.10
   4   3  -1  722.83   31.00
  -3  -3   1  413.26   16.90
   3  -3  -1  393.46   18.70
   3  -3  -1  422.26   19.30
   3   3  -1  396.86   17.30
   3   3  -1  399.06   17.40
   2  -3  -1   68.39    5.40
   2  -3  -1   82.29    6.10
  -2  -3   1   76.09    3.90
   2   3  -1   78.19    4.60
   2   3  -1   77.09    4.60
  -2   3   1   78.49    5.50
  -1  -3   1 2744.23  103.49
   1  -3  -1 2608.14  104.19
   1   3  -1 2771.42  103.39
   1   3  -1 2582.04  102.49
   1   3  -1 2668.03  103.59
  -1   3   1 2640.74  103.89
   0  -3  -1 1414.66   54.29
   0   3   1 1427.06   54.19
   0   3   1 1340.37   54.29
   0   3  -1 1290.17   54.49
   0   3  -1 1427.76   54.49
   1  -3   1  510.45   21.70
   1  -3   1  508.65   22.10
   1   3   1  507.55   20.60
   1   3   1  510.95   20.40
   1   3   1  537.75   20.60
  -1   3  -1  515.35   21.70
  -2  -3  -1  993.30   38.90
   2  -3   1 1037.00   41.00
   2  -3   1  967.50   40.30
   2  -3   1 1012.60   40.70
  -2   3  -1  965.10   39.90
  -2   3  -1  980.40   38.70
  -3  -3  -1  541.05   22.50
   3  -3   1  560.74   24.60
   3  -3   1  536.15   24.00
  -3   3  -1  551.34   21.70
  -3   3  -1  564.94   23.00
   4  -3   1    3.50    2.90
  -4  -3  -1    6.40    1.70
   4   3   1    5.40    1.50
   4   3   1    6.10    1.70
   4   3   1    6.80    1.40
  -5  -3  -1  285.07   13.20
   5  -3   1  258.47   15.60
   5   3   1  281.17   12.70
   6  -3   1  102.49   10.10
  -6  -3  -1   82.89    6.20
  -6   3  -1   86.69    6.60
   6   3   1   91.09    6.10
   6  -4  -1   -1.80    3.60
  -6  -4   1    0.70    1.80
   6   4  -1    5.90    2.70
   5  -4  -1  112.79   10.80
  -5  -4   1  125.39    7.10
   5   4  -1  129.89    7.90
   4  -4  -1 1820.82   72.29
  -4  -4   1 1775.62   68.69
   4   4  -1 1646.04   69.09
   4   4  -1 1764.92   69.19
  -3  -4   1  238.88   10.70
   3  -4  -1  245.28   13.50
   3   4  -1  247.98   11.30
  -3   4   1  232.08   12.40
   3   4  -1  254.57   11.50
   2  -4  -1  958.10   39.60
  -2   4   1  929.61   38.90
   2   4  -1  932.51   38.00
   2   4  -1  954.60   37.90
  -1  -4   1   34.10    3.50
   1  -4  -1   27.40    4.00
  -1  -4   1   36.10    3.30
  -1   4   1   35.80    4.10
   1   4  -1   25.80    3.30
   1   4  -1   35.60    3.40
   0  -4   1 5648.73  216.58
   0  -4  -1 5548.04  216.08
   0   4   1 5586.94  216.08
   0   4   1 5578.94  216.28
   0   4  -1 5653.53  216.28
  -1  -4  -1   58.69    3.20
   1  -4   1   53.79    5.30
   1   4   1   56.79    3.90
   1   4   1   54.29    3.80
  -1   4  -1   50.99    4.80
   2  -4   1  155.48    9.70
   2  -4   1  164.58    9.60
   2  -4   1  166.88   10.00
   2   4   1  166.58    7.40
   2   4   1  169.98    7.30
  -2   4  -1  164.28    7.50
  -2   4  -1  164.28    9.10
  -3  -4  -1   31.20    2.90
   3  -4   1   25.90    4.20
   3  -4   1   26.70    4.50
  -3   4  -1   31.90    2.40
   3   4   1   34.70    2.30
   3   4   1   34.00    2.20
   4  -4   1  133.19   10.10
  -4  -4  -1  149.29    7.40
   4   4   1  139.49    6.60
   4   4   1  139.19    6.60
   5  -4   1  200.48   13.20
  -5  -4  -1  187.98    9.70
   5   4   1  184.78    9.00
  -6  -4  -1  224.28   12.00
   6  -4   1  257.27   16.00
  -6   4  -1  219.68   12.20
   6   4   1  229.98   11.20
  -6  -5   1  390.56   18.50
   6  -5  -1  434.96   23.50
   6   5  -1  402.46   19.30
   5  -5  -1   10.00    4.60
  -5  -5   1   14.20    2.50
   5   5  -1   15.00    3.10
   4  -5  -1  841.72   37.40
  -4  -5   1  803.42   33.50
   4   5  -1  839.02   34.20
   3  -5  -1   79.89    7.90
   3   5  -1   74.89    5.20
   3   5  -1   65.59    5.20
  -3   5   1   74.69    6.90
   2  -5  -1   38.80    5.30
  -2  -5   1   37.30    3.10
   2   5  -1   34.10    3.60
  -2   5   1   25.60    4.10
   2   5  -1   31.50    3.70
   1  -5  -1 1867.31   74.89
  -1  -5   1 1892.51   73.99
   1   5  -1 1822.52   73.79
  -1   5   1 1929.11   74.59
   1   5  -1 1841.82   74.19
   0  -5   1  947.81   38.20
   0  -5  -1  916.71   37.60
   0  -5   1  937.51   38.00
   0   5   1  930.91   37.60
   0   5  -1  930.31   37.60
   0   5   1  842.92   37.50
   1  -5   1   19.80    3.70
   1  -5   1   22.70    4.10
  -1  -5  -1   22.40    2.50
   1   5   1   22.40    3.00
  -1   5  -1   19.90    3.60
   1   5   1   18.00    2.70
   2  -5   1  322.47   16.50
  -2   5  -1  340.07   14.10
  -2   5  -1  333.87   15.90
   2   5   1  339.97   14.20
   2   5   1  315.57   14.30
   3  -5   1  751.22   33.10
   3   5   1  747.63   29.60
  -3   5  -1  716.83   29.40
  -3   5  -1  736.63   31.60
   3   5   1  753.72   29.80
   4  -5   1   -0.80    3.00
   4   5   1    0.20    1.30
   4   5   1    0.60    1.10
  -5  -5  -1  247.48   11.70
   5  -5   1  227.58   15.30
   5   5   1  227.78   10.60
   6  -5   1   81.89   10.20
   6   5   1   98.79    5.90
   6  -6  -1   -5.40    4.00
   6   6  -1    1.60    2.70
   5  -6  -1   16.50    5.50
   5   6  -1   18.60    3.50
   4  -6  -1   -1.30    3.20
   4   6  -1    0.50    2.10
   3  -6  -1  163.58   11.20
   3   6  -1  159.48    8.80
  -3   6   1  159.68   10.30
   3   6  -1  158.98    9.00
  -2  -6   1 2772.52  104.99
   2  -6  -1 2683.93  107.69
  -2   6   1 2706.23  107.09
   2   6  -1 2655.23  105.69
   2   6  -1 2670.03  106.09
  -1  -6   1  154.18    8.80
   1  -6  -1  170.38   10.00
   1   6  -1  156.28    9.20
  -1   6   1  159.48    9.40
   1   6  -1  159.38    9.00
   0  -6   1  609.14   27.20
   0  -6  -1  622.44   27.00
   0  -6   1  635.74   27.60
   0   6  -1  629.54   27.10
   0   6   1  624.54   26.90
   1  -6   1  809.22   34.70
   1   6   1  818.12   33.30
   1   6   1  777.72   33.40
  -1   6  -1  814.02   34.20
   2  -6   1  356.36   18.40
   2   6   1  376.86   16.30
  -2   6  -1  371.96   17.90
   2   6   1  357.56   16.30
   2   6   1  371.26   16.60
   3  -6   1  654.73   29.80
   3   6   1  632.04   26.20
  -3   6  -1  633.74   25.90
  -3   6  -1  670.83   28.70
   3   6   1  617.44   26.50
   4  -6   1    9.20    4.20
   4   6   1    4.00    1.60
   4   6   1    4.20    2.00
   5  -6   1   57.99    8.40
   5   6   1   49.20    4.10
   6  -6   1   41.80    7.80
   6   6   1   49.90    4.10
   6  -7  -1  163.88   15.50
   6   7  -1  147.29    9.80
   5  -7  -1   15.00    5.30
   5   7  -1   13.90    3.30
   4  -7  -1  428.46   23.20
   4   7  -1  426.76   19.60
   3  -7  -1  279.77   16.90
   3   7  -1  288.37   14.60
  -3   7   1  297.87   16.10
   3   7  -1  304.57   14.40
   2  -7  -1   -3.70    2.70
  -2  -7   1    0.10    1.70
   2   7  -1    2.50    2.30
   2   7  -1   -1.70    2.00
  -2   7   1    1.80    3.10
   1  -7  -1  511.45   22.50
  -1  -7   1  475.45   21.20
  -1   7   1  450.95   21.80
   1   7  -1  442.26   21.20
   0  -7   1  140.39    9.10
   0  -7  -1  128.19    8.60
   0   7  -1  132.19    8.70
   0   7   1  135.99    8.60
   1  -7   1  507.25   23.60
   1   7   1  491.05   22.40
  -1   7  -1  503.95   23.10
   1   7   1  507.05   22.30
   2  -7   1   11.30    3.80
   2   7   1   13.30    3.00
  -2   7  -1   13.50    3.70
   2   7   1   11.80    2.80
   2   7   1   10.50    2.60
   3  -7   1   11.10    4.30
   3   7   1   10.10    2.80
  -3   7  -1   20.80    4.60
   3   7   1   13.60    2.80
   4  -7   1   77.89    9.40
   4   7   1   68.29    5.00
   5  -7   1  345.57   21.70
   5   7   1  383.36   16.60
   5  -8  -1   70.49    9.90
   5   8  -1   71.19    6.70
   4  -8  -1  110.39   11.60
   4   8  -1   92.19    7.20
   3  -8  -1   40.60    7.00
  -3   8   1   53.19    7.30
   3   8  -1   45.10    5.30
   2  -8  -1  613.74   29.50
  -2  -8   1  624.64   26.90
   2   8  -1  647.94   27.90
   2   8  -1  587.44   28.00
  -2   8   1  670.23   29.40
  -1  -8   1    2.90    2.60
   1  -8  -1    1.00    2.80
  -1   8   1   -0.50    3.00
   1   8  -1    2.20    2.80
   0  -8   1  753.12   33.10
   0  -8  -1  733.43   32.70
   0   8   1  719.73   32.40
   0   8  -1  787.02   33.00
   1  -8   1  846.02   37.00
   1   8   1  820.62   36.10
  -1   8  -1  864.81   36.70
   1   8   1  777.32   35.70
   1   8   1  869.81   35.70
   2  -8   1  129.79    9.90
   2   8   1  100.79    7.60
  -2   8  -1  103.09    9.50
   2   8   1  112.59    7.60
   3  -8   1  819.12   37.50
  -3   8  -1  814.32   36.10
   3   8   1  778.22   33.60
   4  -8   1  154.38   13.90
   4   8   1  137.39    8.30
   5  -8   1   17.10    5.70
   5   8   1   16.70    3.10
   5  -9  -1   21.00    7.00
   5   9  -1   21.10    4.30
   4  -9  -1   10.30    5.50
   4   9  -1   10.50    3.50
   3  -9  -1    8.00    4.50
   3   9  -1    5.90    3.10
  -3   9   1    4.50    4.00
   2  -9  -1   11.90    4.50
   2   9  -1   13.20    3.90
  -2   9   1   25.50    5.90
  -1  -9   1  137.39    9.60
   1  -9  -1  149.49   10.80
   1   9  -1  148.49   10.00
  -1   9   1  134.09   10.30
   0  -9   1    0.90    2.80
   0  -9  -1    3.20    2.90
   0   9  -1    1.70    2.90
   0   9   1   -0.50    2.70
   1  -9   1    3.40    3.50
  -1  -9  -1    0.50    2.30
   1   9   1    3.10    3.10
  -1   9  -1   -1.10    3.00
   2  -9   1    4.40    4.10
   2   9   1    7.30    3.10
  -2   9  -1   11.40    4.40
   3  -9   1  221.58   15.20
   3   9   1  205.78   11.60
   4  -9   1  113.69   12.30
   4   9   1  111.09    7.80
   5  -9   1  490.85   27.40
   5   9   1  457.75   21.20
   5 -10  -1  313.57   21.80
   5  10  -1  323.77   17.20
   4 -10  -1    4.50    4.60
   4  10  -1    3.60    3.20
   3 -10  -1  134.09   12.90
   3  10  -1  146.49   10.10
  -3  10   1  136.39   12.50
   2 -10  -1   38.20    7.10
   2  10  -1   32.30    5.40
  -2  10   1   36.80    6.80
   1 -10  -1  321.77   17.80
  -1 -10   1  293.77   16.40
   1  10  -1  317.47   16.90
  -1  10   1  297.77   17.30
   0 -10  -1    5.10    3.50
   0 -10   1    2.90    3.50
   0  10   1    2.60    3.60
   0  10  -1   10.10    4.20
   1 -10   1  863.61   39.90
  -1  10  -1  903.31   39.50
   1  10   1  869.91   38.50
   2 -10   1   36.30    6.90
   2  10   1   53.99    6.30
  -2  10  -1   35.10    6.40
   3 -10   1 1060.09   49.60
   3  10   1 1111.09   46.00
   4 -10   1   48.80    8.80
   4  10   1   61.59    6.40
   5 -10   1  102.79   13.30
   5  10   1  128.89    8.90
   5 -11  -1   87.69   12.30
   5  11  -1   57.29    7.50
   4 -11  -1  104.69   12.70
   4  11  -1  108.19    9.90
   3 -11  -1    5.10    4.80
  -3  11   1    4.30    4.70
   3  11  -1   -2.60    2.90
   2 -11  -1   21.10    5.70
   2  11  -1   24.00    5.10
  -2  11   1   33.70    6.50
   1 -11  -1  158.58   12.70
   1  11  -1  201.88   12.90
  -1  11   1  193.58   13.40
   0 -11  -1  441.36   23.00
   0 -11   1  474.55   23.80
   0  11   1  474.55   23.40
   0  11  -1  441.96   23.40
   1 -11   1   59.89    8.40
  -1  11  -1   72.19    8.70
   1  11   1   67.19    7.80
   2 -11   1    6.70    4.80
  -2  11  -1    7.50    4.30
   2  11   1    2.70    3.50
   3 -11   1  114.99   12.80
   3  11   1  115.69    9.10
   4 -11   1    9.50    5.90
   4  11   1   18.10    4.40
   4 -12  -1  129.79   14.60
   4  12  -1  118.69   10.90
   3 -12  -1   66.59    9.70
   3  12  -1   58.89    7.60
   2 -12  -1  572.14   30.00
  -2  12   1  560.04   29.40
   2  12  -1  586.94   28.20
   1 -12  -1  288.67   17.50
  -1  12   1  258.77   17.00
   1  12  -1  272.27   16.70
   0 -12   1  520.35   26.40
   0  12  -1  509.45   26.00
   0  12   1  493.55   25.80
   1 -12   1  242.68   17.10
  -1  12  -1  311.07   17.70
   1  12   1  268.07   16.50
   2 -12   1   28.80    7.20
   2  12   1   44.40    6.50
  -2  12  -1   56.69    8.30
   3 -12   1  214.28   18.60
   3  12   1  195.08   13.20
   4 -12   1   47.20    9.90
   4  12   1   40.20    6.20
   4 -13  -1  222.48   20.40
   4  13  -1  260.37   16.20
   3 -13  -1  227.08   17.90
   3  13  -1  249.58   15.80
   2 -13  -1   10.10    5.40
   2  13  -1   10.40    4.60
  -2  13   1    5.80    5.20
   1 -13  -1  140.29   16.40
  -1  13   1  159.88   14.40
   1  13  -1  171.48   14.30
   0  13  -1  194.68   14.40
   0  13   1  192.08   14.30
   1 -13   1   39.90    7.50
   1  13   1   48.50    7.40
  -1  13  -1   53.39    8.70
   2 -13   1   31.90    7.70
   2  13   1   40.00    6.80
  -2  13  -1   38.90    7.40
   3 -13   1   56.39    9.90
   3  13   1   50.49    7.40
   4 -13   1   12.50    6.40
   4  13   1    2.50    3.90
   3 -14  -1   60.19   10.70
   3  14  -1   84.79   10.00
   2 -14  -1 1244.68   57.89
   2  14  -1 1311.47   56.39
  -2  14   1 1227.98   57.29
   1  14  -1  296.17   18.50
  -1  14   1  248.18   18.00
   0  14   1   10.40    5.20
   0  14  -1   13.20    5.30
   1  14   1    9.20    5.10
  -1  14  -1    3.80    4.80
   2 -14   1   48.50    9.50
   2  14   1   38.00    7.10
  -2  14  -1   24.20    7.20
   3 -14   1   45.10    9.60
   3  14   1   41.40    7.40
   3 -15  -1    2.80    6.80
   3  15  -1   12.60    5.60
  -2  15   1   25.20    7.40
   2  15  -1   26.70    7.20
  -1  15   1  107.09   12.30
   1  15  -1  108.19   12.30
   0  15   1   30.00    7.30
   0  15  -1   35.50    7.70
  -1  15  -1  134.59   14.20
   1  15   1  161.28   14.60
   2  15   1   63.79    9.10
   2  16  -1  217.28   16.70
  -2  16   1  170.08   17.40
   1  16  -1   68.09   10.40
  -1  16   1   69.79   11.00
   0  16  -1  348.87   22.80
   0  16   1  358.76   23.00
   1  16   1   14.40    6.40
  -1  16  -1   13.20    6.90
  -6   0   2  172.98    9.70
   6   0  -2  170.38   11.80
   5   0  -2   -3.70    2.20
  -5   0   2   -0.90    1.30
   4   0  -2 3462.65  133.49
   4   0  -2 3333.17  133.29
  -3   0   2    1.00    1.50
   3   0  -2   -1.80    1.60
   3   0  -2    1.00    0.70
   3   0  -2    0.20    1.80
   2   0  -2  784.32   32.20
  -2   0   2  793.22   30.80
   2   0  -2  784.62   30.90
  -2   0   2  804.12   32.00
   2   0  -2  786.12   32.30
   1   0  -2   -0.60    1.50
   1   0  -2   -1.30    1.40
   1   0  -2    0.40    1.10
  -1   0   2   -0.30    1.10
  -1   0   2   -0.20    1.70
   0   0  -2 5554.34  205.08
   0   0   2 4826.62  201.88
   0   0  -2 5287.97  203.48
   0   0  -2 5152.28  203.28
   0   0   2 5452.85  201.78
   0   0   2 5270.37  203.28
   0   0   2 5266.57  204.48
  -1   0  -2   -1.00    0.60
   1   0   2   -0.40    1.10
  -1   0  -2   -0.40    0.70
   1   0   2   -0.40    1.00
   1   0   2    0.40    1.10
  -1   0  -2    0.00    1.00
   2   0   2 2436.06   96.19
   2   0   2 2581.14   96.29
  -2   0  -2 2463.95   96.29
   2   0   2 2483.25   96.19
   3   0   2   -1.50    1.10
  -3   0  -2   -0.90    0.90
   3   0   2    1.00    1.50
   3   0   2   -1.20    1.20
  -4   0  -2  229.58   10.40
   4   0   2  203.08   10.60
   4   0   2  211.78    8.90
   4   0   2  201.48   10.30
  -5   0  -2    0.50    1.70
   5   0   2   -0.30    2.20
   6   0   2  203.18   12.50
  -6   0  -2  228.78   11.70
   6  -1  -2  700.63   33.00
  -6  -1   2  720.03   30.30
   6   1  -2  678.43   31.90
  -6   1   2  717.83   30.50
  -5  -1   2   17.40    2.90
   5  -1  -2   19.00    4.20
   5   1  -2   15.30    3.60
  -4  -1   2  235.08   10.80
   4  -1  -2  226.08   12.70
   4   1  -2  247.48   12.30
   4   1  -2  219.48   12.10
  -3  -1   2    0.30    1.00
   3  -1  -2    0.30    1.90
   3  -1  -2    0.90    2.10
   3   1  -2    0.70    1.80
  -3   1   2    1.10    1.50
   3   1  -2    0.10    1.60
   3   1  -2    0.10    0.90
   2  -1  -2 1132.29   43.40
   2  -1  -2 1108.89   45.00
   2  -1  -2 1112.09   44.90
  -2   1   2 1144.69   43.30
   2   1  -2 1115.99   44.60
  -2   1   2 1107.29   44.50
   2   1  -2 1112.29   43.50
   2   1  -2 1095.09   44.60
   1  -1  -2 1334.07   53.49
   1  -1  -2 1257.27   53.29
  -1  -1   2 1383.86   53.29
  -1  -1   2 1338.47   52.19
  -1  -1   2 1514.55   52.59
   1  -1  -2 1311.87   52.59
   1   1  -2 1465.35   52.69
   1   1  -2 1307.57   53.19
   1   1  -2 1297.27   53.29
  -1   1   2 1301.97   53.29
  -1   1   2 1319.77   52.59
   0  -1   2  562.64   22.90
   0  -1   2  582.14   22.40
   0  -1   2  595.04   22.80
   0  -1  -2  573.74   22.60
   0  -1  -2  536.15   22.40
   0   1   2  551.54   22.50
   0   1   2  546.65   22.60
   0   1   2  601.94   22.70
   0   1  -2  528.45   22.30
   0   1  -2  521.25   22.70
   0   1  -2  596.34   22.80
  -1  -1  -2 4903.11  186.28
   1  -1   2 4696.93  186.78
   1  -1   2 4766.92  185.48
   1  -1   2 4637.04  184.48
   1   1   2 4798.42  184.88
  -1   1  -2 4851.11  184.18
   1   1   2 4882.21  186.38
   1   1   2 4705.73  184.48
   1   1   2 4904.31  186.08
   2  -1   2  295.97   12.30
  -2  -1  -2  285.17   12.30
   2  -1   2  288.67   12.90
   2  -1   2  314.17   13.10
  -2   1  -2  295.87   12.40
   2   1   2  295.97   12.60
  -3  -1  -2   45.30    3.30
   3  -1   2   48.20    4.10
   3  -1   2   49.99    4.60
   3  -1   2   51.29    3.00
   3   1   2   45.30    3.00
   3   1   2   43.00    3.30
   3   1   2   48.20    3.00
  -4  -1  -2   34.90    3.50
   4  -1   2   35.00    4.50
   4   1   2   31.10    2.80
   4   1   2   30.90    3.30
  -4   1  -2   36.60    3.80
   4   1   2   37.80    3.40
  -5  -1  -2   43.00    4.40
   5  -1   2   41.00    5.30
  -5   1  -2   39.20    4.40
   5   1   2   35.00    4.30
   6  -1   2  381.76   19.10
  -6  -1  -2  364.96   17.50
  -6   1  -2  364.06   17.50
   6   1   2  361.06   17.70
  -6  -2   2   90.69    6.40
   6  -2  -2   74.49    8.80
   6   2  -2   87.99    8.30
  -6   2   2  102.09    6.90
   5  -2  -2  114.59   10.00
  -5  -2   2  107.49    6.60
   5   2  -2  121.09    8.20
   4  -2  -2  862.21   36.20
  -4  -2   2  846.92   33.70
   4   2  -2  840.12   34.90
   4   2  -2  790.22   32.70
   4   2  -2  828.32   34.80
  -3  -2   2   32.00    2.80
   3  -2  -2   40.30    4.70
   3  -2  -2   34.80    4.50
   3   2  -2   31.60    3.70
  -3   2   2   42.60    4.20
   3   2  -2   29.70    3.50
   3   2  -2   37.70    2.80
   2  -2  -2  509.95   22.50
   2  -2  -2  541.75   22.80
  -2  -2   2  529.85   20.90
  -2   2   2  513.55   20.80
   2   2  -2  530.75   21.00
   2   2  -2  522.95   22.00
   2   2  -2  521.45   21.90
  -2   2   2  518.45   22.20
  -1  -2   2 1758.22   69.09
   1  -2  -2 1937.51   69.59
  -1  -2   2 1827.12   68.39
   1   2  -2 1764.82   69.19
  -1   2   2 1680.73   69.19
   1   2  -2 1719.23   67.89
   1   2  -2 1724.63   68.39
  -1   2   2 1703.03   68.39
   1   2  -2 1792.52   69.09
   0  -2  -2  873.51   33.80
   0  -2   2  862.91   33.50
   0  -2   2  837.52   34.10
   0  -2   2  872.11   34.30
   0   2   2  834.02   33.90
   0   2  -2  885.31   34.10
   0   2   2  820.42   33.90
   0   2  -2  828.32   33.50
   1  -2   2  737.23   30.10
   1  -2   2  786.32   31.10
   1  -2   2  757.22   30.90
   1   2   2  766.22   29.90
   1   2   2  786.52   29.90
   1   2   2  760.22   29.80
  -1   2  -2  762.92   30.20
  -1   2  -2  753.42   30.80
   2  -2   2 3347.06  134.19
   2  -2   2 3444.66  134.59
   2  -2   2 3577.44  133.09
  -2   2  -2 3375.06  133.49
   2   2   2 3500.05  133.69
  -2   2  -2 3508.05  133.29
  -3  -2  -2  214.68    9.90
   3  -2   2  223.18   11.00
   3  -2   2  228.18   11.60
   3   2   2  225.68   10.10
  -3   2  -2  205.18    9.30
   4  -2   2  127.59    8.30
  -4  -2  -2  119.09    6.50
   4   2   2  119.49    6.20
   4   2   2  109.29    5.70
   4   2   2  114.59    5.90
   5  -2   2    8.90    3.50
  -5  -2  -2    3.20    1.70
   5   2   2    4.70    1.90
  -5   2  -2    5.00    2.10
   6  -2   2    4.70    3.90
  -6  -2  -2   14.80    3.20
  -6   2  -2    9.70    2.80
   6   2   2   11.20    2.90
  -6  -3   2  114.39    7.30
   6  -3  -2  125.39   11.70
   6   3  -2  121.69    9.10
  -5  -3   2    8.80    2.10
   5  -3  -2    5.20    3.70
   5   3  -2    7.20    2.70
   4  -3  -2  915.11   38.90
  -4  -3   2  932.61   35.90
   4   3  -2  890.31   37.00
   4   3  -2  881.31   35.30
   4   3  -2  823.82   36.80
   3  -3  -2 2969.90  116.19
  -3  -3   2 2919.71  113.59
   3   3  -2 2937.01  113.59
  -3   3   2 2953.90  112.79
   3   3  -2 2795.22  114.59
   3   3  -2 3076.59  114.79
  -3   3   2 2914.11  115.09
  -2  -3   2  212.38   10.20
   2  -3  -2  225.38   11.60
  -2  -3   2  231.58    9.40
  -2   3   2  222.08   11.20
   2   3  -2  222.78    9.80
   2   3  -2  228.18   10.60
  -2   3   2  221.98    9.60
   2   3  -2  221.28   10.70
   1  -3  -2   49.40    4.60
  -1  -3   2   61.99    4.40
   1   3  -2   59.09    4.30
   1   3  -2   58.39    3.50
   1   3  -2   56.59    2.70
   1   3  -2   54.69    4.30
  -1   3   2   61.49    4.80
   0  -3  -2   10.50    2.10
   0  -3   2   10.60    2.30
   0   3  -2   10.90    2.40
   0   3   2   14.60    2.40
   0   3   2   13.70    2.50
   0   3  -2   11.10    1.80
   1  -3   2  379.96   17.20
   1  -3   2  382.36   16.90
   1   3   2  380.36   15.70
  -1   3  -2  390.26   15.80
   1   3   2  358.66   15.50
   1   3   2  406.16   15.80
  -1   3  -2  371.56   16.80
   2  -3   2    7.80    2.80
  -2  -3  -2   11.20    1.50
   2  -3   2   14.30    2.70
  -2   3  -2   12.40    1.80
   3  -3   2  745.33   32.20
   3  -3   2  767.12   32.90
  -3  -3  -2  745.53   30.50
   3   3   2  781.22   31.00
  -3   3  -2  758.12   30.20
   4  -3   2   87.39    8.00
  -4  -3  -2   73.19    4.70
   4   3   2   73.19    4.90
   5  -3   2  245.28   14.40
  -5  -3  -2  237.28   11.60
  -5   3  -2  253.97   12.10
   5   3   2  219.38   10.50
   6  -3   2    8.80    4.40
  -6  -3  -2   -0.80    2.00
   6   3   2    6.30    2.20
  -6   3  -2    5.00    2.60
  -6  -4   2   50.29    5.00
   6  -4  -2   47.40    7.70
   6   4  -2   43.60    5.90
  -5  -4   2   17.20    2.60
   5  -4  -2   18.10    5.20
   5   4  -2   22.50    3.90
  -4  -4   2  153.08    7.60
   4  -4  -2  159.78   11.00
   4   4  -2  141.19    8.70
  -3  -4   2  754.12   29.80
   3  -4  -2  743.43   32.80
  -3   4   2  718.23   29.30
  -3   4   2  751.72   31.90
   3   4  -2  741.73   31.10
   3   4  -2  761.32   31.00
   2  -4  -2    6.50    2.80
  -2  -4   2    6.10    1.80
   2   4  -2    7.10    2.30
  -2   4   2    6.80    2.60
   2   4  -2    8.50    2.20
   1  -4  -2  472.55   20.40
  -1  -4   2  471.15   20.00
   1   4  -2  458.05   19.90
   1   4  -2  452.85   19.70
  -1   4   2  433.46   20.10
   0  -4   2   42.70    4.80
   0  -4  -2   63.19    4.60
   0   4  -2   62.19    5.20
   0   4   2   67.79    4.90
   0   4   2   59.89    4.70
   1  -4   2 1309.87   51.49
  -1  -4  -2 1242.08   48.90
   1   4   2 1237.68   49.80
  -1   4  -2 1288.47   49.70
   1   4   2 1235.18   49.80
  -1   4  -2 1281.47   50.99
   2  -4   2   97.19    7.10
   2  -4   2  125.69    8.10
  -2   4  -2  116.29    7.10
   2   4   2  115.09    5.30
  -2   4  -2  112.69    5.80
   2   4   2  113.09    5.30
   3  -4   2  817.22   35.20
   3  -4   2  787.52   34.60
  -3  -4  -2  821.92   32.50
   3  -4   2  816.72   35.50
  -3   4  -2  781.32   32.20
  -3   4  -2  831.82   33.50
  -4  -4  -2   63.69    4.40
   4  -4   2   59.79    7.00
   4   4   2   74.19    5.00
   5  -4   2  194.08   13.30
  -5  -4  -2  207.58   10.40
   6  -4   2   -6.80    3.30
  -6  -4  -2    4.60    2.60
  -6   4  -2    6.20    2.60
   6  -5  -2    4.90    5.00
  -6  -5   2    1.50    2.00
   6   5  -2   -2.10    2.50
   5  -5  -2   46.10    7.50
  -5  -5   2   50.39    4.50
   5   5  -2   48.20    5.50
  -4  -5   2   60.49    4.10
   4  -5  -2   53.19    7.40
   4   5  -2   63.09    5.80
   3  -5  -2  688.23   31.10
   3   5  -2  667.53   29.20
  -3   5   2  676.23   27.50
  -3   5   2  689.13   30.20
   3   5  -2  712.13   29.20
   2  -5  -2  212.28   12.00
   2   5  -2  208.08   10.60
  -2   5   2  227.58   11.70
   2   5  -2  199.38   10.70
   1  -5  -2  262.47   12.80
  -1  -5   2  235.88   12.20
  -1   5   2  251.77   12.60
   1   5  -2  233.08   11.90
   0  -5   2  185.78   10.20
   0  -5  -2  178.88    9.40
   0   5  -2  176.38    9.90
   0   5   2  183.78    9.60
   0   5   2  171.48    9.50
  -1  -5  -2  398.26   16.50
   1  -5   2  412.46   19.10
   1   5   2  382.66   17.40
  -1   5  -2  396.06   18.40
  -1   5  -2  397.06   16.90
   1   5   2  408.76   17.40
   2  -5   2  832.12   34.80
   2   5   2  784.12   31.90
   2   5   2  777.32   31.70
  -2   5  -2  792.32   31.90
  -2   5  -2  792.42   33.70
   3  -5   2  992.40   44.10
   3  -5   2 1036.40   44.70
   3   5   2 1050.19   40.50
  -3   5  -2 1019.70   40.80
   3   5   2 1044.50   40.40
   4  -5   2    2.00    3.20
   4   5   2    2.30    1.70
   5  -5   2  203.68   14.20
   6  -5   2   -0.10    4.20
  -6   5  -2   -1.10    2.20
   6  -6  -2    3.50    4.70
   6   6  -2    7.30    3.40
   5  -6  -2  105.19   11.20
   5   6  -2  100.49    7.80
   4  -6  -2  158.18   11.40
   4   6  -2  128.59    8.50
   3  -6  -2   25.70    5.20
  -3   6   2   38.40    5.60
   3   6  -2   27.90    3.80
   3   6  -2   26.20    4.10
   2  -6  -2  286.37   15.60
   2   6  -2  288.57   14.50
  -2   6   2  286.97   15.20
   2   6  -2  311.47   14.40
  -1  -6   2 3074.89  120.49
   1  -6  -2 2962.10  120.69
   1   6  -2 3030.50  120.09
  -1   6   2 3186.08  120.79
   0  -6   2  135.59    8.60
   0  -6  -2  122.29    7.70
   0   6  -2  119.59    8.00
   0   6   2  109.69    7.70
  -1  -6  -2 3752.02  143.19
   1  -6   2 3743.23  145.89
  -1   6  -2 3567.74  144.99
   1   6   2 3767.42  143.99
   1   6   2 3669.83  144.19
   2  -6   2   28.20    5.10
   2  -6   2   22.90    4.40
   2   6   2   36.20    3.70
  -2   6  -2   37.40    4.90
   2   6   2   40.30    3.80
   3  -6   2   20.60    5.10
  -3   6  -2   20.10    2.70
   3   6   2   20.70    2.60
  -3   6  -2   18.20    3.90
   3   6   2   17.80    2.50
   4  -6   2   26.80    5.50
   4   6   2   24.80    2.70
   4   6   2   24.40    2.50
   5  -6   2    3.20    4.20
   6  -7  -2  169.68   15.90
   6   7  -2  172.58   11.30
   5  -7  -2  176.48   15.50
   5   7  -2  180.58   11.00
   4  -7  -2   95.79   10.30
   4   7  -2   87.19    7.60
   3  -7  -2  151.88   11.00
  -3   7   2  172.48   11.10
   3   7  -2  131.59    8.90
   2  -7  -2   -0.40    2.90
  -2  -7   2    0.10    1.10
   2   7  -2    0.50    2.20
  -2   7   2   -3.30    2.80
   2   7  -2   -2.90    2.10
  -1  -7   2  354.96   17.70
   1  -7  -2  361.96   18.00
  -1  -7   2  348.37   17.40
  -1   7   2  383.36   18.10
   1   7  -2  361.26   17.50
   0  -7   2  391.96   19.70
   0  -7  -2  396.16   18.70
   0  -7   2  404.96   19.50
   0   7   2  395.36   19.00
   0   7  -2  427.36   19.40
   1  -7   2  457.45   22.90
  -1  -7  -2  473.05   20.20
   1  -7   2  455.75   22.50
   1   7   2  451.45   21.10
   1   7   2  468.25   21.00
  -1   7  -2  504.45   22.30
   2  -7   2   -2.40    3.30
   2  -7   2   -0.30    3.00
   2   7   2    5.00    2.20
  -2   7  -2    0.40    2.80
   2   7   2   -2.10    2.00
   3  -7   2  456.75   23.50
   3   7   2  450.15   20.20
   3   7   2  457.95   19.70
   3   7   2  460.05   20.00
   4  -7   2    7.80    4.30
   4   7   2    2.40    1.70
   5  -7   2  111.79   12.10
   5   7   2  120.09    6.20
   5  -8  -2   -4.70    3.60
   5   8  -2   -5.00    2.20
   4  -8  -2 1067.39   48.00
   4   8  -2 1041.50   44.50
   3  -8  -2  234.48   15.20
  -3   8   2  231.38   14.50
   3   8  -2  242.48   13.00
   2  -8  -2  203.88   13.20
  -2   8   2  210.28   13.20
   2   8  -2  200.78   11.60
   1  -8  -2  310.87   16.90
  -1  -8   2  340.07   16.60
   1   8  -2  328.37   16.60
  -1   8   2  306.67   16.90
   0  -8   2  730.53   32.60
   0  -8  -2  737.63   31.80
   0  -8   2  728.33   33.00
   0   8   2  719.23   32.00
   0   8  -2  724.53   32.20
   1  -8   2  760.92   34.90
  -1  -8  -2  784.02   32.40
   1  -8   2  796.82   35.50
   1   8   2  755.92   33.50
   1   8   2  785.42   33.30
  -1   8  -2  759.62   34.30
   2  -8   2  150.98   11.10
  -2   8  -2  153.58   10.80
   2   8   2  153.58    9.10
   2   8   2  142.59    9.10
   3  -8   2   20.90    5.30
   3   8   2   26.20    3.70
   4  -8   2  626.14   32.30
   4   8   2  651.43   27.20
   5  -8   2   -0.40    4.40
   5   8   2    1.80    1.70
   5  -9  -2  102.79   12.70
   5   9  -2  131.59    9.50
   4  -9  -2   25.20    6.60
   4   9  -2   14.30    4.00
   3  -9  -2   50.59    7.90
   3   9  -2   48.70    6.00
  -3   9   2   33.90    6.30
   2  -9  -2    1.40    3.60
   2   9  -2    3.80    3.10
  -2   9   2   -1.10    3.70
  -1  -9   2  305.67   17.00
   1  -9  -2  337.27   17.80
   1   9  -2  341.87   17.40
  -1   9   2  325.47   17.80
   0  -9   2   72.59    8.20
   0  -9  -2   73.59    7.40
   0   9   2   77.59    7.70
   0   9  -2   64.69    7.30
   1  -9   2 1050.19   48.10
   1   9   2 1096.29   46.50
  -1   9  -2 1175.98   48.00
   2  -9   2   31.30    6.20
   2   9   2   32.80    4.80
  -2   9  -2   32.20    5.90
   3  -9   2  124.89   12.40
   3   9   2  128.49    8.50
   4  -9   2   97.89   11.80
   4   9   2  118.79    7.80
   5  -9   2   37.60    8.30
   5   9   2   34.50    4.30
   5 -10  -2   -1.20    5.10
   5  10  -2    1.90    3.40
   4 -10  -2  169.88   15.50
   4  10  -2  158.98   11.10
   3 -10  -2  109.89   11.70
   3  10  -2   91.29    8.90
  -3  10   2  118.79   11.20
   2 -10  -2 2449.05   98.89
  -2  10   2 2464.25   98.49
   2  10  -2 2300.67   96.99
   1 -10  -2    6.20    3.80
  -1 -10   2   -1.10    2.90
  -1  10   2    3.40    3.60
   1  10  -2    5.50    3.60
   0 -10   2  260.37   15.40
   0 -10  -2  245.68   14.40
   0  10   2  242.48   14.70
   0  10  -2  253.17   15.20
   1 -10   2  115.79   11.10
   1  10   2   87.19    8.30
  -1  10  -2   84.19    8.90
   2 -10   2   70.49    9.30
  -2  10  -2   64.19    8.30
   2  10   2   69.69    7.10
   3 -10   2    1.40    4.30
   3  10   2    2.40    3.00
   4 -10   2  538.05   29.10
   4  10   2  501.65   23.50
   5 -10   2   12.10    6.60
   5  10   2   22.20    3.90
   5 -11  -2   -0.60    5.50
   5  11  -2   -2.40    3.40
   4 -11  -2   89.59   11.30
   4  11  -2   84.59    9.00
   3 -11  -2  415.86   24.30
  -3  11   2  413.76   23.50
   3  11  -2  452.35   22.40
   2 -11  -2   -2.20    3.60
   2  11  -2    3.20    3.40
  -2  11   2    0.40    4.00
   1 -11  -2   43.80    7.10
   1  11  -2   42.10    6.70
  -1  11   2   39.90    6.80
   0 -11   2    0.70    3.80
   0 -11  -2   13.80    5.30
   0  11  -2   16.20    4.80
   0  11   2   13.30    4.60
   1 -11   2   75.69    9.60
  -1  11  -2   82.29    9.50
   1  11   2   70.79    7.90
   2 -11   2   31.40    7.20
   2  11   2   32.00    5.40
  -2  11  -2   27.50    6.20
   3 -11   2  162.88   15.00
   3  11   2  127.59    9.70
   4 -11   2  338.77   22.70
   4  11   2  345.17   17.70
   4 -12  -2  179.98   17.20
   4  12  -2  154.08   12.30
   3 -12  -2    9.80    5.70
   3  12  -2    3.10    3.80
  -3  12   2    1.50    4.70
   2 -12  -2  268.77   18.30
   2  12  -2  297.07   17.20
  -2  12   2  288.67   18.40
   1 -12  -2  158.18   13.70
   1  12  -2  154.78   12.10
  -1  12   2  145.09   13.00
   0 -12   2  956.50   42.60
   0  12   2  891.71   41.60
   0  12  -2  910.31   41.90
   1 -12   2  566.54   30.10
   1  12   2  597.74   28.80
  -1  12  -2  605.44   29.60
   2 -12   2   12.80    5.60
  -2  12  -2    3.80    4.70
   2  12   2   18.70    4.60
   3 -12   2   42.10    8.90
   3  12   2   60.49    7.30
   4 -12   2  132.59   15.60
   4  12   2  155.88   11.20
   4 -13  -2   75.59   11.90
   4  13  -2   76.09    9.50
   3 -13  -2    9.80    5.70
   3  13  -2   10.10    4.70
   2 -13  -2   52.39    8.70
  -2  13   2   43.80    8.10
   2  13  -2   43.90    7.40
   1  13  -2  172.58   13.60
  -1  13   2  176.38   15.50
   0  13  -2   18.60    5.80
   0  13   2   21.40    6.00
   1 -13   2  161.18   15.40
   1  13   2  211.08   14.10
  -1  13  -2  187.48   14.50
   2 -13   2  139.19   14.20
  -2  13  -2  117.09   12.40
   2  13   2  142.99   12.30
   3 -13   2  354.96   23.60
   3  13   2  363.66   19.90
   3 -14  -2   -0.70    5.40
   3  14  -2   -2.10    3.90
   2  14  -2  117.59   12.30
  -2  14   2  107.89   12.60
   1  14  -2  914.71   43.30
  -1  14   2  917.51   43.80
   0  14   2  325.87   20.30
   0  14  -2  320.27   20.30
   1 -14   2  767.72   48.10
   1  14   2  769.72   37.50
  -1  14  -2  791.02   38.40
   2 -14   2   15.00    7.00
   2  14   2   22.20    6.00
   3 -14   2   -1.50    5.50
   3  14   2    3.60    4.50
  -2  15   2   14.30    6.50
   2  15  -2   -1.60    4.70
   1  15  -2   69.99   10.20
  -1  15   2   75.39   10.80
   0  15  -2   79.79   11.20
   0  15   2   87.79   11.40
  -1  15  -2  143.49   14.60
   1  15   2  154.28   14.50
   2 -15   2    4.60    6.10
   2  15   2   -3.00    4.20
  -1  16   2  162.08   16.60
   1  16  -2  179.48   16.60
   0  16   2    4.90    5.90
   0  16  -2   -5.90    4.90
  -1  16  -2  115.59   13.90
   1  16   2  110.39   12.70
  -6   0   3   -0.80    1.80
   6   0  -3    2.40    3.20
  -5   0   3   39.10    4.20
   5   0  -3   36.90    5.50
   4   0  -3    0.80    2.30
   3   0  -3 2218.58   86.19
   3   0  -3 2205.28   88.39
   3   0  -3 2262.97   88.39
   2   0  -3   -0.20    0.90
   2   0  -3   -0.30    1.70
  -2   0   3   -1.70    1.00
  -2   0   3   -3.70    1.70
   2   0  -3   -1.90    1.60
   1   0  -3 8748.82  350.96
  -1   0   3 9999.00  353.16
   1   0  -3 8327.97  353.36
  -1   0   3 9404.56  350.46
   0   0   3   -0.70    1.50
   0   0   3   -2.90    1.30
   0   0   3   -2.60    0.30
   0   0  -3   -5.00    1.30
   0   0  -3   -2.00    1.40
   0   0   3   -1.30    1.60
   1   0   3 1365.86   54.49
   1   0   3 1365.56   54.49
  -1   0  -3 1377.16   54.49
  -1   0  -3 1380.16   54.09
  -1   0  -3 1411.06   53.59
   1   0   3 1419.56   54.39
   2   0   3    1.40    1.30
  -2   0  -3    0.60    0.80
   2   0   3   -1.30    1.20
   2   0   3   -0.50    1.20
  -2   0  -3   -0.60    1.10
   3   0   3    4.30    1.60
   3   0   3    2.20    1.70
  -3   0  -3    1.60    1.20
   3   0   3    2.00    1.60
   4   0   3    2.10    2.30
  -4   0  -3    4.50    1.60
   4   0   3   -1.60    1.30
  -5   0  -3   27.20    3.40
   5   0   3   19.60    3.80
   6   0   3    4.70    3.10
  -6   0  -3    0.10    1.70
   6  -1  -3    2.40    3.30
  -6  -1   3    1.10    1.90
  -6   1   3    5.70    2.30
   6   1  -3    1.40    2.90
   5  -1  -3  316.17   17.10
  -5  -1   3  306.07   14.30
   5   1  -3  304.97   16.30
  -4  -1   3   44.50    3.90
   4  -1  -3   48.10    6.00
   4   1  -3   45.80    5.50
   4   1  -3   47.50    3.10
   3  -1  -3  594.64   23.50
   3  -1  -3  624.74   27.10
  -3  -1   3  588.34   23.80
   3  -1  -3  591.94   26.10
   3   1  -3  571.04   23.60
  -3   1   3  616.54   25.30
  -3   1   3  593.44   23.30
   3   1  -3  547.65   25.30
   3   1  -3  579.94   25.50
  -2  -1   3  366.36   15.20
  -2  -1   3  373.16   16.40
   2  -1  -3  371.06   15.30
   2  -1  -3  373.96   16.90
   2   1  -3  355.86   16.40
   2   1  -3  352.86   15.20
  -2   1   3  368.96   16.50
   2   1  -3  369.36   16.60
  -2   1   3  380.26   15.20
   1  -1  -3  747.63   29.20
  -1  -1   3  712.03   28.20
  -1  -1   3  697.63   29.10
   1  -1  -3  678.43   28.20
   1   1  -3  590.74   28.70
  -1   1   3  742.63   28.20
  -1   1   3  755.52   29.10
   1   1  -3  686.13   28.20
   0  -1  -3 1371.96   53.99
   0  -1   3 1340.87   53.69
   0  -1   3 1370.26   54.29
   0  -1   3 1457.65   54.59
   0  -1  -3 1342.57   53.99
   0   1  -3 1468.15   54.39
   0   1   3 1318.57   54.19
   0   1   3 1366.26   53.89
   0   1  -3 1378.96   53.79
   0   1  -3 1408.56   52.69
   0   1   3 1303.97   54.09
   1  -1   3  532.35   21.70
   1  -1   3  526.55   21.20
  -1  -1  -3  515.35   20.50
  -1  -1  -3  502.85   21.30
  -1  -1  -3  521.35   20.50
   1  -1   3  502.95   21.50
   1   1   3  511.95   21.10
  -1   1  -3  527.25   21.30
   1   1   3  515.25   21.30
  -1   1  -3  523.25   20.50
   1   1   3  520.85   20.60
   1   1   3  527.05   21.10
   2  -1   3   97.09    5.80
   2  -1   3  103.09    5.60
  -2  -1  -3   94.49    4.70
   2  -1   3   88.99    5.00
  -2   1  -3   88.69    4.60
   2   1   3   90.59    5.30
   2   1   3   87.59    4.70
  -2   1  -3   93.39    5.10
   2   1   3   92.29    4.70
   3  -1   3  177.98    9.40
   3  -1   3  178.58    8.50
  -3  -1  -3  186.68    8.70
   3  -1   3  197.18    9.90
   3   1   3  189.68    8.90
   3   1   3  192.98    8.60
  -3   1  -3  183.68    8.80
   3   1   3  183.78    8.50
   4  -1   3  110.99    7.70
   4  -1   3  111.89    5.50
  -4  -1  -3  111.59    6.30
  -4   1  -3  108.69    6.40
   4   1   3  112.59    6.00
   4   1   3   96.19    5.90
   4   1   3  113.89    6.60
   5  -1   3   34.20    5.00
  -5  -1  -3   26.10    3.50
   5   1   3   28.70    3.80
  -5   1  -3   25.80    3.50
  -6  -1  -3    2.70    2.30
   6  -1   3    7.80    3.90
   6   1   3    5.60    2.90
  -6   1  -3    5.60    2.60
  -6  -2   3  157.88    9.10
   6  -2  -3  156.68   12.50
   6   2  -3  168.18   11.40
  -6   2   3  164.88    9.50
   5  -2  -3    5.70    3.50
  -5  -2   3    1.70    1.60
   5   2  -3    2.00    2.60
  -4  -2   3  328.67   14.30
   4  -2  -3  349.27   17.30
   4   2  -3  322.47   16.10
   4   2  -3  313.97   13.80
  -3  -2   3 1670.53   62.89
  -3  -2   3 1570.44   63.59
   3  -2  -3 1585.34   65.29
   3   2  -3 1553.14   64.39
  -3   2   3 1578.94   64.39
   3   2  -3 1600.14   62.89
   3   2  -3 1631.04   64.59
  -3   2   3 1677.83   62.39
  -2  -2   3  328.57   14.80
   2  -2  -3  315.57   15.30
  -2  -2   3  319.97   13.10
   2   2  -3  313.87   14.80
  -2   2   3  327.67   15.10
   2   2  -3  332.07   14.90
  -2   2   3  317.87   13.50
   2   2  -3  330.17   13.70
  -1  -2   3 3177.38  126.69
  -1  -2   3 3320.27  126.99
  -1  -2   3 3346.67  128.09
  -1   2   3 3351.96  127.99
  -1   2   3 3421.26  127.09
   1   2  -3 3137.19  126.99
   0  -2   3  601.64   23.70
   0  -2  -3  578.14   24.00
   0  -2   3  599.14   24.60
   0   2   3  564.84   23.80
   0   2  -3  586.54   23.70
   0   2   3  595.74   24.30
   0   2  -3  540.05   24.30
   0   2   3  608.74   24.20
   1  -2   3  316.47   14.00
   1  -2   3  298.37   14.00
   1  -2   3  299.17   13.10
   1   2   3  298.77   12.60
  -1   2  -3  307.87   13.20
   1   2   3  316.37   13.10
   1   2   3  305.87   13.50
   1   2   3  310.17   13.10
  -1   2  -3  327.67   13.90
   2  -2   3 1717.93   65.49
  -2  -2  -3 1704.73   65.29
   2  -2   3 1589.74   66.49
   2  -2   3 1646.14   66.69
  -2   2  -3 1696.03   65.69
   2   2   3 1705.83   64.99
   2   2   3 1727.73   66.09
  -2   2  -3 1667.73   65.59
   2   2   3 1643.44   64.89
   3  -2   3    5.50    2.60
   3  -2   3    7.10    1.70
   3  -2   3    8.40    2.40
  -3  -2  -3    5.00    1.50
   3   2   3   11.60    2.20
  -3   2  -3    6.40    1.60
   4  -2   3  187.88   10.70
   4  -2   3  173.88   10.90
  -4  -2  -3  168.38    8.80
  -4   2  -3  185.68    9.00
   4   2   3  179.08    8.10
   4   2   3  175.78    8.20
   4   2   3  173.38    8.80
   5  -2   3    5.70    3.20
  -5  -2  -3    4.20    1.80
  -5   2  -3    4.30    2.20
   5   2   3    2.90    2.00
  -6  -2  -3    3.40    2.40
   6  -2   3   12.40    4.20
  -6   2  -3    6.90    2.40
   6   2   3    5.10    2.50
   6  -3  -3   13.30    4.70
  -6  -3   3   17.20    3.20
   6   3  -3   22.10    4.50
  -5  -3   3  406.06   17.80
   5  -3  -3  400.16   21.30
   5   3  -3  395.36   19.70
  -4  -3   3   70.69    4.60
   4  -3  -3   77.09    8.00
   4   3  -3   91.59    7.50
   4   3  -3   76.39    4.80
  -3  -3   3  204.18    9.90
  -3  -3   3  209.28    9.10
   3  -3  -3  212.28   12.00
  -3   3   3  203.18    8.80
   3   3  -3  192.08   10.60
   3   3  -3  192.28   10.70
  -3   3   3  210.98   11.20
   3   3  -3  195.28    9.40
  -2  -3   3   14.10    2.70
   2  -3  -3   24.30    3.70
  -2  -3   3   20.80    1.70
  -2   3   3   15.20    2.00
   2   3  -3   19.40    3.30
   2   3  -3   17.00    3.00
   2   3  -3   20.80    2.40
  -2   3   3   20.40    3.60
   1  -3  -3  297.97   13.90
  -1  -3   3  271.57   13.50
  -1   3   3  314.77   12.80
  -1   3   3  311.87   13.80
   1   3  -3  290.57   12.60
   1   3  -3  279.97   11.60
   1   3  -3  276.37   13.50
   0  -3   3  344.47   16.00
   0  -3   3  369.86   15.10
   0  -3  -3  347.97   15.40
   0   3  -3  344.57   15.80
   0   3   3  360.26   15.70
   0   3  -3  344.47   15.00
   0   3   3  361.66   15.30
   0   3   3  357.56   15.70
   1  -3   3   15.20    3.00
   1  -3   3   11.60    1.90
   1  -3   3   18.10    2.90
   1   3   3   17.80    2.20
  -1   3  -3   17.40    2.20
  -1   3  -3   15.70    2.80
   1   3   3   11.30    2.30
   1   3   3   11.90    2.10
   2  -3   3  435.76   20.20
   2  -3   3  452.05   18.40
   2  -3   3  417.86   19.70
  -2   3  -3  447.16   18.60
   2   3   3  442.96   19.10
   2   3   3  440.46   17.80
   2   3   3  458.15   17.90
  -3  -3  -3  343.67   14.10
   3  -3   3  327.37   16.40
   3  -3   3  305.47   15.50
   3   3   3  331.37   14.80
  -3   3  -3  312.17   14.00
  -4  -3  -3  647.04   26.90
   4  -3   3  656.73   29.70
   4  -3   3  637.44   29.30
   4   3   3  647.94   27.10
  -5  -3  -3   99.79    6.20
   5  -3   3  103.29    9.40
  -5   3  -3   89.49    6.30
   6  -3   3  279.37   16.90
  -6  -3  -3  270.77   13.70
  -6   3  -3  258.97   13.70
   6  -4  -3  131.79   12.80
  -6  -4   3  122.79    7.50
   6   4  -3  123.19    9.60
  -5  -4   3    3.50    1.70
   5  -4  -3    6.50    4.20
   5   4  -3    8.00    3.10
  -4  -4   3 1638.44   65.49
   4  -4  -3 1698.93   69.59
   4   4  -3 1673.63   67.39
  -3  -4   3  523.05   22.50
  -3  -4   3  542.55   21.60
   3  -4  -3  585.64   25.30
  -3   4   3  529.45   21.60
   3   4  -3  544.35   23.60
   3   4  -3  495.15   23.50
  -3   4   3  518.05   24.00
  -2  -4   3    3.30    2.10
   2  -4  -3    1.30    2.70
   2   4  -3    5.30    2.50
   2   4  -3    5.50    2.30
  -2   4   3    1.90    2.60
  -2   4   3    4.60    1.70
  -1  -4   3   27.80    3.80
   1  -4  -3   35.20    4.20
  -1   4   3   34.20    4.30
   1   4  -3   36.50    1.90
   1   4  -3   33.00    3.10
   1   4  -3   30.50    3.70
   0  -4   3   15.60    3.30
   0  -4  -3   15.00    2.60
   0   4  -3    9.50    1.90
   0   4   3   12.60    2.70
   0   4   3   13.40    2.70
   0   4  -3   11.50    2.80
   1  -4   3  280.27   14.10
  -1  -4  -3  278.37   12.50
  -1   4  -3  276.57   12.30
   1   4   3  271.37   12.60
  -1   4  -3  287.27   13.60
   1   4   3  278.27   12.50
   2  -4   3 1487.45   61.39
   2  -4   3 1532.25   61.99
  -2   4  -3 1509.45   59.29
   2   4   3 1534.75   58.89
  -2   4  -3 1461.05   60.39
   2   4   3 1516.75   58.79
   3  -4   3    1.30    3.00
   3  -4   3    2.20    2.80
  -3   4  -3    0.20    1.40
   3   4   3    0.30    1.80
   4  -4   3  639.04   29.90
  -4  -4  -3  628.64   26.30
   4  -4   3  618.74   29.30
   4   4   3  634.74   26.80
  -5  -4  -3   29.90    3.70
   5  -4   3   28.40    5.70
   6  -4   3    6.90    4.70
  -6   4  -3   12.20    3.20
   6  -5  -3   91.09   10.80
  -6  -5   3   71.09    6.10
   6   5  -3   77.29    8.10
   5  -5  -3    0.50    3.70
  -5  -5   3    2.10    1.60
   5   5  -3    0.30    2.60
   4  -5  -3   36.20    6.40
  -4  -5   3   32.60    3.20
   4   5  -3   34.60    4.60
  -4   5   3   31.20    3.10
   3  -5  -3  102.99    9.40
  -3  -5   3  110.49    6.80
   3   5  -3  124.99    7.90
  -3   5   3  116.19    6.10
  -3   5   3  124.49    8.90
   3   5  -3  108.89    7.70
   2  -5  -3   -1.10    2.50
  -2  -5   3   -1.80    1.70
  -2   5   3   -1.60    2.70
   2   5  -3   -2.10    1.80
   2   5  -3    0.50    2.20
   1  -5  -3   37.10    4.70
  -1  -5   3   34.10    4.50
  -1   5   3   32.60    4.40
   1   5  -3   43.70    4.70
   0  -5  -3   53.79    4.80
   0  -5   3   61.89    6.00
   0   5   3   58.29    5.50
   0   5  -3   47.70    5.10
   0   5   3   52.69    5.10
  -1  -5  -3 2472.85  100.49
   1  -5   3 2702.03  103.49
   1   5   3 2675.83  101.69
  -1   5  -3 2589.44  102.79
   1   5   3 2581.54  101.79
   2  -5   3  186.98   11.20
  -2   5  -3  157.78    9.70
   2   5   3  170.48    8.30
   2   5   3  168.48    8.30
   3  -5   3  208.28   12.80
   3   5   3  190.78   10.50
   3   5   3  203.28    8.80
  -3   5  -3  190.28    9.70
   3   5   3  203.28    8.90
   4  -5   3  632.04   29.40
   4   5   3  600.24   26.50
   5  -5   3   25.90    5.90
   6  -6  -3  534.35   29.40
   6   6  -3  542.35   26.10
   5  -6  -3   46.50    7.70
   5   6  -3   63.29    6.80
   4  -6  -3    0.70    3.70
   4   6  -3    6.90    3.00
   3  -6  -3   12.60    4.20
   3   6  -3   10.20    3.00
  -3   6   3    6.80    4.00
   3   6  -3    6.60    3.50
  -3   6   3   10.60    2.20
  -2  -6   3  554.84   26.20
   2  -6  -3  648.44   27.90
  -2   6   3  586.14   27.20
   2   6  -3  622.04   26.60
  -1  -6   3  499.05   22.20
   1  -6  -3  454.15   22.00
   1   6  -3  492.05   21.90
  -1   6   3  474.15   22.20
   0  -6  -3  622.74   27.10
   0  -6   3  648.84   28.30
   0   6  -3  637.14   27.90
   0   6   3  621.24   27.50
   1  -6   3    4.60    3.20
  -1  -6  -3   10.40    1.90
   1   6   3    8.80    2.60
   1   6   3    7.90    2.40
  -1   6  -3    9.60    3.10
   2  -6   3 1415.86   57.09
   2   6   3 1375.86   53.69
  -2   6  -3 1304.97   55.39
   2   6   3 1302.37   53.79
   3  -6   3   -2.40    3.20
   3  -6   3    4.80    3.40
   3   6   3    2.40    1.50
   3   6   3   -0.70    1.50
   4  -6   3  273.17   16.60
   4   6   3  266.97   13.60
   4   6   3  268.27   11.50
   5  -6   3   77.29    9.70
   6  -7  -3   76.09   10.80
   6   7  -3   89.09    8.80
   5  -7  -3   29.20    6.50
   5   7  -3   23.90    4.70
   4  -7  -3   58.59    8.50
   4   7  -3   55.69    6.40
   3  -7  -3 1305.17   55.19
   3   7  -3 1275.07   53.09
  -3   7   3 1258.77   54.09
   2  -7  -3   -2.30    2.70
  -2  -7   3    0.90    2.30
   2   7  -3    1.00    2.40
  -2   7   3   -3.00    3.10
   1  -7  -3    3.60    2.80
  -1  -7   3    5.40    2.70
   1   7  -3    4.60    2.70
  -1   7   3    1.90    3.30
   0  -7   3    2.20    3.00
   0  -7  -3   -2.30    1.80
   0   7   3   -0.20    2.60
   0   7  -3    1.60    2.50
  -1  -7  -3 1296.87   50.99
   1   7   3 1214.68   52.39
  -1   7  -3 1272.07   53.39
   1   7   3 1338.27   52.29
   2  -7   3    8.80    4.30
  -2   7  -3   10.90    3.70
   2   7   3    4.50    2.40
   2   7   3    3.40    2.10
   3  -7   3   11.60    4.80
   3  -7   3   14.40    4.70
   3   7   3   21.90    3.00
   3   7   3   22.50    3.50
   4  -7   3  292.97   17.70
   4   7   3  259.67   14.00
   4   7   3  278.97   12.40
   5  -7   3   50.59    8.30
   5  -8  -3   46.20    8.50
   5   8  -3   44.60    6.20
   4  -8  -3   64.09    8.90
   4   8  -3   49.90    6.30
   3  -8  -3  813.22   38.70
   3   8  -3  870.11   36.90
  -3   8   3  845.22   38.20
  -2  -8   3   35.00    5.10
   2  -8  -3   30.60    5.60
  -2  -8   3   37.00    5.20
  -2   8   3   36.30    6.30
   2   8  -3   31.10    5.00
  -1  -8   3  867.91   36.60
   1  -8  -3  774.42   36.10
   1   8  -3  819.72   36.10
  -1   8   3  840.32   36.50
   0  -8   3  998.60   43.40
   0  -8  -3 1004.40   42.00
   0   8   3  982.80   42.30
   0   8  -3  988.80   42.70
  -1  -8  -3  111.59    7.10
   1  -8   3  141.99   10.70
   1   8   3  133.49    8.50
   1   8   3  110.29    8.30
  -1   8  -3  118.69    9.10
   2  -8   3   68.89    8.40
   2  -8   3   80.99    9.40
  -2   8  -3   80.69    8.40
   2   8   3   68.39    6.40
   3  -8   3   -1.80    3.50
   3   8   3    4.40    2.30
   4  -8   3   44.10    7.70
   4   8   3   44.30    4.40
   5  -8   3    8.10    5.50
   5   8   3    8.00    2.00
   5  -9  -3  354.26   22.30
   5   9  -3  336.17   18.50
   4  -9  -3    0.90    4.40
   4   9  -3    5.70    3.40
   3  -9  -3  357.56   20.90
  -3   9   3  381.56   20.60
   3   9  -3  369.46   19.00
   2  -9  -3   33.70    6.40
   2   9  -3   28.80    5.30
  -2   9   3   30.80    5.90
  -1  -9   3    4.30    3.20
  -1  -9   3    2.30    3.50
   1  -9  -3   -1.10    2.90
   1   9  -3    1.20    3.20
  -1   9   3    4.60    4.10
   0  -9   3  372.56   19.60
   0  -9  -3  364.26   18.40
   0  -9   3  374.56   20.00
   0   9  -3  348.27   19.10
   0   9   3  366.06   18.90
   1  -9   3 1240.38   54.59
   1  -9   3 1267.47   54.19
  -1   9  -3 1278.77   53.49
   1   9   3 1218.98   52.09
   2  -9   3    7.00    4.40
   2  -9   3    4.00    4.50
  -2   9  -3    6.30    3.70
   2   9   3    7.00    3.00
   3  -9   3  330.37   19.70
   3   9   3  306.27   15.50
   4  -9   3   17.80    6.20
   4   9   3   13.10    3.20
   5  -9   3    0.50    4.90
   5   9   3   -1.90    2.00
   5 -10  -3  270.27   20.10
   5  10  -3  295.67   17.00
   4 -10  -3    7.30    5.20
   4  10  -3   -2.10    2.90
   3 -10  -3  608.64   30.20
   3  10  -3  605.74   28.00
  -3  10   3  541.95   29.10
   2 -10  -3   70.99    8.80
   2  10  -3   71.59    8.20
  -2  10   3   65.79    8.80
   1 -10  -3  826.22   38.10
  -1 -10   3  859.61   38.10
   1  10  -3  833.72   37.90
  -1  10   3  857.11   38.40
   0 -10   3   82.99    9.90
   0 -10   3   90.29    9.80
   0 -10  -3   83.49    8.40
   0  10   3  110.59   10.10
   0  10  -3   79.79    8.70
   1 -10   3  127.59   12.50
   1 -10   3  127.69   11.90
  -1  10  -3  122.69   11.30
   1  10   3  136.69    9.80
   2 -10   3   64.49    9.10
  -2  10  -3   79.29    9.10
   2  10   3   74.59    7.40
   3 -10   3    6.40    5.20
   3  10   3    9.50    3.40
   4 -10   3   14.60    6.30
   4  10   3   14.90    3.80
   5 -11  -3  292.97   21.30
   5  11  -3  301.27   17.80
   4 -11  -3  270.37   19.20
   4  11  -3  265.57   16.20
   3 -11  -3   27.10    6.80
   3  11  -3   34.70    6.30
  -3  11   3   31.10    7.10
   2 -11  -3   14.30    5.20
   2  11  -3   13.60    4.60
  -2  11   3   10.00    5.00
   1 -11  -3    0.50    3.50
   1  11  -3   -1.10    3.10
  -1  11   3    1.70    3.90
   0 -11   3    4.30    4.20
   0  11   3    1.40    3.60
   0  11  -3    2.90    3.80
   1 -11   3  690.03   33.30
   1  11   3  631.84   31.00
  -1  11  -3  700.43   32.60
   2 -11   3   32.80    7.40
  -2  11  -3   23.60    6.10
   2  11   3   29.00    5.40
   3 -11   3  207.58   16.20
   3  11   3  205.78   12.70
   4 -11   3   24.70    7.80
   4  11   3   27.70    5.00
   4 -12  -3   54.69   10.20
   4  12  -3   47.50    7.50
   3 -12  -3  161.78   15.80
  -3  12   3  195.78   15.20
   3  12  -3  190.68   13.60
   2 -12  -3  105.59   11.80
  -2  12   3  124.29   12.80
   2  12  -3  124.99   11.50
   1  12  -3  288.37   17.50
  -1  12   3  264.17   17.50
   0 -12   3  390.66   21.90
   0  12  -3  364.06   21.20
   0  12   3  369.26   20.90
   1 -12   3  369.96   22.40
   1  12   3  397.26   21.10
  -1  12  -3  395.16   22.20
   2 -12   3   81.09   11.20
   2  12   3   88.49    9.20
  -2  12  -3   69.49    9.90
   3 -12   3   52.29    9.60
   3  12   3   40.50    6.30
   4 -12   3  189.08   18.60
   4  12   3  194.18   12.80
   4 -13  -3   35.10    9.10
   4  13  -3   25.50    6.50
   3 -13  -3  194.28   17.20
   3  13  -3  182.78   13.90
   2 -13  -3    2.90    4.90
  -2  13   3    2.20    5.20
   2  13  -3   -2.00    4.00
   1  13  -3   20.80    5.90
  -1  13   3    9.90    5.50
   0  13   3   66.69    9.10
   0  13  -3   68.59    9.70
   1 -13   3   -2.10    4.40
  -1  13  -3   -3.10    4.20
   1  13   3    2.10    4.10
   2 -13   3   -2.50    4.30
   2  13   3    8.30    4.30
   3 -13   3   41.40    9.40
   3  13   3   33.50    6.50
   3 -14  -3   13.00    6.90
   3  14  -3   11.40    5.60
   2  14  -3  191.88   14.90
  -2  14   3  200.98   17.60
   1  14  -3   33.30    7.30
  -1  14   3   23.50    6.90
   0  14   3  159.08   14.50
   0  14  -3  170.08   15.50
   1 -14   3   64.59   10.50
   1  14   3   54.59    8.60
  -1  14  -3   80.39   10.30
   2 -14   3  318.37   22.60
   2  14   3  342.07   20.10
   3 -14   3  122.79   15.20
   3  14   3  106.79   11.10
  -2  15   3   -6.50    5.50
   2  15  -3    1.00    5.10
  -1  15   3   70.99   10.70
   1  15  -3   46.50    8.90
   0  15  -3    1.40    5.00
   0  15   3    6.10    5.60
  -1  15  -3   27.40    7.70
   1  15   3   40.60    8.00
   2 -15   3    4.90    6.10
   2  15   3   -4.80    4.30
  -1  16   3   64.19   10.70
   1  16  -3   61.29   10.80
   0  16   3  291.47   20.70
   0  16  -3  299.57   21.00
   1  16   3    5.10    5.50
  -1  16  -3   -2.00    6.00
  -6   0   4    1.90    2.00
   6   0  -4    4.40    3.40
  -5   0   4   -3.30    1.10
   5   0  -4   -3.70    2.60
   4   0  -4   69.29    4.20
   4   0  -4   72.29    7.30
   3   0  -4   -0.40    1.30
   3   0  -4    0.50    2.20
  -3   0   4   -0.20    1.30
  -3   0   4   -0.60    2.30
   2   0  -4  620.64   27.60
  -2   0   4  631.44   27.50
  -2   0   4  668.73   26.10
   2   0  -4  647.24   26.20
  -1   0   4   -0.40    1.40
   1   0  -4   -1.70    1.30
  -1   0   4   -1.50    2.00
   1   0  -4    0.30    1.90
   0   0  -4 1824.92   71.89
   0   0   4 1894.21   70.39
   0   0   4 1832.22   71.69
   0   0   4 1651.23   72.19
   0   0  -4 1926.31   72.29
   0   0   4 1849.42   72.39
   1   0   4   -0.60    1.60
   1   0   4    0.50    1.50
  -1   0  -4    0.30    1.30
  -1   0  -4    0.30    1.10
  -1   0  -4   -0.50    0.60
   1   0   4   -2.10    1.30
   2   0   4  641.04   26.40
  -2   0  -4  630.74   25.40
   2   0   4  646.14   26.30
  -2   0  -4  616.74   26.30
   2   0   4  639.34   26.10
   3   0   4    2.90    1.90
  -3   0  -4   -1.50    1.00
   3   0   4    0.70    1.90
   3   0   4    0.50    1.60
   4   0   4   32.70    4.30
  -4   0  -4   35.80    3.60
   4   0   4   37.60    3.50
   5   0   4    3.60    2.70
  -5   0  -4    1.20    1.80
   6   0   4   61.09    6.70
  -6   0  -4   47.60    5.40
   6  -1  -4   16.00    4.80
  -6  -1   4   10.70    2.70
   6   1  -4   12.50    4.10
  -6   1   4   13.00    3.00
   5  -1  -4    8.80    3.80
  -5  -1   4   15.10    2.50
   5   1  -4   10.10    3.70
  -4  -1   4   29.10    3.10
   4  -1  -4   38.20    5.50
   4   1  -4   38.00    5.30
   4   1  -4   29.20    2.90
   3  -1  -4  516.55   21.50
  -3  -1   4  542.15   23.30
   3  -1  -4  531.25   24.00
   3   1  -4  505.05   23.50
   3   1  -4  530.15   21.60
  -3   1   4  529.55   21.30
  -3   1   4  501.45   23.20
   2  -1  -4  336.97   15.00
  -2  -1   4  370.56   15.00
   2  -1  -4  355.96   16.60
  -2  -1   4  356.46   16.40
   2   1  -4  346.87   16.40
  -2   1   4  356.56   14.90
   2   1  -4  335.47   14.90
  -2   1   4  345.37   16.40
   1  -1  -4 1047.30   37.50
   1  -1  -4 1033.20   38.50
  -1  -1   4  816.52   37.00
  -1  -1   4  910.51   38.30
   1   1  -4  782.72   37.80
   1   1  -4  793.82   37.00
  -1   1   4 1055.69   37.40
  -1   1   4 1040.50   38.30
   0  -1   4    0.50    1.90
   0  -1  -4    0.30    1.40
   0  -1  -4    0.90    1.70
   0  -1   4    1.90    1.70
   0   1  -4    0.60    1.40
   0   1   4   -0.80    1.90
   0   1   4    3.20    1.60
   0   1   4    1.50    1.80
   0   1  -4   -1.30    1.50
   1  -1   4 1596.04   61.09
  -1  -1  -4 1543.05   60.59
  -1  -1  -4 1544.35   61.39
   1  -1   4 1471.05   61.49
   1  -1   4 1551.44   61.69
  -1   1  -4 1591.44   59.99
   1   1   4 1549.74   61.19
   1   1   4 1537.85   61.19
   1   1   4 1549.94   60.19
  -1   1  -4 1523.85   61.29
  -1   1  -4 1610.64   61.29
   1   1   4 1548.74   61.19
   2  -1   4 1245.88   49.40
   2  -1   4 1203.68   48.50
   2  -1   4 1219.08   49.20
  -2  -1  -4 1210.98   47.90
   2   1   4 1213.88   48.80
  -2   1  -4 1235.18   48.90
   2   1   4 1267.17   48.60
   2   1   4 1220.88   48.50
  -2   1  -4 1213.38   48.00
   3  -1   4    1.80    1.90
  -3  -1  -4    0.30    1.20
   3  -1   4    1.80    2.20
   3  -1   4    7.10    2.10
   3   1   4    3.90    1.60
  -3   1  -4    2.10    1.20
   3   1   4    2.50    1.70
   3   1   4    8.50    2.20
   4  -1   4 1332.07   51.79
   4  -1   4 1299.07   53.79
  -4  -1  -4 1306.07   52.39
  -4   1  -4 1312.27   52.39
   4   1   4 1317.37   52.59
   4   1   4 1300.27   52.19
   5  -1   4    3.30    3.20
  -5  -1  -4    0.20    1.70
   5   1   4   -3.40    2.00
  -5   1  -4    4.70    2.00
  -6  -1  -4   18.80    3.60
  -6   1  -4   17.20    3.50
   6  -2  -4   69.39    9.00
  -6  -2   4   78.29    5.70
   6   2  -4   87.59    9.10
  -5  -2   4  515.05   22.00
   5  -2  -4  518.15   25.80
   5   2  -4  511.75   24.70
  -4  -2   4    7.20    1.70
   4  -2  -4   13.60    4.10
   4   2  -4    9.30    3.00
   4   2  -4    6.80    1.90
  -3  -2   4  256.77   13.10
   3  -2  -4  249.78   14.10
  -3  -2   4  262.77   11.30
  -3   2   4  275.47   13.80
   3   2  -4  295.37   13.90
   3   2  -4  249.78   11.70
  -3   2   4  266.97   11.50
   2  -2  -4 3926.21  152.98
  -2  -2   4 4011.40  152.88
  -2  -2   4 4043.20  151.98
  -2  -2   4 3988.70  154.28
   2  -2  -4 3934.51  154.68
  -2   2   4 3942.01  152.78
  -2   2   4 3761.92  154.18
   2   2  -4 4063.59  154.48
   2   2  -4 3957.30  152.98
   1  -2  -4  797.92   29.10
  -1  -2   4  647.84   28.60
  -1  -2   4  664.33   29.90
  -1   2   4  810.62   29.00
   1   2  -4  626.34   28.70
   1   2  -4  623.84   29.60
  -1   2   4  810.32   30.10
   0  -2   4    3.10    1.80
   0  -2  -4    5.20    2.00
   0  -2   4    6.70    2.40
   0  -2  -4    7.40    1.80
   0   2   4    5.10    2.20
   0   2   4    4.50    1.80
   0   2  -4    6.50    2.30
   0   2   4    7.70    2.20
   0   2  -4    4.90    1.60
   0   2  -4    6.50    0.50
   1  -2   4  278.67   13.00
  -1  -2  -4  311.87   12.50
   1  -2   4  289.57   13.90
   1  -2   4  298.97   14.20
   1   2   4  292.47   13.20
   1   2   4  309.57   13.40
  -1   2  -4  306.97   13.30
  -1   2  -4  288.17   13.70
   1   2   4  294.77   13.50
  -2  -2  -4 1651.73   61.99
   2  -2   4 1629.24   63.79
   2  -2   4 1520.85   63.49
   2  -2   4 1612.74   62.49
   2   2   4 1535.05   62.19
   2   2   4 1591.14   62.29
  -2   2  -4 1607.54   62.79
   2   2   4 1597.64   62.99
  -2   2  -4 1558.84   62.49
   3  -2   4   13.80    3.50
   3  -2   4   11.70    2.40
  -3  -2  -4    9.90    1.80
   3  -2   4   11.50    2.90
   3   2   4   11.80    1.90
   3   2   4   13.00    2.10
  -3   2  -4   13.50    2.00
   3   2   4    9.60    2.40
   4  -2   4   85.09    5.60
  -4  -2  -4  106.59    5.80
   4  -2   4   96.19    8.30
   4   2   4   85.89    5.40
   4   2   4   85.79    5.60
  -4   2  -4   98.59    5.90
   4   2   4  101.29    6.10
  -5  -2  -4  481.65   21.30
   5  -2   4  487.05   23.70
   5   2   4  500.45   21.00
  -5   2  -4  470.25   21.40
   6  -3  -4   49.80    8.30
  -6  -3   4   62.79    5.70
   6   3  -4   57.79    7.30
  -5  -3   4   98.29    5.90
   5  -3  -4   79.79    9.50
   5   3  -4  105.39    9.10
  -4  -3   4  510.05   21.10
   4  -3  -4  525.45   24.90
   4   3  -4  507.95   23.50
  -4   3   4  490.25   20.20
  -3  -3   4   23.10    2.20
   3  -3  -4   17.00    4.10
  -3  -3   4    7.30    2.30
  -3   3   4   22.10    4.20
   3   3  -4   18.80    3.60
  -3   3   4   18.60    2.30
  -2  -3   4  203.28    8.40
   2  -3  -4  207.18   11.50
  -2  -3   4  201.98   10.80
  -2   3   4  209.28   11.10
   2   3  -4  212.48   11.00
  -2   3   4  185.98    9.40
   1  -3  -4   43.50    4.70
  -1  -3   4   32.10    3.30
  -1  -3   4   36.90    4.60
   1   3  -4   34.40    4.30
   1   3  -4   33.90    1.70
  -1   3   4   35.50    3.40
  -1   3   4   32.40    4.00
   0  -3  -4   39.30    4.00
   0  -3   4   51.39    5.20
   0  -3   4   34.00    3.40
   0   3   4   41.80    4.00
   0   3   4   40.10    4.20
   0   3   4   41.80    4.30
   0   3  -4   35.40    4.00
   1  -3   4   66.49    4.50
  -1  -3  -4   63.29    3.50
   1  -3   4   62.99    5.80
   1   3   4   58.09    4.60
   1   3   4   66.89    5.00
   1   3   4   61.19    4.40
  -1   3  -4   71.19    5.90
   2  -3   4  100.39    6.80
   2  -3   4  101.39    7.50
   2  -3   4  109.39    6.00
   2   3   4  109.19    5.70
   2   3   4   93.39    5.40
   2   3   4   95.09    6.40
  -3  -3  -4   41.10    3.10
   3  -3   4   42.10    5.60
   3  -3   4   38.60    3.50
   3   3   4   40.00    3.10
   3   3   4   41.90    3.00
   3   3   4   41.10    4.40
  -4  -3  -4  828.72   33.70
   4  -3   4  830.32   36.60
   4   3   4  815.92   32.60
   4   3   4  809.32   34.10
  -4   3  -4  830.22   33.90
   4   3   4  823.62   32.70
   5  -3   4   97.69    9.50
  -5  -3  -4   96.79    6.30
  -5   3  -4   95.29    6.40
   6  -4  -4   33.10    7.30
  -6  -4   4   49.40    4.80
   6   4  -4   40.30    6.20
  -5  -4   4  292.37   13.30
   5  -4  -4  290.47   17.70
   5   4  -4  284.47   15.70
  -4  -4   4  166.08    8.00
   4  -4  -4  166.78   11.70
  -4   4   4  165.08    7.50
   4   4  -4  157.68   10.20
   3  -4  -4 4025.70  159.78
  -3  -4   4 4224.98  156.08
   3   4  -4 4010.40  158.68
  -3   4   4 3950.00  158.78
  -3   4   4 4036.50  156.48
  -2  -4   4   58.79    5.70
   2  -4  -4   66.89    6.60
  -2   4   4   55.89    6.20
  -2   4   4   58.89    4.20
   2   4  -4   55.99    5.60
   1  -4  -4  591.24   26.10
  -1  -4   4  579.74   26.20
  -1   4   4  620.04   25.10
   1   4  -4  611.74   26.10
  -1   4   4  593.74   26.10
   1   4  -4  594.94   23.40
   0  -4  -4    1.80    1.80
   0  -4   4   -0.20    1.60
   0  -4   4   -4.70    1.90
   0   4   4    0.30    1.70
   0   4  -4   -2.60    1.90
   0   4   4    1.20    1.80
   0   4   4    2.90    2.30
   1  -4   4   14.10    3.60
   1  -4   4   17.40    2.70
   1   4   4   19.20    2.90
   1   4   4   16.50    2.90
   1   4   4   11.70    2.50
  -1   4  -4   15.20    3.30
   2  -4   4    4.10    3.00
   2  -4   4    1.70    1.80
   2   4   4    2.10    1.50
   2   4   4    0.20    1.70
  -2   4  -4    5.10    2.50
   2   4   4    5.40    2.40
   3  -4   4  575.74   26.40
   3   4   4  553.04   24.40
   3   4   4  571.94   22.80
   3   4   4  546.35   22.70
   4  -4   4   48.40    7.10
   4   4   4   51.59    4.90
   5  -4   4  141.19   12.20
  -5   4  -4  128.79    8.00
   6  -5  -4   -0.40    4.20
  -6  -5   4    0.30    1.80
   6   5  -4   -4.00    3.00
   5  -5  -4  307.57   18.50
  -5  -5   4  290.67   13.50
   5   5  -4  295.07   16.30
  -4  -5   4  154.28    7.60
   4  -5  -4  143.29   11.60
   4   5  -4  160.18   10.20
  -4   5   4  157.08    7.50
   3  -5  -4   13.10    4.40
  -3   5   4    8.60    3.80
  -3   5   4   16.20    2.50
   3   5  -4   18.00    3.70
  -2  -5   4  555.84   24.40
   2  -5  -4  535.45   25.00
  -2   5   4  540.15   22.90
  -2   5   4  528.15   24.80
   2   5  -4  546.95   24.40
  -1  -5   4  596.94   26.50
   1  -5  -4  615.44   26.40
  -1   5   4  601.44   25.10
   1   5  -4  579.04   23.30
  -1   5   4  572.04   26.30
   1   5  -4  602.14   26.30
   0  -5   4  512.75   23.20
   0  -5  -4  496.45   21.90
   0   5  -4  490.65   22.60
   0   5   4  511.35   22.40
   1  -5   4   85.39    7.90
  -1  -5  -4   97.29    6.60
   1   5   4   88.79    6.10
   1   5   4   72.69    5.60
  -1   5  -4   77.39    7.00
   2  -5   4  129.69    9.40
   2   5   4  129.29    7.20
  -2   5  -4  121.09    8.40
   2   5   4  124.89    7.80
   2   5   4  121.89    6.90
   3  -5   4   34.00    5.90
   3   5   4   32.10    4.20
   3   5   4   41.50    3.40
   3   5   4   36.70    3.30
   4  -5   4   69.69    8.50
   4  -5   4   63.39    7.90
   4   5   4   58.39    5.80
   5  -5   4  154.38   13.30
  -5   5  -4  144.99    8.70
   6  -6  -4   -5.30    4.10
   6   6  -4    7.60    3.90
   5  -6  -4  540.45   28.10
   5   6  -4  510.45   25.30
   4  -6  -4   81.29    9.70
  -4   6   4  118.59    7.10
   4   6  -4  143.39    9.30
   3  -6  -4  293.67   16.80
   3   6  -4  301.47   15.50
  -3   6   4  276.47   16.00
  -3   6   4  288.67   13.40
   2  -6  -4  169.08   11.20
  -2  -6   4  165.98   10.40
  -2   6   4  175.58   11.30
  -2   6   4  177.48    9.30
   2   6  -4  179.08   10.60
   1  -6  -4 1008.70   42.30
  -1  -6   4 1011.10   42.70
  -1   6   4 1040.20   42.50
   1   6  -4  948.31   42.00
   0  -6  -4  397.76   18.90
   0  -6   4  433.16   20.50
   0   6   4  399.16   19.40
   0   6  -4  437.46   20.00
   1  -6   4  162.78   10.70
  -1  -6  -4  149.09    7.70
   1   6   4  148.29    8.90
   1   6   4  154.38    9.00
  -1   6  -4  151.38    9.90
   2  -6   4  436.66   21.40
  -2   6  -4  397.26   19.90
   2   6   4  403.46   18.30
   2   6   4  417.16   18.40
   3  -6   4   31.40    5.90
   3   6   4   27.40    4.00
   3   6   4   20.80    3.00
   3   6   4   23.30    3.00
   4  -6   4   53.29    8.10
   4  -6   4   56.59    8.00
   4   6   4   42.00    5.10
   4   6   4   52.99    3.60
   5  -6   4  184.58   14.30
   6  -7  -4   21.80    6.70
   6   7  -4   16.60    4.90
   5  -7  -4  281.97   19.10
   5   7  -4  294.27   16.50
   4  -7  -4  200.78   14.20
   4   7  -4  171.18   11.50
   3  -7  -4  113.99   10.80
  -3   7   4  141.39   11.70
   3   7  -4  131.49    9.30
  -3   7   4  117.39    7.40
   2  -7  -4  201.68   12.90
  -2  -7   4  216.28   12.50
   2   7  -4  224.38   12.60
  -2   7   4  212.38   13.10
   1  -7  -4  424.96   20.40
  -1  -7   4  419.76   20.80
  -1   7   4  424.86   20.70
   1   7  -4  410.66   20.40
   0  -7  -4   15.30    3.60
   0  -7   4   15.50    4.40
   0   7  -4   11.30    3.70
   0   7   4    6.60    3.40
   1  -7   4  280.17   16.00
  -1  -7  -4  263.07   12.40
  -1   7  -4  276.67   15.10
   1   7   4  281.17   14.20
   1   7   4  268.67   14.10
   2  -7   4  703.13   32.80
   2   7   4  674.93   29.60
  -2   7  -4  658.53   31.10
   2   7   4  726.43   29.70
   3  -7   4   -2.10    3.40
   3   7   4    3.10    2.20
   3   7   4    3.50    2.70
   4  -7   4   72.39    9.20
   4   7   4   82.89    5.30
   4   7   4   75.69    7.00
   5  -7   4  138.89   13.90
   5  -8  -4   24.40    6.90
   5   8  -4   29.50    5.60
   4  -8  -4   26.80    6.80
   4   8  -4   24.70    5.00
   3  -8  -4  374.26   21.40
  -3   8   4  423.96   21.40
  -3   8   4  396.06   18.10
   3   8  -4  395.26   20.10
  -2  -8   4   56.89    6.80
   2  -8  -4   74.69    8.30
   2   8  -4   53.99    6.60
  -2   8   4   64.89    8.20
  -1  -8   4  102.09    9.40
   1  -8  -4  105.39    9.40
  -1   8   4  106.59    9.40
   1   8  -4   92.79    8.60
   0  -8  -4 3005.80  122.99
   0  -8   4 3153.18  125.09
   0   8   4 3194.48  123.89
   0   8  -4 3117.99  124.29
   1  -8   4  474.45   24.40
  -1   8  -4  476.65   23.40
   1   8   4  478.65   22.50
   2  -8   4   65.79    8.40
  -2   8  -4   52.29    6.90
   2   8   4   64.29    6.20
   3  -8   4  186.18   14.30
   3  -8   4  179.48   13.80
   3   8   4  196.98   10.60
   4  -8   4   18.90    5.80
   4   8   4   17.50    3.10
   4   8   4   20.60    4.20
   5  -8   4   46.80    8.80
   5  -9  -4   21.60    7.20
   5   9  -4   25.60    5.70
   4  -9  -4    5.50    5.00
   4   9  -4    2.00    3.20
   3  -9  -4  391.66   22.10
   3   9  -4  397.86   20.60
  -3   9   4  405.76   22.00
  -3   9   4  403.56   18.70
   2  -9  -4  216.28   14.70
  -2   9   4  234.48   14.90
   2   9  -4  247.68   14.40
   1  -9  -4  603.24   27.70
  -1  -9   4  560.34   27.80
  -1   9   4  595.44   27.90
   1   9  -4  557.44   27.60
   0  -9  -4   18.20    4.10
   0  -9   4   25.30    5.70
   0   9  -4   20.70    5.00
   0   9   4   22.40    5.00
   1  -9   4  288.87   17.70
   1   9   4  278.57   15.70
  -1   9  -4  299.67   17.00
   2  -9   4  749.53   36.50
   2  -9   4  771.92   36.10
   2   9   4  746.13   33.00
  -2   9  -4  750.82   34.80
   3  -9   4   51.59    8.60
   3  -9   4   41.00    8.10
   3   9   4   51.29    5.60
   4  -9   4  310.07   20.80
   4   9   4  320.17   17.40
   4   9   4  345.87   16.00
   5 -10  -4   14.90    6.70
   5  10  -4   23.70    5.80
   4 -10  -4   29.10    7.10
   4  10  -4   17.20    4.90
   3 -10  -4   21.20    6.40
  -3  10   4   26.70    6.80
   3  10  -4   20.90    5.40
   2 -10  -4  667.53   32.00
   2  10  -4  668.53   31.10
  -2  10   4  623.84   31.50
   1 -10  -4   20.50    4.90
  -1 -10   4   16.10    4.90
  -1 -10   4   12.90    4.70
   1  10  -4   18.80    5.30
  -1  10   4   25.00    5.70
   0 -10   4  873.51   40.50
   0 -10   4  866.61   39.80
   0  10  -4  864.91   39.50
   0  10   4  881.31   39.20
   1 -10   4  166.08   13.80
   1 -10   4  141.19   13.50
  -1  10  -4  137.39   12.40
   1  10   4  135.29   10.40
   2 -10   4  738.83   36.60
   2 -10   4  786.42   37.60
  -2  10  -4  719.43   35.70
   2  10   4  759.22   33.50
   3 -10   4   15.00    5.90
   3  10   4   15.00    3.80
   4 -10   4   -0.60    5.00
   4  10   4   10.10    3.70
   4  10   4    1.30    2.90
   4 -11  -4   92.29   12.10
   4  11  -4   96.69   10.20
   3 -11  -4   12.10    5.60
   3  11  -4   11.20    4.60
  -3  11   4   11.70    5.60
   2 -11  -4   42.50    7.30
  -2  11   4   50.09    8.00
   2  11  -4   45.30    7.10
  -1 -11   4  464.35   26.20
  -1 -11   4  457.75   26.80
   1 -11  -4  482.25   24.90
   1  11  -4  499.05   25.10
  -1  11   4  503.25   25.60
   0 -11   4   11.30    5.10
   0 -11   4    7.00    4.60
   0  11   4   -2.50    3.50
   0  11  -4    5.10    4.10
   1 -11   4  143.19   13.30
   1 -11   4  147.29   14.00
   1  11   4  154.08   11.60
  -1  11  -4  163.98   12.50
   2 -11   4  157.58   14.80
   2  11   4  182.08   12.10
   3 -11   4   21.40    6.80
   3  11   4   20.40    4.60
   4 -11   4  254.77   19.30
   4  11   4  238.28   14.70
   4  11   4  228.08   13.80
   4 -12  -4  137.59   15.00
   4  12  -4  127.39   12.70
   3 -12  -4  679.03   36.30
   3  12  -4  729.93   35.10
  -3  12   4  749.73   36.50
   2 -12  -4   11.00    5.40
  -2  12   4   -3.40    4.50
   2  12  -4    1.20    4.40
  -1  12   4   -2.50    4.30
   1  12  -4    2.70    4.10
   0 -12   4 1143.89   51.89
   0  12  -4 1144.29   51.39
   0  12   4 1155.18   51.09
   1 -12   4    8.70    5.40
  -1  12  -4    3.20    4.40
   1  12   4    6.90    4.20
   2 -12   4   92.29   11.80
   2  12   4   92.39    9.60
   3 -12   4  139.09   15.00
   3  12   4  142.89   11.00
   4 -13  -4   29.00    8.70
   4  13  -4   12.50    5.60
   3 -13  -4   50.99    9.40
   3  13  -4   62.99    9.30
  -3  13   4   52.89    9.80
   2  13  -4    0.70    4.30
  -2  13   4   -5.70    4.10
  -1  13   4  201.88   15.90
   1  13  -4  233.18   16.10
   0  13   4  141.29   13.50
   0  13  -4  160.88   14.50
   1 -13   4   29.90    7.50
   1  13   4   21.80    6.00
  -1  13  -4   30.10    7.20
   2 -13   4  102.29   13.10
   2  13   4   89.89   10.00
   3 -13   4   -6.00    5.50
   3  13   4   -2.60    3.70
   3  14  -4   64.19    9.60
  -2  14   4   32.70    8.20
   2  14  -4   38.80    7.70
  -1  14   4  162.78   15.50
   1  14  -4  182.48   16.00
   0  14  -4   71.19   10.40
   0  14   4   84.49   10.90
   1 -14   4   31.10    7.80
   1  14   4   36.30    7.40
  -1  14  -4   34.00    7.80
   2 -14   4   13.30    6.60
   2  14   4   19.60    6.00
   2  15  -4  402.36   24.70
  -2  15   4  417.56   25.80
   1  15  -4   28.20    7.80
  -1  15   4   19.70    7.30
   0  15   4    4.10    5.60
   0  15  -4   -3.70    4.80
   1  15   4  178.08   15.90
  -1  15  -4  176.08   16.50
   0  16  -4  167.48   16.60
   0  16   4  148.39   15.50
   6   0  -5    3.30    4.00
  -6   0   5   -2.40    1.60
  -5   0   5  445.76   19.50
   5   0  -5  443.96   22.80
   4   0  -5    0.80    2.70
  -3   0   5   75.59    4.80
   3   0  -5   68.99    5.10
   3   0  -5   58.89    6.60
  -3   0   5   79.99    7.60
  -2   0   5   -4.20    2.20
   2   0  -5    0.20    2.30
  -2   0   5   -1.50    1.60
  -1   0   5 1961.80   80.99
  -1   0   5 1948.01   79.89
   1   0  -5 2223.18   81.29
   0   0  -5   -0.40    1.80
   0   0   5    0.50    1.50
   0   0   5    0.80    0.40
   0   0   5    4.30    2.30
   1   0   5 2247.38   88.09
   1   0   5 2237.08   87.49
   1   0   5 2218.98   87.99
   2   0   5    0.80    1.90
   2   0   5   -1.00    2.00
   2   0   5   -1.10    1.50
  -2   0  -5    2.00    0.90
  -3   0  -5  880.51   35.20
   3   0   5  836.32   36.10
   3   0   5  874.21   36.40
   3   0   5  914.61   36.00
   4   0   5   -4.40    2.20
   4   0   5   -3.00    1.80
  -4   0  -5    0.50    1.50
   5   0   5    2.60    3.00
  -5   0  -5    3.20    2.20
   6  -1  -5   14.70    4.90
  -6  -1   5   20.40    3.20
  -6   1   5   15.00    3.20
   6   1  -5   16.10    4.70
   5  -1  -5    9.70    4.10
  -5  -1   5    6.10    2.00
   5   1  -5    6.40    3.80
  -4  -1   5  229.48   10.40
   4  -1  -5  239.78   13.80
  -4   1   5  221.58   10.00
   4   1  -5  208.98   13.00
   3  -1  -5  129.39    9.40
   3  -1  -5  148.39    7.90
  -3  -1   5  159.78    9.90
  -3  -1   5  143.69    7.00
  -3  -1   5  162.78    7.80
  -3   1   5  159.88   10.10
  -3   1   5  166.38    7.90
   3   1  -5  157.88    9.90
  -2  -1   5    5.10    1.90
   2  -1  -5    2.90    2.30
  -2  -1   5    5.80    3.00
  -2   1   5    6.40    2.00
  -2   1   5    4.40    3.10
   2   1  -5   11.20    3.10
  -1  -1   5  291.67   15.00
   1  -1  -5  395.76   16.70
  -1  -1   5  369.76   16.80
  -1  -1   5  325.67   13.40
  -1   1   5  369.96   16.50
  -1   1   5  377.36   15.30
   1   1  -5  325.77   16.20
   0  -1   5    4.30    2.50
   0  -1  -5    5.30    2.10
   0  -1   5    8.00    2.10
   0   1  -5    2.20    2.00
   0   1   5    4.90    1.90
   0   1   5    3.10    2.30
   0   1   5    4.90    0.70
  -1  -1  -5    4.90    1.80
   1  -1   5    3.70    2.20
   1  -1   5    0.70    1.70
   1  -1   5    7.90    2.20
  -1   1  -5    1.90    1.70
  -1   1  -5    1.80    0.70
   1   1   5    1.50    2.10
   1   1   5   -0.20    1.40
   1   1   5    3.00    0.90
   1   1   5    1.50    1.80
  -2  -1  -5   78.99    4.20
   2  -1   5   82.29    5.90
   2  -1   5   75.19    5.60
   2  -1   5   81.59    6.20
  -2   1  -5   76.49    4.20
   2   1   5   76.29    5.30
   2   1   5   82.39    5.80
   2   1   5   88.79    5.80
   3  -1   5   54.69    5.70
   3  -1   5   55.39    4.80
  -3  -1  -5   53.39    3.60
   3   1   5   61.59    5.20
   3   1   5   52.69    4.80
   3   1   5   45.30    4.70
  -3   1  -5   53.29    3.70
   4  -1   5  163.38    8.80
   4  -1   5  170.28   10.50
  -4  -1  -5  172.78    8.60
   4   1   5  173.38    9.40
   4   1   5  165.18    9.10
  -4   1  -5  169.98    8.70
   5  -1   5  560.54   27.00
  -5  -1  -5  573.14   24.90
  -5   1  -5  585.04   25.10
   5   1   5  585.34   25.80
   6  -2  -5   27.90    6.20
  -6  -2   5   22.40    3.50
   6   2  -5   27.50    5.60
  -5  -2   5  464.05   20.00
   5  -2  -5  465.65   24.20
   5   2  -5  460.85   23.20
  -4  -2   5   11.80    1.90
   4  -2  -5    7.20    3.70
   4   2  -5    1.50    2.60
  -4   2   5   10.30    1.80
  -3  -2   5   24.90    2.30
  -3  -2   5   19.70    4.20
   3  -2  -5   25.60    4.90
  -3   2   5   20.90    4.60
  -3   2   5   20.30    2.90
   3   2  -5   26.30    4.50
  -2  -2   5 3584.44  140.69
  -2  -2   5 3607.84  139.49
  -2  -2   5 3646.94  142.59
   2  -2  -5 4003.90  142.99
  -2   2   5 3546.15  140.69
   2   2  -5 3514.35  142.39
  -2   2   5 3547.94  142.29
  -1  -2   5  371.76   17.20
  -1  -2   5  381.26   18.60
  -1   2   5  456.75   18.80
  -1   2   5  429.06   17.50
   1   2  -5  362.56   18.40
   0  -2  -5  322.97   14.30
   0  -2   5  314.57   15.20
   0   2  -5  298.77   14.60
   0   2   5  294.47   13.90
   0   2   5  299.87   14.50
  -1  -2  -5  210.08    9.60
   1  -2   5  216.58   10.30
   1  -2   5  196.18   11.20
  -1   2  -5  201.08   10.70
   1   2   5  219.18   10.60
   1   2   5  209.28   10.40
  -1   2  -5  210.18    8.70
   1   2   5  211.78   10.50
   2  -2   5    4.40    2.30
   2  -2   5    5.10    2.70
   2  -2   5    5.20    2.20
   2   2   5    5.20    2.20
   2   2   5    2.70    1.70
   2   2   5    4.20    2.30
  -2   2  -5    5.20    1.30
  -2   2  -5    2.20    1.90
   3  -2   5  362.36   16.70
  -3  -2  -5  384.46   16.10
   3  -2   5  388.06   18.50
   3   2   5  376.46   17.30
   3   2   5  383.56   16.80
  -3   2  -5  376.16   16.20
   3   2   5  367.86   16.50
  -4  -2  -5   -1.90    1.30
   4  -2   5    4.50    3.00
   4   2   5    3.30    2.00
  -4   2  -5    0.60    1.50
   4   2   5   -2.00    1.90
   5  -2   5   58.29    7.30
  -5  -2  -5   64.19    5.60
   5  -2   5   74.19    8.10
   5   2   5   62.49    5.50
  -5   2  -5   65.09    5.60
   6  -3  -5   63.89    9.30
  -6  -3   5   70.19    5.90
   6   3  -5   69.99    8.50
  -5  -3   5   60.79    4.50
   5  -3  -5   70.39    8.90
   5   3  -5   70.19    7.80
   4  -3  -5  209.88   13.60
  -4  -3   5  216.58    9.80
  -4   3   5  208.38    9.70
   4   3  -5  216.68   12.80
  -3  -3   5   52.59    5.80
   3  -3  -5   52.79    6.50
  -3  -3   5   57.89    3.40
  -3   3   5   54.19    4.40
  -3   3   5   54.99    6.20
   3   3  -5   70.59    6.90
   2  -3  -5   26.70    4.20
  -2  -3   5   25.60    4.30
  -2  -3   5   27.20    1.70
  -2  -3   5   27.00    3.20
  -2   3   5   22.00    4.20
  -2   3   5   22.90    3.00
   2   3  -5   16.80    3.50
  -1  -3   5  265.17   13.00
   1  -3  -5  277.27   14.20
  -1  -3   5  279.77   14.50
   1   3  -5  278.47   14.40
  -1   3   5  321.47   13.50
  -1   3   5  303.67   14.40
   0  -3   5  460.95   21.90
   0  -3  -5  485.65   21.10
   0  -3   5  492.75   20.60
   0   3   5  491.65   21.00
   0   3  -5  470.55   21.70
   0   3   5  495.05   21.60
   1  -3   5  108.69    7.80
   1  -3   5  124.79    6.80
  -1  -3  -5  107.19    5.70
   1   3   5  103.79    6.60
  -1   3  -5  111.79    7.40
   1   3   5  104.29    6.90
   1   3   5  113.39    7.10
   2  -3   5  553.54   22.60
   2  -3   5  534.05   24.40
   2  -3   5  515.65   23.90
  -2   3  -5  521.95   23.10
   2   3   5  543.15   23.30
   2   3   5  527.65   22.50
   2   3   5  529.25   22.60
   3  -3   5    1.20    2.00
   3  -3   5    2.20    3.20
   3   3   5    0.90    2.10
   3   3   5   -1.60    1.80
  -3   3  -5    0.80    1.20
   3   3   5    0.50    1.60
   4  -3   5  214.28   13.60
  -4   3  -5  234.38   11.00
   4   3   5  213.28   11.50
   4   3   5  219.68   10.50
   5  -3   5  256.37   16.40
   5  -3   5  276.37   16.40
   5   3   5  264.07   12.40
  -5   3  -5  268.87   13.20
   6  -4  -5   91.99   10.90
  -6  -4   5   82.19    5.70
   6   4  -5   82.99    9.40
  -5  -4   5   28.30    3.20
   5  -4  -5   24.80    6.30
   5   4  -5   27.40    5.30
   4  -4  -5  377.46   21.30
  -4  -4   5  399.66   16.90
   4   4  -5  414.96   20.30
  -4   4   5  403.26   17.00
  -3  -4   5  105.69    5.10
   3  -4  -5  100.59    9.50
  -3  -4   5   99.29    7.70
   3   4  -5  102.69    7.90
  -3   4   5   91.29    8.50
  -3   4   5   97.09    6.10
  -2  -4   5 1678.13   67.69
   2  -4  -5 1686.33   68.19
   2   4  -5 1663.43   67.79
  -2   4   5 1640.24   65.89
  -1  -4   5   93.69    5.80
   1  -4  -5   68.39    6.50
  -1  -4   5   89.09    7.10
  -1   4   5   92.59    7.20
   1   4  -5   75.29    7.00
   1   4  -5   86.59    3.70
  -1   4   5   94.19    6.00
   0  -4  -5  836.22   36.30
   0  -4   5  900.01   37.80
   0  -4   5  897.51   36.00
   0   4   5  893.01   36.50
   0   4   5  903.71   37.10
   0   4  -5  869.71   37.30
  -1  -4  -5    1.10    1.30
   1  -4   5    0.00    2.10
   1  -4   5    1.40    2.70
  -1   4  -5    2.20    2.30
   1   4   5    2.70    1.90
   1   4   5   -0.50    1.90
   1   4   5   -1.20    2.00
   2  -4   5   67.49    7.10
   2  -4   5   67.29    5.10
   2   4   5   68.89    5.20
  -2   4  -5   67.39    6.40
   2   4   5   61.99    4.80
   2   4   5   60.79    5.70
   3  -4   5  245.98   15.00
   3   4   5  281.17   12.30
   3   4   5  263.77   12.20
   3   4   5  263.47   13.40
   4  -4   5    8.60    4.00
   4   4   5   10.60    3.00
  -4   4  -5    3.70    1.70
   4   4   5   10.20    2.10
   5  -4   5   28.60    6.40
   5  -4   5   27.10    6.20
  -5   4  -5   21.10    3.60
   6  -5  -5  125.39   13.40
  -6  -5   5  121.29    7.40
   6   5  -5  133.19   11.90
   5  -5  -5  142.49   13.40
  -5  -5   5  104.79    6.40
   5   5  -5  127.29    9.80
   4  -5  -5  315.97   18.50
  -4  -5   5  316.97   13.70
  -4   5   5  307.97   13.90
   4   5  -5  320.27   17.00
   3  -5  -5 1395.26   58.99
  -3  -5   5 1320.17   57.09
  -3   5   5 1390.86   58.09
   3   5  -5 1463.25   58.09
  -3   5   5 1390.76   55.49
  -2  -5   5   20.50    4.10
   2  -5  -5   15.20    4.10
   2   5  -5   12.80    3.80
  -2   5   5   14.90    2.80
  -2   5   5   14.50    4.40
  -1  -5   5  330.07   17.20
   1  -5  -5  348.57   16.90
   1   5  -5  342.07   17.00
  -1   5   5  351.96   16.00
   1   5  -5  331.27   13.60
  -1   5   5  349.47   17.20
   0  -5   5  577.14   26.50
   0  -5  -5  564.44   25.10
   0   5  -5  598.74   26.20
   0   5   5  586.14   25.30
   0   5   5  573.84   25.70
   1  -5   5   93.39    8.80
   1   5   5   82.99    6.30
  -1   5  -5   89.29    8.00
   1   5   5  102.39    7.00
   1   5   5   94.59    6.80
   2  -5   5  875.91   38.70
   2   5   5  884.21   36.80
   2   5   5  879.21   35.90
   2   5   5  852.01   36.10
  -2   5  -5  860.01   37.20
   3  -5   5   37.20    6.00
   3   5   5   27.60    4.40
   3   5   5   38.50    3.80
   4  -5   5  137.59   12.60
   4   5   5  156.78    9.50
   4   5   5  157.08    7.70
   5  -5   5   -3.90    3.60
  -5   5  -5   -3.70    1.60
   6  -6  -5  132.89   14.40
   6   6  -5  144.19   12.70
   5  -6  -5  114.59   12.30
   5   6  -5  120.09   10.80
   4  -6  -5   63.79    8.80
   4   6  -5   78.59    8.30
  -4   6   5   75.59    5.30
   3  -6  -5    5.60    3.90
   3   6  -5    2.90    3.00
  -3   6   5   -0.60    3.60
  -3   6   5    1.20    2.00
  -2  -6   5 2264.47   90.19
   2  -6  -5 2191.18   90.59
  -2   6   5 2255.77   88.29
   2   6  -5 2216.88   90.19
  -2   6   5 2244.08   90.49
   1  -6  -5    6.70    3.00
  -1  -6   5   10.60    3.60
   1   6  -5   11.10    1.20
   1   6  -5    7.00    3.20
  -1   6   5    7.70    3.60
  -1   6   5   13.90    3.30
   0  -6   5 1851.21   74.19
   0  -6  -5 1780.42   72.29
   0   6   5 1856.81   73.19
   0   6  -5 1738.63   73.49
   0   6   5 1812.52   72.39
   1  -6   5   76.69    8.50
   1   6   5   81.09    7.00
   1   6   5   80.09    6.80
  -1   6  -5   89.39    8.30
   1   6   5   80.89    7.10
   2  -6   5  114.49   10.50
   2   6   5  117.79    7.80
  -2   6  -5  127.19    9.30
   2   6   5  117.49    8.20
   2   6   5  130.19    8.60
   3  -6   5    6.70    4.10
   3   6   5    5.00    2.30
   3   6   5    3.20    2.90
   4  -6   5    5.60    4.70
   4  -6   5    1.50    4.20
   4   6   5   18.50    3.60
   4   6   5   10.80    2.20
   5  -6   5  139.29   13.50
  -5   6  -5  117.89    7.70
   5  -7  -5   34.80    7.60
   5   7  -5   38.40    6.30
   4  -7  -5  211.48   14.90
   4   7  -5  209.88   13.30
   3  -7  -5  168.08   12.00
   3   7  -5  179.88   11.50
  -3   7   5  156.78   12.00
  -3   7   5  163.88    9.30
   2  -7  -5    5.50    3.40
  -2  -7   5    0.20    2.90
   2   7  -5    1.20    3.10
  -2   7   5    1.10    3.40
  -2   7   5    0.40    2.40
   1  -7  -5   88.99    8.40
  -1  -7   5   81.19    8.50
  -1   7   5   65.09    7.50
   1   7  -5   93.19    8.80
  -1   7   5   82.39    7.00
   0  -7  -5  298.27   15.10
   0  -7   5  320.27   17.40
   0   7   5  293.67   16.00
   0   7  -5  315.07   16.80
   1  -7   5  230.28   14.50
   1   7   5  237.28   12.80
   1   7   5  228.78   12.60
  -1   7  -5  216.28   13.50
   2  -7   5  372.76   20.80
  -2   7  -5  351.16   19.30
   2   7   5  376.16   18.30
   2   7   5  403.36   18.10
   3  -7   5  235.98   16.50
   3   7   5  267.17   12.90
   3   7   5  259.27   14.10
   4  -7   5   85.69   10.70
   4  -7   5   75.49   10.00
   4   7   5   76.39    5.50
   4   7   5   75.39    7.30
   5  -7   5  210.28   16.50
   5  -8  -5  314.47   20.40
   5   8  -5  287.57   17.70
   4  -8  -5  258.87   17.40
   4   8  -5  253.27   15.60
   3  -8  -5  615.34   30.80
   3   8  -5  630.24   29.70
  -3   8   5  636.64   30.70
  -3   8   5  642.04   27.50
   2  -8  -5   16.40    4.50
  -2  -8   5   11.10    4.10
  -2   8   5   16.30    3.60
   2   8  -5   12.80    4.20
  -2   8   5   10.00    5.00
   1  -8  -5   15.60    4.50
  -1  -8   5   16.00    4.60
   1   8  -5    3.00    3.20
  -1   8   5   15.80    5.10
   0  -8  -5  361.36   18.80
   0  -8   5  401.26   21.20
   0   8   5  392.66   20.00
   0   8  -5  436.36   21.00
   1  -8   5  216.58   14.70
   1   8   5  219.38   13.00
  -1   8  -5  225.28   14.00
   2  -8   5   85.39   10.30
   2   8   5   90.19    7.90
   2   8   5  112.89    8.10
   3  -8   5  391.26   22.50
   3   8   5  385.36   19.10
   3   8   5  364.26   17.70
   4  -8   5   -2.60    4.30
   4  -8   5    8.60    5.20
   4   8   5    1.40    2.30
   4   8   5    1.90    2.90
   5  -9  -5    5.50    5.30
   5   9  -5    3.70    4.20
   4  -9  -5   57.69    9.00
   4   9  -5   44.30    7.00
   3  -9  -5  115.39   11.90
   3   9  -5  137.99   10.60
  -3   9   5  154.88   13.70
  -3   9   5  130.49    8.70
   2  -9  -5    2.10    3.60
   2   9  -5   10.20    4.20
  -2   9   5    3.60    2.70
  -2   9   5   12.10    4.70
   1  -9  -5   33.50    6.00
  -1  -9   5   37.60    6.60
   1   9  -5   39.10    6.40
  -1   9   5   37.20    6.70
   0  -9   5   75.79    9.40
   0   9   5   73.59    8.10
   0   9  -5   76.29    8.70
   1  -9   5   80.59    9.70
  -1   9  -5   75.99    8.80
   1   9   5   67.39    7.50
   2  -9   5   30.10    6.90
   2   9   5   40.10    5.70
   3  -9   5  414.56   24.70
   3  -9   5  433.16   24.40
   3   9   5  423.56   20.10
   3   9   5  409.36   21.00
   4  -9   5    7.60    5.70
   4   9   5   -6.80    2.30
   4   9   5   -0.20    2.50
   5 -10  -5  567.04   31.30
   5  10  -5  518.35   27.80
   4 -10  -5   32.70    7.70
   4  10  -5   35.90    6.40
   3 -10  -5  285.27   18.60
  -3  10   5  274.67   14.90
   3  10  -5  293.57   17.70
  -3  10   5  310.37   18.70
   2 -10  -5   85.99    9.70
  -2  10   5   80.69    9.80
   2  10  -5   65.39    8.40
   1 -10  -5   -1.50    3.40
  -1 -10   5    8.70    4.40
   1  10  -5    6.20    4.00
  -1  10   5    3.30    4.40
   0 -10   5   16.60    5.70
   0  10  -5   14.90    4.70
   0  10   5   10.30    4.50
   1 -10   5   43.90    7.70
   1  10   5   38.40    6.40
  -1  10  -5   46.60    7.30
   2 -10   5    9.00    5.40
   2 -10   5   20.50    6.70
   2  10   5   10.10    3.90
   3 -10   5  176.48   17.40
   3 -10   5  226.68   16.80
   3  10   5  207.88   13.20
   3  10   5  219.38   12.70
   4 -10   5   42.40    9.00
   4  10   5   41.30    5.40
   4  10   5   50.99    6.80
   4 -11  -5    6.50    5.60
   4  11  -5    8.00    4.80
   3 -11  -5   36.00    7.70
  -3  11   5   38.50    5.20
  -3  11   5   42.10    8.00
   3  11  -5   36.30    6.90
   2 -11  -5   -0.80    3.70
  -2  11   5    9.80    5.30
   2  11  -5    4.90    4.30
  -1 -11   5   12.20    5.60
  -1 -11   5   10.40    5.60
  -1  11   5   15.50    5.70
   1  11  -5   21.50    5.80
   0 -11   5  183.18   13.60
   0 -11   5  123.69   12.90
   0  11  -5  177.48   13.20
   0  11   5  171.48   12.90
   1 -11   5   72.29   10.30
   1 -11   5   64.89    9.40
   1  11   5   47.10    7.20
  -1  11  -5   63.69    9.00
   2 -11   5  178.58   15.90
   2 -11   5  115.39   13.80
   2  11   5  137.29   10.70
   3 -11   5  212.28   18.60
   3  11   5  226.28   13.70
   3  11   5  212.58   13.90
   4 -12  -5   55.39   10.50
   4  12  -5   63.69    9.20
   3 -12  -5  493.65   28.60
   3  12  -5  528.55   27.90
  -3  12   5  543.95   24.90
  -3  12   5  486.65   28.50
   2  12  -5   32.00    6.80
  -2  12   5   46.40    8.50
  -1  12   5   63.19    9.10
   1  12  -5   62.79    8.90
   0 -12   5  556.44   29.90
   0 -12   5  535.65   30.10
   0  12  -5  581.84   29.50
   0  12   5  581.44   29.10
   1 -12   5  249.18   18.20
   1 -12   5  256.47   17.90
  -1  12  -5  260.37   17.10
   1  12   5  220.38   15.70
   2 -12   5    8.50    5.90
   2 -12   5    2.70    5.20
   2  12   5   12.20    4.90
   3 -12   5  135.19   15.60
   3  12   5  114.09   10.80
   3  13  -5   80.49   10.60
  -3  13   5  105.29   13.10
  -3  13   5   76.39    8.10
   2  13  -5    5.30    4.90
  -2  13   5   -2.90    4.90
  -1  13   5    3.80    5.10
   1  13  -5   19.90    6.30
   0  13   5  207.38   15.60
   0  13  -5  191.28   15.20
   1 -13   5   47.60    8.90
   1  13   5   43.50    7.70
  -1  13  -5   46.50    8.60
   2 -13   5  363.86   23.90
   2  13   5  352.16   20.60
   3  14  -5   77.59   10.80
  -3  14   5   49.00    7.00
   2  14  -5  637.34   33.10
  -2  14   5  623.34   33.90
   1  14  -5  129.69   13.60
  -1  14   5  114.89   13.10
   0  14   5  414.56   24.40
   0  14  -5  403.66   24.70
   1 -14   5   54.89   10.20
   1  14   5   41.20    8.10
   2 -14   5  125.69   15.40
   2  14   5  147.09   13.60
   2  15  -5    3.10    5.70
  -2  15   5   -1.30    6.10
  -1  15   5   15.70    7.00
   1  15  -5   21.60    7.40
   0  15   5  140.19   14.80
   0  15  -5  119.89   13.70
   1  15   5  123.59   13.50
  -6   0   6  137.79    8.10
   6   0  -6  117.09   12.00
  -5   0   6    0.60    1.60
   5   0  -6   -1.40    2.90
   4   0  -6  386.06   20.80
  -4   0   6  419.46   17.50
   3   0  -6   -1.70    2.50
  -3   0   6    1.70    2.00
  -3   0   6    0.10    3.00
  -2   0   6  925.11   37.50
  -2   0   6  855.51   35.40
   2   0  -6  819.82   37.00
  -1   0   6   -3.20    1.80
   1   0  -6    2.10    2.40
  -1   0   6    2.10    2.60
   0   0  -6 2023.00   80.09
   0   0   6 2092.29   77.39
   0   0   6 1967.60   79.39
   0   0   6 1955.30   80.39
   1   0   6   -0.50    1.70
   1   0   6    1.00    2.10
  -1   0  -6    0.60    0.60
   1   0   6   -1.10    2.10
   2   0   6  670.73   27.70
  -2   0  -6  642.24   25.90
   2   0   6  662.33   28.20
   2   0   6  618.74   27.80
   3   0   6    1.20    2.30
  -3   0  -6   -0.70    1.00
   3   0   6   -0.20    2.30
   4   0   6   76.59    6.90
   4   0   6   73.59    6.40
  -4   0  -6   68.69    4.80
  -5   0  -6   -1.00    1.60
   5   0   6    1.90    3.30
  -6  -1   6  578.84   25.00
   6  -1  -6  597.44   30.20
   6   1  -6  560.74   29.10
  -6   1   6  577.34   25.30
  -5  -1   6   18.60    2.70
   5  -1  -6   15.40    4.90
   5   1  -6    9.70    4.20
   4  -1  -6   -2.50    2.50
  -4  -1   6   -0.50    1.10
   4   1  -6    0.80    2.80
  -4   1   6   -3.80    1.50
  -3  -1   6   84.99    8.00
  -3  -1   6   79.49    4.20
  -3  -1   6   76.89    5.60
   3  -1  -6   77.79    7.80
  -3   1   6   85.69    8.00
  -3   1   6   86.69    5.80
   3   1  -6   85.39    8.10
  -2  -1   6  316.47   16.60
   2  -1  -6  319.57   16.40
  -2  -1   6  311.77   14.70
  -2   1   6  376.76   15.00
  -2   1   6  357.06   16.80
   2   1  -6  260.07   15.70
  -1  -1   6  791.42   34.20
   1  -1  -6  889.71   34.10
  -1  -1   6  698.93   32.30
   1   1  -6  792.32   33.90
  -1   1   6  792.22   32.60
  -1   1   6  789.72   34.00
   0  -1   6 1421.66   55.79
   0  -1  -6 1430.16   56.59
   0  -1   6 1369.66   57.19
   0   1   6 1388.76   56.89
   0   1   6 1418.56   53.99
   0   1  -6 1414.76   56.79
   0   1   6 1334.47   55.79
   1  -1   6  164.38    9.00
  -1  -1  -6  166.88    8.50
   1  -1   6  170.38    9.90
  -1   1  -6  159.28    6.80
   1   1   6  169.08    8.90
   1   1   6  150.08    9.00
  -1   1  -6  153.28    8.90
   1   1   6  159.38    9.40
   2  -1   6    6.20    2.50
   2  -1   6    7.90    2.80
   2  -1   6    7.70    2.70
   2   1   6    5.30    2.90
   2   1   6    8.30    2.50
   2   1   6    7.80    2.60
  -2   1  -6    5.30    1.20
  -3  -1  -6  125.89    6.50
   3  -1   6  129.79    7.90
   3  -1   6  106.49    8.40
  -3   1  -6  132.89    6.60
   3   1   6  126.09    8.20
   3   1   6  126.89    8.10
  -4  -1  -6   27.40    3.20
   4  -1   6   24.70    4.70
  -4   1  -6   27.20    3.40
   4   1   6   27.40    4.20
   4   1   6   20.00    3.60
  -5  -1  -6   12.90    3.00
   5  -1   6   10.90    4.40
   5   1   6   18.70    4.10
  -5   1  -6   21.60    3.40
  -6  -2   6  224.18   11.30
   6  -2  -6  214.38   15.80
   6   2  -6  227.98   15.50
  -5  -2   6  177.18    9.00
   5  -2  -6  188.68   13.20
   5   2  -6  174.68   12.60
   4  -2  -6  325.67   18.20
  -4  -2   6  327.87   14.20
   4   2  -6  336.17   18.00
  -4   2   6  330.57   14.60
  -3  -2   6   94.39    4.70
   3  -2  -6   73.49    7.80
  -3  -2   6   93.29    6.20
  -3  -2   6   83.79    8.30
  -3   2   6  101.09    6.30
  -3   2   6  105.89    9.10
   3   2  -6   94.59    8.50
  -2  -2   6 3321.37  130.99
  -2  -2   6 3041.60  127.19
   2  -2  -6 3612.74  131.29
  -2  -2   6 3185.58  128.89
   2   2  -6 2942.61  130.49
  -2   2   6 3592.04  131.09
  -2   2   6 3551.24  129.09
  -1  -2   6  317.47   16.40
   1  -2  -6  354.46   16.30
  -1  -2   6  313.47   14.80
   1   2  -6  308.67   16.10
  -1   2   6  322.07   14.90
  -1   2   6  334.17   16.00
   0  -2   6  305.67   14.30
   0  -2  -6  318.97   14.80
   0  -2   6  308.47   15.70
   0   2   6  302.87   14.40
   0   2  -6  314.67   15.20
   0   2   6  291.37   15.00
  -1  -2  -6  940.51   38.70
   1  -2   6  957.40   40.60
   1  -2   6 1020.00   39.30
  -1   2  -6  920.81   39.80
   1   2   6  981.70   39.60
   1   2   6  972.30   39.80
  -1   2  -6  965.00   37.30
   1   2   6  908.01   39.70
   2  -2   6   20.50    3.40
   2  -2   6   17.40    3.90
  -2   2  -6   20.80    2.10
   2   2   6   19.50    3.50
   2   2   6   20.60    3.50
   2   2   6   19.60    3.20
   3  -2   6   46.30    4.60
   3  -2   6   46.50    5.90
  -3   2  -6   47.70    3.40
   3   2   6   48.50    5.00
   3   2   6   48.60    5.10
  -4  -2  -6   73.09    5.00
   4  -2   6   62.79    7.40
   4   2   6   81.29    6.50
   4   2   6   70.69    6.40
  -4   2  -6   74.49    5.00
  -5  -2  -6    7.20    2.30
   5  -2   6    1.30    3.60
   5   2   6    3.70    2.60
  -5   2  -6    0.90    1.80
  -6  -3   6   17.20    3.00
   6  -3  -6   19.10    5.90
   6   3  -6   14.80    5.00
  -5  -3   6    6.60    2.00
   5  -3  -6   11.90    4.90
   5   3  -6   14.50    4.20
   4  -3  -6   42.40    6.60
  -4  -3   6   40.40    3.40
  -4   3   6   39.40    3.70
   4   3  -6   32.70    5.70
  -3  -3   6   20.10    2.00
   3  -3  -6   13.20    4.20
  -3  -3   6   17.40    4.30
  -3   3   6   16.70    4.20
  -3   3   6   14.70    2.90
   3   3  -6   22.90    4.60
  -2  -3   6  265.07   14.80
  -2  -3   6  267.47   13.10
   2  -3  -6  284.27   14.80
  -2   3   6  292.07   15.00
   2   3  -6  252.07   14.60
  -2   3   6  276.87   13.00
  -1  -3   6   30.70    3.80
   1  -3  -6   34.90    4.80
  -1  -3   6   21.30    4.10
   1   3  -6   33.40    4.80
  -1   3   6   32.40    4.70
  -1   3   6   29.00    3.80
   0  -3  -6   93.89    6.50
   0  -3   6   79.19    6.00
   0  -3   6   75.59    7.20
   0   3   6   88.99    7.50
   0   3   6   84.59    6.00
   0   3  -6   74.09    6.90
   1  -3   6    7.80    3.30
   1  -3   6    7.00    2.70
  -1  -3  -6    6.60    1.90
  -1   3  -6    4.70    0.90
   1   3   6    5.60    2.90
   1   3   6    6.10    2.70
   1   3   6    2.30    2.20
  -1   3  -6    4.30    2.70
   2  -3   6   -1.10    2.70
   2  -3   6    0.30    2.40
   2   3   6   -1.50    1.70
   2   3   6   -2.80    2.30
   2   3   6    1.70    2.30
  -2   3  -6    1.00    1.00
   3  -3   6 1014.70   44.30
   3  -3   6 1032.80   41.80
   3   3   6 1055.19   42.00
   3   3   6  997.90   42.60
  -3   3  -6 1023.00   41.00
   4  -3   6  256.27   15.30
   4   3   6  263.47   12.40
   4   3   6  241.98   13.00
  -4   3  -6  240.68   11.90
   5  -3   6  274.77   17.40
  -5   3  -6  289.87   13.90
   5   3   6  285.77   13.80
   6  -4  -6    2.80    4.70
  -6  -4   6    2.80    1.90
   6   4  -6    0.00    3.50
   5  -4  -6   21.70    6.00
  -5  -4   6   22.60    2.80
   5   4  -6   25.90    5.40
  -4  -4   6  169.78    8.40
   4  -4  -6  195.58   13.40
   4   4  -6  197.98   12.50
  -4   4   6  187.18    9.30
  -3  -4   6  532.05   25.20
   3  -4  -6  534.85   26.20
   3   4  -6  588.94   26.00
  -3   4   6  517.95   25.50
  -3   4   6  523.45   23.00
   2  -4  -6  143.49    9.80
  -2  -4   6  142.09    9.80
  -2   4   6  131.99    9.80
   2   4  -6  150.48    9.90
  -2   4   6  123.09    7.90
   1  -4  -6  520.55   24.00
  -1  -4   6  541.25   22.80
  -1  -4   6  495.65   24.30
  -1   4   6  542.05   24.40
   1   4  -6  537.85   24.50
  -1   4   6  516.45   22.90
   0  -4  -6  153.38    9.00
   0  -4   6  151.88    8.80
   0  -4   6  167.48   10.60
   0   4  -6  162.18   10.10
   0   4   6  158.98    9.70
   0   4   6  141.69    8.80
   1  -4   6 1624.34   65.19
  -1  -4  -6 1472.45   64.59
   1  -4   6 1624.94   62.89
   1   4   6 1586.74   63.69
   1   4   6 1577.94   63.69
   1   4   6 1504.25   63.79
  -1   4  -6 1646.34   64.59
   2  -4   6   44.40    4.70
   2  -4   6   52.19    6.60
   2   4   6   52.59    5.60
   2   4   6   55.49    5.30
   3  -4   6  374.76   17.20
   3  -4   6  381.16   20.30
  -3   4  -6  386.16   16.50
   3   4   6  385.66   18.40
   3   4   6  374.66   17.20
   4  -4   6   -1.60    3.50
   4   4   6    0.60    1.90
   4   4   6    4.60    2.50
  -4   4  -6    4.20    1.90
   5  -4   6  204.68   14.50
   5  -4   6  203.88   14.90
   5   4   6  197.48    9.90
  -5   4  -6  185.58   10.40
   6  -5  -6   20.50    6.80
  -6  -5   6   16.40    3.00
   6   5  -6   10.10    4.40
  -5  -5   6    2.30    1.60
   5  -5  -6    2.40    4.50
   5   5  -6   -1.60    3.20
   4  -5  -6  614.84   31.00
  -4   5   6  631.84   26.40
   4   5  -6  635.74   30.00
  -3  -5   6   36.70    6.20
   3  -5  -6   34.20    6.20
  -3   5   6   45.40    6.50
  -3   5   6   36.30    4.10
   3   5  -6   23.00    5.10
   2  -5  -6  989.90   42.70
  -2  -5   6  981.70   42.60
  -2   5   6  951.50   42.50
  -2   5   6  994.50   40.60
   2   5  -6 1000.80   42.60
   1  -5  -6    4.60    2.70
  -1  -5   6   11.80    4.00
  -1   5   6    5.30    2.50
   1   5  -6    6.20    3.00
   1   5  -6    8.40    0.80
  -1   5   6   10.00    3.90
   0  -5   6  167.08    9.40
   0  -5   6  176.58   11.50
   0  -5  -6  165.98    9.90
   0   5   6  156.78   10.30
   0   5   6  162.88    9.80
   0   5  -6  176.08   10.80
   1  -5   6  144.49    8.30
   1  -5   6  131.89   10.20
   1   5   6  150.18    9.00
   1   5   6  149.49    9.30
   1   5   6  138.69    9.10
  -1   5  -6  132.39    9.80
   2  -5   6  369.86   20.00
   2  -5   6  380.06   17.10
   2   5   6  379.26   18.00
   2   5   6  360.16   17.40
   3  -5   6  884.11   38.50
   3   5   6  816.82   35.90
   3   5   6  813.22   34.60
   4  -5   6   41.40    7.10
   4   5   6   35.30    5.10
   4   5   6   36.50    4.00
  -4   5  -6   41.80    4.30
   5  -5   6  398.46   22.60
   5  -5   6  373.56   22.90
  -5   5  -6  384.66   18.00
   6  -6  -6   61.29   10.40
   5  -6  -6  194.08   15.50
   5   6  -6  207.48   14.20
   4  -6  -6   30.30    6.40
  -4   6   6   34.90    4.00
   4   6  -6   25.70    5.50
   3  -6  -6  152.88   11.70
  -3   6   6  145.59   11.10
   3   6  -6  149.99   10.70
  -3   6   6  140.69    8.50
   2  -6  -6  242.38   14.60
  -2  -6   6  253.07   14.60
  -2   6   6  261.57   15.10
   2   6  -6  236.78   14.40
  -2   6   6  237.08   12.50
  -1  -6   6  958.70   41.70
   1  -6  -6  952.40   40.70
   1   6  -6  992.60   41.50
  -1   6   6  963.50   39.90
   1   6  -6  926.91   36.90
  -1   6   6  925.71   41.20
   0  -6  -6   23.40    3.90
   0  -6   6   18.20    4.70
   0   6   6   22.60    3.80
   0   6   6   30.20    5.00
   0   6  -6   22.50    5.00
   1  -6   6  928.61   40.00
   1   6   6  855.71   37.80
  -1   6  -6  883.21   38.90
   1   6   6  888.11   37.90
   2  -6   6   61.79    8.00
   2   6   6   59.29    6.60
   2   6   6   77.19    6.70
   3  -6   6   14.00    5.00
   3   6   6   18.60    3.40
   3   6   6   18.40    4.20
   4  -6   6   15.00    5.60
   4   6   6    1.10    3.00
   4   6   6    7.60    2.60
   5  -7  -6    4.40    5.30
   5   7  -6    3.90    4.20
   4  -7  -6   54.29    8.80
   4   7  -6   50.89    7.30
   3  -7  -6   -1.20    3.20
  -3   7   6   -1.50    2.10
   3   7  -6    2.90    3.30
  -3   7   6    0.60    3.90
  -2  -7   6  153.68   11.20
   2  -7  -6  153.58   11.30
  -2   7   6  141.19   11.40
   2   7  -6  138.29   10.80
  -2   7   6  159.88    9.50
   1  -7  -6   36.10    5.30
  -1  -7   6   28.40    5.50
  -1   7   6   30.30    4.50
  -1   7   6   37.60    6.00
   1   7  -6   30.20    1.90
   1   7  -6   29.60    5.70
   0  -7  -6  484.85   22.90
   0  -7   6  504.35   25.30
   0   7   6  509.65   23.30
   0   7   6  490.15   24.00
   0   7  -6  516.35   24.80
   1  -7   6  630.34   29.20
   1   7   6  564.74   26.70
   1   7   6  574.64   26.60
  -1   7  -6  577.74   27.70
   2  -7   6   24.00    5.70
   2   7   6   15.90    3.70
   2   7   6   17.70    4.10
   3  -7   6  129.79   12.80
   3   7   6  132.69    9.70
   3   7   6  154.88    9.10
   4  -7   6   61.19    9.60
   4   7   6   51.79    5.00
   4   7   6   52.79    6.50
   5  -8  -6   18.80    7.00
   5   8  -6   20.90    5.80
   4  -8  -6  963.10   43.90
   4   8  -6  869.11   41.50
   3  -8  -6  316.27   19.00
   3   8  -6  313.67   17.80
  -3   8   6  324.87   18.80
  -3   8   6  295.87   15.30
  -2  -8   6   48.70    7.10
   2  -8  -6   52.29    7.60
   2   8  -6   45.00    6.90
  -2   8   6   46.00    7.10
  -2   8   6   39.00    5.10
  -1  -8   6  171.88   12.80
   1  -8  -6  192.18   12.10
   1   8  -6  175.98   12.30
  -1   8   6  185.18   11.10
  -1   8   6  158.88   12.20
   0  -8   6   58.79    8.00
   0   8   6   57.79    7.20
   0   8  -6   77.99    8.90
   0   8   6   69.39    6.90
   1  -8   6   75.99    9.50
  -1   8  -6   87.39    9.30
   1   8   6   79.69    8.00
   1   8   6   90.19    8.20
   2  -8   6    4.60    4.50
   2   8   6    6.00    3.40
   2   8   6   11.80    3.50
   3  -8   6  222.98   16.90
   3   8   6  230.98   12.70
   3   8   6  238.18   13.90
   4  -8   6   14.70    6.20
   4  -8   6   11.50    5.90
   4   8   6    2.70    3.80
   4   8   6   10.20    3.10
   5  -9  -6   -1.30    5.40
   5   9  -6   -1.70    4.00
   4  -9  -6  177.18   16.30
   4   9  -6  196.48   13.90
   3  -9  -6  127.59   12.60
   3   9  -6  114.09   11.00
  -3   9   6  117.39    8.30
  -3   9   6  101.19   10.90
   2  -9  -6  335.37   19.90
  -2   9   6  352.16   17.70
   2   9  -6  366.56   20.00
  -2   9   6  353.56   20.30
  -1  -9   6  368.26   20.10
   1  -9  -6  328.07   18.70
  -1   9   6  329.77   17.40
  -1   9   6  344.67   19.50
   1   9  -6  363.06   19.50
   0  -9   6  237.98   16.10
   0   9   6  241.38   13.90
   0   9  -6  246.68   15.50
   0   9   6  254.17   15.30
   1  -9   6    9.00    5.30
  -1   9  -6   20.20    5.20
   1   9   6    5.50    3.50
   1   9   6    9.20    4.00
   2  -9   6  170.28   15.30
   2   9   6  178.88   11.70
   2   9   6  176.98   11.60
   3  -9   6    1.60    4.90
   3   9   6    2.60    3.20
   3   9   6    5.70    3.20
   4  -9   6   12.20    6.60
   4  -9   6   20.20    7.40
   4   9   6   15.70    4.90
   4   9   6   18.50    3.90
   4 -10  -6 1005.50   47.90
   4  10  -6  986.50   45.60
   3 -10  -6  149.59   14.00
  -3  10   6  144.19    9.60
   3  10  -6  129.79   12.50
  -3  10   6  139.89   13.50
   2 -10  -6 1040.40   48.90
  -2  10   6 1067.59   46.30
  -2  10   6 1107.39   49.30
   2  10  -6 1142.69   48.90
  -1 -10   6   -2.80    3.60
  -1  10   6   -1.20    4.10
  -1  10   6   -1.90    2.80
   1  10  -6   -0.90    3.50
   0 -10   6   34.20    6.90
   0  10   6   33.20    5.60
   0  10  -6   44.20    7.20
   0  10   6   34.70    6.40
   1 -10   6   72.89   10.10
   1  10   6  126.09   10.10
   1  10   6   87.89    9.40
  -1  10  -6   96.69   10.60
   2 -10   6  236.48   17.40
   2  10   6  202.78   13.60
   2  10   6  240.38   13.90
   3 -10   6    1.40    5.30
   3 -10   6    3.60    5.40
   3  10   6    3.90    3.40
   3  10   6   10.10    4.20
   4 -11  -6  134.19   14.70
   4  11  -6  114.29   12.30
   3 -11  -6   39.70    8.20
   3  11  -6   39.50    7.10
  -3  11   6   41.50    8.40
  -3  11   6   36.40    5.60
  -2  11   6  100.89   11.80
   2  11  -6  112.49   11.80
  -2  11   6  140.79    9.80
  -1  11   6   22.80    6.60
  -1  11   6   15.20    4.00
   1  11  -6   26.20    6.50
   0 -11   6  130.89   13.60
   0  11   6  136.59   12.30
   0  11  -6  114.89   11.90
   1 -11   6   47.20    8.90
   1  11   6   51.09    7.30
  -1  11  -6   52.29    8.30
   2 -11   6  219.78   16.70
   2 -11   6  178.08   17.20
   2  11   6  220.08   13.90
   2  11   6  231.88   14.40
   3 -11   6  106.69   14.00
   3 -11   6  116.39   14.10
   3  11   6  117.99   10.30
   3  11   6  128.29   11.20
   4 -12  -6  408.56   25.80
   4  12  -6  398.06   23.60
  -3  12   6   24.10    5.10
   3  12  -6   40.20    7.90
  -3  12   6   13.70    6.70
  -2  12   6   41.20    6.00
   2  12  -6   41.30    7.80
  -2  12   6   33.90    7.90
  -1  12   6  129.19   12.90
   1  12  -6  130.19   13.10
   0 -12   6   73.89   10.50
   0 -12   6   79.09   11.20
   0  12  -6   70.89    9.70
   0  12   6   87.79   10.50
   1 -12   6  233.78   17.70
   1 -12   6  235.88   18.40
   1  12   6  245.48   16.10
   2 -12   6  121.59   14.50
   2 -12   6  113.19   13.70
   2  12   6  137.99   12.00
   2  12   6  109.79   10.40
   3 -12   6  199.38   19.10
   3  12   6  216.38   14.30
   3  12   6  216.78   14.80
  -3  13   6    7.50    4.30
  -3  13   6    4.00    6.20
   3  13  -6    9.20    5.70
   2  13  -6   50.69    9.00
  -2  13   6   51.39    7.00
  -2  13   6   48.60    9.50
   1  13  -6   41.70    8.30
  -1  13   6   22.20    6.80
   0  13  -6   43.50    8.30
   0  13   6   48.00    8.70
   1 -13   6   32.20    8.70
   1 -13   6   40.70    9.20
   1  13   6   39.50    7.50
   2 -13   6  327.17   22.40
   2  13   6  277.37   17.60
   2  13   6  313.97   18.80
  -2  14   6    4.60    3.60
  -2  14   6   -3.80    5.30
   2  14  -6   -2.40    4.90
   1  14  -6  264.27   19.30
  -1  14   6  284.27   19.90
   0  14   6   86.79   11.50
   0  14  -6   72.89   11.10
   1 -14   6  294.67   21.70
   1  14   6  289.17   19.30
   1  15  -6   24.30    8.00
  -1  15   6   42.10    9.40
   0  15  -6    9.00    6.30
   0  15   6   -3.40    5.10
  -6   0   7   -2.60    1.60
   6   0  -7    3.80    4.20
   5   0  -7   56.19    8.30
  -5   0   7   79.29    5.20
  -4   0   7    1.40    2.00
   4   0  -7   -2.10    2.80
  -3   0   7  674.43   27.90
  -3   0   7  654.03   30.50
   3   0  -7  638.34   30.30
  -2   0   7   -0.80    2.00
  -2   0   7   -2.40    3.20
   2   0  -7   -0.60    2.60
   1   0  -7 1246.88   47.30
  -1   0   7 1035.80   45.40
  -1   0   7 1085.19   47.10
   0   0   7    4.70    2.40
   0   0  -7    0.40    2.10
   0   0   7    3.60    3.00
   1   0   7 1317.87   54.39
   1   0   7 1372.46   55.79
   2   0   7    0.40    2.60
   2   0   7    2.10    2.70
   3   0   7    1.20    2.80
  -3   0  -7   -0.30    1.20
   3   0   7   -1.20    2.60
   4   0   7   -3.40    2.60
  -4   0  -7   -0.90    1.30
   5   0   7  138.69   10.70
  -5   0  -7  142.19    8.30
   6  -1  -7   60.09    9.20
  -6  -1   7   61.89    5.50
  -6   1   7   63.09    5.80
   6   1  -7   59.99    9.00
  -5  -1   7  145.99    7.90
   5  -1  -7  161.18   12.60
   5   1  -7  165.38   13.80
  -4  -1   7    0.20    1.00
   4  -1  -7   -1.00    2.90
  -4   1   7   -1.60    1.90
   4   1  -7   -1.60    3.00
  -3  -1   7  238.68   11.00
  -3  -1   7  294.37   15.60
   3  -1  -7  238.58   15.00
  -3  -1   7  266.97   12.80
   3   1  -7  267.57   15.20
  -3   1   7  269.77   15.50
  -3   1   7  274.07   12.90
   2  -1  -7   45.40    6.10
  -2  -1   7   35.10    5.50
  -2  -1   7   38.50    2.10
  -2  -1   7   34.80    4.20
   2   1  -7   42.30    6.10
  -2   1   7   56.39    6.70
  -2   1   7   39.00    4.30
  -1  -1   7  215.28   11.40
  -1  -1   7  204.88   12.80
   1  -1  -7  258.17   12.90
  -1   1   7  201.68   11.10
   1   1  -7  221.18   12.60
  -1   1   7  208.38   12.60
   0  -1  -7   73.99    6.70
   0  -1   7   90.89    6.00
   0  -1   7   57.59    6.70
   0   1   7   73.19    3.40
   0   1   7   72.09    6.10
   0   1   7   74.09    7.00
   0   1  -7   66.49    6.50
   1  -1   7 1791.02   71.69
  -1  -1  -7 1825.42   70.19
   1  -1   7 1758.22   70.19
   1   1   7 1806.42   70.49
   1   1   7 1594.24   71.89
   1   1   7 1789.62   71.39
  -1   1  -7 1745.23   70.59
   2  -1   7   24.40    3.90
   2  -1   7   14.20    3.90
  -2   1  -7   18.70    2.00
   2   1   7   13.20    3.70
   2   1   7   20.70    4.10
   3  -1   7  530.25   24.80
   3  -1   7  525.95   23.40
   3   1   7  515.65   24.00
  -3   1  -7  521.65   21.70
   3   1   7  526.55   23.60
  -4  -1  -7  134.69    7.50
   4  -1   7  147.79   10.50
   4   1   7  146.89    9.70
  -4   1  -7  133.39    7.50
   5  -1   7    4.90    4.00
   5   1   7    0.20    3.00
  -5   1  -7    2.50    1.90
   6  -2  -7  562.04   29.90
  -6  -2   7  546.45   23.90
  -6   2   7  564.34   24.50
   6   2  -7  548.65   29.00
  -5  -2   7  296.37   13.50
   5  -2  -7  307.77   18.70
   5   2  -7  292.57   17.90
  -4  -2   7  163.28    7.70
   4  -2  -7  169.98   12.40
  -4   2   7  157.78    8.80
   4   2  -7  164.58   11.70
   3  -2  -7   81.99    8.60
  -3  -2   7   94.89    6.60
  -3  -2   7   99.69    9.30
  -3  -2   7   87.79    4.40
  -3   2   7   79.79    8.80
   3   2  -7   78.39    8.20
  -3   2   7   93.79    6.40
  -2  -2   7  109.39    7.30
  -2  -2   7  123.09   10.40
  -2  -2   7  104.59    4.70
   2  -2  -7  147.59    9.50
  -2   2   7  129.29    9.50
  -2   2   7  131.89    7.30
   2   2  -7   85.29    8.50
  -1  -2   7  526.65   25.30
  -1  -2   7  533.35   23.50
   1  -2  -7  558.44   24.80
   1   2  -7  576.84   25.30
  -1   2   7  525.85   25.00
  -1   2   7  523.05   23.40
   0  -2   7   53.39    5.40
   0  -2  -7   46.80    5.40
   0  -2   7   43.70    6.00
   0   2  -7   56.59    6.20
   0   2   7   43.90    5.70
   0   2   7   55.19    5.30
   0   2   7   48.60    2.70
   1  -2   7  505.05   23.00
   1  -2   7  481.05   21.20
  -1  -2  -7  456.75   20.80
   1   2   7  489.05   22.20
  -1   2  -7  478.75   22.00
   1   2   7  491.15   22.30
   1   2   7  441.56   21.30
   2  -2   7   81.89    6.60
   2  -2   7   75.59    7.80
  -2   2  -7   80.39    4.20
   2   2   7   78.39    7.20
   2   2   7   75.69    6.60
   3  -2   7   88.09    7.00
   3  -2   7   90.89    8.80
   3   2   7   87.49    7.40
  -3   2  -7   84.29    5.00
   4  -2   7  101.39    9.90
   4   2   7  102.79    7.70
  -4   2  -7   97.99    6.10
   4   2   7   96.79    7.70
   5  -2   7   11.70    4.70
  -5   2  -7   12.20    2.80
   5   2   7   11.80    3.60
   6  -3  -7  116.49   12.70
  -6  -3   7  105.19    6.50
   6   3  -7   92.39   10.60
  -5  -3   7  121.99    6.80
   5  -3  -7  127.99   12.30
   5   3  -7  134.49   12.10
   4  -3  -7  132.59   11.90
  -4  -3   7  109.89    5.60
   4   3  -7  106.79   10.20
  -4   3   7   98.09    6.90
   3  -3  -7   30.30    5.90
  -3  -3   7   35.50    2.30
  -3  -3   7   37.10    6.00
  -3   3   7   32.80    4.20
   3   3  -7   38.80    6.10
  -3   3   7   35.70    6.40
  -2  -3   7   23.40    5.10
  -2  -3   7   23.70    3.90
   2  -3  -7   18.50    4.10
  -2   3   7   31.40    5.50
   2   3  -7   19.60    4.50
  -2   3   7   17.40    3.10
  -1  -3   7  137.29    8.40
  -1  -3   7  125.39    9.80
   1  -3  -7  135.39    9.20
  -1   3   7  133.39    8.20
   1   3  -7  131.59    9.50
  -1   3   7  117.49    9.40
   0  -3   7   70.89    7.50
   0  -3  -7   85.69    6.80
   0  -3   7   95.29    6.90
   0   3   7   79.89    7.60
   0   3  -7   93.99    8.30
   0   3   7   95.89    7.00
   1  -3   7  832.92   37.50
   1  -3   7  858.51   35.60
   1   3   7  863.51   36.30
   1   3   7  840.92   36.00
  -1   3  -7  833.62   36.70
  -1   3  -7  862.01   33.10
   2  -3   7   -0.60    2.80
   2  -3   7   -2.90    2.40
  -2   3  -7    0.10    0.80
   2   3   7    0.30    2.60
   2   3   7    4.70    2.80
   3  -3   7  133.59    8.10
   3  -3   7  129.49   11.00
  -3   3  -7  118.29    6.50
   3   3   7  122.39    8.40
   3   3   7  127.39    8.60
   4  -3   7   83.79    9.60
  -4   3  -7   81.99    5.50
   4   3   7   88.79    7.70
   4   3   7   96.79    7.10
   6  -4  -7  320.47   20.60
  -6  -4   7  296.27   14.30
   6   4  -7  331.97   19.80
   5  -4  -7  108.19   12.00
  -5  -4   7   90.89    5.50
   5   4  -7   94.59   10.20
  -4  -4   7  911.31   36.30
   4  -4  -7  903.61   41.80
  -4   4   7  923.81   37.60
   4   4  -7  904.91   41.10
   3  -4  -7   94.19    9.20
  -3  -4   7   81.79    8.50
  -3   4   7   94.49    9.20
  -3   4   7   93.09    6.70
   3   4  -7  105.79    9.80
   2  -4  -7    2.00    3.30
  -2  -4   7    7.60    3.90
  -2  -4   7    7.50    2.80
  -2   4   7    1.30    2.20
   2   4  -7    7.70    3.70
  -2   4   7    6.50    3.90
  -1  -4   7  116.29    7.50
   1  -4  -7  104.99    8.40
  -1  -4   7  125.79   10.50
   1   4  -7  119.39    9.10
  -1   4   7   86.59    8.50
  -1   4   7  119.59    7.60
   0  -4  -7   80.89    7.20
   0  -4   7   69.49    6.20
   0  -4   7   83.69    8.50
   0   4   7   60.29    6.80
   0   4  -7   69.39    7.30
   0   4   7   82.69    7.00
   1  -4   7   11.90    3.30
   1  -4   7   12.70    4.30
   1   4   7    8.80    3.50
  -1   4  -7   16.50    4.10
   1   4   7   16.70    3.90
  -1   4  -7   16.30    1.50
   2  -4   7  133.09   10.90
   2  -4   7  163.38    9.20
   2   4   7  140.89    9.40
   2   4   7  150.98    9.50
  -2   4  -7  158.18    7.10
   3  -4   7    9.70    4.40
   3  -4   7   10.20    2.90
   3   4   7   10.90    3.30
   3   4   7    7.50    3.20
  -3   4  -7    9.40    2.00
   4  -4   7  191.38   13.90
  -4   4  -7  177.28    9.40
   4   4   7  185.28   10.50
   4   4   7  197.18   11.60
   5  -5  -7  335.07   21.30
   5   5  -7  348.47   20.10
   4  -5  -7   71.09    9.30
   4   5  -7   68.09    8.40
  -4   5   7   66.69    5.70
   3  -5  -7    3.30    3.70
  -3   5   7    2.30    2.30
  -3   5   7    4.70    4.00
   3   5  -7   11.40    4.10
   2  -5  -7  287.17   16.70
  -2  -5   7  312.47   17.20
   2   5  -7  314.37   17.00
  -2   5   7  297.97   17.00
  -2   5   7  296.87   14.90
  -1  -5   7  140.69   11.00
   1  -5  -7  154.48   10.20
  -1  -5   7  144.09    9.10
  -1   5   7  134.99   10.40
  -1   5   7  150.98    9.10
   1   5  -7  154.88   10.50
   0  -5   7   53.59    6.90
   0  -5   7   43.60    5.00
   0  -5  -7   57.39    5.80
   0   5   7   48.60    5.50
   0   5  -7   72.59    7.70
   0   5   7   56.39    7.00
   1  -5   7  111.39   10.10
   1  -5   7  113.69    7.60
   1   5   7  115.59    8.60
  -1   5  -7  117.49   10.00
   1   5   7  110.49    8.50
   2  -5   7   13.40    4.90
   2  -5   7   20.40    3.70
  -2   5  -7   18.70    2.20
   2   5   7   21.70    4.30
   2   5   7   19.20    4.00
   3  -5   7    8.10    4.60
   3   5   7    8.80    3.00
   3   5   7    2.20    3.30
  -3   5  -7    7.40    1.80
   4  -5   7  231.48   16.30
   4   5   7  240.18   12.50
  -4   5  -7  233.98   11.60
   4   5   7  242.28   13.50
   5  -6  -7   30.00    7.60
   5   6  -7   27.10    6.20
   4  -6  -7  295.17   18.60
   4   6  -7  291.07   17.50
  -4   6   7  285.57   14.10
   3  -6  -7    6.90    4.40
  -3   6   7    9.70    4.90
  -3   6   7    6.00    2.70
   3   6  -7    8.50    4.10
   2  -6  -7  229.38   14.80
  -2  -6   7  275.67   15.80
  -2   6   7  262.07   15.70
  -2   6   7  256.87   13.40
   2   6  -7  260.87   15.50
   1  -6  -7  164.98   10.90
  -1  -6   7  155.38   11.90
  -1   6   7  157.28   11.40
   1   6  -7  175.38   11.80
  -1   6   7  170.48   10.10
   0  -6   7  132.89   11.50
   0   6   7  122.99    9.90
   0   6  -7  147.49   10.50
   0   6   7  136.09    9.30
   1  -6   7  255.27   16.40
   1   6   7  293.17   15.10
  -1   6  -7  268.57   15.70
   1   6   7  291.77   15.30
   2  -6   7  379.86   20.50
   2   6   7  332.37   17.30
   2   6   7  340.27   17.80
   3  -6   7   72.09    9.50
   3   6   7   72.19    7.60
   3   6   7   83.69    7.00
  -3   6  -7   75.89    4.90
   4  -6   7   64.99    9.50
   4   6   7   58.39    5.70
   4   6   7   57.19    6.60
  -4   6  -7   53.89    5.20
   5  -7  -7    4.60    5.20
   5   7  -7   21.30    5.80
   4  -7  -7    2.80    4.20
   4   7  -7    1.10    3.80
   3  -7  -7  168.68   13.10
  -3   7   7  178.88   10.30
  -3   7   7  157.78   12.80
   3   7  -7  197.48   13.30
   2  -7  -7  359.56   19.90
  -2  -7   7  393.56   20.60
  -2   7   7  367.06   18.00
  -2   7   7  364.56   20.30
   2   7  -7  366.56   20.20
   1  -7  -7  348.97   18.80
  -1  -7   7  376.06   20.20
  -1   7   7  354.46   19.40
  -1   7   7  353.66   17.80
   1   7  -7  346.47   19.30
   0  -7   7   24.60    5.90
   0   7   7   19.60    4.90
   0   7   7   22.00    4.50
   0   7  -7   28.80    6.10
   1  -7   7  180.28   13.10
   1   7   7  157.18   10.80
  -1   7  -7  153.28   11.50
   1   7   7  153.78   10.30
   2  -7   7   67.89    9.10
   2   7   7   69.59    7.50
   2   7   7   63.99    7.00
   3  -7   7  132.69   13.10
   3   7   7  145.29   10.30
   3   7   7  143.39    9.40
   4  -7   7  281.47   19.50
   4   7   7  266.67   14.10
  -4   7  -7  282.77   13.50
   4   7   7  286.17   16.00
   5  -8  -7   40.60    8.90
   5   8  -7   31.10    6.80
   4  -8  -7  192.48   15.20
   4   8  -7  179.18   13.70
   3  -8  -7  560.84   28.00
  -3   8   7  524.95   27.60
   3   8  -7  515.95   27.00
  -3   8   7  534.95   24.40
   2  -8  -7   71.49    8.40
  -2  -8   7   66.49    8.80
  -2   8   7   77.29    9.30
   2   8  -7   72.89    8.80
  -2   8   7   84.19    7.40
   1  -8  -7 1042.20   49.99
  -1  -8   7 1116.89   49.80
   1   8  -7 1152.38   49.10
  -1   8   7 1139.29   47.20
  -1   8   7 1100.59   49.00
   0  -8   7   55.99    8.50
   0   8   7   88.29    8.90
   0   8  -7   74.99    8.90
   0   8   7   60.99    6.90
   1  -8   7  175.08   15.20
   1   8   7  165.48   11.70
  -1   8  -7  196.68   13.30
   1   8   7  170.68   11.20
   2  -8   7   94.49   11.10
   2   8   7   69.69    7.70
   2   8   7   86.49    8.70
   3  -8   7    5.30    4.70
   3   8   7    0.50    2.90
   3   8   7    6.20    3.80
   4  -8   7    4.20    5.40
   4   8   7    0.20    2.70
   4   8   7  -12.40    2.70
   5  -9  -7   24.10    7.60
   5   9  -7   32.40    7.50
   4  -9  -7    7.10    5.50
   4   9  -7    9.60    5.00
   3  -9  -7  159.98   14.70
  -3   9   7  122.89    9.30
   3   9  -7  158.98   14.10
  -3   9   7  154.78   14.30
   2  -9  -7    4.20    4.20
  -2   9   7    1.50    4.40
  -2   9   7    5.90    3.30
   2   9  -7    8.90    4.80
  -1  -9   7   92.39   10.30
  -1   9   7   83.79    9.90
   1   9  -7  112.49   11.30
  -1   9   7   92.89    8.70
   0  -9   7    3.10    4.40
   0   9   7    1.20    2.90
   0   9  -7    1.00    3.60
   0   9   7   -0.20    3.70
   1  -9   7  346.67   20.90
   1   9   7  334.97   17.90
   1   9   7  316.87   18.20
   2  -9   7  188.98   17.00
   2   9   7  180.98   12.30
   2   9   7  207.28   13.10
   3  -9   7  312.47   21.10
   3   9   7  280.17   17.00
   3   9   7  312.57   16.40
   4 -10  -7   -7.30    4.30
   4  10  -7   -2.20    4.30
   3 -10  -7  255.57   18.60
   3  10  -7  293.67   18.40
  -3  10   7  272.07   15.40
  -3  10   7  298.77   19.20
  -2  10   7   54.19    6.40
   2  10  -7   42.00    7.60
  -2  10   7   42.80    8.30
  -1 -10   7 1010.90   47.90
  -1  10   7 1098.79   47.60
   1  10  -7 1014.60   47.50
  -1  10   7 1045.80   45.40
   0 -10   7  102.49   12.10
   0  10   7  102.99    9.70
   0  10   7  107.19   11.00
   0  10  -7  105.49   11.50
   1 -10   7   55.09    9.20
   1  10   7   80.29    9.00
   1  10   7   84.09    8.60
   2 -10   7   41.00    8.80
   2  10   7   52.29    7.00
   2  10   7   48.70    7.10
   3 -10   7   47.50    9.60
   3  10   7   37.50    6.50
   3  10   7   61.79    7.30
   4 -11  -7   35.80    8.70
   4  11  -7   17.80    6.70
  -3  11   7   -1.60    3.10
  -3  11   7    6.20    5.60
   3  11  -7    4.40    4.70
  -2  11   7   63.19    9.70
   2  11  -7   42.90    8.10
  -2  11   7   38.50    5.90
  -1  11   7   15.50    4.30
  -1  11   7   14.40    5.70
   1  11  -7    2.00    4.70
   0 -11   7   12.50    5.50
   0  11  -7   10.80    5.30
   0  11   7   15.40    5.40
   0  11   7    9.00    3.80
   1 -11   7  236.98   18.50
   1  11   7  274.07   16.90
   1  11   7  270.97   15.80
   2 -11   7   10.20    6.70
   2  11   7   17.40    5.20
   2  11   7   22.40    5.00
   3 -11   7  204.18   19.80
   3 -11   7  172.08   18.20
   3  11   7  214.08   14.60
   3  11   7  214.38   13.70
   3  12  -7  439.46   25.20
  -3  12   7  416.16   25.70
  -3  12   7  413.66   21.90
  -2  12   7   43.80    8.80
  -2  12   7   52.19    7.10
   2  12  -7   41.20    8.10
  -1  12   7  378.96   22.60
  -1  12   7  352.86   19.60
   1  12  -7  360.96   22.30
   0 -12   7    5.90    6.00
   0  12   7    7.60    5.00
   0  12  -7   -1.40    4.70
   0  12   7   11.60    4.00
   1 -12   7   64.99   11.20
   1  12   7   44.70    7.90
   1  12   7   48.50    7.00
   2 -12   7   71.89   12.20
   2 -12   7  108.99   13.50
   2  12   7   85.89   10.00
   2  12   7  109.79   10.70
  -3  13   7    1.30    4.00
   3  13  -7    2.40    5.20
  -3  13   7    5.10    6.80
  -2  13   7  244.88   15.80
   2  13  -7  235.38   18.40
  -2  13   7  260.67   19.20
  -1  13   7  132.09   11.70
   1  13  -7  133.09   13.90
  -1  13   7  120.59   13.40
   0  13   7    1.80    3.50
   0  13  -7    8.30    5.70
   0  13   7    2.10    4.90
   1 -13   7   13.50    6.80
   1 -13   7    6.80    6.10
   1  13   7    1.40    4.60
   1  13   7    0.60    3.40
  -2  14   7  176.48   13.40
  -1  14   7   12.10    5.00
   1  14  -7    4.40    5.80
  -1  14   7    7.10    6.10
   0  14  -7   -7.80    5.10
   0  14   7    6.80    5.50
  -6   0   8  337.27   16.30
   6   0  -8  396.86   22.80
   5   0  -8    1.60    3.90
  -5   0   8   -0.20    1.50
  -4   0   8  126.49    7.70
  -4   0   8  116.09    6.10
   4   0  -8  107.89   10.90
  -3   0   8   -1.60    3.20
  -3   0   8   -2.60    2.40
   3   0  -8    2.90    3.40
  -2   0   8  254.07   13.70
   2   0  -8  264.47   15.50
  -2   0   8  304.17   16.30
  -1   0   8    4.10    3.00
   1   0  -8   -0.40    2.80
  -1   0   8    0.30    3.00
   0   0   8 2628.44  104.19
   0   0   8 2566.14  102.39
   0   0  -8 2586.84  103.49
   1   0   8   -0.50    3.10
   1   0   8   -3.10    2.70
   2   0   8  537.35   24.80
   2   0   8  493.15   23.30
   3   0   8    0.10    3.00
   3   0   8   -4.80    2.50
   4   0   8    9.10    4.00
   6  -1  -8   24.30    7.00
  -6   1   8   32.60    4.10
   6   1  -8   25.40    6.90
   5  -1  -8   65.19    9.20
  -5  -1   8   62.69    4.40
   5   1  -8   69.99    9.00
  -4  -1   8   90.99    5.10
   4  -1  -8  103.29   10.70
  -4  -1   8   89.99    6.70
   4   1  -8  124.79   11.50
  -4   1   8   87.39    6.70
  -3  -1   8   -3.80    3.40
   3  -1  -8    0.10    3.40
  -3  -1   8    0.90    0.80
  -3  -1   8   -1.60    2.40
  -3   1   8    2.40    3.70
   3   1  -8    1.40    3.30
  -3   1   8   -5.90    2.10
  -2  -1   8   21.00    3.90
   2  -1  -8   23.00    4.90
  -2  -1   8   17.00    4.80
  -2  -1   8   22.30    1.30
   2   1  -8   25.70    5.20
  -2   1   8   22.50    5.20
  -2   1   8   24.60    4.00
  -1  -1   8   11.30    4.40
   1  -1  -8   12.50    3.80
  -1  -1   8    4.40    2.80
   1   1  -8    5.20    3.20
  -1   1   8   12.30    4.30
  -1   1   8    7.80    3.00
   0  -1  -8   33.60    5.00
   0  -1   8   46.90    6.30
   0  -1   8   40.50    4.80
   0   1   8   35.80    5.70
   0   1   8   45.10    2.40
   0   1  -8   56.29    6.20
   0   1   8   44.30    5.10
   1  -1   8  135.69    8.80
   1  -1   8  149.59   10.40
   1   1   8  148.89   10.40
   1   1   8  139.49    9.30
   2  -1   8  678.83   29.00
   2  -1   8  660.33   30.40
   2   1   8  654.33   29.90
   2   1   8  628.74   28.90
   3  -1   8   -0.10    3.10
   3  -1   8   -1.70    2.70
   3   1   8   -0.60    3.10
   3   1   8    1.90    3.10
  -3   1  -8    2.50    1.30
   4  -1   8  133.39   11.20
   4   1   8  126.79    9.70
  -4   1  -8  112.49    6.80
   6  -2  -8  237.28   17.80
   6   2  -8  218.38   16.10
  -6   2   8  228.98   11.80
   5  -2  -8  362.86   21.40
  -5  -2   8  343.17   15.30
   5   2  -8  344.77   20.20
  -4  -2   8   45.70    3.20
   4  -2  -8   65.39    8.70
  -4   2   8   46.30    4.90
   4   2  -8   51.09    7.30
  -3  -2   8  566.24   23.40
  -3  -2   8  594.34   25.80
   3  -2  -8  609.34   28.70
  -3  -2   8  601.94   28.70
   3   2  -8  574.84   28.50
  -3   2   8  601.54   25.80
  -3   2   8  605.94   28.60
  -2  -2   8   18.40    5.10
  -2  -2   8   27.40    4.50
   2  -2  -8   20.40    5.00
  -2   2   8   24.60    4.00
   2   2  -8   17.00    4.70
  -2   2   8   21.70    5.50
  -1  -2   8   57.49    7.20
  -1  -2   8   44.20    5.30
   1  -2  -8   40.70    5.80
  -1   2   8   33.00    5.70
   1   2  -8   40.60    5.80
  -1   2   8   53.89    5.60
   0  -2   8  510.65   25.30
   0  -2  -8  473.05   23.70
   0  -2   8  555.14   23.50
   0   2  -8  531.75   24.60
   0   2   8  507.65   23.40
   0   2   8  549.35   25.00
   1  -2   8    0.20    3.00
   1  -2   8   -0.90    2.90
   1   2   8    2.80    2.80
   1   2   8    1.80    3.10
   2  -2   8  662.03   28.80
   2  -2   8  645.04   30.70
   2   2   8  656.53   29.80
  -2   2  -8  656.13   26.30
   2   2   8  672.93   29.30
   3  -2   8   22.70    5.20
   3  -2   8   35.00    4.70
   3   2   8   33.10    4.90
  -3   2  -8   29.10    2.90
   3   2   8   27.70    4.80
   4  -2   8   27.90    5.90
  -4   2  -8   26.70    3.30
   5  -3  -8   79.69   10.50
   5   3  -8   82.49    9.70
  -4  -3   8   14.50    1.90
   4  -3  -8    7.60    4.50
  -4   3   8    9.00    3.10
   4   3  -8   13.70    4.80
   3  -3  -8    5.50    3.60
  -3  -3   8    3.80    2.80
  -3  -3   8    2.10    3.90
  -3   3   8    9.10    4.70
   3   3  -8    5.60    3.90
  -3   3   8    2.20    2.60
  -2  -3   8  346.97   17.70
  -2  -3   8  336.97   19.80
   2  -3  -8  425.56   20.20
  -2   3   8  446.86   18.30
  -2   3   8  404.36   20.20
   2   3  -8  305.97   19.20
  -1  -3   8  962.10   40.10
  -1  -3   8  959.90   42.50
   1  -3  -8  932.41   41.30
  -1   3   8 1026.10   42.10
   1   3  -8  966.10   42.20
  -1   3   8  925.81   40.10
   0  -3   8   13.90    4.80
   0  -3   8    3.60    2.90
   0  -3  -8    8.50    3.20
   0   3  -8    7.80    3.40
   0   3   8   16.00    4.30
   0   3   8   -1.70    2.50
   1  -3   8  260.47   15.30
   1  -3   8  246.48   13.20
   1   3   8  258.57   14.20
   1   3   8  234.28   13.30
   2  -3   8   38.90    6.40
   2  -3   8   35.60    5.00
   2   3   8   36.90    5.50
   2   3   8   37.50    5.10
  -2   3  -8   34.60    2.50
   3  -3   8   63.09    7.80
   3  -3   8   50.99    5.50
   3   3   8   48.90    6.10
   3   3   8   58.19    6.50
  -3   3  -8   54.89    3.80
   4  -3   8  338.77   20.10
   4   3   8  350.86   17.70
  -4   3  -8  337.17   15.50
   5  -4  -8  125.59   13.70
   5   4  -8  135.49   12.70
   4  -4  -8   60.59    8.80
  -4   4   8   47.00    5.30
   4   4  -8   54.99    8.00
  -3  -4   8 2545.95  104.19
   3  -4  -8 2574.24  104.39
  -3   4   8 2496.25  100.89
  -3   4   8 2498.25  103.79
   3   4  -8 2675.73  104.59
  -2  -4   8   17.60    3.90
   2  -4  -8   18.70    4.40
  -2  -4   8   19.30    5.20
   2   4  -8   14.00    4.60
  -2   4   8   14.50    3.50
  -2   4   8   22.50    5.30
  -1  -4   8  104.19    7.90
   1  -4  -8  119.29   10.30
  -1  -4   8   84.39    9.00
  -1   4   8  102.19    7.40
   1   4  -8   94.79    9.30
  -1   4   8   76.09    8.30
   0  -4   8  139.89   10.70
   0  -4   8  116.69    8.20
   0   4  -8  120.89   10.40
   0   4   8  107.29    9.80
   0   4   8  115.89    8.20
   1  -4   8   50.09    5.50
   1  -4   8   45.00    6.80
   1   4   8   45.10    5.50
   1   4   8   69.89    7.30
  -1   4  -8   49.90    2.60
   2  -4   8   28.10    4.30
   2  -4   8   22.50    5.60
   2   4   8   28.30    4.70
  -2   4  -8   29.20    2.50
   2   4   8   23.30    4.30
   3  -4   8  110.89    7.80
   3  -4   8  107.09   11.00
   3   4   8  109.59    8.50
  -3   4  -8  110.59    5.90
   3   4   8   97.49    8.80
   4  -4   8   30.10    6.80
   5  -5  -8  170.88   15.70
   5   5  -8  169.48   15.00
   4  -5  -8   37.00    7.20
   4   5  -8   34.20    6.70
  -4   5   8   31.20    4.50
   3  -5  -8   -3.60    3.40
  -3   5   8    1.20    2.50
   3   5  -8   -2.30    3.10
  -3   5   8    3.60    4.20
   2  -5  -8    0.30    3.00
  -2  -5   8   -0.50    3.50
   2   5  -8    0.50    2.80
  -2   5   8    0.80    3.10
  -2   5   8    2.10    2.50
  -1  -5   8  802.42   34.20
   1  -5  -8  767.52   35.60
  -1  -5   8  849.02   37.20
  -1   5   8  789.02   34.70
  -1   5   8  815.32   36.50
   0  -5   8   78.59    7.10
   0  -5   8  101.09    9.80
   0   5   8   84.69    8.70
   0   5  -8   72.29    8.10
   0   5   8   72.69    6.90
   1  -5   8  522.15   26.40
   1  -5   8  518.85   23.50
   1   5   8  531.25   24.50
   1   5   8  516.65   24.70
   2  -5   8   53.69    5.70
   2  -5   8   65.99    8.50
   2   5   8   60.39    7.00
   2   5   8   59.39    6.80
   3  -5   8   66.19    9.10
   3   5   8   60.69    6.70
   3   5   8   52.39    6.30
   4  -5   8  114.29   12.20
   4   5   8  100.59    9.80
   4   5   8  106.29    8.30
   5  -6  -8  580.84   32.40
   5   6  -8  647.34   32.10
   4  -6  -8   14.90    5.70
   4   6  -8    9.10    4.60
  -4   6   8    2.40    2.50
   3  -6  -8  229.48   15.50
  -3   6   8  214.28   14.80
  -3   6   8  236.28   12.70
   3   6  -8  254.47   15.80
   2  -6  -8   -1.20    4.00
  -2  -6   8   -0.50    3.70
  -2   6   8    4.90    4.40
  -2   6   8    4.80    2.90
   2   6  -8    0.30    3.30
   1  -6  -8  577.84   27.10
  -1  -6   8  565.54   28.40
   1   6  -8  607.64   28.20
  -1   6   8  558.74   26.10
  -1   6   8  553.24   27.60
   0  -6   8    2.10    3.90
   0   6   8   -2.30    2.30
   0   6  -8    0.30    3.10
   0   6   8    2.20    3.30
   1  -6   8   72.29    9.40
   1   6   8   68.69    7.70
   1   6   8   98.19    8.40
   2  -6   8  129.79   12.80
   2   6   8  168.08   10.90
   2   6   8  163.38   10.80
   3  -6   8  124.09   12.80
   3   6   8  139.59    9.30
   3   6   8  107.59    9.70
   4  -6   8   13.90    6.40
   4   6   8   14.40    4.20
   4   6   8   13.00    4.70
   5  -7  -8  181.68   17.10
   5   7  -8  151.88   14.60
   4  -7  -8   85.99   10.80
   4   7  -8  112.79   11.80
   3  -7  -8   52.79    7.80
  -3   7   8   58.89    8.50
   3   7  -8   59.29    8.40
  -3   7   8   57.39    6.20
   2  -7  -8  434.26   23.00
  -2  -7   8  418.76   23.20
  -2   7   8  435.66   23.20
   2   7  -8  443.16   23.40
  -2   7   8  429.36   20.80
  -1  -7   8   33.00    6.60
   1   7  -8   45.10    7.40
  -1   7   8   30.00    6.10
  -1   7   8   43.00    5.60
   0  -7   8   -0.90    3.80
   0   7   8   -1.00    2.40
   0   7   8   -2.60    3.20
   0   7  -8    1.80    3.50
   1  -7   8  438.56   25.10
   1   7   8  475.45   23.40
   1   7   8  477.25   23.10
   2  -7   8  285.37   18.50
   2   7   8  263.67   15.10
   2   7   8  260.17   15.40
   3  -7   8   33.60    7.40
   3   7   8   22.90    4.80
   3   7   8   20.80    4.80
   5  -8  -8   29.10    7.90
   5   8  -8   30.60    7.50
   4  -8  -8   48.40    8.80
   4   8  -8   64.09    9.40
   3  -8  -8  137.79   13.70
   3   8  -8  146.19   13.30
  -3   8   8  169.78   10.50
  -3   8   8  156.98   14.10
   2  -8  -8    4.80    4.10
  -2  -8   8    5.90    7.00
  -2   8   8    3.90    4.60
   2   8  -8   -0.10    3.90
  -2   8   8    2.30    3.00
  -1  -8   8  207.28   15.00
  -1   8   8  201.78   12.50
   1   8  -8  206.98   14.20
  -1   8   8  181.68   13.90
   0  -8   8  287.17   18.10
   0   8  -8  272.07   16.90
   0   8   8  261.27   16.20
   0   8   8  245.98   14.80
   1  -8   8   13.10    5.80
   1   8   8   14.90    4.70
   1   8   8   18.10    4.60
   2  -8   8  153.08   14.70
   2   8   8  140.09   10.70
   2   8   8  148.79   10.90
   3  -8   8   -3.10    4.60
   3   8   8    1.80    3.30
   3   8   8   -3.70    3.20
   4  -9  -8    9.30    6.20
   4   9  -8   12.00    5.50
   3  -9  -8   12.80    5.60
  -3   9   8    8.90    3.60
  -3   9   8   12.00    6.00
   3   9  -8   17.40    5.50
   2   9  -8   21.00    6.30
  -2   9   8   13.00    6.00
  -2   9   8   21.90    4.80
  -1  -9   8   40.00    7.70
  -1   9   8   47.30    6.30
   1   9  -8   45.30    7.40
  -1   9   8   53.99    8.30
   0  -9   8    4.00    4.80
   0   9   8   -2.10    3.30
   0   9  -8    1.50    4.40
   0   9   8    2.80    4.30
   1  -9   8   -3.20    3.90
   1   9   8    2.70    3.50
   1   9   8    4.60    4.00
   2  -9   8  215.28   17.40
   2   9   8  250.07   14.80
   2   9   8  226.28   14.70
   3  -9   8  133.19   14.80
   3   9   8  134.19   12.00
   3   9   8  143.19   10.60
   4 -10  -8   73.99   11.20
   4  10  -8   67.39   10.10
  -3  10   8    5.60    5.90
   3  10  -8    6.50    5.00
  -3  10   8    8.40    3.60
  -2  10   8  547.45   26.20
   2  10  -8  537.65   28.80
  -2  10   8  536.45   29.10
  -1 -10   8    2.40    5.20
  -1  10   8    5.20    5.30
  -1  10   8    9.70    4.20
   1  10  -8    6.00    4.90
   0 -10   8    8.50    5.60
   0  10  -8    6.00    4.40
   0  10   8    9.20    4.00
   0  10   8    5.40    4.60
   1 -10   8   40.00    8.50
   1  10   8   26.30    5.30
   1  10   8   30.80    6.30
   2 -10   8  302.07   21.10
   2  10   8  305.07   17.50
   2  10   8  280.67   17.30
  -3  11   8   -1.30    3.30
  -3  11   8    2.50    5.80
   3  11  -8    1.70    4.70
  -2  11   8   16.80    6.90
  -2  11   8    9.40    4.30
   2  11  -8   14.90    6.10
   1  11  -8  402.66   24.10
  -1  11   8  402.26   23.80
  -1  11   8  407.96   21.70
   0 -11   8   12.30    6.60
   0  11  -8   14.70    5.60
   0  11   8   15.10    6.10
   0  11   8    9.80    4.50
   1 -11   8   47.70    9.70
   1  11   8   40.80    7.40
   1  11   8   33.10    6.20
   2 -11   8  115.19   14.40
   2  11   8  119.29   11.60
   2  11   8   98.29   10.50
   3  12  -8  318.87   20.80
  -3  12   8  284.97   21.20
  -3  12   8  278.07   16.90
  -2  12   8  226.48   14.80
   2  12  -8  224.48   17.50
  -2  12   8  212.98   18.60
  -1  12   8  106.09   12.50
  -1  12   8  104.99   10.30
   1  12  -8   92.89   11.80
   0 -12   8   87.69   12.50
   0  12   8   79.69   10.50
   0  12   8   82.89    9.10
   1 -12   8   33.80    8.70
   1  12   8   49.99    7.30
   1  12   8   48.50    8.30
  -2  13   8    3.00    4.50
   2  13  -8    6.90    5.90
  -2  13   8    1.10    5.90
   1  13  -8  232.48   20.20
  -1  13   8  246.78   16.20
  -1  13   8  251.27   18.90
   0  13   8   36.40    8.30
   0  13   8   39.50    7.90
   5   0  -9  233.78   16.80
  -4   0   9   -1.70    2.50
   4   0  -9   -4.30    3.40
  -3   0   9 1239.28   49.20
  -3   0   9 1126.09   51.89
   3   0  -9 1187.48   51.99
  -2   0   9    1.50    3.10
  -2   0   9    8.40    4.60
   2   0  -9    2.00    3.50
  -1   0   9   15.00    3.70
   1   0  -9    7.30    3.70
  -1   0   9    6.90    4.60
   0   0  -9   -1.00    4.10
   0   0   9    2.20    3.80
   0   0   9   -2.10    2.70
   1   0   9   27.30    5.50
   1   0   9   36.90    5.30
   2   0   9    0.10    3.10
   2   0   9    0.00    3.10
   3   0   9  440.16   23.10
   3   0   9  457.15   21.90
   4   0   9   -0.50    3.60
   5  -1  -9    2.80    4.70
   5   1  -9    6.20    4.80
   4  -1  -9    0.10    3.90
  -4  -1   9    8.20    3.00
   4   1  -9   -2.50    3.40
  -4   1   9    3.70    3.00
  -3  -1   9  359.36   18.10
  -3  -1   9  348.27   20.50
   3  -1  -9  378.66   20.80
   3   1  -9  337.77   20.20
  -3   1   9  410.96   18.40
  -3   1   9  419.06   21.50
  -2  -1   9   23.60    4.20
  -2  -1   9   32.60    6.10
   2  -1  -9   20.20    5.10
   2   1  -9   16.20    5.00
  -2   1   9   26.20    4.40
  -2   1   9   23.90    5.70
   1  -1  -9  298.67   16.30
  -1  -1   9  249.88   16.20
  -1  -1   9  273.57   14.40
   1   1  -9  288.87   16.20
  -1   1   9  302.97   16.90
  -1   1   9  278.07   14.40
   0  -1   9  103.09   10.40
   0  -1   9  117.99    8.20
   0   1   9  109.09   10.10
   0   1   9  108.29    8.70
   0   1  -9  116.59    9.00
   1  -1   9   -3.90    2.80
   1  -1   9   -3.40    2.90
   1   1   9   -4.00    2.70
   1   1   9   -2.60    3.00
   2  -1   9   84.29    9.00
   2  -1   9   73.49    7.20
   2   1   9   82.89    8.50
   2   1   9   77.39    7.20
   3  -1   9  253.07   15.50
   3  -1   9  233.88   13.60
   3   1   9  237.98   13.80
   3   1   9  247.38   14.90
   4  -1   9   68.69    8.50
   4   1   9   62.99    7.70
   5  -2  -9  612.24   32.10
   5   2  -9  617.44   31.80
   4  -2  -9   32.00    6.60
  -4   2   9   43.10    5.20
   4   2  -9   48.60    7.50
  -3  -2   9  676.03   30.80
   3  -2  -9  811.22   34.70
  -3  -2   9  662.33   33.70
   3   2  -9  616.14   33.20
  -3   2   9  804.72   31.40
  -2  -2   9  301.27   19.30
  -2  -2   9  313.57   17.20
   2  -2  -9  422.86   20.10
  -2   2   9  406.56   17.80
  -2   2   9  401.96   20.40
   2   2  -9  327.07   19.40
  -1  -2   9    4.70    4.10
  -1  -2   9    5.50    3.30
   1  -2  -9   13.30    4.20
  -1   2   9    5.30    3.10
  -1   2   9    3.00    3.60
   1   2  -9    6.90    3.90
   0  -2   9  212.28   11.60
   0  -2   9  199.98   13.60
   0   2   9  171.28   12.50
   0   2   9  213.18   12.00
   0   2  -9  213.28   12.90
   1  -2   9   37.30    5.10
   1  -2   9   39.00    6.50
   1   2   9   28.80    5.40
   1   2   9   38.50    5.10
   2  -2   9    3.40    3.20
   2  -2   9    7.60    4.40
   2   2   9    2.40    3.10
   2   2   9    5.70    4.00
   3  -2   9    6.70    3.60
   3  -2   9    4.80    4.00
   3   2   9   11.30    4.10
   3   2   9   15.70    4.40
   4  -2   9   42.90    7.50
   4   2   9   49.99    6.80
   5  -3  -9   44.10    8.80
   5   3  -9   31.60    7.20
   4  -3  -9   -1.90    3.60
  -4   3   9   -5.70    2.30
   4   3  -9    4.20    4.20
  -3  -3   9  253.57   17.20
   3  -3  -9  320.37   17.70
  -3  -3   9  253.57   14.40
  -3   3   9  329.17   15.20
  -3   3   9  292.77   17.80
   3   3  -9  261.47   17.20
  -2  -3   9  198.98   11.90
   2  -3  -9  235.38   14.40
  -2  -3   9  215.98   14.60
  -2   3   9  256.07   12.60
   2   3  -9  182.58   13.60
  -1  -3   9    0.30    2.60
   1  -3  -9    1.80    3.30
  -1  -3   9   -0.30    3.60
   1   3  -9   -3.20    3.00
  -1   3   9   -1.50    2.40
  -1   3   9    0.40    3.70
   0  -3   9  106.79   10.70
   0  -3   9  113.79    8.50
   0   3   9  125.19   11.20
   0   3   9  115.49    8.60
   0   3  -9  120.29    9.50
   1  -3   9   -4.70    3.30
   1  -3   9    1.40    2.90
   1   3   9    2.00    3.50
   1   3   9    0.90    2.90
   2  -3   9 1212.28   50.99
   2  -3   9 1253.17   53.99
   2   3   9 1240.08   52.39
   2   3   9 1203.08   51.49
   3  -3   9   94.39    8.20
   3  -3   9  106.79   11.00
   3   3   9  118.79    9.90
   3   3   9  120.09    9.90
   4  -3   9   18.60    6.50
   4   3   9   17.90    4.70
   5  -4  -9   33.00    7.60
   5   4  -9   25.80    6.80
   4  -4  -9  324.57   20.00
  -4   4   9  315.57   16.00
   4   4  -9  318.87   19.80
   3  -4  -9  156.58   12.10
  -3   4   9  123.29    8.90
  -3   4   9  147.79   13.00
   3   4  -9  144.19   13.00
  -2  -4   9  535.45   27.80
   2  -4  -9  595.34   27.80
  -2  -4   9  512.65   24.80
   2   4  -9  522.65   27.30
  -2   4   9  588.04   25.40
  -2   4   9  586.64   27.90
  -1  -4   9   14.70    3.80
   1  -4  -9   27.80    5.60
  -1  -4   9   19.00    5.50
  -1   4   9   21.40    4.10
   1   4  -9   27.10    5.70
  -1   4   9   20.90    5.00
   0  -4   9  697.83   32.80
   0  -4   9  699.63   29.90
   0   4  -9  659.53   31.70
   0   4   9  642.84   31.30
   0   4   9  695.73   30.50
   1  -4   9    9.20    3.50
   1  -4   9    9.70    4.50
   1   4   9    7.10    3.50
   1   4   9    9.10    4.00
   2  -4   9    5.40    3.30
   2  -4   9   12.30    5.00
   2   4   9    2.90    3.50
   2   4   9   11.70    4.10
   3  -4   9   20.10    6.00
   3  -4   9   21.40    4.20
   3   4   9   23.40    5.00
   5  -5  -9   30.10    7.90
   5   5  -9   23.20    6.80
   4  -5  -9   49.60    8.40
  -4   5   9   53.79    6.00
   4   5  -9   62.49    9.10
   3  -5  -9    7.00    4.60
   3   5  -9    5.60    4.30
  -3   5   9    2.30    4.50
  -3   5   9   -0.30    2.80
   2  -5  -9   28.20    5.60
  -2  -5   9   23.50    6.30
  -2   5   9   22.70    4.50
   2   5  -9   30.20    6.20
  -2   5   9   14.80    5.40
  -1  -5   9   32.50    6.80
  -1  -5   9   22.70    4.20
   1   5  -9   23.20    5.70
  -1   5   9   18.60    4.20
  -1   5   9   23.70    5.70
   0  -5   9  336.27   16.60
   0  -5   9  331.37   19.40
   0   5   9  321.67   17.10
   0   5   9  333.37   18.50
   0   5  -9  328.47   18.50
   1  -5   9    1.30    4.30
   1  -5   9    5.40    3.30
   1   5   9    3.70    3.50
   1   5   9    5.20    3.60
   2  -5   9  862.51   37.20
   2  -5   9  861.71   40.80
   2   5   9  850.91   38.20
   2   5   9  883.21   38.50
   3  -5   9  120.59    8.80
   3  -5   9  133.49   13.30
   3   5   9  122.59   10.50
   3   5   9  126.99   10.60
   5  -6  -9  171.48   16.50
   5   6  -9  126.79   13.80
   4  -6  -9    8.10    5.10
   4   6  -9   12.30    5.30
  -4   6   9   13.00    3.80
   3  -6  -9    3.40    4.40
  -3   6   9    6.20    4.80
   3   6  -9    5.80    4.50
  -3   6   9    2.50    2.90
   2  -6  -9  507.85   26.70
  -2  -6   9  514.55   27.40
  -2   6   9  546.65   24.90
   2   6  -9  547.05   27.40
  -2   6   9  520.65   27.00
  -1  -6   9   28.60    6.40
   1   6  -9   32.10    6.50
  -1   6   9   40.00    5.60
  -1   6   9   29.00    6.20
   0  -6   9  409.06   22.60
   0  -6   9  385.06   19.00
   0   6   9  402.86   20.10
   0   6   9  365.86   20.80
   0   6  -9  403.46   21.60
   1  -6   9    3.10    4.40
   1  -6   9    5.60    3.40
   1   6   9    4.20    3.10
   1   6   9    4.20    3.70
   2  -6   9   94.09   11.10
   2   6   9   78.79    8.10
   2   6   9   78.39    8.50
   3  -6   9  128.99   13.50
   3   6   9  138.99   10.50
   3   6   9  136.89   10.50
   4  -7  -9  100.09   12.50
   4   7  -9   93.69   11.50
   3  -7  -9   44.50    8.40
  -3   7   9   42.00    5.70
  -3   7   9   62.19    9.10
   3   7  -9   70.49    9.60
  -2  -7   9   91.99   10.80
  -2   7   9   92.89   10.00
   2   7  -9   73.19    9.40
  -2   7   9   60.59    6.90
  -1  -7   9  223.08   15.60
  -1   7   9  206.38   13.10
  -1   7   9  218.58   15.00
   1   7  -9  209.28   14.90
   0  -7   9  356.96   21.60
   0   7   9  364.16   20.30
   0   7  -9  378.66   21.20
   0   7   9  367.46   19.30
   1  -7   9   14.20    6.30
   1   7   9   16.50    4.90
   1   7   9   22.30    5.00
   2  -7   9  130.39   13.50
   2   7   9  118.29   10.50
   2   7   9  109.99   10.10
   3  -7   9    2.10    5.40
   3   7   9    2.80    3.90
   3   7   9    0.40    3.60
   4  -8  -9   34.60    7.90
   4   8  -9   41.30    8.10
   3  -8  -9  136.49   13.30
   3   8  -9  130.19   12.90
  -3   8   9  123.89   10.10
  -3   8   9  117.69   12.80
   2   8  -9  136.49   13.30
  -2   8   9  132.49   10.20
  -2   8   9  142.39   13.40
  -1  -8   9   -0.20    4.40
  -1   8   9    2.40    3.30
   1   8  -9    1.00    4.10
  -1   8   9   -1.30    3.90
   0  -8   9   78.89   10.90
   0   8   9   91.09    9.10
   0   8  -9   96.19   15.90
   0   8   9   98.79   10.30
   1  -8   9   19.90    7.20
   1   8   9   43.50    6.20
   1   8   9   26.00    5.80
   2  -8   9   37.70    8.30
   2   8   9   32.80    6.10
   2   8   9   26.30    5.80
   3  -8   9  240.18   19.00
   3   8   9  235.38   15.50
   3   8   9  246.88   14.70
   4  -9  -9   11.70    6.00
   4   9  -9    7.00    5.50
  -3   9   9  158.08   15.20
  -3   9   9  134.89   10.50
   3   9  -9  137.59   14.00
  -2   9   9  102.69   11.50
  -2   9   9   94.99    9.20
   2   9  -9   80.19   10.50
  -1  -9   9  163.08   15.60
   1   9  -9  179.98   15.50
  -1   9   9  163.98   14.80
  -1   9   9  177.98   12.30
   0  -9   9    5.40    5.20
   0   9   9   -0.10    3.40
   0   9   9    4.10    4.40
   1  -9   9   34.90    8.00
   1   9   9   48.10    7.50
   1   9   9   39.50    6.80
   2  -9   9    1.20    5.10
   2   9   9    0.20    4.00
   2   9   9   -7.40    3.10
  -3  10   9   82.19   11.60
  -3  10   9   71.89    8.30
   3  10  -9   96.69   11.90
  -2  10   9   26.60    7.60
   2  10  -9   22.60    6.90
  -2  10   9   27.80    5.70
  -1 -10   9   38.70    8.60
  -1  10   9   40.30    8.30
   1  10  -9   37.80    8.20
  -1  10   9   50.79    6.90
   0 -10   9    3.20    5.20
   0  10   9   -0.70    4.40
   0  10   9    6.50    4.20
   1 -10   9   61.79   10.30
   1  10   9   75.39    9.60
   1  10   9   80.39    8.90
   2 -10   9   -9.50    4.50
   2  10   9   -0.80    3.90
   2  10   9   -1.60    4.00
  -3  11   9  103.39   13.20
   3  11  -9  116.19   13.50
  -3  11   9   96.59    9.90
  -2  11   9   66.99   10.80
   2  11  -9   66.09   10.40
  -2  11   9   63.29    8.30
   1  11  -9   84.39   11.20
  -1  11   9   71.19    8.60
  -1  11   9   78.49   11.40
   0 -11   9   11.40    6.90
   0  11   9   15.80    6.20
   0  11   9   13.80    5.00
   1 -11   9  107.79   14.40
   1  11   9  124.39   11.70
   1  11   9  150.18   13.80
   2  12  -9  120.39   14.30
  -2  12   9   95.79   13.20
  -2  12   9  111.19   11.10
  -1  12   9  134.79   12.60
   1  12  -9  141.39   15.00
  -1  12   9  146.09   15.00
   0 -12   9  224.08   22.90
   0  12   9  275.47   25.90
   0  12   9  266.27   18.60
   5   0 -10   -4.60    4.00
  -4   0  10  874.11   37.40
   4   0 -10  879.21   41.60
  -3   0  10    4.40    4.30
   3   0 -10   -5.50    3.30
  -3   0  10    2.90    3.40
   2   0 -10  656.93   30.40
  -2   0  10  590.34   30.30
  -2   0  10  586.24   27.30
  -1   0  10   -7.30    3.60
   1   0 -10   -0.20    3.30
  -1   0  10   -0.20    3.10
   0   0  10  124.49   11.70
   0   0  10  111.59    8.60
   1   0  10   -1.80    3.00
   1   0  10    0.40    3.80
   2   0  10   37.90    6.70
   2   0  10   22.90    5.20
   3   0  10   -8.40    3.30
   3   0  10   11.60    4.80
   5  -1 -10   48.90    8.90
   5   1 -10   37.90    8.20
  -4  -1  10   52.99    6.20
   4  -1 -10   71.59    9.30
   4   1 -10   63.09    9.10
  -4   1  10   58.69    6.60
   3  -1 -10   18.20    5.50
  -3  -1  10    9.00    3.80
  -3  -1  10   20.40    6.00
   3   1 -10    7.00    4.60
  -3   1  10   24.80    6.40
  -3   1  10    8.70    3.90
  -2  -1  10  267.17   15.10
  -2  -1  10  261.37   17.30
   2  -1 -10  308.67   17.60
   2   1 -10  278.27   17.30
  -2   1  10  291.17   15.20
  -2   1  10  314.37   18.20
   1  -1 -10   86.49    9.50
  -1  -1  10  101.79   10.60
  -1  -1  10   79.69    7.80
  -1   1  10   92.09    8.30
   1   1 -10  107.09   10.20
  -1   1  10   98.29   10.40
   0  -1  10  518.65   27.00
   0  -1  10  542.05   24.70
   0   1  10  558.64   27.10
   0   1  10  506.55   24.50
   1  -1  10   46.20    5.80
   1  -1  10   44.20    7.20
   1   1  10   36.20    6.80
   1   1  10   39.40    5.60
   2  -1  10  541.85   25.60
   2  -1  10  553.64   27.90
   2   1  10  537.65   27.10
   2   1  10  540.65   25.80
   3  -1  10   10.60    4.40
   3  -1  10   21.10    5.80
   3   1  10   25.80    6.00
   3   1  10   11.10    4.40
   5  -2 -10   97.39   12.40
   5   2 -10   97.39   12.00
   4  -2 -10  403.06   22.60
  -4  -2  10  374.56   18.40
   4   2 -10  354.16   21.70
  -4   2  10  366.56   18.40
   3  -2 -10   19.30    5.20
  -3  -2  10    9.80    5.20
  -3  -2  10   20.70    4.50
  -3   2  10   27.20    4.90
  -3   2  10   21.20    6.00
   3   2 -10   19.80    5.70
  -2  -2  10  599.94   30.00
   2  -2 -10  777.02   33.30
  -2  -2  10  598.04   32.70
  -2   2  10  733.13   30.60
   2   2 -10  664.93   32.70
  -2   2  10  743.53   33.60
  -1  -2  10   84.09    7.50
  -1  -2  10   81.19    9.70
  -1   2  10   74.29    7.20
  -1   2  10   80.59    9.20
   1   2 -10   75.49    8.80
   0  -2  10   33.50    5.30
   0  -2  10   49.80    7.70
   0   2  10   29.50    6.30
   0   2  10   36.30    5.60
   1  -2  10   68.09    7.30
   1  -2  10   85.59    9.80
   1   2  10   67.09    7.50
   1   2  10   80.29    9.00
   2  -2  10   19.70    5.80
   2  -2  10   20.50    4.60
   2   2  10   15.90    5.10
   2   2  10   21.70    4.90
   3  -2  10   22.30    5.90
   3  -2  10   20.80    4.80
   3   2  10   17.50    5.30
   3   2  10   14.20    4.60
   5  -3 -10  225.08   18.90
   5   3 -10  216.48   16.90
   4  -3 -10  207.08   15.40
  -4   3  10  183.58   11.60
   4   3 -10  201.38   15.30
   3  -3 -10   59.59    8.40
  -3  -3  10   42.10    5.90
  -3   3  10   51.09    8.20
   3   3 -10   44.30    7.90
  -3   3  10   58.49    6.30
  -2  -3  10  186.78   14.60
  -2  -3  10  199.08   12.50
   2  -3 -10  238.08   15.00
  -2   3  10  231.28   15.30
  -2   3  10  245.68   13.10
   2   3 -10  198.98   14.20
  -1  -3  10   -0.90    3.00
  -1  -3  10    1.80    4.00
  -1   3  10    5.80    4.50
  -1   3  10   -5.50    2.50
   1   3 -10   -4.10    2.90
   0  -3  10  446.46   20.90
   0  -3  10  440.46   23.70
   0   3  10  418.16   22.70
   0   3  10  406.16   20.90
   1  -3  10    0.00    4.20
   1  -3  10   -2.10    2.70
   1   3  10   10.20    4.00
   1   3  10    0.60    3.40
   2  -3  10   12.20    5.10
   2  -3  10   13.40    4.00
   2   3  10   -2.90    3.30
   2   3  10    9.90    4.30
   3  -3  10  425.26   21.30
   3  -3  10  453.05   24.80
   3   3  10  434.56   22.90
   3   3  10  445.16   22.30
   5  -4 -10   -5.20    4.40
   5   4 -10   -0.40    4.60
   4  -4 -10   49.99    8.80
   4   4 -10   56.29    8.90
  -4   4  10   57.49    6.60
   3  -4 -10  173.18   13.50
  -3   4  10  134.89   13.30
   3   4 -10  172.58   15.00
  -3   4  10  182.28   11.20
  -2  -4  10   48.20    5.90
   2  -4 -10   56.89    7.90
  -2  -4  10   69.69    9.10
  -2   4  10   48.90    5.90
   2   4 -10   43.90    7.90
  -2   4  10   72.69    9.30
  -1  -4  10   60.89    8.70
  -1  -4  10   64.29    6.70
  -1   4  10   68.39    7.00
   1   4 -10   87.89    9.80
  -1   4  10   95.69   10.40
   0  -4  10    2.70    4.40
   0  -4  10    3.40    3.40
   0   4  10    4.90    3.20
   0   4  10    5.90    4.30
   1  -4  10   11.40    5.50
   1  -4  10   19.50    4.50
   1   4  10   14.30    4.30
   1   4  10   15.20    4.90
   2  -4  10   28.90    5.00
   2  -4  10   30.40    7.00
   2   4  10   20.20    5.20
   2   4  10   26.70    5.00
   3  -4  10  328.57   17.90
   3  -4  10  325.27   21.40
   3   4  10  400.86   19.70
   3   4  10  338.87   19.40
   4  -5 -10   -6.20    3.50
   4   5 -10    1.70    4.40
  -4   5  10   -3.40    3.30
   3  -5 -10   76.79    9.50
  -3   5  10   66.09    9.40
   3   5 -10   83.79   10.60
  -3   5  10   65.19    7.00
  -2  -5  10   31.30    5.20
  -2  -5  10   25.90    6.60
   2   5 -10   38.90    7.20
  -2   5  10   45.60    7.70
  -2   5  10   29.40    5.30
  -1  -5  10   -2.40    2.80
  -1  -5  10   -8.00    3.60
   1   5 -10    3.30    4.10
  -1   5  10    5.30    4.60
  -1   5  10   -0.40    2.80
   0  -5  10    8.50    5.00
   0  -5  10   -0.60    3.10
   0   5  10    3.70    3.40
   0   5  10    1.10    3.90
   1  -5  10   25.60    4.90
   1  -5  10   25.70    6.80
   1   5  10   28.60    5.30
   1   5  10   31.00    6.10
   2  -5  10   20.40    6.40
   2  -5  10   29.00    5.10
   2   5  10   18.30    5.20
   2   5  10   19.70    5.30
   3  -5  10  448.36   21.90
   3  -5  10  464.85   26.70
   3   5  10  461.05   23.40
   3   5  10  431.36   22.90
   4  -6 -10   15.90    6.00
   4   6 -10   22.80    7.00
   3  -6 -10    4.80    4.30
   3   6 -10    5.50    4.80
  -3   6  10    1.70    3.40
  -3   6  10   -1.80    4.60
  -2  -6  10  210.18   15.50
  -2   6  10  183.08   12.10
   2   6 -10  213.38   15.20
  -2   6  10  211.08   15.00
  -1  -6  10   66.69    9.40
  -1   6  10   82.59    9.90
   1   6 -10   61.89    8.60
  -1   6  10   72.59    7.80
   0  -6  10    6.00    5.20
   0  -6  10    7.20    3.50
   0   6  10    2.80    3.20
   0   6  10    6.80    4.60
   1  -6  10  550.14   28.30
   1  -6  10  525.15   24.00
   1   6  10  488.65   24.90
   1   6  10  473.85   25.40
   2  -6  10  106.39   12.40
   2   6  10   96.59    9.50
   2   6  10   95.29   10.10
   3  -6  10   -2.90    4.70
   3   6  10    2.30    4.10
   4  -7 -10   46.90    9.20
   4   7 -10   40.40    8.40
  -3   7  10   77.29   10.30
  -3   7  10   75.19    7.70
   3   7 -10   65.79    9.90
  -2  -7  10   17.30   10.20
  -2   7  10   16.60    6.10
  -2   7  10   12.60    4.10
   2   7 -10   13.50    5.70
  -1  -7  10    4.60    5.10
  -1   7  10   -2.20    2.60
   1   7 -10   -0.10    4.00
  -1   7  10    1.10    4.50
   0  -7  10  101.39   12.00
   0   7  10   76.59    8.80
   0   7  10  114.19   11.50
   1  -7  10  108.09   12.90
   1   7  10  130.49   11.10
   1   7  10  118.09   11.40
   2  -7  10  178.48   17.20
   2   7  10  183.08   12.80
   2   7  10  194.48   13.30
   4   8 -10  297.97   20.70
  -3   8  10   40.00    8.40
   3   8 -10   44.70    8.70
  -3   8  10   37.60    6.20
  -2   8  10  465.55   26.10
  -2   8  10  429.36   22.90
   2   8 -10  504.35   26.80
  -1  -8  10   20.80    6.90
   1   8 -10   21.70    6.10
  -1   8  10   25.40    6.50
  -1   8  10   18.90    4.90
   0  -8  10  234.28   17.70
   0   8  10  239.78   14.70
   0   8  10  216.88   15.80
   1  -8  10   50.19    9.70
   1   8  10   49.40    7.60
   1   8  10   53.99    7.90
   2  -8  10  243.38   19.40
   2   8  10  261.07   16.40
   2   8  10  265.97   16.50
   3   9 -10   -3.50    4.60
  -3   9  10   -0.90    5.40
  -3   9  10    0.30    3.80
  -2   9  10   79.99    9.00
   2   9 -10   93.59   11.70
  -2   9  10   90.19   11.40
  -1  -9  10  256.17   19.10
  -1   9  10  268.37   18.50
  -1   9  10  253.67   15.90
   1   9 -10  245.08   18.00
   0  -9  10  439.26   27.30
   0   9  10  484.55   24.40
   0   9  10  456.15   25.40
   1  -9  10    3.70    5.80
   1   9  10   -0.70    4.00
   1   9  10    0.30    4.10
  -3  10  10   30.20    6.30
  -3  10  10   29.20    8.90
   3  10 -10   50.19    9.70
   2  10 -10  673.83   34.90
  -2  10  10  685.63   35.10
  -2  10  10  627.04   31.50
  -1  10  10   10.50    5.90
  -1  10  10    7.10    4.50
   1  10 -10    9.30    5.70
   0 -10  10   12.40    6.80
   0  10  10   19.70    5.50
   0  10  10   13.90    6.20
   1 -10  10   15.60    7.40
   1  10  10    4.40    5.30
  -2  11  10  107.89   13.30
  -2  11  10   85.59    9.60
   2  11 -10   74.89   11.90
  -1  11  10   11.90    4.90
  -1  11  10   -0.50    5.70
   0 -11  10  356.36   24.40
   0  11  10  354.16   22.50
   4   0 -11    1.80    4.80
  -4   0  11   -6.30    3.00
  -3   0  11   29.50    5.30
  -3   0  11   24.40    6.80
   3   0 -11   25.90    6.30
   2   0 -11    1.90    4.20
  -2   0  11   -8.80    3.40
  -2   0  11   -3.70    3.00
  -1   0  11 1342.07   56.89
  -1   0  11 1383.36   59.99
   0   0  11   -7.00    2.90
   0   0  11   -0.90    4.20
   1   0  11   20.90    5.90
   1   0  11   25.10    5.30
   2   0  11   -4.50    3.40
   2   0  11   -3.30    3.30
   3   0  11    1.40    4.50
   4  -1 -11    2.90    4.90
  -4  -1  11    8.90    3.80
  -4   1  11    1.00    3.80
   4   1 -11    8.80    5.10
  -3  -1  11    2.80    5.30
  -3  -1  11   14.40    4.40
   3  -1 -11   15.00    5.80
  -3   1  11   16.50    4.20
  -3   1  11   12.10    5.60
   3   1 -11   16.10    6.00
  -2  -1  11   61.39    7.20
  -2  -1  11   46.20    8.00
   2  -1 -11   60.59    8.80
  -2   1  11   56.69    6.90
  -2   1  11   58.99    9.20
   2   1 -11   56.39    8.30
  -1  -1  11  200.28   14.40
  -1  -1  11  170.98   11.50
  -1   1  11  170.18   11.20
  -1   1  11  150.48   14.00
   0  -1  11   18.50    4.70
   0  -1  11   23.50    6.00
   0   1  11   31.00    6.90
   0   1  11   14.10    4.20
   1  -1  11  221.88   14.10
   1  -1  11  279.67   17.10
   1   1  11  223.78   16.00
   1   1  11  240.28   14.50
   2  -1  11   21.10    6.20
   2  -1  11   17.60    5.20
   2   1  11   15.90    5.40
   2   1  11   10.60    4.50
   3  -1  11  298.97   19.20
   4  -2 -11  144.69   14.40
  -4  -2  11  162.08   10.80
   4   2 -11  148.39   15.20
  -4   2  11  178.68   11.40
   3  -2 -11  118.99   12.10
  -3  -2  11  101.09    9.00
  -3   2  11  104.79   11.50
   3   2 -11  106.79   11.80
  -3   2  11  104.19    8.90
  -2  -2  11   84.79   10.30
  -2  -2  11   76.39    7.90
   2   2 -11   89.69   10.20
  -2   2  11   73.89    7.60
  -2   2  11   87.59   10.30
  -1  -2  11  501.55   24.10
  -1  -2  11  534.25   27.40
  -1   2  11  475.55   23.90
  -1   2  11  499.05   26.70
   0  -2  11   38.20    7.60
   0  -2  11   34.30    5.80
   0   2  11   48.50    7.90
   0   2  11   31.70    5.70
   1  -2  11  193.28   12.70
   1  -2  11  211.88   15.50
   1   2  11  177.98   12.60
   1   2  11  224.58   15.00
   2  -2  11   -0.60    3.60
   2  -2  11    4.90    4.90
   2   2  11    4.50    4.30
   2   2  11   -3.00    3.80
   4  -3 -11  160.98   15.10
  -4   3  11  119.59   10.10
   4   3 -11  144.99   14.40
   3  -3 -11    5.10    4.60
  -3  -3  11    4.30    3.40
   3   3 -11    1.50    4.40
  -3   3  11   -2.40    4.90
  -3   3  11   -0.70    3.10
  -2  -3  11  581.24   31.60
  -2  -3  11  615.34   28.50
  -2   3  11  659.43   28.80
  -2   3  11  650.83   31.90
   2   3 -11  586.54   31.10
  -1  -3  11   57.99    8.70
  -1  -3  11   44.20    6.00
  -1   3  11   48.00    6.40
  -1   3  11   54.59    8.50
   0  -3  11   -0.10    3.10
   0  -3  11   -2.00    4.00
   0   3  11   -3.80    2.60
   0   3  11    0.10    4.10
   1  -3  11   79.29    8.10
   1  -3  11   96.19   11.60
   1   3  11   92.49   10.40
   1   3  11   96.89    9.20
   2  -3  11   23.90    5.50
   2  -3  11   38.80    7.80
   2   3  11   31.30    6.70
   2   3  11   36.70    6.10
   4  -4 -11  720.53   37.00
   4   4 -11  744.53   37.50
  -4   4  11  731.23   32.90
  -3  -4  11   51.79    6.60
   3  -4 -11   59.09    8.90
  -3   4  11   42.20    8.40
  -3   4  11   53.89    6.70
   3   4 -11   49.00    8.40
  -2  -4  11  101.19   11.70
  -2  -4  11  105.59    9.20
  -2   4  11   89.29    8.50
  -2   4  11  130.89   12.70
   2   4 -11  110.19   11.90
  -1  -4  11   34.00    7.80
  -1  -4  11   29.50    5.50
  -1   4  11   45.60    7.90
  -1   4  11   25.20    4.90
   0  -4  11   -4.80    3.30
   0  -4  11    1.00    4.80
   0   4  11    3.80    4.60
   0   4  11   -4.20    2.50
   1  -4  11    4.20    3.70
   1  -4  11   -6.20    3.90
   1   4  11    7.20    4.10
   1   4  11    1.50    4.00
   2  -4  11    9.90    4.10
   2  -4  11   13.10    5.80
   2   4  11   11.40    4.80
   2   4  11    3.80    4.50
   4  -5 -11   91.79   12.10
   4   5 -11   87.79   11.50
  -4   5  11   92.99   11.90
  -3   5  11   -4.40    3.00
  -3   5  11    1.00    5.30
   3   5 -11    1.60    4.50
  -2  -5  11  477.35   26.30
  -2  -5  11  465.05   22.30
  -2   5  11  434.26   25.40
   2   5 -11  439.96   25.40
  -2   5  11  457.95   22.70
  -1  -5  11   81.49    8.00
  -1  -5  11   85.39   11.10
  -1   5  11   95.39   11.10
  -1   5  11   84.69    8.60
   0  -5  11  130.39   13.90
   0  -5  11  134.79   10.20
   0   5  11  139.79   10.40
   0   5  11  117.39   12.20
   1  -5  11   79.69    8.20
   1  -5  11  114.59   12.70
   1   5  11   76.69    8.90
   1   5  11   75.19    9.70
   2  -5  11   15.40    6.30
   2  -5  11   10.20    4.20
   2   5  11    6.30    5.00
   2   5  11   13.80    4.80
   4  -6 -11  228.88   20.30
   4   6 -11  226.78   19.60
   3   6 -11    1.80    4.90
  -3   6  11   -0.30    3.40
  -3   6  11   -6.00    5.00
  -2  -6  11  111.39   13.10
  -2   6  11  122.09   13.10
   2   6 -11  112.79   12.10
  -2   6  11  123.89   10.40
  -1  -6  11  116.69   13.00
  -1   6  11  113.39   12.20
  -1   6  11  112.59   10.30
   0  -6  11    7.10    5.90
   0  -6  11   13.60    4.20
   0   6  11    9.60    4.00
   0   6  11   15.60    5.60
   1  -6  11   39.70    6.10
   1  -6  11   36.60    8.40
   1   6  11   47.60    6.90
   1   6  11   45.00    7.70
   2  -6  11    8.40    6.40
   2   6  11    0.80    4.10
   2   6  11   -4.60    4.20
  -3   7  11   25.40    7.70
  -3   7  11   13.20    4.80
   3   7 -11   18.00    6.30
  -2   7  11   75.09    8.30
   2   7 -11   77.49   10.30
  -2   7  11   78.29   10.50
  -1  -7  11   13.40    6.40
  -1   7  11   18.10    4.90
  -1   7  11   11.90    5.90
   0  -7  11  341.57   21.90
   0   7  11  338.67   18.60
   0   7  11  296.57   19.60
   1  -7  11  213.48   19.20
   1   7  11  243.48   15.00
   1   7  11  203.98   15.10
   3   8 -11   17.20    7.00
  -3   8  11   21.60    7.80
  -3   8  11   33.90    6.00
  -2   8  11   28.30    7.60
  -2   8  11   32.90    6.10
   2   8 -11   39.30    8.10
  -1  -8  11  281.37   20.50
  -1   8  11  285.07   17.40
  -1   8  11  300.67   19.80
   0  -8  11   19.00    7.30
   0   8  11   10.90    5.10
   0   8  11   14.70    6.10
   1  -8  11   48.00   10.20
   1   8  11   49.20    7.90
   1   8  11   28.10    8.90
  -2   9  11    8.10    6.20
  -2   9  11    0.20    3.80
   2   9 -11   11.00    6.00
  -1  -9  11   -6.70    5.00
  -1   9  11    5.20    5.20
  -1   9  11   -3.80    4.00
   0  -9  11   32.00    8.70
   0   9  11   36.10    7.70
  -4   0  12   62.49    7.50
   4   0 -12   38.50    8.30
   3   0 -12   -3.90    4.30
  -3   0  12   -1.50    3.80
  -2   0  12    3.50    5.30
  -2   0  12   -2.20    3.10
  -1   0  12    5.40    5.00
  -1   0  12   -8.60    3.40
   0   0  12  149.99   14.50
   0   0  12  149.59   11.40
   1   0  12   -8.70    2.90
   1   0  12   -3.40    4.40
   2   0  12   31.00    7.40
   2   0  12   16.10    5.50
   4  -1 -12  155.58   15.50
  -4  -1  12  172.28   11.90
   4   1 -12  157.38   16.00
  -4   1  12  171.58   12.20
   3  -1 -12   13.50    5.60
  -3  -1  12    3.50    3.80
  -3   1  12    4.60    4.20
   3   1 -12    7.60    5.40
  -3   1  12   11.60    6.10
  -2  -1  12   83.99   10.80
  -2  -1  12   59.19    7.30
  -2   1  12   90.39   11.80
  -2   1  12   69.59    8.00
  -1  -1  12    0.70    3.20
  -1  -1  12    0.50    4.80
  -1   1  12   -2.70    3.40
  -1   1  12   -2.00    5.00
   0  -1  12   -1.00    4.40
   0  -1  12   -0.80    3.90
   0   1  12    3.50    4.00
   0   1  12    6.70    5.40
   1  -1  12  184.38   12.70
   1  -1  12  185.48   16.30
   1   1  12  171.88   12.60
   1   1  12  159.78   15.10
   2  -1  12   87.69   11.30
   2  -1  12   92.09    9.50
   2   1  12  100.79   11.70
   2   1  12  102.29   10.10
  -4  -2  12   26.70    5.30
   4  -2 -12   43.90    8.40
  -4   2  12   31.00    6.00
   4   2 -12   13.00    6.30
  -3  -2  12  100.39    9.20
  -3   2  12   96.69    9.20
  -3   2  12  101.89   12.30
   3   2 -12   92.99   11.30
  -2  -2  12   63.69   10.00
  -2  -2  12   73.69    8.10
  -2   2  12   57.39    9.30
  -2   2  12   80.29    8.20
  -1  -2  12  210.88   13.30
  -1  -2  12  217.48   16.40
  -1   2  12  217.38   16.20
  -1   2  12  218.78   13.80
   0  -2  12    6.20    5.20
   0  -2  12    6.10    4.00
   0   2  12    1.60    4.80
   0   2  12    1.40    3.70
   1  -2  12   -4.10    3.90
   1  -2  12   -1.80    4.70
   1   2  12   -9.40    3.60
   1   2  12   -6.40    4.40
   2  -2  12   65.09    8.00
   2  -2  12   50.39    9.30
   2   2  12   54.39    7.80
   2   2  12   64.29    9.40
  -3  -3  12   -0.10    3.80
  -3   3  12    0.40    5.70
  -3   3  12   -3.00    3.70
   3   3 -12    2.00    4.70
  -2  -3  12    6.60    5.30
  -2  -3  12    0.50    3.80
  -2   3  12   -9.00    3.30
  -2   3  12   -3.30    4.90
  -1  -3  12  435.66   24.80
  -1  -3  12  413.66   20.70
  -1   3  12  390.16   20.80
  -1   3  12  376.46   23.50
   0  -3  12   64.79   10.40
   0  -3  12   66.89    7.80
   0   3  12   59.39    9.10
   0   3  12   58.29    7.70
   1  -3  12  232.68   14.50
   1  -3  12  237.08   17.40
   1   3  12  242.48   17.00
   1   3  12  211.78   14.30
  -3  -4  12  366.66   20.40
  -3   4  12  467.15   21.60
  -3   4  12  457.45   25.70
   3   4 -12  354.26   23.90
  -2  -4  12   57.19   10.00
  -2  -4  12   54.39    7.20
  -2   4  12   52.19    6.80
  -2   4  12   63.79    9.90
  -1  -4  12  467.75   26.90
  -1  -4  12  451.65   22.80
  -1   4  12  464.35   26.10
  -1   4  12  455.45   23.50
   0  -4  12   -0.90    4.90
   0  -4  12    7.10    4.20
   0   4  12   -5.10    2.80
   0   4  12   -1.50    4.30
   1  -4  12   64.79   10.50
   1  -4  12   43.70    6.70
   1   4  12   41.60    8.10
   1   4  12   53.79    7.60
  -3   5  12    7.60    6.40
  -3   5  12    0.20    4.30
   3   5 -12   14.80    6.50
  -2  -5  12   74.49    8.10
  -2  -5  12   73.09   11.00
  -2   5  12   68.29    8.00
  -2   5  12   83.99   11.20
  -1  -5  12  465.45   27.20
  -1  -5  12  462.65   23.30
  -1   5  12  458.25   24.00
  -1   5  12  497.15   27.00
   0  -5  12   -0.90    3.80
   0  -5  12    4.50    5.50
   0   5  12   -5.10    4.40
   0   5  12    1.40    3.70
   1  -5  12  397.66   20.30
   1  -5  12  398.16   24.80
   1   5  12  399.16   21.50
   1   5  12  342.57   22.20
  -3   6  12  265.77   20.00
  -3   6  12  264.07   16.10
   3   6 -12  288.07   20.00
  -2   6  12   41.40    6.80
  -2   6  12   48.10    9.30
  -1  -6  12  128.39   15.00
  -1   6  12  120.79   11.00
  -1   6  12  154.88   14.90
   0  -6  12   14.80    4.90
   0  -6  12    6.90    6.50
   0   6  12    9.40    5.50
   0   6  12    3.30    4.30
   1  -6  12   22.20    6.00
   1  -6  12   37.00    8.80
   1   6  12   22.90    6.40
  -2   7  12  114.59   10.80
  -2   7  12  139.79   14.50
  -1  -7  12  111.29   13.60
  -1   7  12   92.79   10.00
  -1   7  12  141.89   14.40
   0  -7  12   39.80    9.30
   0   7  12   46.10    8.90
  -1  -8  12    7.80    7.00
  -3   0  13   26.30    6.00
  -2   0  13    1.90    5.40
  -2   0  13   -2.50    4.00
  -1   0  13   23.80    7.20
  -1   0  13   17.10    5.60
   0   0  13   -6.30    3.80
   0   0  13   -3.50    4.80
  -3  -1  13  112.49   10.40
  -3   1  13  133.89   11.20
  -2  -1  13    4.80    4.60
  -2  -1  13   16.50    7.00
  -2   1  13    7.70    6.20
  -2   1  13   10.80    4.90
  -1  -1  13  492.25   27.60
  -1  -1  13  448.36   23.50
  -1   1  13  475.55   23.90
  -1   1  13  415.26   26.20
   0  -1  13   57.69   10.20
   0  -1  13   55.59    7.80
   0   1  13   40.60    8.40
   0   1  13   59.09    7.90
  -3  -2  13   58.19    7.70
  -3   2  13   79.19    8.60
  -2  -2  13   51.89   10.10
  -2  -2  13   53.59    7.10
  -2   2  13   75.99   11.10
  -2   2  13   58.99    7.60
  -1  -2  13    5.80    4.60
  -1  -2  13    4.50    5.80
  -1   2  13    2.70    5.50
  -1   2  13    3.30    4.00
   0  -2  13   32.10    6.60
   0  -2  13   70.49   11.00
   0   2  13   48.70    9.40
   0   2  13   46.50    8.10
  -2  -3  13   -4.40    5.20
  -2  -3  13    6.30    4.70
  -2   3  13    9.70    6.20
  -2   3  13    6.40    4.70
  -1  -3  13   74.49   11.70
  -1  -3  13   80.09    8.80
  -1   3  13   63.19    8.60
  -1   3  13   72.09   10.50
   0  -3  13   61.49   10.50
   0   3  13   51.99    9.60
  -2  -4  13   21.10    7.60
  -2   4  13   33.60    6.70
  -2   4  13   12.10    7.20
  -1  -4  13   20.90    7.80
  -1   4  13   19.00    7.00
  -1   4  13   24.90    9.30
   0  -4  13  357.06   23.30
   0   4  13  318.07   21.60
  -1  -5  13    2.80    5.90
  -1   5  13   -1.20    5.50

_computing_structure_solution     'SHELXT 2014/4 (Sheldrick, 2014)'
)
_shelx_hkl_checksum   61867

;
_shelx_hkl_checksum              63959
loop_
_space_group_symop_operation_xyz
'x, y, z'
'-x+1/2, y+1/2, -z+1/2'
'-x, -y, -z'
'x-1/2, -y-1/2, z-1/2'
loop_
_atom_site_label
_atom_site_type_symbol
_atom_site_fract_x
_atom_site_fract_y
_atom_site_fract_z
_atom_site_U_iso_or_equiv
_atom_site_adp_type
_atom_site_occupancy
_atom_site_site_symmetry_order
_atom_site_calc_flag
_atom_site_refinement_flags_posn
_atom_site_refinement_flags_adp
_atom_site_refinement_flags_occupancy
_atom_site_disorder_assembly
_atom_site_disorder_group
Ti1 Ti 0.78035(6) 0.70144(3) 0.26451(3) 0.00857(11) Uani 1 1 d . . . . .
P1 P 0.35807(9) 0.69003(4) 0.47870(5) 0.00975(13) Uani 1 1 d . . . . .
O1 O 0.6003(3) 0.66599(14) 0.41505(14) 0.0170(3) Uani 1 1 d . . . . .
O2 O 0.1336(3) 0.74552(13) 0.38462(14) 0.0141(3) Uani 1 1 d . . . . .
O3 O 0.4447(3) 0.75524(13) 0.60522(14) 0.0143(3) Uani 1 1 d . . . . .
P2 P 1.0399(3) 0.44534(7) 0.25473(18) 0.0142(4) Uani 0.693(5) 1 d D U P A 1
O4 O 0.9088(18) 0.5532(5) 0.2443(7) 0.0162(12) Uani 0.693(5) 1 d D U P A 1
O5 O 0.8500(15) 0.3538(5) 0.2233(7) 0.0208(12) Uani 0.693(5) 1 d D U P A 1
O6 O 1.2610(12) 0.4458(10) 0.1696(7) 0.0259(16) Uani 0.693(5) 1 d D U P A 1
H2 H 1.1693 0.4343 0.3816 0.050 Uiso 0.6926 1 d . . P A 1
H6 H 1.2927 0.3769 0.1292 0.050 Uiso 0.6926 1 d . . P A 1
P2' P 0.9499(6) 0.45175(16) 0.1888(4) 0.0162(8) Uani 0.307(5) 1 d D U P A 2
O4' O 0.943(4) 0.5498(12) 0.2716(16) 0.013(2) Uani 0.307(5) 1 d D U P A 2
O5' O 0.890(4) 0.3498(12) 0.2534(15) 0.015(2) Uani 0.307(5) 1 d D U P A 2
O6' O 1.216(3) 0.448(2) 0.1365(16) 0.023(3) Uani 0.307(5) 1 d D U P A 2
H2' H 0.8036 0.4624 0.0606 0.050 Uiso 0.3074 1 d . . P A 2
H6' H 1.3591 0.4866 0.0834 0.050 Uiso 0.3074 1 d . . P A 2
O7 O 0.4403(3) 0.65150(14) 0.13343(15) 0.0176(3) Uani 1 1 d . . . . .
H1 H 0.2678 0.5984 0.5052 0.050 Uiso 1 1 d . . . . .
H7A H 0.2960 0.6828 0.1169 0.050 Uiso 1 1 d . . . . .
H7B H 0.4123 0.5843 0.1360 0.050 Uiso 1 1 d . . . . .
loop_
_atom_site_aniso_label
_atom_site_aniso_U_11
_atom_site_aniso_U_22
_atom_site_aniso_U_33
_atom_site_aniso_U_23
_atom_site_aniso_U_13
_atom_site_aniso_U_12
Ti1 0.00805(17) 0.0077(2) 0.01035(18) 0.00000(13) 0.00261(12) 0.00077(13)
P1 0.0102(2) 0.0110(3) 0.0084(2) -0.00045(18) 0.00257(17) -0.00145(19)
O1 0.0160(7) 0.0235(9) 0.0130(7) 0.0028(6) 0.0066(5) 0.0048(6)
O2 0.0103(6) 0.0161(8) 0.0146(7) -0.0014(6) -0.0010(5) -0.0014(6)
O3 0.0122(6) 0.0197(9) 0.0109(7) -0.0045(6) 0.0014(5) -0.0011(6)
P2 0.0131(5) 0.0072(4) 0.0218(8) 0.0002(3) 0.0019(5) 0.0007(3)
O4 0.017(3) 0.0081(15) 0.023(3) 0.0022(16) 0.003(2) 0.0050(13)
O5 0.021(2) 0.0097(16) 0.033(3) -0.0035(18) 0.008(2) -0.0051(14)
O6 0.018(2) 0.0118(19) 0.052(4) -0.004(3) 0.018(2) 0.000(2)
P2' 0.0177(12) 0.0106(10) 0.0214(18) -0.0005(8) 0.0070(12) -0.0011(7)
O4' 0.012(4) 0.009(3) 0.015(5) 0.004(3) -0.005(3) 0.003(2)
O5' 0.020(4) 0.010(3) 0.016(4) -0.001(3) 0.004(3) -0.006(3)
O6' 0.021(5) 0.013(4) 0.039(6) -0.002(5) 0.015(5) -0.001(4)
O7 0.0108(6) 0.0175(9) 0.0231(8) 0.0002(6) -0.0007(6) -0.0018(6)
loop_
_atom_type_symbol
_atom_type_description
_atom_type_scat_dispersion_real
_atom_type_scat_dispersion_imag
_atom_type_scat_source
O O 0.0106 0.0060 'International Tables Vol C Tables 4.2.6.8 and 6.1.1.4'
H H 0.0000 0.0000 'International Tables Vol C Tables 4.2.6.8 and 6.1.1.4'
P P 0.1023 0.0942 'International Tables Vol C Tables 4.2.6.8 and 6.1.1.4'
Ti Ti 0.2776 0.4457 'International Tables Vol C Tables 4.2.6.8 and 6.1.1.4'
loop_
_geom_angle_atom_site_label_1
_geom_angle_atom_site_label_2
_geom_angle_atom_site_label_3
_geom_angle
_geom_angle_site_symmetry_1
_geom_angle_site_symmetry_3
_geom_angle_publ_flag
O1 Ti1 O4 94.2(3) . . ?
O1 Ti1 O3 176.10(6) . 4_675 ?
O4 Ti1 O3 88.9(3) . 4_675 ?
O1 Ti1 O5 88.0(3) . 2_655 ?
O4 Ti1 O5 177.5(3) . 2_655 ?
O3 Ti1 O5 88.8(3) 4_675 2_655 ?
O1 Ti1 O5' 91.8(6) . 2_655 ?
O3 Ti1 O5' 84.8(6) 4_675 2_655 ?
O1 Ti1 O2 93.89(6) . 1_655 ?
O4 Ti1 O2 92.8(2) . 1_655 ?
O3 Ti1 O2 88.32(6) 4_675 1_655 ?
O5 Ti1 O2 88.14(19) 2_655 1_655 ?
O5' Ti1 O2 96.7(4) 2_655 1_655 ?
O1 Ti1 O4' 90.0(6) . . ?
O3 Ti1 O4' 93.4(6) 4_675 . ?
O5' Ti1 O4' 176.8(5) 2_655 . ?
O2 Ti1 O4' 85.9(5) 1_655 . ?
O1 Ti1 O7 89.46(6) . . ?
O4 Ti1 O7 84.2(2) . . ?
O3 Ti1 O7 88.50(6) 4_675 . ?
O5 Ti1 O7 94.73(18) 2_655 . ?
O5' Ti1 O7 86.0(4) 2_655 . ?
O2 Ti1 O7 175.67(6) 1_655 . ?
O4' Ti1 O7 91.3(5) . . ?
O1 P1 O2 113.00(8) . . ?
O1 P1 O3 109.64(9) . . ?
O2 P1 O3 111.10(9) . . ?
O1 P1 H1 104.8 . . ?
O2 P1 H1 106.9 . . ?
O3 P1 H1 111.2 . . ?
P1 O1 Ti1 144.01(10) . . ?
P1 O2 Ti1 136.63(10) . 1_455 ?
P1 O3 Ti1 136.52(9) . 4_576 ?
O5 P2 O4 114.8(5) . . ?
O5 P2 O6 112.7(5) . . ?
O4 P2 O6 108.2(5) . . ?
O5 P2 H2 108.2 . . ?
O4 P2 H2 107.1 . . ?
O6 P2 H2 105.3 . . ?
P2 O4 Ti1 168.8(4) . . ?
P2 O5 Ti1 155.8(4) . 2_645 ?
P2 O6 H6 115.0 . . ?
O5' P2' O4' 115.4(11) . . ?
O5' P2' O6' 112.7(12) . . ?
O4' P2' O6' 109.4(12) . . ?
O5' P2' H2' 112.4 . . ?
O4' P2' H2' 112.9 . . ?
O6' P2' H2' 91.7 . . ?
P2' O4' Ti1 141.8(10) . . ?
P2' O5' Ti1 148.7(10) . 2_645 ?
P2' O6' H6' 149.1 . . ?
Ti1 O7 H7A 126.4 . . ?
Ti1 O7 H7B 113.5 . . ?
H7A O7 H7B 109.4 . . ?
loop_
_geom_bond_atom_site_label_1
_geom_bond_atom_site_label_2
_geom_bond_distance
_geom_bond_site_symmetry_2
_geom_bond_publ_flag
Ti1 O1 1.9730(15) . ?
Ti1 O4 1.997(6) . ?
Ti1 O3 2.0291(14) 4_675 ?
Ti1 O5 2.037(6) 2_655 ?
Ti1 O5' 2.050(13) 2_655 ?
Ti1 O2 2.0615(14) 1_655 ?
Ti1 O4' 2.074(14) . ?
Ti1 O7 2.0860(14) . ?
P1 O1 1.5166(15) . ?
P1 O2 1.5242(15) . ?
P1 O3 1.5299(15) . ?
P1 H1 1.2862 . ?
O2 Ti1 2.0615(14) 1_455 ?
O3 Ti1 2.0291(14) 4_576 ?
P2 O5 1.499(6) . ?
P2 O4 1.506(6) . ?
P2 O6 1.534(6) . ?
P2 H2 1.3544 . ?
O5 Ti1 2.037(6) 2_645 ?
O6 H6 0.9854 . ?
P2' O5' 1.499(12) . ?
P2' O4' 1.499(12) . ?
P2' O6' 1.535(12) . ?
P2' H2' 1.3952 . ?
O5' Ti1 2.050(13) 2_645 ?
O6' H6' 1.0941 . ?
O7 H7A 0.8214 . ?
O7 H7B 0.8583 . ?
loop_
_geom_hbond_atom_site_label_D
_geom_hbond_atom_site_label_H
_geom_hbond_atom_site_label_A
_geom_hbond_distance_DH
_geom_hbond_distance_HA
_geom_hbond_distance_DA
_geom_hbond_angle_DHA
_geom_hbond_site_symmetry_A
P2 H2 O1 1.35 2.54 3.812(2) 155.9 3_766
O6 H6 O2 0.99 1.71 2.654(12) 160.2 2_645
P2' H2' O6' 1.40 2.30 3.520(19) 143.7 3_765
P2' H2' O7 1.40 2.58 3.765(4) 140.7 3_665
O6' H6' O7 1.09 2.16 2.81(3) 115.2 1_655
O7 H7A O3 0.82 1.93 2.741(2) 170.2 4_575
O7 H7B O6 0.86 1.96 2.788(12) 162.5 1_455
O7 H7B O6' 0.86 1.98 2.81(3) 159.6 1_455
