#------------------------------------------------------------------------------
#$Date: 2021-06-05 20:16:29 +0300 (Sat, 05 Jun 2021) $
#$Revision: 265833 $
#$URL: file:///home/coder/svn-repositories/cod/cif/7/12/82/7128237.cif $
#------------------------------------------------------------------------------
#
# This file is available in the Crystallography Open Database (COD),
# http://www.crystallography.net/
#
# All data on this site have been placed in the public domain by the
# contributors.
#
data_7128237
loop_
_publ_author_name
'Ma, Jin-Tian'
'Wang, Li-Sheng'
'Chai, Zhi'
'Chen, Xin-Feng'
'Tang, Bo-Cheng'
'Chen, Xiang-Long'
'He, Cai'
'Wu, Yan-Dong'
'Wu, An-Xin'
_publ_section_title
;
 Access to 2-arylquinazolines <i>via</i> catabolism/reconstruction of
 amino acids with the insertion of dimethyl sulfoxide.
;
_journal_issue                   44
_journal_name_full
'Chemical communications (Cambridge, England)'
_journal_page_first              5414
_journal_page_last               5417
_journal_paper_doi               10.1039/d1cc00623a
_journal_volume                  57
_journal_year                    2021
_chemical_formula_moiety         'C16 H14 N2'
_chemical_formula_sum            'C16 H14 N2'
_chemical_formula_weight         234.29
_space_group_crystal_system      monoclinic
_space_group_IT_number           14
_space_group_name_Hall           '-P 2ybc'
_space_group_name_H-M_alt        'P 1 21/c 1'
_atom_sites_solution_hydrogens   geom
_atom_sites_solution_primary     dual
_audit_creation_date             2020-12-04
_audit_creation_method
; 
Olex2 1.2 
(compiled 2018.05.29 svn.r3508 for OlexSys, GUI svn.r5506) 
;
_audit_update_record
;
2021-01-11 deposited with the CCDC.	2021-04-26 downloaded from the CCDC.
;
_cell_angle_alpha                90
_cell_angle_beta                 92.965(7)
_cell_angle_gamma                90
_cell_formula_units_Z            2
_cell_length_a                   9.856(4)
_cell_length_b                   4.9044(18)
_cell_length_c                   12.905(5)
_cell_measurement_reflns_used    1131
_cell_measurement_temperature    296(2)
_cell_measurement_theta_max      30.18
_cell_measurement_theta_min      2.54
_cell_volume                     623.0(4)
_computing_cell_refinement       'SAINT v7.68A (Bruker, 2009)'
_computing_data_collection       'Bruker APEX2'
_computing_data_reduction        'SAINT v7.68A (Bruker, 2009)'
_computing_molecular_graphics    'Olex2 (Dolomanov et al., 2009)'
_computing_publication_material  'Olex2 (Dolomanov et al., 2009)'
_computing_structure_refinement  'XL (Sheldrick, 2008)'
_computing_structure_solution    'XM (Sheldrick, 2008)'
_diffrn_ambient_temperature      296(2)
_diffrn_measured_fraction_theta_full 0.964
_diffrn_measured_fraction_theta_max 0.964
_diffrn_measurement_device_type  'Bruker APEX-II CCD'
_diffrn_measurement_method       '\f and \w scans'
_diffrn_radiation_monochromator  graphite
_diffrn_radiation_type           MoK\a
_diffrn_radiation_wavelength     0.71073
_diffrn_reflns_av_R_equivalents  0.0341
_diffrn_reflns_av_unetI/netI     0.0370
_diffrn_reflns_Laue_measured_fraction_full 0.964
_diffrn_reflns_Laue_measured_fraction_max 0.964
_diffrn_reflns_limit_h_max       11
_diffrn_reflns_limit_h_min       -10
_diffrn_reflns_limit_k_max       5
_diffrn_reflns_limit_k_min       -5
_diffrn_reflns_limit_l_max       15
_diffrn_reflns_limit_l_min       -15
_diffrn_reflns_number            3871
_diffrn_reflns_point_group_measured_fraction_full 0.964
_diffrn_reflns_point_group_measured_fraction_max 0.964
_diffrn_reflns_theta_full        24.999
_diffrn_reflns_theta_max         24.999
_diffrn_reflns_theta_min         2.069
_diffrn_standards_number         0
_exptl_absorpt_coefficient_mu    0.074
_exptl_absorpt_correction_T_max  0.7462
_exptl_absorpt_correction_T_min  0.6334
_exptl_absorpt_correction_type   multi-scan
_exptl_absorpt_process_details   'SADABS-2008/1 (Bruker,2008)'
_exptl_crystal_colour            colourless
_exptl_crystal_colour_primary    colourless
_exptl_crystal_density_diffrn    1.249
_exptl_crystal_description       block
_exptl_crystal_F_000             248
_exptl_crystal_size_max          0.3
_exptl_crystal_size_mid          0.2
_exptl_crystal_size_min          0.1
_refine_diff_density_max         0.813
_refine_diff_density_min         -0.230
_refine_diff_density_rms         0.097
_refine_ls_extinction_method     none
_refine_ls_goodness_of_fit_ref   1.604
_refine_ls_hydrogen_treatment    constr
_refine_ls_matrix_type           full
_refine_ls_number_parameters     141
_refine_ls_number_reflns         1058
_refine_ls_number_restraints     63
_refine_ls_restrained_S_all      1.729
_refine_ls_R_factor_all          0.1493
_refine_ls_R_factor_gt           0.1243
_refine_ls_shift/su_max          0.000
_refine_ls_shift/su_mean         0.000
_refine_ls_structure_factor_coef Fsqd
_refine_ls_weighting_details
'w=1/[\s^2^(Fo^2^)+(0.2000P)^2^] where P=(Fo^2^+2Fc^2^)/3'
_refine_ls_weighting_scheme      calc
_refine_ls_wR_factor_gt          0.3495
_refine_ls_wR_factor_ref         0.3918
_reflns_Friedel_coverage         0.000
_reflns_number_gt                703
_reflns_number_total             1058
_reflns_threshold_expression     'I > 2\s(I)'
_cod_data_source_file            d1cc00623a2.cif
_cod_data_source_block           mo_201127c_0m
_cod_depositor_comments          'Adding full bibliography for 7128237.cif.'
_cod_database_code               7128237
_shelx_shelxl_version_number     2014/7
_shelx_space_group_comment
; 
The symmetry employed for this shelxl refinement is uniquely defined 
by the following loop, which should always be used as a source of 
symmetry information in preference to the above space-group names. 
They are only intended as comments. 
;
_shelx_estimated_absorpt_t_max   0.993
_shelx_estimated_absorpt_t_min   0.978
_olex2_refinement_description
; 
1. Fixed Uiso 
 At 1.2 times of: 
  All C(H) groups 
 At 1.5 times of: 
  All C(H,H,H) groups 
2. Restrained distances 
 C8-C4 
 1.42 with sigma of 0.01 
 N2-C5 = N2-C9 = N1-C9 = N1-C8 
 1.38 with sigma of 0.01 
 C9-C10 
 1.45 with sigma of 0.02 
 C8-C4 = N1-C8 = N1-C9 = N2-C9 = N2-C5 
 1.39 with sigma of 0.01 
 C3-C1 \\sim C1-C7 
 with sigma of 0.01 
 C12-C16 \\sim C16-C14 
 with sigma of 0.01 
 C10-N1 \\sim N1-N2 
 with sigma of 0.01 
 C11-C9 \\sim C9-C15 
 with sigma of 0.01 
3. Uiso/Uaniso restraints and constraints 
Uanis(C5) \\sim Ueq, Uanis(N2) \\sim Ueq, Uanis(C9) \\sim Ueq, Uanis(N1) \\sim 
Ueq, Uanis(C10) \\sim Ueq, Uanis(C15) \\sim Ueq, Uanis(C11) \\sim Ueq, 
Uanis(C6) \\sim Ueq: with sigma of 0.01 and sigma for terminal atoms of 0.02 
4. Others 
 Fixed Sof: C16(0.5) H16A(0.5) H16B(0.5) H16C(0.5) C1(0.5) H1A(0.5) H1B(0.5) 
 H1C(0.5) C13(0.5) C12(0.5) H12(0.5) C11(0.5) H11(0.5) C10(0.5) C15(0.5) 
 H15(0.5) C14(0.5) H14(0.5) C2(0.5) C7(0.5) H7(0.5) C6(0.5) H6(0.5) C5(0.5) 
 C4(0.5) C3(0.5) H3(0.5) C8(0.5) H8(0.5) C9(0.5) N1(0.5) N2(0.5) 
5.a Aromatic/amide H refined with riding coordinates: 
 C12(H12), C11(H11), C15(H15), C14(H14), C7(H7), C6(H6), C3(H3), C8(H8) 
5.b Fitted hexagon refined as free rotating group: 
 C13(C12,C11,C10,C15,C14), C2(C7,C6,C5,C4,C3) 
5.c Idealised Me refined as rotating group: 
 C16(H16A,H16B,H16C), C1(H1A,H1B,H1C) 
;
_shelx_res_file
; 
    mo_201127c_0m.res created by SHELXL-2014/7 
  
TITL mo_201127C_0m in P2(1)/c 
CELL 0.71073 9.8558 4.9044 12.9051 90 92.965 90 
ZERR 2 0.0037 0.0018 0.0049 0 0.007 0 
LATT 1 
SYMM -X,0.5+Y,0.5-Z 
SFAC C H N 
UNIT 32 28 4 
DFIX 1.42 0.01 C8 C4 
DFIX 1.38 0.01 N2 C5 N2 C9 N1 C9 N1 C8 
DFIX 1.45 C9 C10 
DFIX 1.39 0.01 C8 C4 N1 C8 N1 C9 N2 C9 N2 C5 
SADI 0.01 C3 C1 C1 C7 
SADI 0.01 C12 C16 C16 C14 
SADI 0.01 C10 N1 N1 N2 
SADI 0.01 C11 C9 C9 C15 
ISOR 0.01 0.02 C5 N2 C9 N1 C10 C15 C11 C6 
  
L.S. 20 
PLAN  80 
SIZE 0.3 0.2 0.1 
TEMP 23(2) 
BOND $H 
HTAB 
CONF 
fmap 2 53 
acta 
OMIT -3 50 
OMIT 5 1 0 
OMIT -1 1 1 
OMIT 4 2 4 
OMIT 5 1 2 
OMIT 0 2 3 
OMIT 2 3 3 
OMIT 4 1 0 
OMIT 2 3 7 
OMIT 0 1 6 
OMIT 6 1 5 
OMIT 7 0 0 
OMIT -2 3 1 
OMIT -3 0 12 
OMIT 1 3 12 
OMIT -5 1 1 
OMIT -4 1 11 
OMIT -1 1 12 
OMIT -3 3 5 
OMIT -6 1 3 
OMIT 0 1 10 
OMIT 2 2 5 
OMIT -2 0 12 
OMIT -1 1 11 
OMIT 2 0 6 
OMIT -6 1 9 
OMIT 8 2 3 
OMIT -3 1 10 
OMIT -4 0 10 
OMIT -1 2 11 
OMIT -5 1 9 
OMIT -2 1 10 
OMIT -3 2 1 
OMIT -9 1 4 
OMIT 0 2 4 
OMIT -1 3 1 
OMIT -7 2 3 
REM <olex2.extras> 
REM <HklSrc "%.\\mo_201127C_0m.hkl"> 
REM </olex2.extras> 
  
WGHT    0.200000 
FVAR       0.35733 
PART -1 
C16   1    0.100077    1.345981   -0.165944    10.50000    0.03469    0.04704 = 
         0.09651   -0.01696   -0.00250   -0.00178 
AFIX 137 
H16A  2    0.061982    1.445468   -0.110352    10.50000   -1.50000 
H16B  2    0.028579    1.257291   -0.206505    10.50000   -1.50000 
H16C  2    0.147277    1.469549   -0.209163    10.50000   -1.50000 
AFIX   0 
C1    1    0.928277   -0.361857    0.138653    10.50000    0.07205    0.04663 = 
         0.07246   -0.00507    0.00604    0.02695 
AFIX 137 
H1A   2    0.996912   -0.398833    0.090412    10.50000   -1.50000 
H1B   2    0.882493   -0.528251    0.154611    10.50000   -1.50000 
H1C   2    0.969843   -0.286183    0.201136    10.50000   -1.50000 
AFIX  66 
C13   1    0.194901    1.141777   -0.123105    10.50000    0.03942    0.03278 = 
         0.05121   -0.00378   -0.00590   -0.00254 
C12   1    0.191800    1.068861   -0.019171    10.50000    0.05264    0.05662 = 
         0.05469   -0.00572    0.00667   -0.00866 
AFIX  43 
H12   2    0.130203    1.151846    0.023024    10.50000   -1.20000 
AFIX  65 
C11   1    0.280763    0.871915    0.021699    10.50000    0.06242    0.05540 = 
         0.07260    0.01123   -0.02349   -0.00416 
AFIX  43 
H11   2    0.278688    0.823130    0.091238    10.50000   -1.20000 
AFIX  65 
C10   1    0.372827    0.747883   -0.041365    10.50000    0.05345    0.04612 = 
         0.09225   -0.00986   -0.03316   -0.00855 
C15   1    0.375929    0.820797   -0.145299    10.50000    0.05105    0.05750 = 
         0.10838   -0.03752    0.00196    0.00362 
AFIX  43 
H15   2    0.437526    0.737811   -0.187493    10.50000   -1.20000 
AFIX  65 
C14   1    0.286967    1.017743   -0.186170    10.50000    0.04923    0.05192 = 
         0.05846   -0.01336   -0.00158   -0.00261 
AFIX  43 
H14   2    0.289042    1.066526   -0.255709    10.50000   -1.20000 
AFIX  66 
C2    1    0.821805   -0.150794    0.088734    10.50000    0.04181    0.05069 = 
         0.06608   -0.01268    0.00878   -0.00182 
C7    1    0.825807   -0.079816   -0.015340    10.50000    0.06872    0.07954 = 
         0.05587    0.00685   -0.00207    0.01444 
AFIX  43 
H7    2    0.890011   -0.158681   -0.056360    10.50000   -1.20000 
AFIX  65 
C6    1    0.733849    0.109035   -0.058104    10.50000    0.08227    0.08533 = 
         0.07835    0.00461   -0.01164    0.01152 
AFIX  43 
H6    2    0.736527    0.156523   -0.127737    10.50000   -1.20000 
AFIX  65 
C5    1    0.637889    0.226909    0.003205    10.50000    0.06732    0.06220 = 
         0.06858    0.00638   -0.02154   -0.02749 
C4    1    0.633886    0.155933    0.107279    10.50000    0.06098    0.05481 = 
         0.06031   -0.01500   -0.00107   -0.01191 
C3    1    0.725843   -0.032917    0.150044    10.50000    0.07443    0.05136 = 
         0.04867   -0.00523    0.00683    0.00505 
AFIX  43 
H3    2    0.723164   -0.080404    0.219677    10.50000   -1.20000 
AFIX   0 
C8    1    0.535500    0.298646    0.159445    10.50000    0.08379    0.07289 = 
         0.08125    0.01460   -0.00611    0.01880 
AFIX  43 
H8    2    0.526872    0.259556    0.229313    10.50000   -1.20000 
AFIX   0 
C9    1    0.468391    0.541698    0.009640    10.50000    0.03905    0.03910 = 
         0.10870   -0.00779   -0.01409   -0.01104 
N1    3    0.450070    0.493813    0.114595    10.50000    0.07276    0.07550 = 
         0.06756    0.01699   -0.01959   -0.00876 
N2    3    0.558513    0.418980   -0.050498    10.50000    0.06616    0.06803 = 
         0.09369    0.00781    0.00659    0.00626 
HKLF 4 
  
REM  mo_201127C_0m in P2(1)/c 
REM R1 =  0.1243 for     703 Fo > 4sig(Fo)  and  0.1493 for all    1058 data 
REM    141 parameters refined using     63 restraints 
  
END 
  
WGHT      0.2000      0.0000 
  
REM No hydrogen bonds found for HTAB generation 
  
REM Highest difference peak  0.813,  deepest hole -0.230,  1-sigma level  0.097 
Q1    1   0.5011  0.4534  0.0530  11.00000  0.05    0.81 
Q2    1   0.3366  0.7369  0.0738  11.00000  0.05    0.58 
Q3    1   0.5961  0.2429  0.0883  11.00000  0.05    0.46 
Q4    1   0.2227  1.0401 -0.0470  11.00000  0.05    0.44 
Q5    1   0.7428 -0.0792  0.1720  11.00000  0.05    0.42 
Q6    1   0.3943  0.8354 -0.1795  11.00000  0.05    0.37 
Q7    1   0.0970  1.3577 -0.2332  11.00000  0.05    0.15 
Q8    1   1.0291 -0.2321  0.1387  11.00000  0.05    0.14 
Q9    1   0.8680 -0.5819  0.1109  11.00000  0.05    0.11 
Q10   1   0.8870 -0.1347 -0.1319  11.00000  0.05    0.11 
Q11   1   0.2610  1.1971 -0.2713  11.00000  0.05    0.10 
Q12   1  -0.0003  1.5402 -0.1235  11.00000  0.05    0.09 
Q13   1   0.2592  0.4793 -0.0667  11.00000  0.05    0.06 
Q14   1   1.1118 -0.3574  0.1546  11.00000  0.05    0.05 
Q15   1   0.4165  0.3383 -0.0136  11.00000  0.05    0.04 
Q16   1   0.6586 -0.2972  0.0607  11.00000  0.05    0.04 
Q17   1   0.9018 -0.7885  0.0652  11.00000  0.05    0.03 
Q18   1   0.2203  1.0068 -0.3420  11.00000  0.05    0.03 
Q19   1   1.1191 -0.4720  0.1031  11.00000  0.05    0.03 
Q20   1   0.3193  0.3418 -0.0027  11.00000  0.05    0.03 
Q21   1   0.7563 -0.1101 -0.1215  11.00000  0.05    0.02 
Q22   1   0.6870 -0.1859 -0.0486  11.00000  0.05    0.02 
Q23   1   0.9845 -0.0816 -0.0136  11.00000  0.05    0.02 
Q24   1   0.8501  0.1720 -0.0286  11.00000  0.05    0.02 
Q25   1   0.3786  0.1768  0.1643  11.00000  0.05    0.02 
Q26   1   0.8375 -0.7904  0.1949  11.00000  0.05    0.02 
Q27   1   0.1979  1.4494  0.0269  11.00000  0.05    0.01 
Q28   1   0.6288  0.6033  0.1246  11.00000  0.05    0.01 
Q29   1   0.0427  1.2029 -0.2737  11.00000  0.05    0.01 
Q30   1   0.4372  0.1812  0.2671  11.00000  0.05    0.01 
Q31   1   0.5642  0.0660  0.0638  11.00000  0.05    0.01 
Q32   1   0.5946  0.6929  0.1619  11.00000  0.05    0.01 
Q33   1   0.2784  0.4583  0.0958  11.00000  0.05    0.01 
Q34   1   0.5000  0.0000  0.0000  10.50000  0.05    0.01 
Q35   1   0.9883  0.0366 -0.0668  11.00000  0.05    0.01 
Q36   1   0.6457 -0.0767 -0.2151  11.00000  0.05    0.01 
Q37   1   0.9338  0.1053  0.0973  11.00000  0.05    0.00 
Q38   1   0.6022  0.0113 -0.0357  11.00000  0.05    0.00 
Q39   1   1.0000 -0.5000  0.0000  10.50000  0.05    0.00 
;
_shelx_res_checksum              98042
_shelx_hkl_file
; 
  -1   0   0  262.44   11.18 
   1   0   0  210.71   11.41 
   1   0   0  265.00   11.72 
   2   0   0   71.94    3.34 
   2   0   0   71.77    3.43 
  -2   0   0   72.15    3.27 
   3   0   0   17.67    0.85 
  -3   0   0   18.05    0.83 
   3   0   0   18.13    0.87 
   4   0   0    0.10    0.04 
  -4   0   0    0.11    0.03 
   4   0   0    0.05    0.03 
   5   0   0    0.11    0.04 
   5   0   0    0.10    0.04 
   6   0   0    0.05    0.04 
   6   0   0    0.01    0.04 
   7   0   0    1.78    0.13 
   7   0   0    1.74    0.15 
   8   0   0    0.97    0.10 
   8   0   0    1.10    0.11 
   9   0   0    3.92    0.25 
  10   0   0    0.18    0.09 
  11   0   0   14.02    0.73 
  12   0   0    0.96    0.15 
   0  -1   0    0.13    0.03 
   1  -1   0   16.96    0.81 
   1  -1   0   16.28    0.84 
  -1  -1   0   17.23    0.83 
   1   1   0   18.33    0.81 
   2  -1   0  745.55   37.02 
  -2   1   0  789.53   35.67 
   2   1   0  815.50   36.36 
   3  -1   0   22.82    1.12 
   3  -1   0   22.50    1.08 
  -3   1   0   23.58    1.05 
   3   1   0   23.15    1.09 
   4  -1   0    2.78    0.18 
   4  -1   0    2.95    0.16 
   4   1   0    2.79    0.16 
  -4   1   0    2.81    0.14 
   5  -1   0    1.15    0.11 
   5  -1   0    1.01    0.09 
   5   1   0    0.93    0.09 
  -5   1   0    1.02    0.07 
   5   1   0    1.09    0.07 
   6  -1   0    0.08    0.04 
   6  -1   0    0.11    0.06 
   6   1   0    0.08    0.03 
   6   1   0    0.03    0.03 
   7  -1   0    3.65    0.21 
   7  -1   0    3.31    0.25 
   8  -1   0    0.12    0.06 
   8  -1   0    0.04    0.08 
   8   1   0   -0.05    0.06 
   9  -1   0   14.37    0.75 
   9  -1   0   14.03    0.71 
   9   1   0   13.63    0.72 
  10  -1   0    0.20    0.10 
  10  -1   0    0.32    0.11 
  10   1   0    0.26    0.09 
  11  -1   0    0.17    0.09 
  11   1   0    0.37    0.10 
  12  -1   0    0.04    0.10 
  12   1   0    0.18    0.10 
   0  -2   0    3.69    0.21 
   1  -2   0    0.46    0.05 
   1  -2   0    0.22    0.05 
  -1  -2   0    0.38    0.05 
   1   2   0    0.40    0.05 
  -2  -2   0    1.96    0.13 
   2  -2   0    2.28    0.17 
   2  -2   0    1.87    0.13 
   2   2   0    2.29    0.14 
  -2   2   0    2.31    0.12 
   3  -2   0   34.63    1.86 
   3  -2   0   37.65    1.93 
   3   2   0   41.19    1.90 
   3   2   0   44.61    1.87 
  -3   2   0   40.78    1.82 
   4  -2   0   72.43    3.34 
   4  -2   0   71.53    3.45 
   4   2   0   71.40    3.35 
  -4   2   0   71.36    3.25 
   5  -2   0   11.63    0.56 
   5  -2   0   11.10    0.59 
   5   2   0   10.75    0.56 
   6  -2   0    0.90    0.12 
   6  -2   0    0.91    0.10 
   7  -2   0   10.81    0.55 
   7  -2   0   11.02    0.60 
   7   2   0   10.30    0.56 
   8  -2   0    3.02    0.27 
   8  -2   0    3.08    0.23 
   8   2   0    3.35    0.22 
   9  -2   0   -0.04    0.07 
   9  -2   0    0.07    0.09 
   9   2   0    0.22    0.08 
  10  -2   0    0.03    0.08 
  10  -2   0    0.07    0.10 
  10   2   0   -0.07    0.07 
  11  -2   0    0.02    0.09 
  11  -2   0   -0.04    0.10 
  11   2   0   -0.02    0.08 
   0  -3   0   -0.14    0.05 
   1  -3   0   28.27    1.34 
  -1  -3   0   27.58    1.38 
   1  -3   0   29.78    1.39 
   1   3   0   27.73    1.35 
   2  -3   0    0.98    0.09 
   2  -3   0    0.87    0.10 
   2   3   0    0.84    0.09 
  -2   3   0    1.01    0.09 
   3  -3   0    0.12    0.06 
   3  -3   0    0.09    0.05 
   3   3   0    0.15    0.03 
  -3   3   0    0.14    0.04 
   3   3   0    0.16    0.06 
   4  -3   0    0.27    0.06 
   4  -3   0    0.26    0.08 
   4   3   0    0.25    0.07 
  -4   3   0    0.21    0.04 
   5  -3   0    7.09    0.40 
   5   3   0    7.15    0.39 
   6  -3   0    8.89    0.53 
   6  -3   0    9.37    0.48 
   6   3   0    8.67    0.48 
   7  -3   0   -0.06    0.06 
   7  -3   0   -0.05    0.09 
   7   3   0   -0.04    0.07 
   8  -3   0    0.14    0.08 
   8  -3   0    0.20    0.10 
   8   3   0    0.13    0.08 
   9  -3   0    0.43    0.13 
   9  -3   0    0.37    0.11 
   9   3   0    0.32    0.10 
  10  -3   0    0.81    0.17 
  10  -3   0    1.12    0.16 
  10   3   0    0.99    0.15 
   0  -4   0    1.21    0.13 
  -1  -4   0   11.55    0.60 
   1  -4   0   11.58    0.62 
  -1   4   0   11.80    0.58 
   1   4   0   11.32    0.59 
  -2  -4   0    2.79    0.18 
   2  -4   0    2.56    0.22 
   2   4   0    2.65    0.19 
  -2   4   0    2.62    0.18 
   3  -4   0    1.47    0.14 
   3  -4   0    1.55    0.17 
  -3   4   0    1.36    0.12 
   3   4   0    1.55    0.15 
   4  -4   0    0.01    0.09 
   4  -4   0    0.22    0.07 
   4   4   0    0.05    0.07 
   5  -4   0    0.14    0.07 
   5  -4   0   -0.03    0.09 
   5   4   0    0.01    0.07 
   6  -4   0    0.18    0.10 
   6  -4   0    0.26    0.08 
   6   4   0    0.11    0.08 
   7  -4   0    0.16    0.09 
   7  -4   0    0.20    0.12 
   7   4   0    0.36    0.10 
   8  -4   0    1.33    0.20 
   8  -4   0    1.70    0.18 
   8   4   0    1.46    0.17 
   9  -4   0    0.04    0.13 
   9   4   0    0.08    0.09 
   0  -5   0    0.02    0.08 
   0   5   0   -0.01    0.06 
   0   5   0   -0.16    0.07 
   1  -5   0    0.02    0.09 
   1   5   0    0.03    0.06 
  -1   5   0   -0.13    0.07 
   2  -5   0    0.92    0.15 
  -2   5   0    0.93    0.12 
   2   5   0    0.78    0.12 
   3  -5   0    3.71    0.30 
   3   5   0    4.65    0.30 
   4  -5   0    0.93    0.15 
   4   5   0    0.59    0.12 
   5  -5   0   -0.09    0.10 
   5   5   0   -0.09    0.07 
   6  -5   0    0.34    0.13 
   6   5   0    0.26    0.10 
   7  -5   0    0.14    0.13 
   7   5   0    0.18    0.10 
   0   6   0    0.22    0.10 
   1   6   0    0.19    0.12 
   2  -6   0    0.06    0.10 
   2   6   0    0.01    0.09 
  12   0  -1    0.01    0.09 
  11   0  -1    0.23    0.10 
  10   0  -1    0.40    0.10 
   9   0  -1    0.08    0.07 
   8   0  -1    0.05    0.06 
   8   0  -1   -0.03    0.05 
   7   0  -1   -0.03    0.05 
   7   0  -1   -0.02    0.04 
  -7   0   1    0.00    0.05 
  -6   0   1    0.08    0.04 
   6   0  -1    0.09    0.05 
   6   0  -1   -0.01    0.04 
   5   0  -1    0.06    0.04 
   5   0  -1    0.01    0.04 
  -5   0   1    0.04    0.04 
   4   0  -1    0.27    0.05 
   4   0  -1    0.16    0.04 
  -4   0   1    0.19    0.04 
   3   0  -1    0.00    0.03 
  -3   0   1    0.01    0.03 
   3   0  -1    0.02    0.03 
   2   0  -1    0.60    0.05 
   2   0  -1    0.48    0.04 
  -2   0   1    0.51    0.05 
  -1   0   1    0.32    0.03 
   0   0   1   -0.32    0.02 
   0   0   1   -0.37    0.02 
  -1   0  -1    0.57    0.05 
   1   0   1    0.60    0.04 
   2   0   1    0.12    0.03 
   3   0   1   -0.10    0.01 
   3   0   1   -0.06    0.03 
   4   0   1    0.01    0.03 
   4   0   1    0.01    0.02 
   5   0   1    0.02    0.03 
   5   0   1    0.04    0.03 
   6   0   1    0.03    0.05 
   6   0   1    0.09    0.05 
   7   0   1    0.07    0.05 
   7   0   1    0.01    0.05 
   8   0   1    0.09    0.06 
   8   0   1   -0.05    0.05 
   9   0   1    0.05    0.07 
  10   0   1    0.06    0.08 
  11   0   1    0.51    0.12 
  12   0   1   -0.02    0.09 
  12  -1  -1    0.32    0.11 
  12   1  -1    0.32    0.11 
  11  -1  -1   -0.06    0.09 
  11   1  -1   -0.04    0.08 
  10  -1  -1    2.09    0.18 
  10  -1  -1    1.99    0.20 
  10   1  -1    2.34    0.19 
   9  -1  -1    5.76    0.37 
   9  -1  -1    6.06    0.33 
   9   1  -1    5.38    0.34 
   8  -1  -1    1.48    0.13 
   8  -1  -1    1.35    0.14 
   8   1  -1    1.28    0.13 
   7  -1  -1    1.33    0.11 
   7  -1  -1    1.36    0.14 
  -7   1   1    1.29    0.10 
   6  -1  -1    5.37    0.31 
   6  -1  -1    5.19    0.28 
  -6  -1   1    5.61    0.29 
  -6   1   1    5.12    0.26 
   6   1  -1    4.98    0.29 
   6   1  -1    5.58    0.28 
   5  -1  -1    8.71    0.44 
  -5  -1   1    9.02    0.44 
   5  -1  -1    9.10    0.47 
   5   1  -1    8.73    0.44 
  -5   1   1    8.86    0.42 
  -4  -1   1    6.41    0.33 
   4  -1  -1    6.18    0.35 
   4   1  -1    6.53    0.32 
  -4   1   1    6.47    0.30 
   3  -1  -1   57.37    2.76 
   3  -1  -1   54.59    2.67 
  -3  -1   1   57.66    2.63 
   3   1  -1   58.44    2.74 
  -3   1   1   59.35    2.61 
   2  -1  -1  218.48    9.83 
   2   1  -1  179.51    9.83 
  -2   1   1  223.27    9.63 
   2   1  -1  225.24   10.08 
   1  -1  -1    0.76    0.08 
  -1  -1   1    0.58    0.06 
  -1   1   1    0.79    0.05 
   1   1  -1    0.64    0.06 
   0  -1   1   54.06    2.55 
   0  -1   1   53.92    2.60 
   0  -1  -1   55.21    2.67 
   0  -1   1   57.76    2.67 
   0   1   1   58.96    2.55 
  -1  -1  -1  275.37   13.12 
   1  -1   1  268.00   12.52 
   1  -1   1  279.46   12.80 
   1  -1   1  280.67   13.14 
   1   1   1  273.16   12.77 
   2  -1   1  989.08   45.64 
  -2  -1  -1  966.45   46.95 
   2   1   1 1000.00   45.62 
   3  -1   1    1.43    0.12 
   3   1   1    1.32    0.10 
   4  -1   1   10.99    0.56 
   4  -1   1   11.10    0.54 
   4   1   1   10.93    0.54 
  -5  -1  -1   23.07    1.09 
   5  -1   1   23.19    1.12 
   5  -1   1   21.78    1.08 
   5   1   1   22.74    1.08 
   6  -1   1    1.88    0.14 
   6  -1   1    1.86    0.17 
  -6  -1  -1    1.90    0.12 
   6   1   1    2.13    0.14 
   7  -1   1    1.56    0.15 
   7  -1   1    1.76    0.14 
   8  -1   1    1.21    0.13 
   8  -1   1    1.27    0.13 
   8   1   1    0.85    0.11 
   9  -1   1    4.68    0.35 
   9  -1   1    4.88    0.30 
   9   1   1    4.92    0.30 
  10  -1   1    0.07    0.09 
  10  -1   1    0.00    0.09 
  10   1   1    0.16    0.08 
  11  -1   1    0.99    0.15 
  11   1   1    0.93    0.13 
  12  -1   1    0.18    0.12 
  12   1   1    0.18    0.10 
  11  -2  -1   -0.11    0.08 
  11  -2  -1    0.05    0.10 
  11   2  -1    0.03    0.09 
  10  -2  -1    0.02    0.09 
  10  -2  -1    0.00    0.08 
  10   2  -1   -0.02    0.08 
   9  -2  -1    1.87    0.17 
   9  -2  -1    1.61    0.19 
   9   2  -1    2.11    0.18 
   8  -2  -1    1.28    0.17 
   8  -2  -1    1.36    0.14 
   8   2  -1    1.18    0.14 
   7  -2  -1   26.28    1.28 
   7  -2  -1   28.32    1.35 
   7   2  -1   25.59    1.29 
   6  -2  -1    3.03    0.20 
   6  -2  -1    3.28    0.25 
   6   2  -1    3.28    0.21 
   5  -2  -1    0.43    0.06 
   5  -2  -1    0.38    0.08 
   5   2  -1    0.58    0.08 
  -5   2   1    0.43    0.04 
   4  -2  -1   16.79    0.90 
   4  -2  -1   18.05    0.86 
   4   2  -1   18.55    0.87 
  -4   2   1   18.46    0.83 
   3  -2  -1   15.18    0.75 
   3   2  -1   14.59    0.71 
  -3   2   1   14.86    0.69 
   3   2  -1   14.82    0.72 
   2  -2  -1    1.16    0.08 
   2  -2  -1    0.70    0.08 
   2   2  -1    0.75    0.07 
   2   2  -1    0.76    0.08 
  -2   2   1    0.78    0.07 
   1  -2  -1    1.01    0.08 
  -1  -2   1    0.92    0.08 
  -1   2   1    0.89    0.08 
   0  -2   1    0.26    0.04 
   0  -2  -1    0.29    0.05 
  -1  -2  -1    4.66    0.23 
   1  -2   1    3.56    0.24 
   1   2   1    4.54    0.22 
  -2  -2  -1  117.47    5.57 
   2  -2   1  118.42    5.59 
   2   2   1  115.31    5.43 
  -3  -2  -1    4.46    0.24 
   3  -2   1    5.12    0.27 
  -3   2  -1    4.48    0.23 
   3   2   1    5.51    0.26 
   4  -2   1  208.19    9.91 
   4  -2   1  210.03    9.63 
   4   2   1  204.74    9.63 
   5  -2   1    1.22    0.12 
   5  -2   1    0.93    0.11 
   5   2   1    0.69    0.09 
   6  -2   1    1.34    0.12 
   6  -2   1    1.36    0.14 
   6   2   1    1.30    0.13 
   7  -2   1    4.48    0.27 
   7  -2   1    3.64    0.31 
   7   2   1    4.21    0.26 
   8  -2   1    0.55    0.10 
   8  -2   1    0.49    0.12 
   8   2   1    0.54    0.10 
   9  -2   1    0.31    0.10 
   9  -2   1    0.38    0.11 
   9   2   1    0.16    0.08 
  10  -2   1   -0.14    0.07 
  10  -2   1    0.03    0.09 
  10   2   1   -0.03    0.08 
  11  -2   1    0.07    0.10 
  11  -2   1    0.02    0.11 
  11   2   1    0.11    0.10 
  10  -3  -1    0.12    0.12 
  10  -3  -1    0.10    0.10 
  10   3  -1    0.11    0.10 
   9  -3  -1    0.17    0.09 
   9  -3  -1    0.36    0.12 
   9   3  -1    0.36    0.10 
   8  -3  -1   -0.02    0.08 
   8  -3  -1    0.01    0.07 
   8   3  -1   -0.01    0.08 
   7  -3  -1    0.66    0.10 
   7  -3  -1    0.46    0.12 
   7   3  -1    0.54    0.10 
   6  -3  -1    1.86    0.16 
   6  -3  -1    1.68    0.18 
   6   3  -1    1.41    0.16 
   5  -3  -1   20.87    1.01 
   5   3  -1   20.74    1.02 
   4  -3  -1    3.20    0.24 
   4  -3  -1    3.27    0.20 
   4   3  -1    3.36    0.22 
  -4   3   1    3.12    0.17 
   3  -3  -1    0.20    0.05 
   3  -3  -1    0.16    0.07 
  -3   3   1    0.20    0.04 
   3   3  -1    0.18    0.04 
   3   3  -1    0.22    0.06 
   2  -3  -1    0.01    0.04 
   2  -3  -1   -0.01    0.06 
  -2   3   1    0.07    0.04 
   2   3  -1    0.06    0.05 
   1  -3  -1    9.11    0.49 
  -1  -3   1    9.24    0.48 
  -1   3   1    9.13    0.46 
   0  -3  -1   24.58    1.22 
   0  -3   1   24.92    1.22 
   1  -3   1   20.29    1.00 
   1  -3   1   21.80    1.04 
  -1  -3  -1   20.35    1.03 
   1   3   1   20.92    1.00 
   2  -3   1    1.60    0.14 
   2  -3   1    1.78    0.16 
   2   3   1    1.63    0.13 
   3  -3   1    1.46    0.13 
   3  -3   1    1.84    0.18 
  -3  -3  -1    1.68    0.12 
  -3   3  -1    1.71    0.11 
   3   3   1    1.52    0.14 
   4  -3   1    5.74    0.33 
   4   3   1    5.84    0.32 
   5  -3   1    4.85    0.31 
   5   3   1    5.06    0.29 
   6  -3   1   24.87    1.19 
   6  -3   1   25.04    1.24 
   6   3   1   23.18    1.18 
   7  -3   1   -0.04    0.09 
   7  -3   1   -0.03    0.07 
   7   3   1    0.03    0.07 
   8  -3   1    0.12    0.08 
   8  -3   1    0.22    0.11 
   9  -3   1   -0.14    0.09 
   9  -3   1   -0.01    0.08 
   9   3   1   -0.05    0.07 
  10  -3   1   -0.06    0.11 
  10  -3   1    0.05    0.09 
  10   3   1    0.12    0.09 
   9  -4  -1    0.00    0.11 
   9   4  -1   -0.08    0.09 
   8  -4  -1    0.00    0.12 
   8   4  -1    0.01    0.08 
   7  -4  -1   -0.02    0.10 
   7   4  -1    0.08    0.08 
   6  -4  -1    0.41    0.11 
   6   4  -1    0.28    0.09 
   5  -4  -1    0.29    0.11 
   5   4  -1    0.17    0.09 
   4  -4  -1    0.52    0.09 
   4  -4  -1    0.40    0.12 
   4   4  -1    0.32    0.10 
   3  -4  -1    6.91    0.41 
   3  -4  -1    6.75    0.37 
  -3   4   1    6.55    0.35 
   3   4  -1    6.75    0.38 
   2  -4  -1    2.29    0.22 
  -2   4   1    2.36    0.17 
   2   4  -1    2.46    0.18 
   1  -4  -1    5.17    0.32 
  -1  -4   1    4.77    0.30 
   1   4  -1    5.20    0.30 
  -1   4   1    5.41    0.30 
   0  -4   1    2.78    0.21 
   0  -4  -1    2.78    0.21 
   0   4   1    2.53    0.19 
  -1  -4  -1    5.20    0.30 
   1  -4   1    4.54    0.31 
   1   4   1    4.65    0.27 
   2  -4   1    0.29    0.09 
   2  -4   1    0.26    0.07 
  -2  -4  -1    0.19    0.06 
   2   4   1    0.25    0.07 
   3  -4   1    0.79    0.11 
   3  -4   1    0.46    0.11 
   3   4   1    0.61    0.09 
  -3   4  -1    0.46    0.08 
   4  -4   1    0.01    0.07 
   4  -4   1   -0.07    0.08 
   4   4   1   -0.01    0.06 
   5  -4   1    0.78    0.13 
   5  -4   1    0.91    0.12 
   5   4   1    0.70    0.10 
   6  -4   1    0.68    0.13 
   6  -4   1    0.40    0.10 
   6   4   1    0.40    0.09 
   7  -4   1    0.19    0.12 
   7  -4   1    0.10    0.09 
   7   4   1    0.27    0.09 
   8  -4   1    1.62    0.19 
   8  -4   1    1.32    0.20 
   8   4   1    1.23    0.16 
   9  -4   1    0.71    0.17 
   9  -4   1    0.50    0.13 
   9   4   1    0.59    0.12 
   7  -5  -1    0.16    0.13 
   7   5  -1    0.02    0.09 
   6  -5  -1   -0.03    0.11 
   6   5  -1    0.07    0.09 
   5  -5  -1    0.04    0.10 
   5   5  -1   -0.12    0.08 
   4  -5  -1    1.71    0.20 
   4   5  -1    1.55    0.17 
   3  -5  -1    0.81    0.15 
   3   5  -1    0.82    0.13 
   2  -5  -1   -0.03    0.10 
   2   5  -1    0.28    0.10 
  -2   5   1    0.26    0.08 
   1  -5  -1    0.63    0.13 
  -1   5   1    0.51    0.11 
   1   5  -1    0.74    0.11 
   0  -5   1    0.02    0.08 
   0  -5  -1    0.17    0.09 
   0   5   1    0.12    0.09 
   1  -5   1    0.14    0.09 
   1   5   1    0.20    0.09 
  -1   5  -1    0.16    0.09 
   2  -5   1   -0.05    0.09 
   2   5   1   -0.04    0.07 
   2   5   1    0.07    0.08 
   3  -5   1    0.37    0.12 
   3   5   1    0.44    0.10 
   4  -5   1    0.29    0.12 
   4  -5   1    0.12    0.09 
   4   5   1    0.03    0.07 
   5  -5   1   -0.02    0.10 
   5   5   1   -0.10    0.07 
   6  -5   1    0.10    0.12 
   6   5   1    0.08    0.08 
   7  -5   1    0.23    0.13 
   7   5   1    0.20    0.10 
   2  -6  -1    0.05    0.11 
   1   6  -1    0.18    0.11 
   0   6  -1    0.20    0.10 
   0   6   1    0.18    0.10 
   1   6   1    0.26    0.12 
   2  -6   1    0.19    0.11 
   2   6   1    0.17    0.11 
  12   0  -2    0.46    0.12 
  11   0  -2    0.18    0.09 
  10   0  -2    3.93    0.26 
   9   0  -2    0.20    0.08 
   9   0  -2    0.28    0.08 
  -8   0   2    0.13    0.06 
   8   0  -2    0.05    0.06 
   8   0  -2    0.03    0.06 
   7   0  -2   -0.02    0.05 
   7   0  -2   -0.05    0.05 
  -7   0   2   -0.06    0.04 
  -6   0   2    1.79    0.13 
   6   0  -2    1.59    0.12 
   6   0  -2    1.61    0.14 
   5   0  -2   67.92    3.14 
   5   0  -2   66.88    3.23 
  -5   0   2   67.32    3.08 
   4   0  -2    9.98    0.50 
  -4   0   2   10.05    0.48 
   3   0  -2   88.14    4.00 
  -3   0   2   87.46    3.92 
   3   0  -2   83.14    4.11 
  -2   0   2   75.25    3.33 
   2   0  -2   71.72    3.49 
   2   0  -2   72.57    3.40 
   1   0  -2  685.26   35.34 
   1   0  -2  777.91   33.94 
   0   0  -2  386.20   21.42 
   0   0   2  482.33   20.43 
   0   0   2  451.06   20.45 
  -1   0  -2   99.62    4.73 
   1   0   2   98.75    4.51 
   2   0   2    0.71    0.06 
  -2   0  -2    0.78    0.07 
   2   0   2    0.74    0.06 
  -3   0  -2    0.27    0.04 
   3   0   2    0.17    0.04 
   3   0   2    0.22    0.04 
   4   0   2    1.38    0.09 
   5   0   2    0.01    0.03 
   5   0   2    0.01    0.03 
   5   0   2   -0.01    0.02 
   6   0   2   69.37    3.26 
   6   0   2   66.56    3.11 
   8   0   2    0.77    0.09 
   8   0   2    0.82    0.10 
   9   0   2    2.01    0.17 
  10   0   2    9.28    0.50 
  11   0   2    4.77    0.31 
  12   0   2   -0.02    0.10 
  12  -1  -2    0.29    0.11 
  12   1  -2    0.22    0.10 
  11  -1  -2    0.17    0.08 
  11   1  -2    0.11    0.10 
  10  -1  -2    1.11    0.13 
  10  -1  -2    1.34    0.16 
  10   1  -2    1.08    0.14 
   9  -1  -2    0.45    0.09 
   9  -1  -2    0.43    0.11 
   9   1  -2    0.40    0.10 
  -8  -1   2    5.47    0.30 
   8  -1  -2    4.78    0.29 
   8  -1  -2    5.21    0.33 
   8   1  -2    4.81    0.30 
   7  -1  -2    5.52    0.30 
  -7  -1   2    5.53    0.31 
   7  -1  -2    5.58    0.34 
   7   1  -2    5.31    0.30 
   7   1  -2    6.19    0.32 
  -7   1   2    5.31    0.28 
   6  -1  -2    0.32    0.06 
  -6  -1   2    0.28    0.07 
   6  -1  -2    0.25    0.07 
   6   1  -2    0.40    0.07 
  -6   1   2    0.28    0.05 
   6   1  -2    0.35    0.05 
   5  -1  -2    4.72    0.29 
   5  -1  -2    4.62    0.26 
  -5  -1   2    4.96    0.27 
   5   1  -2    5.28    0.27 
   5   1  -2    4.92    0.26 
  -5   1   2    4.81    0.24 
  -4  -1   2    2.00    0.14 
   4  -1  -2    1.74    0.16 
   4   1  -2    2.20    0.14 
  -4   1   2    2.15    0.12 
   4   1  -2    2.28    0.12 
   3  -1  -2   31.74    1.51 
   3  -1  -2   30.72    1.46 
  -3  -1   2   29.67    1.44 
  -3   1   2   32.14    1.42 
   3   1  -2   31.61    1.49 
   2  -1  -2    8.06    0.39 
   2   1  -2    8.15    0.40 
  -2   1   2    8.39    0.38 
   1  -1  -2   43.36    2.13 
   1  -1  -2   45.94    2.06 
  -1  -1   2   43.80    2.04 
  -1   1   2   46.18    2.03 
   1   1  -2   43.22    2.13 
   0  -1  -2   28.57    1.42 
   0  -1   2   29.10    1.39 
   0  -1   2   29.35    1.36 
   0   1  -2   30.34    1.42 
   0   1   2   30.77    1.36 
   0   1   2   29.59    1.37 
   1  -1   2  418.77   19.92 
  -1  -1  -2  409.10   19.88 
   1  -1   2  412.68   18.97 
   1  -1   2  414.08   19.38 
   1   1   2  432.96   19.34 
   2  -1   2  200.65    9.07 
  -2  -1  -2  201.80    9.52 
   2  -1   2  192.24    9.30 
   2   1   2  201.53    9.28 
   2   1   2  202.77    9.08 
   3  -1   2    5.12    0.28 
  -3  -1  -2    5.01    0.25 
   3   1   2    5.06    0.26 
   4  -1   2   95.59    4.41 
   4  -1   2   89.62    4.28 
  -4  -1  -2   92.25    4.38 
   4   1   2   90.75    4.28 
  -5  -1  -2    3.54    0.19 
   5  -1   2    3.79    0.23 
   5  -1   2    3.75    0.21 
   5   1   2    3.65    0.21 
  -6  -1  -2    1.34    0.09 
   6  -1   2    1.35    0.12 
   6  -1   2    1.39    0.12 
   6   1   2    1.34    0.11 
   7  -1   2    0.90    0.10 
   7  -1   2    0.81    0.11 
   7   1   2    0.81    0.09 
   8  -1   2    9.84    0.50 
   8  -1   2    9.52    0.52 
   8   1   2    9.24    0.50 
   9  -1   2    1.58    0.17 
   9  -1   2    1.87    0.18 
   9   1   2    2.08    0.18 
  10  -1   2   -0.11    0.09 
  10  -1   2    0.12    0.08 
  10   1   2    0.07    0.08 
  11  -1   2    0.26    0.12 
  11   1   2    0.27    0.09 
  11  -2  -2   -0.10    0.09 
  11  -2  -2   -0.02    0.08 
  11   2  -2   -0.01    0.09 
  10  -2  -2    0.20    0.11 
  10  -2  -2    0.18    0.09 
  10   2  -2    0.11    0.09 
   9  -2  -2    1.38    0.17 
   9  -2  -2    1.26    0.14 
   9   2  -2    1.31    0.15 
   8  -2  -2    6.73    0.42 
   8  -2  -2    6.49    0.36 
   8   2  -2    6.41    0.38 
   7  -2  -2    1.45    0.14 
   7  -2  -2    1.04    0.14 
   7   2  -2    0.83    0.12 
   6  -2  -2    2.14    0.20 
  -6  -2   2    2.10    0.17 
   6  -2  -2    2.10    0.15 
  -6   2   2    1.67    0.11 
  -5  -2   2    0.29    0.07 
   5  -2  -2    0.24    0.05 
   5   2  -2    0.16    0.03 
   5   2  -2    0.22    0.06 
  -5   2   2    0.22    0.03 
   4  -2  -2    0.76    0.09 
  -4  -2   2    0.99    0.10 
   4   2  -2    0.96    0.07 
  -4   2   2    0.67    0.06 
   4   2  -2    0.84    0.09 
   3  -2  -2    0.20    0.04 
  -3  -2   2    0.22    0.05 
   3  -2  -2    0.16    0.06 
   3   2  -2    0.28    0.03 
   3   2  -2    0.17    0.05 
  -3   2   2    0.18    0.04 
   2  -2  -2    2.35    0.17 
  -2  -2   2    2.52    0.17 
   2  -2  -2    2.63    0.14 
   2   2  -2    2.64    0.15 
   2   2  -2    2.66    0.16 
  -2   2   2    2.39    0.14 
   1  -2  -2    1.24    0.08 
  -1  -2   2    1.10    0.10 
   1  -2  -2    1.00    0.10 
   1   2  -2    0.93    0.09 
  -1   2   2    1.33    0.09 
   0  -2   2    0.86    0.08 
   0  -2  -2    0.60    0.07 
   0   2   2    0.82    0.06 
   0   2   2    0.96    0.08 
   1  -2   2    0.91    0.09 
   1  -2   2    0.76    0.08 
  -1  -2  -2    0.86    0.07 
   1  -2   2    0.72    0.08 
   1   2   2    0.86    0.07 
   1   2   2    0.74    0.08 
  -2  -2  -2   65.74    3.03 
   2  -2   2   62.19    3.05 
   2  -2   2   64.31    2.96 
   2   2   2   61.44    2.95 
  -3  -2  -2  221.75   10.26 
   3  -2   2  209.51   10.01 
   3   2   2  215.74    9.99 
   4  -2   2   71.53    3.38 
   4  -2   2   68.14    3.27 
   4   2   2   70.35    3.27 
   5  -2   2    0.09    0.07 
   5  -2   2    0.11    0.06 
   5   2   2    0.02    0.04 
   6  -2   2    0.42    0.08 
   6  -2   2    0.24    0.09 
   6   2   2    0.25    0.06 
   7  -2   2    0.08    0.10 
   7  -2   2    0.46    0.09 
   7   2   2    0.24    0.08 
   8  -2   2    0.11    0.08 
   8  -2   2    0.08    0.09 
   8   2   2    0.13    0.07 
   9  -2   2   -0.08    0.07 
   9  -2   2   -0.04    0.09 
   9   2   2    0.07    0.07 
  10  -2   2    0.35    0.10 
  10  -2   2    0.48    0.12 
  10   2   2    0.44    0.11 
  11  -2   2    0.15    0.11 
  11  -2   2    0.03    0.10 
  11   2   2    0.06    0.09 
  10  -3  -2   -0.08    0.11 
  10   3  -2    0.01    0.09 
   9  -3  -2    0.24    0.09 
   9  -3  -2    0.29    0.13 
   9   3  -2    0.21    0.10 
   8  -3  -2    0.19    0.11 
   8  -3  -2    0.12    0.07 
   8   3  -2    0.10    0.08 
   7  -3  -2   -0.04    0.06 
   7  -3  -2   -0.07    0.09 
   7   3  -2   -0.06    0.07 
   6  -3  -2    6.74    0.37 
   6  -3  -2    6.66    0.41 
   6   3  -2    5.91    0.38 
   5  -3  -2   12.68    0.61 
   5   3  -2   11.76    0.63 
   4  -3  -2    0.52    0.10 
   4  -3  -2    0.46    0.07 
   4   3  -2    0.42    0.09 
  -4   3   2    0.49    0.06 
   3  -3  -2    0.01    0.06 
   3  -3  -2    0.01    0.03 
   3   3  -2    0.08    0.04 
   3   3  -2    0.05    0.05 
  -3   3   2    0.03    0.04 
   2  -3  -2    0.19    0.06 
  -2   3   2    0.31    0.06 
   2   3  -2    0.27    0.05 
   2   3  -2    0.20    0.06 
   1  -3  -2    0.08    0.06 
  -1   3   2    0.17    0.05 
   0  -3  -2   25.35    1.27 
   0  -3   2   26.46    1.27 
   0   3   2   25.00    1.23 
   0   3   2   27.04    1.23 
   1  -3   2    3.07    0.21 
   1  -3   2    2.90    0.20 
  -1  -3  -2    3.00    0.20 
   1   3   2    3.12    0.20 
   1   3   2    2.93    0.17 
   2  -3   2    3.54    0.22 
   2  -3   2    3.62    0.24 
   2   3   2    3.38    0.20 
   3  -3   2    0.94    0.11 
   3  -3   2    0.80    0.10 
  -3  -3  -2    0.76    0.07 
   3   3   2    0.95    0.09 
   4  -3   2    2.63    0.19 
   4   3   2    2.27    0.16 
   5  -3   2   15.22    0.73 
   5  -3   2   12.71    0.76 
   5   3   2   15.21    0.72 
   6  -3   2   27.37    1.36 
   6  -3   2   30.02    1.43 
   6   3   2   26.97    1.35 
   7  -3   2    0.13    0.08 
   7  -3   2    0.07    0.10 
   7   3   2    0.05    0.07 
   8  -3   2    0.02    0.08 
   8  -3   2    0.00    0.09 
   8   3   2    0.03    0.07 
   9  -3   2    0.10    0.10 
   9  -3   2    0.14    0.09 
   9   3   2    0.01    0.08 
  10  -3   2    0.09    0.11 
  10  -3   2    0.31    0.12 
  10   3   2    0.32    0.10 
   9  -4  -2    0.00    0.12 
   9   4  -2    0.32    0.11 
   8  -4  -2    0.02    0.11 
   8   4  -2   -0.07    0.08 
   7  -4  -2    0.44    0.13 
   7   4  -2    0.35    0.11 
   6  -4  -2    1.17    0.17 
   6   4  -2    1.08    0.14 
   5  -4  -2   -0.02    0.09 
   5   4  -2   -0.10    0.08 
   4  -4  -2    6.27    0.42 
   4   4  -2    7.39    0.41 
   3  -4  -2    4.42    0.32 
  -3   4   2    4.46    0.26 
   3   4  -2    4.49    0.29 
   2  -4  -2   11.97    0.64 
   2   4  -2   11.47    0.61 
  -2   4   2   12.28    0.59 
   2   4  -2   11.44    0.60 
   1  -4  -2   -0.03    0.07 
  -1   4   2   -0.03    0.05 
   0  -4  -2    0.04    0.07 
   0  -4   2    0.03    0.06 
   0   4   2    0.12    0.07 
   0   4   2    0.12    0.05 
   1  -4   2    3.13    0.23 
  -1  -4  -2    2.74    0.23 
   1   4   2    3.43    0.23 
   1   4   2    3.18    0.20 
   2  -4   2    0.09    0.08 
   2  -4   2    0.05    0.06 
   2   4   2    0.08    0.05 
   2   4   2   -0.04    0.07 
   3  -4   2    1.78    0.18 
   3  -4   2    1.62    0.16 
   3   4   2    1.57    0.14 
   4  -4   2    0.76    0.13 
   4  -4   2    0.67    0.11 
   4   4   2    0.64    0.09 
   5  -4   2    1.22    0.14 
   5  -4   2    1.20    0.16 
   5   4   2    1.06    0.12 
   6  -4   2    0.81    0.14 
   6  -4   2    0.77    0.13 
   6   4   2    0.85    0.11 
   7  -4   2    5.19    0.35 
   7  -4   2    5.12    0.37 
   7   4   2    5.12    0.32 
   8  -4   2    4.53    0.35 
   8  -4   2    4.66    0.33 
   8   4   2    4.67    0.31 
   9  -4   2    1.10    0.19 
   9  -4   2    1.28    0.18 
   9   4   2    0.85    0.15 
   7  -5  -2    0.33    0.14 
   7   5  -2    0.27    0.11 
   6  -5  -2    0.18    0.12 
   6   5  -2   -0.03    0.08 
   5  -5  -2    0.09    0.10 
   5   5  -2    0.05    0.09 
   4  -5  -2    0.50    0.12 
   4   5  -2    0.29    0.11 
   3  -5  -2    0.34    0.11 
   3   5  -2    0.29    0.10 
   2  -5  -2    1.83    0.21 
  -2   5   2    2.05    0.19 
   2   5  -2    1.99    0.19 
   1  -5  -2    3.21    0.28 
   1   5  -2    2.59    0.24 
   1   5  -2    3.17    0.23 
  -1   5   2    2.77    0.22 
   0  -5  -2    0.82    0.12 
   0   5   2    0.74    0.12 
   1  -5   2    0.95    0.14 
   1   5   2    1.29    0.16 
   2  -5   2    3.42    0.26 
   2   5   2    3.10    0.25 
   3  -5   2    4.98    0.32 
   3  -5   2    4.82    0.33 
   3   5   2    4.44    0.31 
   4  -5   2    0.05    0.08 
   4  -5   2    0.03    0.08 
   4   5   2   -0.05    0.08 
   5  -5   2   -0.03    0.10 
   5  -5   2    0.02    0.09 
   5   5   2    0.13    0.08 
   5   5   2   -0.02    0.08 
   6  -5   2    0.10    0.10 
   6  -5   2    0.00    0.11 
   6   5   2   -0.02    0.08 
   6   5   2    0.02    0.08 
   2  -6  -2    0.00    0.11 
   2   6  -2   -0.02    0.09 
   1   6  -2    0.54    0.12 
   0   6   2    1.13    0.16 
   1   6   2    1.90    0.21 
  12   0  -3    0.05    0.09 
  11   0  -3    0.12    0.09 
  10   0  -3    0.09    0.08 
   9   0  -3    0.04    0.07 
   9   0  -3    0.08    0.07 
  -9   0   3    0.11    0.07 
   8   0  -3   -0.05    0.05 
  -8   0   3    0.04    0.05 
   8   0  -3    0.02    0.06 
   7   0  -3   -0.06    0.05 
  -7   0   3    0.01    0.05 
   7   0  -3    0.03    0.05 
  -6   0   3    0.13    0.05 
   6   0  -3    0.21    0.06 
   6   0  -3    0.15    0.06 
   5   0  -3    0.58    0.08 
  -5   0   3    1.17    0.10 
   5   0  -3    0.73    0.09 
  -4   0   3    0.18    0.04 
   4   0  -3    0.12    0.05 
   4   0  -3    0.09    0.04 
  -3   0   3    0.37    0.05 
   3   0  -3    0.40    0.05 
   3   0  -3    0.38    0.05 
   2   0  -3    0.09    0.03 
   2   0  -3    0.14    0.03 
  -2   0   3    0.10    0.03 
   1   0  -3    0.12    0.02 
  -1   0   3    0.05    0.01 
   0   0   3    0.02    0.02 
   0   0   3    0.05    0.03 
   0   0  -3    0.05    0.03 
  -1   0  -3    0.07    0.03 
   1   0   3    0.11    0.02 
   1   0   3    0.08    0.03 
  -2   0  -3    0.10    0.03 
   2   0   3    0.13    0.03 
   2   0   3    0.10    0.02 
   3   0   3    0.06    0.03 
   3   0   3    0.06    0.03 
  -3   0  -3    0.03    0.03 
   4   0   3    0.02    0.03 
  -4   0  -3   -0.02    0.03 
   4   0   3    0.00    0.03 
  -5   0  -3   -0.02    0.03 
   5   0   3    0.02    0.03 
   5   0   3    0.00    0.04 
  -6   0  -3    0.12    0.06 
   6   0   3    0.30    0.06 
   6   0   3   -0.02    0.04 
   7   0   3   -0.01    0.02 
  -7   0  -3   -0.03    0.05 
   7   0   3    0.01    0.03 
  -8   0  -3    0.05    0.06 
   8   0   3    0.02    0.06 
   9   0   3   -0.09    0.06 
  10   0   3    0.12    0.09 
  11   0   3    0.02    0.08 
  12  -1  -3   -0.04    0.08 
  12   1  -3   -0.07    0.09 
  11  -1  -3   -0.09    0.07 
  11   1  -3    0.02    0.09 
  10  -1  -3    0.07    0.07 
  10  -1  -3    0.11    0.10 
  10   1  -3    0.16    0.09 
  -9  -1   3    0.67    0.12 
   9  -1  -3    0.62    0.12 
   9  -1  -3    0.67    0.10 
   9   1  -3    0.63    0.11 
  -8  -1   3    0.14    0.08 
   8  -1  -3    0.16    0.06 
   8  -1  -3    0.17    0.08 
   8   1  -3    0.23    0.08 
   7  -1  -3    8.26    0.42 
   7  -1  -3    8.05    0.45 
  -7  -1   3    7.80    0.42 
   7   1  -3    8.29    0.43 
  -7   1   3    7.68    0.40 
   7   1  -3    8.19    0.42 
   6  -1  -3    0.63    0.09 
   6  -1  -3    0.73    0.08 
  -6  -1   3    0.61    0.09 
   6   1  -3    0.66    0.07 
  -6   1   3    0.64    0.06 
   6   1  -3    0.62    0.08 
   5  -1  -3    0.80    0.08 
  -5  -1   3    1.02    0.10 
   5  -1  -3    0.85    0.10 
   5   1  -3    1.04    0.09 
  -5   1   3    0.97    0.08 
   5   1  -3    1.00    0.10 
   4  -1  -3   14.25    0.69 
   4  -1  -3   14.59    0.74 
  -4  -1   3   14.62    0.70 
   4   1  -3   14.95    0.71 
  -4   1   3   14.95    0.68 
   4   1  -3   14.04    0.71 
   3  -1  -3   58.38    2.73 
   3  -1  -3   60.55    2.82 
  -3  -1   3   57.69    2.69 
  -3   1   3   58.21    2.68 
   3   1  -3   57.85    2.80 
   3   1  -3   59.96    2.75 
   1  -1  -3   45.61    2.21 
  -1  -1   3   46.75    2.11 
   1   1  -3   46.18    2.20 
  -1   1   3   45.56    2.10 
   0  -1  -3    2.56    0.14 
   0  -1   3    2.21    0.12 
   0   1   3    2.02    0.12 
   0   1   3    2.32    0.11 
   0   1  -3    2.13    0.14 
   1  -1   3  104.82    5.02 
  -1  -1  -3  111.60    5.26 
   1   1   3  114.46    5.11 
   2   1   3    1.55    0.11 
   3  -1   3    0.84    0.05 
  -3  -1  -3    0.81    0.07 
   3  -1   3    0.54    0.07 
   3   1   3    0.48    0.07 
   3   1   3    0.73    0.06 
  -4  -1  -3   94.23    4.59 
   4  -1   3   99.58    4.61 
   4  -1   3   95.30    4.49 
   4   1   3   97.29    4.40 
   4   1   3   95.56    4.48 
  -5  -1  -3    0.38    0.04 
   5  -1   3    0.44    0.07 
   5  -1   3    0.41    0.07 
   5  -1   3    0.27    0.03 
   5   1   3    0.35    0.06 
   5   1   3    0.33    0.06 
  -6  -1  -3    0.34    0.04 
   6  -1   3    0.29    0.07 
   6  -1   3    0.35    0.07 
   6   1   3    0.33    0.06 
   6   1   3    0.30    0.06 
   7  -1   3    1.86    0.15 
   7  -1   3    1.75    0.16 
   7   1   3    1.77    0.14 
   7   1   3    1.76    0.15 
   8  -1   3    5.76    0.35 
   8  -1   3    5.64    0.33 
   8   1   3    5.70    0.33 
   8   1   3    5.56    0.32 
   9  -1   3    0.45    0.10 
   9   1   3    0.43    0.09 
  10  -1   3    0.01    0.08 
  10   1   3    0.10    0.08 
  11  -1   3   -0.09    0.09 
  11   1   3   -0.01    0.08 
  11  -2  -3   -0.04    0.08 
  11  -2  -3   -0.12    0.10 
  11   2  -3   -0.03    0.08 
  10  -2  -3    0.02    0.10 
  10  -2  -3    0.08    0.08 
  10   2  -3    0.02    0.08 
   9  -2  -3    0.74    0.14 
   9  -2  -3    0.85    0.11 
   9   2  -3    0.83    0.13 
  -8  -2   3    2.98    0.23 
   8  -2  -3    2.66    0.24 
   8  -2  -3    3.01    0.21 
   8   2  -3    2.73    0.22 
   7  -2  -3    0.19    0.07 
   7  -2  -3    0.20    0.09 
  -7  -2   3    0.25    0.09 
   7   2  -3    0.10    0.07 
   6  -2  -3    6.08    0.36 
   6  -2  -3    5.52    0.31 
  -6  -2   3    6.11    0.34 
  -6   2   3    5.68    0.29 
   5  -2  -3    0.02    0.05 
   5  -2  -3    0.01    0.03 
  -5  -2   3   -0.06    0.05 
   5   2  -3   -0.02    0.03 
   5   2  -3    0.01    0.02 
  -5   2   3    0.03    0.03 
   4  -2  -3    1.91    0.12 
  -4  -2   3    1.93    0.14 
   4   2  -3    1.99    0.12 
  -4   2   3    2.03    0.12 
   3  -2  -3   10.01    0.47 
  -3  -2   3   10.25    0.49 
   3  -2  -3    9.60    0.52 
   3   2  -3   10.09    0.49 
   3   2  -3    9.24    0.50 
  -3   2   3    9.74    0.47 
  -2  -2   3    3.22    0.20 
   2  -2  -3    3.01    0.22 
   2  -2  -3    3.67    0.18 
  -2   2   3    3.72    0.19 
   2   2  -3    3.35    0.19 
   1  -2  -3    8.49    0.44 
  -1  -2   3    8.52    0.42 
   1   2  -3    7.94    0.42 
  -1   2   3    8.46    0.41 
   0  -2   3    2.28    0.15 
   0   2   3    2.22    0.14 
   0   2   3    2.21    0.12 
   0   2  -3    2.07    0.15 
   1  -2   3    1.09    0.09 
   1  -2   3    1.02    0.10 
  -1  -2  -3    0.92    0.10 
   1   2   3    1.21    0.08 
   1   2   3    1.21    0.11 
   2  -2   3   50.43    2.37 
  -2  -2  -3   49.06    2.35 
   2  -2   3   47.50    2.30 
   2  -2   3   50.21    2.24 
   2   2   3   47.74    2.28 
   3  -2   3  108.03    5.05 
  -3  -2  -3  110.39    5.17 
   3  -2   3  105.97    4.93 
   3   2   3  108.20    5.04 
   3   2   3  110.14    4.97 
   4  -2   3   18.78    0.88 
  -4  -2  -3   16.91    0.83 
   4  -2   3   16.99    0.84 
   4   2   3   16.16    0.82 
   4   2   3   17.26    0.83 
   5  -2   3    2.51    0.18 
   5  -2   3    2.44    0.19 
   5   2   3    2.24    0.17 
   5   2   3    2.38    0.16 
   6  -2   3    0.42    0.09 
   6  -2   3    0.35    0.09 
   6   2   3    0.34    0.07 
   7  -2   3    1.00    0.12 
   7  -2   3    0.88    0.13 
   7   2   3    0.75    0.11 
   7   2   3    0.78    0.10 
   8  -2   3    1.18    0.14 
   8  -2   3    1.06    0.15 
   8   2   3    0.96    0.13 
   8   2   3    1.03    0.12 
   9  -2   3    0.53    0.11 
   9  -2   3    0.32    0.10 
   9   2   3    0.37    0.10 
   9   2   3    0.38    0.10 
  10  -2   3    1.32    0.17 
  10  -2   3    1.09    0.16 
  10   2   3    0.94    0.14 
  10   2   3    1.26    0.15 
  11  -2   3    0.09    0.11 
  11   2   3    0.06    0.10 
  10  -3  -3    0.10    0.13 
  10   3  -3    0.05    0.10 
   9  -3  -3    0.06    0.11 
   9   3  -3   -0.03    0.08 
   8  -3  -3    0.19    0.10 
   8   3  -3    0.20    0.08 
   7  -3  -3    0.06    0.08 
   7  -3  -3    0.18    0.07 
   7   3  -3    0.18    0.09 
   6  -3  -3    9.06    0.46 
   6  -3  -3    8.36    0.50 
   6   3  -3    8.54    0.48 
   5  -3  -3    3.16    0.20 
  -5  -3   3    3.16    0.23 
   5  -3  -3    2.53    0.24 
  -5   3   3    2.98    0.18 
   5   3  -3    3.24    0.24 
   4  -3  -3    6.14    0.34 
   4  -3  -3    6.63    0.39 
   4   3  -3    6.36    0.34 
   4   3  -3    6.96    0.38 
  -4   3   3    6.94    0.33 
   3  -3  -3    2.10    0.14 
  -3  -3   3    2.27    0.18 
   3  -3  -3    2.31    0.18 
  -3   3   3    2.24    0.14 
   3   3  -3    2.21    0.17 
   3   3  -3    2.07    0.14 
  -2  -3   3    0.01    0.05 
   2  -3  -3    0.03    0.06 
   2   3  -3    0.00    0.04 
  -2   3   3    0.02    0.04 
   1  -3  -3    0.82    0.10 
  -1  -3   3    0.81    0.10 
  -1   3   3    0.70    0.08 
   1   3  -3    0.78    0.08 
   0  -3  -3    8.78    0.48 
   0  -3   3    8.89    0.46 
   0   3   3    8.76    0.44 
   0   3  -3    9.67    0.48 
   0   3   3    9.13    0.46 
   1  -3   3    3.90    0.24 
  -1  -3  -3    3.82    0.24 
   1  -3   3    3.51    0.23 
   1   3   3    4.01    0.23 
   1   3   3    3.59    0.21 
   2  -3   3    0.95    0.11 
   2  -3   3    1.15    0.12 
   2   3   3    1.08    0.12 
   2   3   3    1.03    0.10 
   3  -3   3    0.24    0.08 
   3  -3   3    0.16    0.06 
  -3  -3  -3    0.22    0.05 
   3   3   3    0.18    0.05 
   3   3   3    0.05    0.03 
   4  -3   3    2.22    0.19 
   4   3   3    2.21    0.16 
   4   3   3    1.86    0.17 
   5  -3   3   50.02    2.52 
   5  -3   3   51.40    2.45 
   5   3   3   52.03    2.41 
   5   3   3   52.84    2.43 
   6  -3   3    0.73    0.12 
   6  -3   3    0.51    0.13 
   6   3   3    0.63    0.10 
   6   3   3    0.74    0.12 
   7  -3   3    1.58    0.18 
   7  -3   3    1.76    0.18 
   7   3   3    1.58    0.18 
   7   3   3    1.48    0.15 
   8  -3   3   -0.05    0.08 
   8  -3   3   -0.06    0.09 
   8   3   3   -0.05    0.07 
   8   3   3   -0.08    0.07 
   9  -3   3    0.06    0.09 
   9  -3   3    0.01    0.09 
   9   3   3    0.10    0.08 
   9   3   3    0.10    0.09 
  10  -3   3    0.09    0.10 
  10  -3   3    0.12    0.11 
  10   3   3    0.04    0.10 
  10   3   3    0.07    0.09 
   9  -4  -3    0.05    0.12 
   9   4  -3   -0.10    0.08 
   8  -4  -3   -0.16    0.11 
   8   4  -3    0.00    0.09 
   7  -4  -3    1.08    0.17 
   7   4  -3    1.06    0.15 
   6  -4  -3    0.15    0.10 
   6   4  -3    0.09    0.09 
   5  -4  -3    0.12    0.09 
   5   4  -3   -0.14    0.08 
   4  -4  -3    7.43    0.47 
   4   4  -3    8.43    0.46 
  -4   4   3    8.11    0.41 
   3  -4  -3    1.59    0.17 
   3   4  -3    1.08    0.14 
  -3   4   3    1.23    0.12 
   2  -4  -3    0.37    0.10 
   2   4  -3    0.11    0.08 
  -2   4   3    0.21    0.07 
   2   4  -3    0.33    0.07 
   1  -4  -3   -0.04    0.07 
  -1   4   3    0.03    0.06 
   1   4  -3    0.00    0.05 
   0  -4  -3   -0.03    0.07 
   0   4   3    0.02    0.06 
   0   4  -3   -0.04    0.06 
  -1  -4  -3    0.21    0.08 
   1  -4   3    0.29    0.08 
   1   4   3    0.30    0.09 
   1   4   3    0.22    0.06 
   2  -4   3    0.02    0.07 
   2  -4   3    0.09    0.07 
   2   4   3    0.08    0.05 
   2   4   3    0.12    0.09 
   3  -4   3    0.91    0.13 
   3  -4   3    1.19    0.14 
   3   4   3    0.95    0.14 
   3   4   3    1.12    0.11 
   4  -4   3    4.92    0.32 
   4  -4   3    4.91    0.32 
   4   4   3    4.70    0.31 
   4   4   3    4.94    0.28 
   5  -4   3    0.24    0.09 
   5  -4   3    0.16    0.09 
   5   4   3    0.23    0.08 
   5   4   3    0.19    0.09 
   6  -4   3    0.14    0.09 
   6  -4   3   -0.01    0.08 
   6   4   3    0.06    0.07 
   6   4   3    0.01    0.09 
   7  -4   3    7.45    0.44 
   7  -4   3    6.58    0.45 
   7   4   3    6.73    0.43 
   7   4   3    7.62    0.41 
   8  -4   3    3.43    0.28 
   8  -4   3    2.88    0.28 
   8   4   3    2.92    0.27 
   8   4   3    3.07    0.25 
   6  -5  -3    0.08    0.12 
   6   5  -3   -0.06    0.09 
   5  -5  -3   -0.02    0.11 
   5   5  -3    0.00    0.10 
   4  -5  -3    0.10    0.11 
   4   5  -3    0.05    0.09 
   3  -5  -3   -0.13    0.10 
   3   5  -3   -0.18    0.08 
   2  -5  -3    1.86    0.21 
   2   5  -3    1.86    0.19 
  -2   5   3    1.91    0.18 
   1  -5  -3    0.81    0.14 
   1   5  -3    0.71    0.11 
   0  -5  -3    0.74    0.12 
   0   5  -3    0.41    0.11 
   0   5   3    0.54    0.11 
  -1   5  -3    0.00    0.08 
   1   5   3    0.07    0.09 
   2  -5   3    0.32    0.11 
   2   5   3    0.36    0.11 
   3  -5   3    0.03    0.08 
   3  -5   3    0.07    0.09 
   3   5   3    0.12    0.10 
   4  -5   3    0.02    0.09 
   4  -5   3    0.04    0.09 
   4   5   3    0.05    0.10 
   5  -5   3   -0.01    0.10 
   5  -5   3    0.03    0.09 
   5   5   3   -0.02    0.09 
   6  -5   3    0.04    0.10 
   6  -5   3   -0.02    0.10 
   6   5   3   -0.07    0.09 
  -1   6   3    0.02    0.09 
   1   6  -3   -0.11    0.08 
   0   6  -3    0.31    0.10 
   0   6   3    0.25    0.12 
  12   0  -4    0.01    0.09 
  11   0  -4    0.58    0.12 
  10   0  -4    0.27    0.09 
  -9   0   4    0.13    0.07 
   9   0  -4    0.03    0.07 
   9   0  -4    0.03    0.06 
   8   0  -4    0.11    0.06 
   8   0  -4    0.13    0.07 
  -8   0   4    0.20    0.07 
  -7   0   4    0.04    0.05 
   7   0  -4    0.10    0.05 
   7   0  -4    0.09    0.06 
   6   0  -4   12.93    0.67 
   6   0  -4   13.16    0.64 
  -6   0   4   13.06    0.63 
  -5   0   4   33.58    1.55 
   5   0  -4   33.69    1.58 
   5   0  -4   33.12    1.63 
   4   0  -4   17.67    0.86 
  -4   0   4   17.90    0.82 
   4   0  -4   16.92    0.84 
  -3   0   4    0.35    0.05 
   3   0  -4    0.37    0.05 
   3   0  -4    0.43    0.05 
   2   0  -4   41.24    1.97 
  -2   0   4   42.89    1.93 
   2   0  -4   42.17    2.02 
   1   0  -4   28.48    1.37 
   0   0  -4   28.00    1.46 
   0   0   4   31.76    1.40 
   0   0   4   31.58    1.42 
   1   0   4  123.70    5.74 
   1   0   4  122.76    5.63 
  -1   0  -4  125.30    5.90 
   2   0   4    2.15    0.13 
   2   0   4    2.09    0.12 
  -2   0  -4    2.10    0.13 
   3   0   4    0.60    0.06 
  -3   0  -4    0.34    0.05 
   3   0   4    0.56    0.06 
   4   0   4    1.06    0.08 
   4   0   4    0.97    0.09 
   5   0   4   45.98    2.15 
  -5   0  -4   45.44    2.20 
  -6   0  -4   77.21    3.73 
   6   0   4   78.60    3.64 
  -7   0  -4    1.06    0.10 
   7   0   4    1.00    0.10 
   7   0   4    1.04    0.11 
   8   0   4    0.01    0.07 
  -8   0  -4    0.10    0.06 
   9   0   4    0.09    0.07 
  10   0   4   -0.05    0.08 
  11   0   4    0.15    0.09 
  11  -1  -4    0.06    0.08 
  11   1  -4    0.15    0.10 
 -10  -1   4   -0.06    0.09 
  10  -1  -4   -0.01    0.07 
  10  -1  -4   -0.02    0.09 
  10   1  -4    0.06    0.08 
  -9  -1   4    0.92    0.14 
   9  -1  -4    0.87    0.13 
   9  -1  -4    1.10    0.12 
   9   1  -4    0.92    0.13 
   8  -1  -4    0.30    0.09 
   8  -1  -4    0.56    0.08 
  -8  -1   4    0.48    0.10 
   8   1  -4    0.35    0.09 
  -8   1   4    0.43    0.07 
   7  -1  -4    0.61    0.08 
  -7  -1   4    0.54    0.09 
   7  -1  -4    0.51    0.10 
   7   1  -4    0.54    0.09 
   7   1  -4    0.55    0.08 
  -7   1   4    0.56    0.07 
   6  -1  -4    0.97    0.11 
   6  -1  -4    0.94    0.09 
  -6  -1   4    0.93    0.11 
  -6   1   4    1.04    0.09 
   6   1  -4    1.12    0.12 
   6   1  -4    1.07    0.11 
   5  -1  -4   -0.05    0.05 
  -5  -1   4    0.03    0.05 
   5  -1  -4    0.03    0.03 
   5   1  -4   -0.02    0.04 
   5   1  -4    0.10    0.05 
  -5   1   4    0.02    0.03 
   4  -1  -4    3.42    0.22 
  -4  -1   4    3.22    0.20 
   4  -1  -4    3.45    0.18 
   4   1  -4    3.04    0.20 
   4   1  -4    3.09    0.19 
  -4   1   4    3.49    0.18 
  -3  -1   4    5.80    0.30 
   3  -1  -4    6.30    0.32 
   3  -1  -4    6.13    0.29 
   3   1  -4    5.58    0.31 
  -3   1   4    5.82    0.29 
   3   1  -4    5.44    0.31 
   2  -1  -4   15.31    0.71 
   2   1  -4   14.82    0.74 
  -2   1   4   15.17    0.70 
   1   1  -4   41.77    1.96 
  -1   1   4   40.08    1.87 
   0  -1   4    1.37    0.09 
   0  -1  -4    1.34    0.11 
   0  -1   4    1.21    0.10 
   0   1   4    1.36    0.07 
   0   1  -4    1.28    0.10 
  -1  -1  -4    0.12    0.03 
   1  -1   4    0.13    0.03 
   1  -1   4    0.18    0.04 
   1   1   4    0.11    0.02 
   1   1   4    0.01    0.02 
   2  -1   4    0.53    0.05 
   2  -1   4    0.40    0.06 
  -2  -1  -4    0.56    0.05 
   2   1   4    0.44    0.06 
   2   1   4    0.54    0.05 
  -2   1  -4    0.48    0.06 
  -3  -1  -4    5.27    0.28 
   3  -1   4    5.71    0.26 
   3   1   4    5.14    0.28 
  -3   1  -4    5.52    0.31 
   3   1   4    5.57    0.28 
   4  -1   4   20.05    0.93 
  -4  -1  -4   20.34    0.99 
  -4   1  -4   20.93    1.02 
   4   1   4   20.36    0.96 
   4   1   4   20.43    0.97 
   5  -1   4    1.06    0.06 
  -5  -1  -4    1.03    0.09 
   5   1   4    1.19    0.10 
   5   1   4    1.06    0.11 
  -5   1  -4    1.02    0.11 
  -6  -1  -4    0.36    0.05 
   6   1   4    0.30    0.07 
  -6   1  -4    0.34    0.07 
   6   1   4    0.44    0.07 
   7  -1   4    2.74    0.20 
   7   1   4    2.60    0.19 
  -7   1  -4    2.79    0.21 
   7   1   4    2.90    0.18 
   8  -1   4    2.58    0.20 
  -8   1  -4    2.40    0.21 
   8   1   4    2.25    0.17 
   8   1   4    2.66    0.20 
   9  -1   4    0.25    0.09 
   9   1   4    0.45    0.10 
  -9   1  -4    0.31    0.10 
  10  -1   4    1.51    0.18 
  10   1   4    1.49    0.16 
  11  -1   4   -0.24    0.09 
  11   1   4    0.05    0.09 
  11  -2  -4    0.01    0.10 
  11   2  -4    0.09    0.10 
  10  -2  -4    0.03    0.07 
  10  -2  -4    0.09    0.10 
  10   2  -4   -0.01    0.09 
   9  -2  -4    0.04    0.07 
  -9  -2   4   -0.03    0.08 
   9  -2  -4    0.02    0.10 
   9   2  -4    0.08    0.09 
  -8  -2   4    0.40    0.11 
   8  -2  -4    0.16    0.10 
   8  -2  -4    0.18    0.07 
   8   2  -4    0.18    0.09 
  -7  -2   4    1.88    0.19 
   7  -2  -4    1.60    0.17 
   7  -2  -4    1.76    0.15 
   7   2  -4    1.84    0.18 
   6  -2  -4    0.12    0.08 
   6  -2  -4    0.09    0.05 
  -6  -2   4    0.03    0.07 
   6   2  -4    0.09    0.07 
  -6   2   4    0.07    0.04 
   5  -2  -4    2.47    0.20 
   5  -2  -4    2.54    0.15 
  -5  -2   4    2.54    0.18 
  -5   2   4    2.41    0.14 
   5   2  -4    2.50    0.15 
   4  -2  -4    0.06    0.03 
  -4  -2   4    0.10    0.04 
   4  -2  -4    0.25    0.04 
  -4   2   4    0.19    0.04 
   4   2  -4    0.14    0.06 
   4   2  -4    0.27    0.04 
   3  -2  -4   13.26    0.71 
  -3  -2   4   14.27    0.67 
   3  -2  -4   13.60    0.65 
   3   2  -4   13.82    0.67 
  -3   2   4   13.65    0.65 
   2  -2  -4    8.14    0.38 
  -2  -2   4    7.09    0.40 
   2  -2  -4    8.31    0.44 
  -2   2   4    8.44    0.39 
   2   2  -4    7.95    0.41 
  -1  -2   4   25.60    1.18 
   1  -2  -4   24.66    1.24 
   1   2  -4   24.73    1.23 
  -1   2   4   25.89    1.17 
   0  -2   4    3.16    0.19 
   0  -2   4    3.15    0.20 
   0  -2  -4    3.49    0.21 
   0   2   4    3.34    0.16 
   0   2  -4    3.41    0.21 
   0   2   4    3.50    0.19 
   1  -2   4    4.37    0.26 
   1   2   4    4.67    0.23 
  -1   2  -4    4.91    0.27 
   1   2   4    4.30    0.25 
  -2  -2  -4    8.92    0.46 
   2  -2   4    8.58    0.46 
   2  -2   4    9.81    0.44 
   2   2   4    8.99    0.44 
   2   2   4    9.29    0.46 
  -2   2  -4    9.39    0.48 
   3  -2   4    8.81    0.46 
   3  -2   4    9.06    0.43 
  -3  -2  -4    9.21    0.45 
   3   2   4    9.56    0.47 
   3   2   4    8.90    0.44 
  -3   2  -4    8.21    0.47 
   4  -2   4    0.71    0.10 
  -4  -2  -4    0.79    0.08 
   4  -2   4    0.77    0.06 
   4   2   4    0.62    0.07 
   4   2   4    0.66    0.10 
   5  -2   4    0.22    0.07 
   5  -2   4    0.29    0.08 
   5   2   4    0.10    0.07 
   5   2   4    0.18    0.06 
   6  -2   4    3.71    0.26 
   6  -2   4    3.62    0.24 
   6   2   4    3.73    0.23 
   6   2   4    3.67    0.24 
   7  -2   4   -0.01    0.07 
   7  -2   4   -0.02    0.08 
   7   2   4   -0.06    0.06 
   7   2   4    0.07    0.07 
   8  -2   4    3.41    0.25 
   8   2   4    3.48    0.24 
   8   2   4    3.71    0.24 
   9  -2   4    0.22    0.10 
   9   2   4    0.33    0.10 
   9   2   4    0.14    0.09 
  10  -2   4    1.57    0.18 
  10   2   4    1.35    0.16 
 -10   2  -4    1.26    0.17 
  11  -2   4   -0.01    0.10 
  11   2   4   -0.04    0.09 
  10  -3  -4    0.09    0.13 
  10   3  -4   -0.04    0.10 
   9  -3  -4    0.03    0.11 
   9   3  -4    0.08    0.08 
   8  -3  -4    0.04    0.11 
   8   3  -4    0.12    0.08 
   7  -3  -4   -0.08    0.08 
  -7  -3   4   -0.09    0.08 
   7   3  -4    0.01    0.08 
  -6  -3   4    1.57    0.17 
   6  -3  -4    1.41    0.17 
   6   3  -4    1.48    0.16 
  -5  -3   4    0.88    0.13 
   5  -3  -4    0.65    0.12 
  -5   3   4    0.58    0.08 
   5   3  -4    0.57    0.11 
   4  -3  -4    0.72    0.11 
  -4  -3   4    0.69    0.11 
   4   3  -4    0.68    0.07 
   4   3  -4    0.53    0.10 
  -4   3   4    0.56    0.07 
   3  -3  -4   -0.02    0.06 
  -3  -3   4   -0.03    0.06 
   3   3  -4    0.01    0.06 
  -3   3   4   -0.02    0.04 
   3   3  -4    0.04    0.04 
  -2  -3   4    0.11    0.06 
   2   3  -4    0.03    0.04 
  -2   3   4    0.01    0.04 
  -1  -3   4    0.59    0.09 
   1  -3  -4    0.37    0.08 
  -1   3   4    0.53    0.07 
  -1   3   4    0.56    0.05 
   1   3  -4    0.48    0.07 
   0  -3   4    2.24    0.16 
   0  -3  -4    2.27    0.19 
   0   3   4    2.28    0.13 
   0   3   4    2.35    0.16 
   0   3  -4    2.29    0.18 
   1  -3   4    2.48    0.19 
   1  -3   4    2.15    0.17 
  -1  -3  -4    2.67    0.19 
   1   3   4    2.22    0.14 
  -1   3  -4    2.38    0.20 
   1   3   4    2.50    0.18 
   2  -3   4    0.03    0.05 
  -2  -3  -4    0.10    0.05 
   2  -3   4    0.13    0.07 
  -2   3  -4    0.06    0.06 
   2   3   4    0.13    0.04 
   2   3   4    0.16    0.06 
   3  -3   4    0.39    0.08 
   3   3   4    0.32    0.06 
   4  -3   4    0.08    0.07 
   4  -3   4    0.08    0.08 
   4   3   4    0.17    0.06 
   4   3   4    0.03    0.08 
   5  -3   4   19.09    0.97 
   5  -3   4   19.31    1.01 
   5   3   4   20.69    0.98 
   5   3   4   19.48    0.95 
   6  -3   4    6.15    0.37 
   6  -3   4    5.98    0.39 
   6   3   4    5.79    0.34 
   6   3   4    6.46    0.37 
   7  -3   4    0.14    0.10 
   7  -3   4    0.30    0.10 
   7   3   4    0.15    0.08 
   7   3   4    0.18    0.09 
   8  -3   4    0.17    0.10 
   8  -3   4    0.05    0.09 
   8   3   4    0.00    0.07 
   8   3   4    0.10    0.09 
   9  -3   4    0.02    0.10 
   9  -3   4   -0.09    0.08 
   9   3   4    0.19    0.09 
   9   3   4    0.09    0.09 
  10  -3   4    0.13    0.12 
  10   3   4    0.06    0.09 
  10   3   4    0.54    0.13 
   8  -4  -4    0.26    0.12 
   8   4  -4    0.14    0.11 
   7  -4  -4    0.36    0.13 
   7   4  -4    0.30    0.11 
   6  -4  -4    0.06    0.09 
   6   4  -4    0.07    0.09 
   5  -4  -4    0.48    0.12 
   5   4  -4    0.28    0.10 
   4  -4  -4    3.84    0.28 
   4   4  -4    3.38    0.25 
  -4   4   4    3.22    0.22 
   3  -4  -4    1.46    0.16 
  -3   4   4    1.17    0.12 
   3   4  -4    1.24    0.15 
   2  -4  -4    0.21    0.09 
   2   4  -4    0.21    0.06 
  -2   4   4    0.21    0.07 
   1  -4  -4   -0.08    0.07 
   1   4  -4    0.12    0.07 
  -1   4   4    0.05    0.06 
   0  -4  -4    2.06    0.22 
   0   4   4    2.62    0.19 
   0   4  -4    2.57    0.20 
  -1  -4  -4    0.93    0.12 
  -1   4  -4    0.86    0.12 
   1   4   4    0.93    0.13 
   2  -4   4   -0.04    0.06 
  -2   4  -4   -0.29    0.08 
   2   4   4    0.00    0.08 
   3  -4   4    0.77    0.13 
   3   4   4    1.00    0.14 
   4  -4   4    1.16    0.15 
   4  -4   4    1.10    0.15 
   4   4   4    1.36    0.17 
   4   4   4    1.06    0.11 
   5  -4   4    1.15    0.14 
   5  -4   4    0.95    0.14 
   5   4   4    1.18    0.12 
   5   4   4    1.18    0.16 
   6  -4   4    0.81    0.14 
   6  -4   4    0.67    0.13 
   6   4   4    0.83    0.15 
   6   4   4    0.93    0.12 
   7  -4   4    8.98    0.55 
   7  -4   4    9.57    0.54 
   7   4   4    9.38    0.50 
   7   4   4    9.12    0.54 
   8  -4   4    0.03    0.12 
   8  -4   4    0.17    0.12 
   8   4   4   -0.08    0.11 
   8   4   4    0.19    0.10 
   6  -5  -4   -0.05    0.12 
   6   5  -4   -0.11    0.10 
   5  -5  -4    0.02    0.11 
   5   5  -4   -0.15    0.10 
   4  -5  -4    0.06    0.11 
   4   5  -4    0.01    0.09 
   3  -5  -4    0.90    0.16 
   3   5  -4    0.94    0.15 
   2  -5  -4    8.81    0.53 
   2   5  -4    8.89    0.51 
  -2   5   4    9.18    0.48 
   1  -5  -4    1.28    0.17 
   1   5  -4    1.22    0.14 
  -1   5   4    1.45    0.16 
   0  -5  -4    0.53    0.11 
   0   5   4    0.49    0.11 
   0   5  -4    0.48    0.10 
   1   5   4   -0.02    0.07 
  -1   5  -4   -0.06    0.08 
   2   5   4    2.33    0.21 
  -2   5  -4    2.30    0.24 
   3  -5   4    0.18    0.10 
  -3   5  -4    0.30    0.11 
   3   5   4    0.14    0.10 
   4  -5   4   -0.06    0.09 
   4   5   4    0.02    0.10 
   5  -5   4    0.19    0.11 
   5   5   4    0.14    0.10 
   6  -5   4    0.43    0.13 
   6   5   4    0.12    0.11 
  11   0  -5    0.15    0.09 
  10   0  -5    0.20    0.09 
   9   0  -5   -0.01    0.07 
  -9   0   5    0.03    0.07 
   9   0  -5    0.13    0.08 
   8   0  -5   -0.04    0.05 
  -8   0   5    0.04    0.06 
   8   0  -5    0.00    0.06 
  -7   0   5   -0.03    0.05 
   7   0  -5    0.00    0.05 
   7   0  -5   -0.04    0.05 
   6   0  -5    0.09    0.05 
   6   0  -5    0.09    0.06 
  -6   0   5    0.11    0.05 
   5   0  -5    0.09    0.05 
   5   0  -5    0.04    0.05 
  -5   0   5    0.05    0.05 
   4   0  -5    0.58    0.08 
   4   0  -5    0.54    0.07 
  -4   0   5    1.06    0.10 
  -3   0   5    0.06    0.04 
   3   0  -5    0.06    0.04 
   3   0  -5    0.03    0.03 
   2   0  -5    0.09    0.03 
   2   0  -5    0.03    0.03 
  -2   0   5    0.09    0.03 
   1   0  -5   -0.01    0.01 
  -1   0   5   -0.01    0.01 
   2   0   5    0.04    0.04 
   2   0   5    0.01    0.02 
  -2   0  -5    0.02    0.03 
   3   0   5   -0.02    0.02 
   3   0   5   -0.05    0.03 
  -3   0  -5   -0.01    0.03 
   4   0   5   -0.03    0.02 
  -4   0  -5   -0.02    0.04 
   4   0   5   -0.05    0.04 
   5   0   5    0.01    0.04 
   5   0   5    0.07    0.06 
  -5   0  -5   -0.05    0.05 
   6   0   5    0.01    0.05 
   6   0   5    0.03    0.04 
  -6   0  -5   -0.05    0.05 
   7   0   5   -0.05    0.06 
  -7   0  -5   -0.03    0.05 
   8   0   5   -0.05    0.06 
   9   0   5   -0.09    0.07 
  10   0   5    0.15    0.09 
  11   0   5    0.12    0.09 
  11  -1  -5    0.00    0.07 
  11   1  -5    0.03    0.09 
 -10  -1   5    0.14    0.09 
  10  -1  -5    0.21    0.08 
  10  -1  -5    0.10    0.10 
  10   1  -5    0.14    0.09 
   9  -1  -5    0.12    0.08 
   9  -1  -5    0.10    0.09 
  -9  -1   5   -0.02    0.08 
   9   1  -5    0.04    0.09 
   8  -1  -5    0.66    0.09 
  -8  -1   5    0.50    0.10 
   8  -1  -5    0.54    0.11 
  -8   1   5    0.41    0.08 
   8   1  -5    0.43    0.09 
  -7  -1   5    0.22    0.08 
   7  -1  -5    0.06    0.07 
   7  -1  -5    0.17    0.05 
   7   1  -5    0.18    0.06 
  -7   1   5    0.20    0.06 
   7   1  -5    0.08    0.06 
   6  -1  -5    0.48    0.09 
  -6  -1   5    0.38    0.08 
   6  -1  -5    0.44    0.06 
  -6   1   5    0.25    0.05 
   6   1  -5    0.35    0.08 
   6   1  -5    0.40    0.06 
   5  -1  -5    0.62    0.06 
  -5  -1   5    0.56    0.08 
   5  -1  -5    0.49    0.09 
   5   1  -5    0.56    0.07 
  -5   1   5    0.54    0.06 
   5   1  -5    0.46    0.08 
  -4  -1   5    6.56    0.37 
   4  -1  -5    7.99    0.40 
   4  -1  -5    7.58    0.36 
   4   1  -5    6.89    0.38 
   4   1  -5    7.00    0.38 
  -4   1   5    7.35    0.35 
   3  -1  -5   14.66    0.69 
   3  -1  -5   14.83    0.73 
  -3   1   5   14.81    0.68 
   3   1  -5   14.12    0.72 
   3   1  -5   14.38    0.71 
   2  -1  -5   21.21    1.00 
  -2  -1   5   21.48    1.00 
   2   1  -5   21.83    1.04 
  -2   1   5   20.92    0.99 
  -1  -1   5    9.99    0.47 
   1  -1  -5    9.41    0.50 
   1  -1  -5    9.92    0.46 
  -1   1   5    9.57    0.47 
   1   1  -5   10.15    0.50 
   0  -1   5   18.02    0.85 
   0  -1  -5   18.05    0.86 
   0   1  -5   16.86    0.86 
   0   1   5   17.45    0.82 
   1  -1   5   12.94    0.64 
   1   1   5   12.90    0.62 
   1   1   5   13.25    0.62 
   2  -1   5    0.32    0.04 
   2  -1   5    0.32    0.06 
   2   1   5    0.23    0.05 
  -2   1  -5    0.25    0.05 
   2   1   5    0.23    0.04 
   3  -1   5   29.46    1.36 
   3  -1   5   29.81    1.41 
   3   1   5   29.61    1.40 
  -3   1  -5   30.27    1.45 
   3   1   5   29.34    1.38 
   4  -1   5    0.01    0.05 
   4  -1   5    0.04    0.02 
  -4  -1  -5    0.00    0.02 
  -4   1  -5    0.05    0.05 
   4   1   5   -0.01    0.04 
   4   1   5    0.05    0.04 
   5  -1   5    0.01    0.05 
   5  -1   5    0.19    0.03 
   5   1   5    0.19    0.05 
  -5   1  -5    0.13    0.06 
   5   1   5    0.10    0.05 
   6   1   5    0.36    0.07 
  -6   1  -5    0.36    0.08 
   6   1   5    0.38    0.07 
   7  -1   5    5.45    0.32 
   7   1   5    5.34    0.30 
  -7   1  -5    4.88    0.32 
   7   1   5    5.44    0.31 
   8  -1   5    7.53    0.41 
  -8   1  -5    7.19    0.42 
   8   1   5    6.96    0.39 
   8   1   5    7.32    0.40 
   9  -1   5    0.71    0.12 
  -9   1  -5    0.71    0.12 
   9   1   5    0.80    0.12 
  10  -1   5    0.90    0.14 
  10   1   5    0.78    0.13 
  11  -1   5    0.04    0.09 
  11   1   5    0.05    0.09 
  11  -2  -5   -0.08    0.10 
  11   2  -5   -0.05    0.09 
  10  -2  -5    0.05    0.10 
 -10  -2   5    0.13    0.11 
  10   2  -5    0.03    0.10 
  -9  -2   5    0.04    0.10 
   9  -2  -5   -0.12    0.09 
   9   2  -5    0.02    0.09 
   8  -2  -5    0.58    0.09 
  -8  -2   5    0.27    0.11 
   8  -2  -5    0.42    0.12 
   8   2  -5    0.29    0.10 
  -7  -2   5    1.47    0.17 
   7  -2  -5    1.30    0.12 
   7  -2  -5    1.46    0.17 
  -7   2   5    1.29    0.12 
   7   2  -5    1.39    0.15 
  -6  -2   5    0.74    0.11 
   6  -2  -5    0.82    0.08 
   6  -2  -5    0.70    0.12 
  -6   2   5    0.69    0.07 
   6   2  -5    0.72    0.08 
   6   2  -5    0.64    0.10 
  -5  -2   5    0.32    0.08 
   5  -2  -5    0.23    0.08 
  -5   2   5    0.34    0.05 
   5   2  -5    0.37    0.06 
   5   2  -5    0.19    0.07 
   4  -2  -5    1.79    0.12 
   4   2  -5    2.10    0.16 
  -4   2   5    2.01    0.13 
   4   2  -5    1.86    0.14 
   3  -2  -5    9.95    0.55 
   3  -2  -5    9.98    0.49 
  -3  -2   5   10.50    0.52 
   3   2  -5   10.63    0.52 
  -3   2   5   10.49    0.50 
   3   2  -5   10.17    0.53 
  -2  -2   5    6.05    0.33 
   2  -2  -5    6.18    0.35 
  -2   2   5    5.96    0.30 
   2   2  -5    5.82    0.32 
   1  -2  -5    3.17    0.20 
  -1  -2   5    2.82    0.18 
   1   2  -5    2.74    0.19 
  -1   2   5    3.04    0.18 
   0  -2   5    6.17    0.31 
   0  -2  -5    5.80    0.32 
   0   2  -5    5.77    0.32 
   0   2   5    5.84    0.31 
  -1  -2  -5    4.33    0.25 
   1  -2   5    4.58    0.24 
  -1   2  -5    4.84    0.27 
   1   2   5    4.57    0.23 
   2  -2   5    0.05    0.02 
  -2  -2  -5    0.19    0.04 
   2  -2   5    0.16    0.05 
   2   2   5    0.16    0.04 
   2   2   5    0.17    0.06 
  -2   2  -5    0.14    0.05 
   3  -2   5    1.53    0.14 
   3  -2   5    1.43    0.10 
   3   2   5    1.34    0.10 
  -3   2  -5    1.36    0.13 
   3   2   5    0.98    0.11 
   4  -2   5    0.97    0.08 
   4  -2   5    0.80    0.10 
  -4  -2  -5    0.81    0.07 
  -4   2  -5    0.70    0.11 
   4   2   5    0.89    0.09 
   4   2   5    0.71    0.10 
   5  -2   5    3.85    0.25 
   5   2   5    4.11    0.23 
   5   2   5    3.92    0.25 
  -5   2  -5    3.58    0.27 
   6  -2   5    1.69    0.17 
   6   2   5    1.46    0.14 
   6   2   5    1.47    0.15 
  -6   2  -5    1.37    0.16 
   7  -2   5    0.68    0.12 
  -7   2  -5    0.58    0.12 
   7   2   5    0.67    0.11 
   7   2   5    0.62    0.10 
   8  -2   5    2.00    0.19 
  -8   2  -5    2.34    0.21 
   8   2   5    2.26    0.19 
   8   2   5    2.04    0.18 
   9  -2   5    2.33    0.23 
   9   2   5    3.10    0.23 
   9   2   5    3.38    0.24 
  -9   2  -5    3.19    0.25 
  10  -2   5    0.81    0.16 
 -10   2  -5    0.84    0.15 
  10   2   5    0.69    0.13 
  10  -3  -5    0.05    0.14 
  10   3  -5    0.01    0.11 
   9  -3  -5    0.01    0.12 
   9   3  -5    0.19    0.10 
   8  -3  -5    0.37    0.12 
  -8  -3   5    0.34    0.13 
   8   3  -5    0.21    0.10 
  -7  -3   5   -0.06    0.10 
   7  -3  -5    0.08    0.10 
   7   3  -5   -0.02    0.07 
   6  -3  -5    1.27    0.16 
  -6  -3   5    1.32    0.16 
   6   3  -5    1.20    0.15 
  -5  -3   5    7.03    0.39 
   5  -3  -5    6.52    0.40 
   5   3  -5    6.80    0.39 
  -5   3   5    6.29    0.34 
   4  -3  -5    0.42    0.09 
  -4  -3   5    0.34    0.09 
  -4   3   5    0.26    0.06 
   4   3  -5    0.23    0.06 
   4   3  -5    0.20    0.07 
   3  -3  -5    0.27    0.09 
  -3  -3   5    0.28    0.08 
   3   3  -5    0.21    0.05 
  -3   3   5    0.29    0.06 
   3   3  -5    0.14    0.06 
   2  -3  -5    0.01    0.06 
  -2  -3   5   -0.03    0.04 
   2   3  -5    0.01    0.04 
  -2   3   5   -0.01    0.04 
   1  -3  -5   -0.06    0.06 
  -1  -3   5   -0.01    0.05 
  -1   3   5   -0.04    0.05 
   1   3  -5    0.00    0.04 
   0  -3   5    9.63    0.49 
   0  -3  -5    9.84    0.52 
   0   3  -5    9.70    0.52 
   0   3   5   10.07    0.50 
   1  -3   5   -0.03    0.05 
   1  -3   5    0.09    0.06 
  -1  -3  -5    0.06    0.06 
   1   3   5    0.08    0.06 
  -1   3  -5    0.04    0.06 
   1   3   5    0.11    0.04 
   2  -3   5    5.19    0.29 
   2  -3   5    5.54    0.32 
  -2  -3  -5    4.97    0.31 
  -2   3  -5    5.35    0.33 
   2   3   5    5.70    0.28 
  -3  -3  -5    4.80    0.26 
   3  -3   5    4.28    0.27 
   3  -3   5    3.60    0.23 
  -3   3  -5    3.79    0.28 
   3   3   5    4.80    0.24 
   4  -3   5    3.03    0.22 
   4   3   5    3.00    0.18 
   4   3   5    2.64    0.22 
  -4   3  -5    2.33    0.23 
   5  -3   5    0.16    0.09 
   5   3   5    0.14    0.09 
  -5   3  -5    0.15    0.09 
   5   3   5    0.22    0.07 
   6  -3   5    2.24    0.20 
   6   3   5    2.43    0.18 
   6   3   5    2.10    0.20 
  -6   3  -5    2.48    0.22 
   7  -3   5   -0.04    0.08 
   7   3   5   -0.06    0.08 
   7   3   5   -0.02    0.07 
  -7   3  -5    0.07    0.09 
   8  -3   5   -0.09    0.08 
   8   3   5   -0.02    0.09 
   8   3   5   -0.04    0.07 
  -8   3  -5    0.01    0.09 
   9  -3   5   -0.15    0.09 
  -9   3  -5   -0.03    0.09 
   9   3   5   -0.19    0.08 
   9   3   5   -0.14    0.08 
   8  -4  -5   -0.12    0.12 
   8   4  -5   -0.03    0.10 
   7  -4  -5    0.43    0.13 
   7   4  -5    0.63    0.13 
   6  -4  -5    0.10    0.10 
   6   4  -5    0.09    0.10 
   5  -4  -5    0.02    0.10 
   5   4  -5   -0.04    0.07 
   4  -4  -5    0.18    0.09 
  -4  -4   5    0.11    0.10 
  -4   4   5   -0.01    0.06 
   4   4  -5    0.07    0.08 
   3  -4  -5    2.13    0.21 
  -3  -4   5    2.34    0.20 
   3   4  -5    1.87    0.17 
  -3   4   5    1.92    0.16 
   3   4  -5    1.52    0.18 
   2  -4  -5    0.33    0.10 
  -2  -4   5    0.41    0.10 
  -2   4   5    0.21    0.07 
   2   4  -5    0.24    0.07 
   1  -4  -5    2.79    0.24 
  -1  -4   5    2.84    0.23 
  -1   4   5    3.20    0.22 
   1   4  -5    3.40    0.23 
   0  -4  -5    1.17    0.14 
   0   4  -5    1.14    0.13 
   0   4   5    0.99    0.13 
  -1  -4  -5    2.21    0.21 
   1   4   5    2.25    0.20 
  -1   4  -5    2.27    0.22 
   2  -4   5    1.40    0.16 
   2   4   5    1.04    0.14 
  -2   4  -5    1.04    0.15 
   3  -4   5    0.17    0.09 
  -3   4  -5   -0.03    0.09 
   3   4   5    0.01    0.08 
   4  -4   5    2.14    0.21 
   4   4   5    2.14    0.20 
  -4   4  -5    2.71    0.25 
   5  -4   5    0.04    0.08 
  -5   4  -5    0.06    0.09 
   5   4   5   -0.06    0.08 
   6  -4   5    1.36    0.17 
   6   4   5    1.08    0.17 
  -6   4  -5    1.51    0.18 
   7  -4   5    2.71    0.24 
  -7   4  -5    2.52    0.26 
   7   4   5    2.12    0.24 
   7   4   5    2.36    0.20 
   8  -4   5    0.07    0.11 
  -8   4  -5   -0.13    0.10 
   8   4   5   -0.07    0.08 
   8   4   5    0.08    0.10 
   6  -5  -5    0.03    0.11 
   6   5  -5   -0.10    0.09 
   5  -5  -5    0.02    0.11 
   5   5  -5    0.09    0.12 
   4  -5  -5   -0.01    0.11 
   4   5  -5   -0.03    0.10 
   3  -5  -5    0.48    0.15 
   3   5  -5    0.57    0.14 
  -3   5   5    0.41    0.10 
   2  -5  -5    0.45    0.13 
  -2   5   5    0.33    0.11 
   2   5  -5    0.28    0.11 
   1  -5  -5    0.06    0.11 
  -1   5   5    0.17    0.09 
   1   5  -5    0.14    0.09 
   0  -5  -5    0.04    0.09 
   0   5   5    0.01    0.09 
   0   5  -5   -0.04    0.07 
   1   5   5    0.05    0.09 
  -1   5  -5    0.00    0.08 
  -2   5  -5    0.18    0.09 
   2   5   5   -0.05    0.09 
   3  -5   5   -0.11    0.08 
  -3   5  -5   -0.03    0.09 
   3   5   5   -0.01    0.08 
   4  -5   5   -0.06    0.09 
   4   5   5   -0.04    0.09 
  -4   5  -5   -0.03    0.11 
   5  -5   5    0.08    0.11 
   5   5   5   -0.06    0.08 
  -5   5  -5    0.01    0.13 
  11   0  -6    0.32    0.10 
  10   0  -6    0.34    0.10 
  -9   0   6    0.16    0.08 
   9   0  -6    0.09    0.09 
   9   0  -6    0.14    0.08 
  -8   0   6   -0.03    0.06 
   8   0  -6   -0.13    0.06 
   8   0  -6    0.11    0.06 
   7   0  -6    0.03    0.06 
  -7   0   6    0.11    0.06 
   7   0  -6    0.07    0.07 
   6   0  -6    0.01    0.05 
   6   0  -6   -0.09    0.05 
  -6   0   6   -0.06    0.05 
   5   0  -6    1.90    0.14 
   5   0  -6    1.91    0.17 
  -5   0   6    1.77    0.13 
  -4   0   6    0.14    0.05 
   4   0  -6    0.12    0.04 
   4   0  -6    0.12    0.05 
   3   0  -6    0.09    0.05 
  -3   0   6    0.08    0.04 
   3   0  -6    0.00    0.03 
   2   0  -6    0.12    0.04 
   2   0  -6    0.18    0.04 
  -2   0   6    0.15    0.04 
  -1   0   6   16.96    0.79 
   0   0  -6   69.26    3.22 
   0   0   6   65.85    3.14 
   0   0   6   66.93    3.07 
   1   0   6   24.26    1.10 
  -1   0  -6   23.33    1.16 
   1   0   6   23.60    1.12 
   2   0   6   13.77    0.68 
   2   0   6   14.00    0.66 
  -2   0  -6   14.28    0.70 
  -3   0  -6    0.27    0.05 
   3   0   6    0.22    0.05 
   3   0   6    0.30    0.04 
   4   0   6    0.07    0.04 
   4   0   6    0.15    0.05 
  -4   0  -6    0.13    0.05 
  -5   0  -6    9.50    0.50 
   5   0   6    9.73    0.49 
   5   0   6    9.50    0.46 
  -6   0  -6    0.03    0.05 
   6   0   6    0.02    0.04 
   6   0   6    0.07    0.06 
  -7   0  -6    0.87    0.10 
   7   0   6    0.70    0.10 
   8   0   6    0.07    0.08 
   9   0   6    0.07    0.08 
  10   0   6    2.04    0.20 
  11   0   6    1.80    0.20 
 -11  -1   6   -0.01    0.09 
  11  -1  -6   -0.06    0.07 
  11   1  -6   -0.01    0.09 
  10  -1  -6    0.02    0.08 
 -10  -1   6   -0.05    0.08 
  10  -1  -6    0.07    0.10 
  10   1  -6   -0.07    0.08 
   9  -1  -6    0.11    0.07 
   9  -1  -6    0.18    0.10 
  -9  -1   6    0.28    0.10 
   9   1  -6    0.18    0.10 
   8  -1  -6    0.43    0.11 
  -8  -1   6    0.36    0.10 
   8  -1  -6    0.34    0.07 
   8   1  -6    0.23    0.09 
  -8   1   6    0.36    0.08 
  -7  -1   6    0.00    0.07 
   7  -1  -6    0.02    0.08 
   7  -1  -6   -0.06    0.05 
   7   1  -6   -0.09    0.06 
  -7   1   6   -0.12    0.05 
   7   1  -6   -0.02    0.06 
   6  -1  -6    0.06    0.07 
  -6  -1   6    0.27    0.08 
   6  -1  -6    0.17    0.05 
   6   1  -6    0.27    0.07 
  -6   1   6    0.29    0.06 
   6   1  -6    0.28    0.08 
   5  -1  -6    0.10    0.04 
  -5  -1   6    0.06    0.06 
   5  -1  -6    0.06    0.07 
   5   1  -6    0.07    0.05 
   5   1  -6    0.00    0.05 
  -5   1   6    0.17    0.05 
  -4  -1   6    3.70    0.22 
   4  -1  -6    3.72    0.20 
   4  -1  -6    4.01    0.25 
   4   1  -6    3.73    0.22 
  -4   1   6    3.80    0.20 
   4   1  -6    3.79    0.23 
   3  -1  -6    1.77    0.14 
   3  -1  -6    1.68    0.09 
   3   1  -6    1.49    0.12 
   3   1  -6    1.31    0.13 
  -3   1   6    1.27    0.11 
  -2  -1   6    7.27    0.35 
   2  -1  -6    6.73    0.33 
   2  -1  -6    6.33    0.38 
  -2   1   6    6.80    0.34 
   2   1  -6    7.37    0.37 
  -1  -1   6   11.32    0.54 
   1  -1  -6   10.53    0.57 
  -1   1   6   11.29    0.53 
   1   1  -6   11.21    0.56 
   0  -1   6    0.31    0.06 
   0  -1   6    0.28    0.05 
   0  -1  -6    0.27    0.06 
   0   1   6    0.38    0.04 
   0   1   6    0.28    0.05 
   0   1  -6    0.32    0.05 
   1  -1   6    4.81    0.24 
   1  -1   6    4.53    0.26 
  -1  -1  -6    4.63    0.26 
   1   1   6    4.94    0.25 
   1   1   6    4.79    0.24 
   2  -1   6    7.49    0.39 
  -2  -1  -6    7.32    0.38 
  -2   1  -6    7.44    0.40 
   2   1   6    7.59    0.37 
   2   1   6    7.07    0.36 
   3  -1   6    2.16    0.17 
  -3  -1  -6    2.36    0.15 
  -3   1  -6    1.96    0.16 
   3   1   6    2.18    0.14 
   3   1   6    2.27    0.15 
   4  -1   6    0.26    0.03 
   4  -1   6    0.08    0.06 
  -4  -1  -6    0.09    0.04 
  -4   1  -6    0.05    0.05 
   4   1   6    0.10    0.05 
   4   1   6    0.06    0.04 
   5  -1   6    2.67    0.14 
  -5  -1  -6    2.79    0.17 
   5  -1   6    2.53    0.19 
   5   1   6    2.72    0.18 
  -5   1  -6    2.77    0.20 
   5   1   6    2.70    0.18 
   6  -1   6    0.31    0.08 
  -6  -1  -6    0.25    0.05 
   6   1   6    0.21    0.06 
   6   1   6    0.31    0.07 
  -6   1  -6    0.22    0.07 
   7  -1   6    5.70    0.34 
   7   1   6    5.98    0.32 
   7   1   6    5.94    0.33 
  -7   1  -6    5.47    0.34 
   8  -1   6    0.42    0.10 
   8   1   6    0.17    0.07 
   8   1   6    0.33    0.09 
  -8   1  -6    0.25    0.10 
   9  -1   6    1.55    0.17 
   9   1   6    1.60    0.16 
  -9   1  -6    1.37    0.16 
  10  -1   6    1.02    0.15 
  10   1   6    1.03    0.14 
  11  -1   6    0.02    0.11 
  11   1   6    0.04    0.10 
 -10  -2   6   -0.03    0.10 
  10  -2  -6    0.12    0.11 
  10   2  -6   -0.01    0.10 
  -9  -2   6    0.19    0.11 
   9  -2  -6    0.17    0.12 
   9   2  -6   -0.02    0.09 
  -8  -2   6    0.17    0.11 
   8  -2  -6    0.00    0.12 
   8   2  -6    0.21    0.10 
   7  -2  -6    0.05    0.10 
  -7  -2   6    0.00    0.08 
  -7   2   6    0.12    0.06 
   7   2  -6    0.05    0.08 
   6  -2  -6    0.29    0.10 
  -6  -2   6    0.17    0.09 
  -6   2   6    0.07    0.05 
   6   2  -6    0.12    0.08 
   6   2  -6    0.26    0.07 
  -5  -2   6   -0.03    0.06 
   5  -2  -6    0.01    0.07 
  -5   2   6    0.02    0.05 
   5   2  -6    0.04    0.05 
   5   2  -6    0.03    0.06 
  -3  -2   6    0.50    0.08 
   3  -2  -6    0.53    0.10 
  -3   2   6    0.66    0.07 
   3   2  -6    0.56    0.07 
   3   2  -6    0.55    0.09 
   2  -2  -6    9.57    0.50 
  -2  -2   6    9.48    0.48 
   2   2  -6    8.85    0.48 
  -2   2   6    9.66    0.46 
  -1  -2   6    0.19    0.05 
   1  -2  -6    0.14    0.05 
  -1   2   6    0.18    0.05 
   1   2  -6    0.17    0.05 
   0  -2   6    1.28    0.11 
   0  -2   6    1.29    0.12 
   0  -2  -6    1.29    0.13 
   0   2   6    1.19    0.11 
   0   2  -6    1.10    0.12 
   1  -2   6    2.29    0.18 
   1  -2   6    2.99    0.17 
  -1  -2  -6    2.74    0.18 
  -1   2  -6    3.14    0.20 
   1   2   6    2.66    0.14 
  -2  -2  -6    4.22    0.26 
   2  -2   6    4.72    0.24 
   2   2   6    4.74    0.24 
   2   2   6    4.62    0.26 
  -3  -2  -6    1.17    0.12 
   3   2   6    1.21    0.09 
   3   2   6    0.98    0.11 
  -3   2  -6    0.75    0.10 
  -4  -2  -6    0.62    0.07 
   4   2   6    0.52    0.09 
   4   2   6    0.54    0.07 
  -4   2  -6    0.41    0.09 
   5  -2   6    0.21    0.08 
   5   2   6    0.20    0.08 
  -5   2  -6    0.03    0.08 
   5   2   6    0.13    0.07 
   6  -2   6    0.01    0.06 
   6   2   6   -0.01    0.07 
   6   2   6    0.01    0.06 
  -6   2  -6   -0.01    0.08 
   7  -2   6    1.76    0.17 
   7   2   6    1.78    0.16 
  -7   2  -6    1.91    0.19 
   7   2   6    1.71    0.17 
   8  -2   6    0.37    0.11 
   8   2   6    0.31    0.09 
  -8   2  -6    0.35    0.11 
   8   2   6    0.35    0.10 
   9  -2   6    1.22    0.17 
   9   2   6    1.18    0.15 
   9   2   6    1.21    0.15 
  -9   2  -6    1.27    0.17 
  10  -2   6    0.16    0.12 
  10   2   6    0.33    0.10 
 -10   2  -6    0.18    0.11 
   9  -3  -6   -0.03    0.11 
  -9  -3   6    0.00    0.12 
   9   3  -6    0.16    0.11 
   8  -3  -6   -0.04    0.11 
  -8  -3   6   -0.02    0.10 
   8   3  -6   -0.05    0.08 
   7  -3  -6    0.15    0.12 
  -7  -3   6    0.11    0.10 
   7   3  -6    0.13    0.09 
   6  -3  -6    0.05    0.10 
  -6  -3   6   -0.04    0.08 
   6   3  -6    0.13    0.09 
  -6   3   6    0.02    0.05 
   5  -3  -6    0.05    0.08 
  -5  -3   6    0.03    0.08 
  -5   3   6   -0.04    0.05 
   5   3  -6    0.00    0.06 
   4  -3  -6    0.07    0.08 
  -4  -3   6    0.03    0.07 
   4   3  -6    0.07    0.05 
   4   3  -6    0.01    0.06 
  -4   3   6    0.11    0.05 
  -3  -3   6    0.15    0.07 
   3  -3  -6    0.17    0.08 
   3   3  -6   -0.01    0.05 
   3   3  -6    0.11    0.05 
  -3   3   6    0.21    0.06 
   2  -3  -6    0.05    0.07 
  -2  -3   6    0.01    0.06 
  -2   3   6    0.01    0.05 
   2   3  -6    0.03    0.05 
   1  -3  -6    0.02    0.06 
  -1  -3   6    0.01    0.05 
  -1   3   6    0.02    0.05 
   1   3  -6   -0.02    0.05 
   0  -3   6    2.79    0.20 
   0  -3  -6    3.14    0.22 
   0   3  -6    2.81    0.21 
   0   3   6    2.95    0.20 
  -1  -3  -6   10.32    0.56 
   1  -3   6   10.44    0.53 
   1  -3   6   10.72    0.56 
  -1   3  -6   10.70    0.57 
   1   3   6   10.12    0.53 
   2  -3   6    0.64    0.09 
  -2  -3  -6    0.64    0.09 
   2  -3   6    0.63    0.11 
  -2   3  -6    0.55    0.10 
   3  -3   6    0.90    0.12 
  -3  -3  -6    0.92    0.10 
  -3   3  -6    0.61    0.11 
   3   3   6    0.88    0.08 
   3   3   6    0.72    0.11 
   4  -3   6   -0.02    0.06 
   4   3   6    0.01    0.05 
  -4   3  -6   -0.17    0.07 
   4   3   6   -0.01    0.07 
   5  -3   6    0.27    0.10 
  -5   3  -6    0.02    0.08 
   5   3   6   -0.07    0.08 
   5   3   6    0.21    0.07 
   6  -3   6    0.59    0.13 
   6   3   6    0.54    0.11 
   6   3   6    0.73    0.10 
  -6   3  -6    0.52    0.12 
   7  -3   6    0.74    0.14 
  -7   3  -6    0.46    0.13 
   7   3   6    0.55    0.12 
   7   3   6    0.54    0.10 
   8  -3   6    0.14    0.10 
  -8   3  -6    0.35    0.12 
   8   3   6    0.04    0.08 
   8   3   6    0.12    0.09 
   9  -3   6   -0.22    0.07 
  -9   3  -6    0.01    0.10 
   9   3   6    0.13    0.10 
   9   3   6   -0.11    0.08 
   8  -4  -6    0.16    0.13 
   8   4  -6    0.11    0.10 
   7  -4  -6    0.02    0.11 
  -7  -4   6    0.14    0.10 
   7   4  -6    0.01    0.10 
   6  -4  -6    0.30    0.12 
  -6  -4   6   -0.09    0.10 
   6   4  -6   -0.06    0.08 
   5  -4  -6   -0.11    0.09 
  -5  -4   6   -0.09    0.08 
   5   4  -6    0.08    0.08 
  -4  -4   6    0.78    0.14 
   4  -4  -6    0.81    0.14 
   4   4  -6    0.81    0.13 
  -4   4   6    0.62    0.10 
   3  -4  -6    0.18    0.10 
  -3  -4   6    0.29    0.11 
  -3   4   6    0.09    0.07 
   3   4  -6    0.28    0.09 
   3   4  -6    0.09    0.07 
   2  -4  -6    0.11    0.09 
  -2  -4   6    0.05    0.09 
   2   4  -6    0.17    0.07 
  -2   4   6    0.11    0.07 
  -1  -4   6    7.02    0.41 
   1  -4  -6    6.69    0.43 
   1   4  -6    7.27    0.40 
  -1   4   6    6.97    0.39 
   0  -4  -6    0.39    0.11 
   0  -4   6    0.53    0.11 
   0   4   6    0.47    0.10 
   0   4  -6    0.25    0.09 
  -1  -4  -6    2.09    0.22 
   1  -4   6    1.80    0.18 
   1   4   6    2.12    0.19 
  -1   4  -6    2.07    0.21 
   2  -4   6    1.19    0.15 
   2   4   6    1.22    0.15 
  -2   4  -6    1.06    0.14 
   3  -4   6    0.06    0.09 
  -3   4  -6    0.12    0.09 
   3   4   6   -0.09    0.08 
   4  -4   6    0.31    0.11 
  -4   4  -6    0.02    0.10 
   4   4   6    0.18    0.10 
   5  -4   6    0.32    0.11 
   5   4   6    0.19    0.10 
  -5   4  -6    0.15    0.10 
   6  -4   6    1.57    0.19 
   6   4   6    1.38    0.19 
  -6   4  -6    1.55    0.20 
   7  -4   6    0.08    0.10 
  -7   4  -6    0.13    0.13 
   7   4   6   -0.07    0.09 
   5  -5  -6   -0.04    0.11 
   5   5  -6    0.04    0.10 
   4  -5  -6   -0.05    0.11 
   4   5  -6    0.07    0.11 
   3  -5  -6    3.06    0.28 
   3   5  -6    2.87    0.25 
  -3   5   6    3.61    0.24 
   2  -5  -6    0.24    0.12 
   2   5  -6    0.21    0.10 
  -2   5   6   -0.03    0.08 
   1  -5  -6    2.03    0.21 
   1   5  -6    1.84    0.20 
  -1   5   6    2.00    0.19 
   0   5   6    0.15    0.09 
   0   5  -6    0.10    0.08 
   1   5   6   -0.03    0.08 
  -1   5  -6    0.00    0.08 
  -2   5  -6   -0.01    0.09 
   2   5   6    0.00    0.09 
   3  -5   6   -0.11    0.08 
  -3   5  -6   -0.08    0.10 
   3   5   6   -0.13    0.09 
   4  -5   6    1.03    0.17 
   4   5   6    1.28    0.18 
  -4   5  -6    1.10    0.18 
   5  -5   6    0.11    0.11 
   5   5   6    0.00    0.11 
  -5   5  -6   -0.02    0.13 
  11   0  -7    0.11    0.09 
 -10   0   7    0.02    0.09 
  10   0  -7    0.00    0.08 
  -9   0   7   -0.01    0.07 
   9   0  -7    0.06    0.07 
   9   0  -7    0.12    0.09 
   8   0  -7    0.06    0.08 
  -8   0   7   -0.09    0.06 
   8   0  -7   -0.03    0.07 
  -7   0   7    0.05    0.07 
   7   0  -7    0.04    0.06 
   7   0  -7   -0.11    0.07 
  -6   0   7   -0.06    0.06 
   6   0  -7   -0.06    0.06 
   6   0  -7   -0.06    0.05 
  -5   0   7    0.09    0.06 
   5   0  -7    0.10    0.07 
   5   0  -7   -0.01    0.05 
  -4   0   7    0.52    0.08 
   4   0  -7    0.46    0.08 
   4   0  -7    0.44    0.07 
   3   0  -7   -0.01    0.04 
   3   0  -7    0.01    0.04 
  -3   0   7   -0.02    0.03 
   2   0  -7   -0.03    0.03 
  -2   0   7    0.01    0.02 
   1   0  -7   -0.01    0.01 
  -1   0   7    0.02    0.04 
   0   0   7    1.89    0.13 
   0   0   7    1.80    0.15 
  -1   0  -7    0.32    0.06 
   1   0   7    0.16    0.06 
   1   0   7    0.29    0.05 
   2   0   7    0.08    0.04 
   2   0   7    0.11    0.05 
  -2   0  -7    0.08    0.05 
   3   0   7   -0.01    0.03 
   3   0   7   -0.02    0.04 
  -3   0  -7    0.00    0.04 
  -4   0  -7    0.01    0.04 
   4   0   7   -0.03    0.03 
   4   0   7   -0.01    0.05 
   5   0   7   -0.04    0.04 
  -5   0  -7   -0.01    0.05 
   5   0   7   -0.02    0.06 
   6   0   7   -0.07    0.06 
   6   0   7   -0.03    0.04 
  -6   0  -7    0.00    0.05 
  -7   0  -7   -0.01    0.06 
   7   0   7   -0.08    0.07 
   8   0   7    0.09    0.09 
   9   0   7   -0.06    0.08 
  10   0   7   -0.10    0.09 
 -11  -1   7    0.04    0.10 
  11   1  -7    0.03    0.09 
 -10  -1   7    0.02    0.09 
  10  -1  -7    0.05    0.11 
  10   1  -7    0.02    0.09 
  -9  -1   7    0.27    0.10 
   9  -1  -7    0.12    0.07 
   9  -1  -7    0.19    0.10 
   9   1  -7    0.08    0.09 
  -8  -1   7    0.18    0.08 
   8  -1  -7    0.16    0.07 
   8  -1  -7    0.18    0.10 
   8   1  -7   -0.06    0.08 
   8   1  -7   -0.02    0.08 
  -8   1   7   -0.03    0.07 
  -7  -1   7    0.10    0.08 
   7  -1  -7    0.00    0.09 
   7  -1  -7    0.07    0.06 
  -7   1   7    0.09    0.07 
   7   1  -7    0.07    0.07 
   7   1  -7   -0.06    0.07 
  -6  -1   7    0.91    0.13 
   6  -1  -7    1.07    0.10 
   6  -1  -7    1.03    0.15 
  -6   1   7    1.60    0.13 
   6   1  -7    1.45    0.14 
   5  -1  -7    0.74    0.08 
   5  -1  -7    0.71    0.11 
  -5  -1   7    0.60    0.10 
   5   1  -7    0.67    0.09 
  -5   1   7    0.72    0.08 
   5   1  -7    0.71    0.10 
   4  -1  -7    1.06    0.12 
  -4  -1   7    1.20    0.12 
   4  -1  -7    0.96    0.08 
   4   1  -7    1.17    0.12 
   4   1  -7    1.21    0.12 
  -4   1   7    1.10    0.10 
   3  -1  -7    0.58    0.09 
   3  -1  -7    0.63    0.06 
  -3   1   7    0.71    0.07 
   3   1  -7    0.54    0.08 
   3   1  -7    0.67    0.07 
  -2  -1   7    4.49    0.25 
   2  -1  -7    4.46    0.23 
   2  -1  -7    4.57    0.28 
  -2   1   7    4.58    0.24 
   2   1  -7    4.46    0.25 
  -1  -1   7    1.16    0.10 
   1  -1  -7    1.23    0.11 
   1   1  -7    1.39    0.12 
  -1   1   7    1.08    0.09 
   0  -1  -7    1.04    0.11 
   0  -1   7    1.23    0.12 
   0  -1   7    1.08    0.09 
   0   1   7    1.21    0.08 
   0   1  -7    1.08    0.11 
   0   1   7    1.22    0.10 
  -1  -1  -7    1.24    0.10 
   1  -1   7    1.01    0.09 
   1  -1   7    0.99    0.10 
   1   1   7    0.97    0.09 
  -1   1  -7    0.98    0.09 
   1   1   7    1.01    0.09 
   2  -1   7   11.13    0.56 
  -2  -1  -7   10.96    0.55 
   2  -1   7   10.82    0.52 
   2   1   7   10.78    0.53 
   2   1   7   10.67    0.54 
  -2   1  -7   11.42    0.57 
   3  -1   7    0.86    0.08 
   3  -1   7    0.78    0.10 
  -3  -1  -7    0.75    0.08 
   3   1   7    0.71    0.09 
   3   1   7    0.69    0.08 
  -3   1  -7    0.69    0.09 
  -4  -1  -7    0.89    0.08 
   4  -1   7    0.90    0.11 
   4  -1   7    0.89    0.08 
   4   1   7    0.77    0.09 
  -4   1  -7    0.75    0.09 
   4   1   7    0.71    0.09 
  -5  -1  -7    5.41    0.29 
   5  -1   7    5.39    0.26 
   5  -1   7    5.69    0.32 
   5   1   7    5.16    0.30 
   5   1   7    4.88    0.29 
  -5   1  -7    5.30    0.31 
  -6  -1  -7    0.46    0.07 
   6  -1   7    0.53    0.11 
   6   1   7    0.42    0.08 
  -6   1  -7    0.37    0.09 
   6   1   7    0.36    0.09 
   7  -1   7    0.12    0.08 
   7   1   7    0.01    0.06 
   7   1   7    0.07    0.08 
  -7   1  -7    0.01    0.07 
   8  -1   7    0.01    0.08 
  -8   1  -7    0.01    0.07 
   8   1   7   -0.01    0.08 
   9  -1   7    0.07    0.10 
   9   1   7    0.26    0.10 
  -9   1  -7    0.03    0.08 
  10  -1   7    0.28    0.12 
  10   1   7    0.40    0.12 
 -10  -2   7    0.00    0.10 
  10  -2  -7    0.11    0.11 
  10   2  -7   -0.11    0.10 
  -9  -2   7    0.16    0.11 
   9  -2  -7    0.00    0.12 
   9   2  -7   -0.02    0.10 
   8  -2  -7    1.21    0.19 
  -8  -2   7    1.52    0.19 
   8   2  -7    1.31    0.16 
  -7  -2   7    0.22    0.10 
   7  -2  -7    0.07    0.11 
  -7   2   7    0.29    0.08 
   7   2  -7    0.01    0.09 
   6  -2  -7    0.17    0.10 
  -6  -2   7    0.01    0.09 
   6   2  -7    0.08    0.07 
   6   2  -7    0.11    0.06 
  -6   2   7    0.12    0.06 
   5  -2  -7    0.21    0.09 
  -5  -2   7    0.19    0.08 
   5   2  -7    0.21    0.06 
   5   2  -7    0.22    0.08 
  -5   2   7    0.25    0.06 
  -4   2   7    0.84    0.08 
   4   2  -7    0.67    0.08 
   4   2  -7    0.63    0.10 
   3  -2  -7    0.26    0.07 
  -3  -2   7    0.11    0.07 
   3   2  -7    0.14    0.06 
  -3   2   7    0.21    0.05 
   3   2  -7    0.25    0.05 
   2  -2  -7    0.06    0.06 
  -2  -2   7    0.07    0.05 
   2   2  -7    0.03    0.05 
  -2   2   7    0.03    0.05 
  -1  -2   7    1.03    0.11 
   1  -2  -7    1.03    0.11 
  -1   2   7    1.15    0.11 
   1   2  -7    1.09    0.10 
   0  -2   7    0.15    0.05 
   0  -2  -7    0.15    0.06 
   0  -2   7    0.08    0.06 
   0   2  -7    0.12    0.06 
   0   2   7    0.11    0.05 
  -1  -2  -7    0.99    0.10 
   1  -2   7    1.05    0.09 
   1  -2   7    0.92    0.11 
  -1   2  -7    0.86    0.10 
   1   2   7    0.79    0.07 
  -2  -2  -7    1.98    0.17 
   2  -2   7    2.14    0.14 
   2   2   7    2.09    0.13 
   2   2   7    2.18    0.16 
   3  -2   7   17.71    0.85 
  -3  -2  -7   18.22    0.91 
   3   2   7   18.89    0.88 
   3   2   7   18.06    0.87 
   4  -2   7    8.06    0.47 
  -4  -2  -7    9.12    0.45 
  -4   2  -7    8.06    0.48 
   4   2   7    8.82    0.45 
   4   2   7    8.65    0.44 
   5  -2   7    1.55    0.17 
  -5   2  -7    2.06    0.20 
   5   2   7    2.14    0.16 
   5   2   7    1.96    0.17 
   6  -2   7    0.31    0.09 
  -6   2  -7    0.30    0.10 
   6   2   7    0.26    0.07 
   6   2   7    0.37    0.09 
   7  -2   7    0.22    0.10 
   7   2   7    0.21    0.08 
  -7   2  -7    0.22    0.10 
   7   2   7    0.23    0.08 
   8  -2   7    0.77    0.14 
   8   2   7    0.74    0.11 
  -8   2  -7    0.69    0.13 
   8   2   7    0.53    0.11 
   9  -2   7    0.94    0.15 
  -9   2  -7    0.70    0.14 
   9   2   7    0.67    0.12 
   9   2   7    0.88    0.13 
  10  -2   7    0.02    0.11 
  10   2   7    0.04    0.09 
 -10   2  -7    0.05    0.10 
  -9  -3   7    0.00    0.11 
   9  -3  -7    0.15    0.14 
   9   3  -7    0.07    0.11 
  -8  -3   7    0.01    0.11 
   8  -3  -7    0.08    0.13 
   8   3  -7   -0.13    0.08 
   7  -3  -7    0.14    0.12 
  -7  -3   7    0.03    0.11 
   7   3  -7   -0.07    0.08 
  -6  -3   7    0.55    0.12 
   6  -3  -7    0.64    0.14 
   6   3  -7    0.49    0.12 
  -6   3   7    0.50    0.08 
  -5  -3   7    0.12    0.08 
   5  -3  -7    0.20    0.10 
  -5   3   7    0.04    0.05 
   5   3  -7    0.00    0.07 
  -4  -3   7   -0.01    0.08 
   4  -3  -7   -0.01    0.08 
   4   3  -7   -0.03    0.06 
   4   3  -7    0.02    0.05 
  -4   3   7   -0.01    0.05 
  -3  -3   7    0.11    0.07 
   3  -3  -7    0.01    0.08 
  -3   3   7    0.00    0.05 
   3   3  -7   -0.05    0.05 
   3   3  -7    0.05    0.05 
   2  -3  -7   -0.05    0.07 
  -2  -3   7    0.14    0.08 
   2   3  -7   -0.01    0.05 
  -2   3   7    0.03    0.05 
  -1  -3   7    1.65    0.16 
   1  -3  -7    1.68    0.16 
  -1   3   7    1.70    0.15 
   1   3  -7    1.51    0.16 
   0  -3   7    0.12    0.07 
   0  -3  -7    0.17    0.08 
   0   3  -7    0.19    0.07 
   0   3   7    0.12    0.08 
   1  -3   7   16.01    0.81 
  -1  -3  -7   15.13    0.82 
   1  -3   7   16.57    0.78 
   1   3   7   15.43    0.78 
  -1   3  -7   16.57    0.83 
   2  -3   7    0.27    0.08 
  -2  -3  -7    0.42    0.08 
   2  -3   7    0.29    0.10 
   2   3   7    0.30    0.09 
  -2   3  -7    0.10    0.08 
   3  -3   7    1.99    0.19 
  -3   3  -7    1.84    0.18 
   3   3   7    2.08    0.18 
   4  -3   7    0.08    0.07 
   4   3   7   -0.02    0.06 
  -4   3  -7   -0.01    0.07 
   5  -3   7    0.40    0.11 
   5   3   7    0.53    0.11 
   5   3   7    0.57    0.09 
  -5   3  -7    0.66    0.13 
   6  -3   7    0.49    0.13 
   6   3   7    0.45    0.12 
  -6   3  -7    0.50    0.12 
   6   3   7    0.47    0.09 
   7  -3   7   -0.01    0.10 
   7   3   7    0.08    0.08 
  -7   3  -7    0.13    0.11 
   7   3   7    0.12    0.10 
   8  -3   7   -0.10    0.08 
  -8   3  -7    0.05    0.11 
   8   3   7    0.07    0.10 
   8   3   7   -0.03    0.08 
   9  -3   7    0.16    0.12 
  -9   3  -7    0.04    0.09 
   9   3   7    0.10    0.11 
   9   3   7    0.01    0.09 
   7  -4  -7    0.11    0.12 
  -7  -4   7    0.01    0.11 
   7   4  -7   -0.03    0.09 
  -6  -4   7    0.18    0.11 
   6  -4  -7    0.16    0.11 
   6   4  -7    0.00    0.10 
   5  -4  -7    0.11    0.12 
  -5  -4   7    0.15    0.11 
   5   4  -7    0.17    0.10 
   4  -4  -7    0.36    0.12 
  -4  -4   7    0.24    0.11 
   4   4  -7    0.25    0.10 
  -4   4   7    0.22    0.08 
   3  -4  -7    0.15    0.11 
  -3  -4   7    0.13    0.09 
  -3   4   7    0.05    0.07 
   3   4  -7   -0.08    0.06 
   3   4  -7   -0.02    0.07 
  -2  -4   7    0.83    0.14 
   2  -4  -7    0.90    0.15 
   2   4  -7    0.74    0.11 
  -2   4   7    0.75    0.11 
  -1  -4   7    4.62    0.32 
   1  -4  -7    4.89    0.34 
  -1   4   7    4.61    0.30 
   1   4  -7    5.55    0.32 
   0  -4  -7    0.11    0.09 
   0  -4   7    0.05    0.08 
   0   4   7    0.08    0.08 
   0   4  -7    0.06    0.07 
   1  -4   7    0.10    0.08 
  -1  -4  -7    0.09    0.08 
  -1   4  -7   -0.03    0.07 
   1   4   7    0.01    0.07 
   2  -4   7    1.53    0.18 
   2   4   7    1.41    0.16 
  -2   4  -7    1.44    0.16 
   3  -4   7    0.04    0.09 
   3   4   7    0.07    0.09 
  -3   4  -7    0.01    0.09 
   4  -4   7   -0.12    0.09 
   4   4   7   -0.05    0.08 
  -4   4  -7   -0.05    0.10 
   5  -4   7    0.20    0.09 
   5   4   7    0.01    0.09 
  -5   4  -7   -0.07    0.10 
   6  -4   7   -0.02    0.09 
   6   4   7    0.02    0.11 
  -6   4  -7    0.09    0.11 
   7  -4   7    0.16    0.10 
  -7   4  -7   -0.04    0.12 
   7   4   7    0.12    0.13 
   4  -5  -7    0.67    0.15 
   4   5  -7    0.58    0.15 
   3  -5  -7    2.23    0.24 
   3   5  -7    1.83    0.21 
  -3   5   7    1.84    0.19 
   2  -5  -7    0.83    0.15 
   2   5  -7    0.56    0.13 
  -2   5   7    0.40    0.11 
   1  -5  -7    0.05    0.10 
   1   5  -7    0.14    0.08 
  -1   5   7    0.02    0.08 
   0   5   7    0.08    0.09 
   0   5  -7    0.04    0.08 
   1   5   7    0.01    0.09 
  -1   5  -7    0.04    0.08 
   2   5   7   -0.04    0.08 
  -2   5  -7    0.08    0.10 
   3  -5   7    0.03    0.10 
  -3   5  -7    0.02    0.10 
   3   5   7    0.08    0.10 
   4  -5   7    0.13    0.11 
   4   5   7    0.20    0.12 
  -4   5  -7    0.07    0.12 
 -10   0   8    0.14    0.09 
  10   0  -8    0.11    0.09 
   9   0  -8    0.06    0.08 
  -9   0   8   -0.06    0.08 
   9   0  -8   -0.08    0.09 
  -8   0   8   -0.04    0.07 
   8   0  -8    0.05    0.07 
   8   0  -8   -0.04    0.09 
  -7   0   8    0.14    0.08 
   7   0  -8    0.17    0.09 
   7   0  -8    0.35    0.08 
   6   0  -8    1.49    0.16 
   6   0  -8    1.46    0.14 
  -6   0   8    1.53    0.15 
   5   0  -8    0.74    0.12 
   5   0  -8    0.74    0.10 
  -5   0   8    0.83    0.11 
  -4   0   8    4.91    0.28 
   4   0  -8    4.25    0.26 
   4   0  -8    5.15    0.32 
  -3   0   8    5.86    0.31 
   3   0  -8    5.69    0.31 
   3   0  -8    5.91    0.34 
   2   0  -8    0.73    0.09 
   1   0  -8    0.37    0.05 
   0   0  -8   17.35    0.85 
   0   0   8   16.77    0.82 
   0   0   8   17.04    0.80 
  -1   0  -8    0.19    0.05 
   1   0   8    0.19    0.05 
   1   0   8    0.20    0.05 
  -2   0  -8    0.88    0.09 
   2   0   8    0.84    0.08 
   2   0   8    0.72    0.09 
  -3   0  -8    0.04    0.05 
   3   0   8    0.01    0.04 
   3   0   8    0.06    0.05 
   4   0   8    0.01    0.04 
  -4   0  -8    0.04    0.05 
   4   0   8   -0.04    0.05 
   5   0   8    4.53    0.28 
  -5   0  -8    4.55    0.27 
   5   0   8    4.75    0.25 
   6   0   8    3.06    0.19 
   6   0   8    2.84    0.23 
  -6   0  -8    3.68    0.23 
  -7   0  -8    8.31    0.45 
   7   0   8    7.94    0.46 
   8   0   8    4.28    0.30 
   9   0   8    0.01    0.10 
  10   0   8    0.10    0.10 
  10  -1  -8    0.01    0.11 
 -10  -1   8    0.04    0.10 
  10   1  -8    0.08    0.09 
   9  -1  -8    0.26    0.12 
  -9  -1   8    0.34    0.11 
  -9   1   8    0.00    0.08 
   9   1  -8    0.01    0.09 
  -8  -1   8    0.04    0.09 
   8  -1  -8    0.12    0.11 
   8   1  -8   -0.13    0.08 
  -8   1   8    0.13    0.08 
   8   1  -8   -0.06    0.08 
   7  -1  -8    0.55    0.14 
  -7  -1   8    0.78    0.12 
  -7   1   8    0.71    0.10 
   7   1  -8    0.54    0.11 
   7   1  -8    0.65    0.11 
   6  -1  -8    1.62    0.19 
  -6  -1   8    1.94    0.19 
   6  -1  -8    1.76    0.14 
   6   1  -8    2.37    0.18 
  -5  -1   8   -0.02    0.07 
   5  -1  -8   -0.06    0.07 
   5  -1  -8   -0.01    0.04 
  -5   1   8    0.08    0.06 
   5   1  -8    0.00    0.06 
   5   1  -8    0.03    0.06 
   4  -1  -8    0.63    0.10 
   4   1  -8    0.59    0.08 
  -4   1   8    0.57    0.07 
   4   1  -8    0.48    0.09 
  -3  -1   8    0.00    0.02 
   3  -1  -8    0.01    0.03 
   3  -1  -8    0.09    0.04 
   3   1  -8    0.21    0.06 
   3   1  -8    0.11    0.06 
  -3   1   8    0.15    0.05 
   2  -1  -8    2.95    0.20 
  -2  -1   8    2.78    0.18 
   2  -1  -8    2.81    0.16 
   2   1  -8    2.79    0.19 
  -2   1   8    2.72    0.17 
   1  -1  -8    1.89    0.15 
  -1  -1   8    1.88    0.13 
   1   1  -8    2.04    0.16 
   0  -1  -8    0.04    0.05 
   0  -1   8    0.01    0.06 
   0  -1   8    0.16    0.05 
   0   1  -8    0.09    0.05 
   0   1   8    0.11    0.05 
   0   1   8    0.10    0.04 
   1  -1   8    0.46    0.06 
   1  -1   8    0.35    0.08 
  -1  -1  -8    0.38    0.07 
   1   1   8    0.49    0.07 
   1   1   8    0.43    0.06 
  -1   1  -8    0.31    0.07 
   2  -1   8    4.80    0.24 
   2  -1   8    3.85    0.26 
  -2  -1  -8    4.86    0.26 
  -2   1  -8    4.50    0.28 
   2   1   8    4.40    0.25 
   2   1   8    4.44    0.25 
  -3  -1  -8    1.35    0.12 
   3  -1   8    1.15    0.13 
   3  -1   8    1.26    0.10 
   3   1   8    1.14    0.11 
   3   1   8    1.25    0.11 
  -3   1  -8    1.12    0.12 
   4  -1   8    4.86    0.29 
   4  -1   8    4.70    0.24 
  -4  -1  -8    4.63    0.27 
   4   1   8    4.54    0.26 
  -4   1  -8    4.69    0.29 
   4   1   8    4.29    0.27 
  -5  -1  -8    5.78    0.33 
   5  -1   8    5.75    0.30 
   5  -1   8    6.44    0.36 
  -5   1  -8    6.14    0.35 
   5   1   8    5.72    0.34 
   5   1   8    5.95    0.33 
   6  -1   8    3.06    0.24 
  -6  -1  -8    2.93    0.20 
   6   1   8    3.20    0.22 
  -6   1  -8    2.66    0.21 
   6   1   8    2.82    0.20 
   7  -1   8   -0.11    0.08 
  -7   1  -8   -0.04    0.07 
   7   1   8   -0.03    0.06 
   7   1   8    0.03    0.08 
   8  -1   8    0.19    0.11 
  -8   1  -8    0.16    0.08 
   8   1   8    0.12    0.09 
   9  -1   8    1.37    0.19 
   9   1   8    1.52    0.17 
  -9   1  -8    1.11    0.14 
  10  -1   8    0.16    0.13 
  10   1   8    0.22    0.11 
 -10  -2   8    0.11    0.11 
  10  -2  -8    0.02    0.12 
  10   2  -8   -0.01    0.10 
  -9  -2   8    0.56    0.14 
   9  -2  -8    0.47    0.15 
   9   2  -8    0.53    0.13 
   8  -2  -8    0.91    0.17 
  -8  -2   8    0.94    0.16 
   8   2  -8    0.96    0.15 
  -7  -2   8    0.18    0.11 
   7  -2  -8    0.27    0.12 
  -7   2   8    0.20    0.08 
   7   2  -8    0.05    0.10 
   6  -2  -8    0.05    0.10 
  -6  -2   8    0.03    0.09 
   6   2  -8    0.06    0.07 
   6   2  -8    0.09    0.06 
  -6   2   8    0.07    0.06 
  -5  -2   8   -0.01    0.07 
   5  -2  -8    0.08    0.08 
   5   2  -8    0.02    0.07 
   5   2  -8    0.06    0.06 
  -5   2   8    0.01    0.05 
  -4  -2   8    0.09    0.07 
   4  -2  -8    0.11    0.08 
  -4   2   8    0.15    0.06 
   4   2  -8    0.23    0.06 
   4   2  -8    0.07    0.07 
   3  -2  -8    0.14    0.08 
  -3  -2   8    0.06    0.06 
  -3   2   8    0.12    0.05 
   3   2  -8    0.10    0.05 
   2  -2  -8    0.24    0.07 
  -2  -2   8    0.27    0.07 
  -2   2   8    0.22    0.06 
   2   2  -8    0.21    0.06 
   1  -2  -8    0.30    0.07 
  -1  -2   8    0.17    0.06 
   1   2  -8    0.14    0.06 
  -1   2   8    0.15    0.06 
   0  -2  -8    0.04    0.06 
   0  -2   8    0.07    0.07 
   0  -2   8    0.09    0.05 
   0   2  -8    0.02    0.05 
   0   2   8   -0.02    0.03 
  -1  -2  -8    0.10    0.06 
   1  -2   8   -0.04    0.07 
   1  -2   8    0.13    0.05 
  -1   2  -8    0.13    0.07 
   2  -2   8    2.76    0.23 
   2  -2   8    3.23    0.19 
  -2  -2  -8    2.88    0.21 
   2   2   8    3.19    0.21 
   2   2   8    2.79    0.18 
   3  -2   8    9.70    0.50 
  -3  -2  -8    9.83    0.54 
   3  -2   8    9.77    0.54 
  -3   2  -8   10.90    0.56 
   3   2   8   10.07    0.52 
   3   2   8   10.26    0.50 
  -4  -2  -8    0.29    0.07 
   4  -2   8    0.35    0.10 
  -4   2  -8    0.30    0.10 
   4   2   8    0.33    0.09 
   4   2   8    0.49    0.08 
   5  -2   8    0.51    0.11 
   5   2   8    0.42    0.08 
  -5   2  -8    0.41    0.10 
   5   2   8    0.29    0.08 
   6  -2   8    0.02    0.08 
   6   2   8   -0.09    0.06 
   6   2   8    0.02    0.06 
  -6   2  -8   -0.02    0.08 
   7  -2   8   -0.02    0.09 
  -7   2  -8   -0.04    0.08 
   7   2   8    0.01    0.07 
   7   2   8   -0.14    0.06 
   8  -2   8    0.02    0.10 
   8   2   8    0.19    0.09 
   8   2   8    0.10    0.08 
  -8   2  -8    0.01    0.09 
   9  -2   8   -0.01    0.09 
   9   2   8    0.11    0.10 
  -9   2  -8   -0.09    0.08 
   9  -3  -8    0.22    0.15 
  -9  -3   8    0.13    0.12 
   9   3  -8    0.11    0.12 
   8  -3  -8    0.36    0.15 
  -8  -3   8    0.08    0.12 
   8   3  -8    0.07    0.11 
   7  -3  -8    0.13    0.12 
  -7  -3   8    0.21    0.11 
   7   3  -8    0.05    0.10 
   6  -3  -8   -0.06    0.09 
  -6  -3   8   -0.07    0.09 
  -6   3   8    0.10    0.06 
   6   3  -8   -0.06    0.08 
  -5  -3   8    0.30    0.10 
   5  -3  -8    0.33    0.11 
   5   3  -8    0.25    0.07 
   5   3  -8    0.25    0.10 
  -5   3   8    0.19    0.07 
   4  -3  -8    0.03    0.08 
  -4  -3   8    0.29    0.09 
   4   3  -8    0.17    0.06 
   4   3  -8    0.16    0.08 
  -4   3   8    0.08    0.06 
   3  -3  -8    0.00    0.08 
  -3  -3   8    0.08    0.08 
   3   3  -8   -0.07    0.05 
  -3   3   8   -0.01    0.05 
  -2  -3   8    0.15    0.08 
   2  -3  -8    0.00    0.08 
   2   3  -8    0.00    0.06 
  -2   3   8    0.00    0.06 
  -1  -3   8    0.03    0.07 
   1  -3  -8    0.01    0.08 
   1   3  -8   -0.07    0.06 
  -1   3   8   -0.07    0.06 
   0  -3  -8    3.35    0.25 
   0  -3   8    3.47    0.24 
   0   3  -8    3.30    0.26 
   0   3   8    3.04    0.22 
  -1  -3  -8    4.27    0.31 
   1  -3   8    4.71    0.29 
   1  -3   8    5.26    0.32 
  -1   3  -8    5.49    0.33 
   1   3   8    4.43    0.28 
   2  -3   8    0.05    0.07 
  -2  -3  -8    0.06    0.07 
   2  -3   8    0.03    0.08 
  -2   3  -8    0.12    0.08 
   2   3   8    0.00    0.06 
   3  -3   8    0.10    0.07 
  -3   3  -8    0.12    0.07 
   3   3   8    0.06    0.07 
   4  -3   8    0.69    0.11 
  -4   3  -8    0.56    0.11 
   4   3   8    0.50    0.11 
   5  -3   8    0.09    0.08 
   5   3   8    0.14    0.09 
  -5   3  -8    0.10    0.09 
   6  -3   8    1.25    0.17 
  -6   3  -8    0.71    0.14 
   6   3   8    0.86    0.13 
   7  -3   8    0.16    0.11 
  -7   3  -8    0.06    0.10 
   7   3   8    0.08    0.09 
   8  -3   8    0.25    0.13 
   8   3   8    0.13    0.10 
  -8   3  -8    0.11    0.12 
   7  -4  -8    0.15    0.13 
  -7  -4   8    0.05    0.11 
   7   4  -8   -0.04    0.10 
  -6  -4   8   -0.02    0.11 
   6  -4  -8   -0.03    0.11 
   6   4  -8    0.16    0.11 
   5  -4  -8   -0.03    0.11 
  -5  -4   8   -0.05    0.10 
  -5   4   8    0.02    0.07 
   5   4  -8   -0.08    0.08 
   4  -4  -8    0.30    0.12 
  -4  -4   8    0.36    0.11 
  -4   4   8    0.18    0.08 
   4   4  -8    0.10    0.09 
  -3  -4   8    0.11    0.10 
   3  -4  -8    0.29    0.12 
  -3   4   8   -0.04    0.08 
   3   4  -8    0.22    0.10 
   3   4  -8    0.03    0.07 
  -2  -4   8    1.85    0.19 
   2  -4  -8    2.04    0.21 
   2   4  -8    1.83    0.19 
  -2   4   8    1.52    0.15 
   1  -4  -8    3.49    0.29 
  -1  -4   8    3.62    0.27 
  -1   4   8    3.43    0.24 
   1   4  -8    3.72    0.27 
   0  -4   8   -0.01    0.08 
   0  -4  -8    0.10    0.09 
   0   4   8    0.03    0.07 
   0   4  -8   -0.06    0.07 
  -1  -4  -8    0.24    0.10 
   1  -4   8    0.16    0.09 
  -1   4  -8    0.22    0.09 
   1   4   8    0.08    0.08 
   2  -4   8    0.14    0.10 
   2   4   8    0.03    0.08 
  -2   4  -8   -0.02    0.09 
   3  -4   8    0.65    0.13 
  -3   4  -8    0.43    0.12 
   3   4   8    0.67    0.12 
   4  -4   8    0.08    0.10 
   4   4   8    0.01    0.09 
  -4   4  -8    0.03    0.09 
   5  -4   8    0.26    0.12 
  -5   4  -8   -0.01    0.10 
   5   4   8    0.16    0.11 
   6  -4   8    0.11    0.10 
  -6   4  -8   -0.14    0.11 
   6   4   8   -0.04    0.10 
  -3  -5   8    0.21    0.12 
   3  -5  -8    0.12    0.12 
   3   5  -8    0.48    0.13 
  -3   5   8    0.13    0.09 
   2  -5  -8    0.11    0.11 
  -2  -5   8    0.13    0.11 
  -2   5   8    0.11    0.10 
   1  -5  -8   -0.03    0.10 
   1   5  -8   -0.01    0.08 
  -1   5   8   -0.08    0.08 
   0   5  -8    0.04    0.08 
   0   5   8   -0.01    0.07 
  -1   5  -8   -0.09    0.07 
   1   5   8    0.03    0.09 
   2   5   8   -0.09    0.09 
  -2   5  -8    0.00    0.09 
   3  -5   8    0.60    0.15 
  -3   5  -8    0.64    0.15 
   3   5   8    0.48    0.14 
 -10   0   9   -0.16    0.08 
   9   0  -9    0.09    0.08 
  -9   0   9    0.02    0.08 
   9   0  -9    0.00    0.09 
  -8   0   9    0.12    0.08 
   8   0  -9    0.03    0.07 
   8   0  -9   -0.04    0.09 
   7   0  -9   -0.02    0.07 
  -7   0   9    0.04    0.07 
   7   0  -9   -0.03    0.08 
   6   0  -9   -0.17    0.08 
   6   0  -9   -0.14    0.09 
  -6   0   9   -0.03    0.08 
   5   0  -9    3.55    0.29 
  -5   0   9    2.89    0.22 
   5   0  -9    1.78    0.19 
  -4   0   9    0.65    0.11 
   4   0  -9    0.65    0.10 
   4   0  -9    0.76    0.12 
   3   0  -9    0.01    0.06 
   3   0  -9   -0.07    0.05 
  -3   0   9    0.00    0.03 
   2   0  -9    0.22    0.06 
  -2   0   9    0.01    0.02 
   1   0  -9    0.00    0.02 
  -1   0   9    0.04    0.04 
   0   0  -9    0.02    0.04 
   0   0   9    0.06    0.05 
   0   0   9    0.02    0.04 
   1   0   9   -0.06    0.04 
  -1   0  -9   -0.05    0.04 
   1   0   9   -0.01    0.05 
   2   0   9    0.04    0.05 
   2   0   9   -0.04    0.04 
  -2   0  -9   -0.01    0.05 
  -3   0  -9   -0.05    0.05 
   3   0   9    0.02    0.06 
   3   0   9    0.01    0.04 
  -4   0  -9   -0.03    0.05 
   4   0   9   -0.09    0.06 
   4   0   9   -0.04    0.04 
   5   0   9   -0.14    0.07 
  -5   0  -9   -0.08    0.06 
   5   0   9   -0.11    0.05 
   6   0   9    0.51    0.08 
  -6   0  -9    0.45    0.10 
   6   0   9    0.54    0.13 
  -7   0  -9    0.38    0.11 
   7   0   9    0.50    0.13 
   8   0   9    0.04    0.11 
   9   0   9   -0.04    0.10 
 -10  -1   9    0.22    0.11 
  10  -1  -9    0.26    0.13 
  10   1  -9    0.06    0.09 
  -9  -1   9    0.20    0.10 
   9  -1  -9    0.16    0.11 
  -9   1   9   -0.05    0.08 
   9   1  -9   -0.14    0.08 
  -8  -1   9    0.03    0.09 
   8  -1  -9    0.13    0.11 
   8   1  -9   -0.05    0.08 
   8   1  -9   -0.13    0.08 
  -8   1   9   -0.02    0.07 
   7  -1  -9    0.98    0.17 
  -7  -1   9    0.81    0.13 
   7   1  -9    0.90    0.13 
   7   1  -9    1.00    0.13 
  -7   1   9    0.91    0.12 
  -6  -1   9    0.83    0.14 
   6  -1  -9    0.49    0.13 
   6   1  -9    0.78    0.12 
   6   1  -9    1.00    0.13 
  -6   1   9    1.09    0.12 
   5  -1  -9   -0.05    0.08 
  -5  -1   9   -0.08    0.08 
   5   1  -9    0.13    0.08 
  -5   1   9    0.27    0.07 
   5   1  -9    0.20    0.08 
  -4  -1   9   -0.02    0.07 
   4  -1  -9   -0.18    0.08 
   4   1  -9   -0.07    0.06 
   4   1  -9    0.02    0.06 
  -4   1   9    0.20    0.06 
   3   1  -9    0.83    0.10 
   3   1  -9    0.73    0.09 
  -2  -1   9    0.21    0.06 
   2  -1  -9    0.11    0.05 
   2   1  -9    0.17    0.07 
  -2   1   9    0.29    0.07 
   1  -1  -9    1.84    0.16 
  -1  -1   9    1.41    0.12 
   1   1  -9    1.65    0.14 
   0  -1   9    0.11    0.06 
   0  -1   9    0.06    0.04 
   0  -1  -9    0.08    0.06 
   0   1   9    0.00    0.04 
   0   1   9    0.08    0.04 
   0   1  -9    0.01    0.02 
   1  -1   9    0.85    0.09 
  -1  -1  -9    0.82    0.09 
   1  -1   9    0.74    0.10 
   1   1   9    0.77    0.08 
   1   1   9    0.90    0.09 
   2  -1   9    0.98    0.09 
   2  -1   9    0.76    0.10 
  -2  -1  -9    0.93    0.10 
  -2   1  -9    0.75    0.11 
   2   1   9    0.81    0.09 
   2   1   9    0.83    0.10 
   3  -1   9    0.93    0.08 
  -3  -1  -9    0.87    0.10 
   3  -1   9    0.81    0.11 
  -3   1  -9    0.66    0.10 
   3   1   9    0.78    0.10 
   3   1   9    0.50    0.09 
  -4  -1  -9    6.31    0.37 
   4  -1   9    6.51    0.38 
   4  -1   9    6.94    0.34 
   4   1   9    6.74    0.36 
  -4   1  -9    6.94    0.39 
   4   1   9    6.54    0.37 
  -5  -1  -9    2.83    0.21 
   5  -1   9    2.77    0.24 
  -5   1  -9    2.97    0.23 
   5   1   9    2.96    0.22 
   5   1   9    2.81    0.20 
   6  -1   9    1.59    0.18 
  -6   1  -9    1.40    0.15 
   6   1   9    1.84    0.16 
   6   1   9    1.85    0.18 
   7  -1   9    0.35    0.12 
  -7   1  -9    0.56    0.10 
   7   1   9    0.47    0.11 
   7   1   9    0.39    0.08 
   8  -1   9    1.31    0.18 
   8   1   9    1.49    0.17 
  -8   1  -9    1.24    0.15 
   9  -1   9    0.08    0.12 
   9   1   9    0.24    0.11 
  -9  -2   9    0.24    0.12 
   9  -2  -9    0.03    0.13 
   9   2  -9    0.24    0.11 
   8  -2  -9    0.10    0.13 
  -8  -2   9    0.17    0.11 
  -8   2   9    0.09    0.08 
   8   2  -9    0.11    0.10 
  -7  -2   9    0.15    0.11 
   7  -2  -9    0.15    0.12 
   7   2  -9    0.01    0.09 
  -7   2   9    0.15    0.08 
   6  -2  -9    0.61    0.14 
  -6  -2   9    0.36    0.11 
  -6   2   9    0.41    0.08 
   6   2  -9    0.26    0.10 
   6   2  -9    0.38    0.09 
   5  -2  -9    0.16    0.10 
  -5  -2   9    0.04    0.08 
   5   2  -9   -0.04    0.07 
   5   2  -9    0.17    0.06 
  -5   2   9    0.06    0.06 
  -4  -2   9   -0.11    0.07 
   4  -2  -9   -0.05    0.07 
  -4   2   9    0.07    0.06 
   4   2  -9    0.02    0.07 
   4   2  -9    0.01    0.05 
   3  -2  -9    0.12    0.09 
  -3  -2   9    0.18    0.08 
  -3   2   9    0.24    0.06 
   3   2  -9    0.19    0.06 
   2  -2  -9    0.80    0.12 
  -2  -2   9    0.94    0.12 
  -2   2   9    0.92    0.10 
   2   2  -9    0.91    0.10 
   1  -2  -9    0.49    0.09 
  -1  -2   9    0.35    0.08 
  -1   2   9    0.38    0.08 
   1   2  -9    0.32    0.08 
   0  -2   9    0.09    0.08 
   0  -2   9    0.23    0.06 
   0  -2  -9    0.17    0.07 
   0   2  -9    0.09    0.07 
   0   2   9    0.11    0.05 
   1  -2   9    1.38    0.15 
  -1  -2  -9    1.50    0.14 
   1  -2   9    1.49    0.13 
   1   2   9    1.04    0.12 
  -1   2  -9    1.24    0.13 
   2  -2   9    8.97    0.49 
   2  -2   9    8.64    0.44 
  -2  -2  -9    7.80    0.47 
  -2   2  -9    8.95    0.48 
   2   2   9    8.65    0.45 
  -3  -2  -9    1.20    0.13 
   3  -2   9    1.29    0.15 
   3  -2   9    1.43    0.12 
  -3   2  -9    1.77    0.17 
   3   2   9    1.10    0.13 
  -4  -2  -9    1.55    0.17 
   4  -2   9    2.13    0.20 
   4   2   9    1.62    0.17 
   4   2   9    2.01    0.15 
  -4   2  -9    1.83    0.19 
   5  -2   9    0.28    0.11 
   5   2   9    0.20    0.08 
  -5   2  -9    0.05    0.08 
   5   2   9    0.11    0.07 
   6  -2   9    0.06    0.09 
  -6   2  -9    0.12    0.09 
   6   2   9    0.04    0.07 
   6   2   9    0.28    0.08 
   7  -2   9   -0.04    0.09 
   7   2   9    0.11    0.08 
  -7   2  -9    0.01    0.08 
   7   2   9    0.02    0.07 
   8  -2   9    0.05    0.09 
  -8   2  -9   -0.10    0.08 
   8   2   9   -0.01    0.08 
   8   2   9    0.04    0.08 
   9  -2   9    0.58    0.15 
   9   2   9    0.44    0.12 
  -9   2  -9    0.16    0.11 
  -8  -3   9    0.29    0.13 
   8  -3  -9    0.55    0.16 
   8   3  -9    0.17    0.11 
   7  -3  -9    0.17    0.13 
  -7  -3   9    0.02    0.10 
   7   3  -9   -0.01    0.09 
   6  -3  -9    0.13    0.11 
  -6  -3   9    0.12    0.10 
  -6   3   9    0.02    0.07 
   6   3  -9   -0.03    0.09 
  -5  -3   9    0.13    0.10 
   5  -3  -9    0.28    0.12 
   5   3  -9    0.03    0.09 
   5   3  -9    0.03    0.06 
  -5   3   9    0.17    0.08 
  -4  -3   9   -0.03    0.09 
   4  -3  -9    0.02    0.10 
   4   3  -9    0.06    0.06 
   4   3  -9   -0.11    0.07 
  -4   3   9    0.01    0.06 
  -3  -3   9   -0.03    0.08 
   3  -3  -9   -0.05    0.08 
   3   3  -9   -0.04    0.06 
  -3   3   9   -0.02    0.06 
   2  -3  -9    0.17    0.10 
  -2  -3   9    0.07    0.09 
   2   3  -9    0.06    0.07 
  -2   3   9    0.04    0.06 
   1  -3  -9    0.04    0.08 
  -1  -3   9    0.12    0.08 
   1   3  -9   -0.06    0.07 
  -1   3   9   -0.11    0.07 
   0  -3  -9    5.48    0.36 
   0  -3   9    5.54    0.34 
   0   3  -9    6.50    0.36 
   0   3   9    5.35    0.32 
   1  -3   9    2.12    0.21 
  -1  -3  -9    1.99    0.20 
   1  -3   9    2.10    0.20 
  -1   3  -9    2.38    0.20 
   1   3   9    1.81    0.17 
  -2  -3  -9    0.02    0.07 
   2  -3   9    0.13    0.07 
   2  -3   9    0.03    0.08 
   2   3   9    0.05    0.07 
  -2   3  -9    0.06    0.07 
   3  -3   9    0.48    0.11 
   3   3   9    0.47    0.10 
  -3   3  -9    0.36    0.09 
   4  -3   9    0.10    0.08 
  -4   3  -9   -0.07    0.07 
   4   3   9   -0.12    0.07 
   5  -3   9    0.52    0.12 
   5   3   9    0.82    0.13 
  -5   3  -9    0.59    0.12 
   6  -3   9    0.36    0.12 
  -6   3  -9    0.17    0.11 
   6   3   9    0.27    0.10 
   7  -3   9    0.04    0.11 
   7   3   9    0.16    0.11 
  -7   3  -9    0.25    0.12 
   6  -4  -9    0.09    0.13 
  -6  -4   9    0.09    0.12 
   6   4  -9    0.12    0.11 
  -5  -4   9   -0.11    0.09 
   5  -4  -9    0.10    0.12 
  -5   4   9   -0.09    0.07 
   5   4  -9   -0.03    0.09 
  -4  -4   9   -0.01    0.10 
   4  -4  -9   -0.09    0.11 
  -4   4   9    0.00    0.08 
   4   4  -9    0.01    0.08 
   3  -4  -9    0.14    0.11 
  -3  -4   9    0.09    0.10 
  -3   4   9    0.04    0.08 
   3   4  -9    0.03    0.07 
   3   4  -9    0.09    0.09 
   2  -4  -9    0.31    0.12 
  -2  -4   9    0.38    0.11 
   2   4  -9    0.33    0.09 
  -2   4   9    0.34    0.10 
   1  -4  -9    0.44    0.12 
  -1  -4   9    0.42    0.11 
  -1   4   9    0.31    0.10 
   1   4  -9    0.17    0.08 
   0  -4  -9   -0.14    0.08 
   0  -4   9   -0.08    0.08 
   0   4   9   -0.05    0.08 
   0   4  -9    0.11    0.08 
  -1  -4  -9    0.02    0.09 
  -1   4  -9    0.00    0.08 
   1   4   9    0.01    0.07 
   2  -4   9   -0.10    0.07 
   2   4   9   -0.07    0.07 
  -2   4  -9    0.00    0.09 
   3  -4   9    0.04    0.09 
   3   4   9   -0.05    0.07 
  -3   4  -9   -0.07    0.09 
   4  -4   9    0.11    0.11 
  -4   4  -9   -0.06    0.09 
   4   4   9    0.09    0.09 
   5  -4   9    0.45    0.14 
   5   4   9    0.23    0.12 
  -5   4  -9    0.39    0.13 
   2  -5  -9    0.12    0.11 
  -2  -5   9    0.03    0.11 
  -2   5   9   -0.04    0.09 
   1  -5  -9    0.02    0.10 
  -1  -5   9    0.07    0.11 
  -1   5   9    0.04    0.09 
   1   5  -9    0.08    0.09 
   0   5   9    0.07    0.09 
   1   5   9   -0.01    0.09 
  -1   5  -9   -0.02    0.09 
 -10   0  10    0.07    0.09 
  -9   0  10    0.03    0.09 
   9   0 -10   -0.06    0.10 
   8   0 -10    0.16    0.10 
  -8   0  10    0.09    0.09 
  -7   0  10    0.05    0.08 
   7   0 -10    0.02    0.07 
   7   0 -10    0.05    0.09 
   6   0 -10    0.15    0.08 
   6   0 -10    0.12    0.10 
  -6   0  10    0.13    0.08 
   5   0 -10    6.24    0.39 
   5   0 -10    5.04    0.31 
  -5   0  10    5.46    0.33 
  -4   0  10    1.88    0.17 
   4   0 -10    1.88    0.18 
   4   0 -10    1.91    0.17 
   3   0 -10    0.27    0.09 
   3   0 -10    0.02    0.06 
  -3   0  10    0.19    0.07 
   2   0 -10    0.93    0.10 
  -2   0  10    0.80    0.09 
   1   0 -10    0.01    0.02 
  -1   0  10    0.02    0.05 
   0   0 -10    0.07    0.06 
   0   0  10    0.08    0.05 
   0   0  10    0.04    0.04 
   1   0  10    0.09    0.06 
  -1   0 -10    0.05    0.05 
   1   0  10   -0.05    0.04 
   2   0  10    0.10    0.06 
  -2   0 -10    0.04    0.06 
   2   0  10    0.08    0.05 
   3   0  10    0.55    0.08 
   3   0  10    0.61    0.10 
  -3   0 -10    0.56    0.09 
   4   0  10    0.20    0.09 
   4   0  10    0.35    0.07 
  -4   0 -10    0.24    0.08 
   5   0  10   -0.05    0.06 
  -5   0 -10   -0.06    0.08 
   5   0  10   -0.08    0.09 
  -6   0 -10   17.17    0.90 
   6   0  10   18.31    0.91 
  -7   0 -10    0.54    0.11 
   7   0  10    0.72    0.15 
   8   0  10    1.50    0.20 
   9   0  10   -0.15    0.10 
   9  -1 -10    0.10    0.12 
  -9  -1  10    0.05    0.10 
  -9   1  10   -0.03    0.08 
   9   1 -10   -0.10    0.08 
  -8  -1  10    0.17    0.10 
   8  -1 -10   -0.01    0.11 
   8   1 -10    0.25    0.10 
   8   1 -10   -0.04    0.08 
  -8   1  10   -0.02    0.08 
   7  -1 -10    0.51    0.14 
  -7  -1  10    0.61    0.13 
   7   1 -10    0.60    0.12 
   7   1 -10    0.59    0.12 
  -7   1  10    0.43    0.10 
  -6  -1  10    0.17    0.10 
   6  -1 -10    0.05    0.10 
  -6   1  10    0.22    0.09 
   6   1 -10    0.22    0.09 
   6   1 -10    0.24    0.09 
  -5  -1  10    0.12    0.08 
   5  -1 -10    0.14    0.10 
   5   1 -10    0.01    0.08 
  -5   1  10    0.22    0.08 
   5   1 -10    0.12    0.08 
   4  -1 -10    0.53    0.13 
  -4  -1  10    0.34    0.10 
  -4   1  10    0.56    0.09 
   4   1 -10    0.44    0.10 
   4   1 -10    0.62    0.10 
  -3  -1  10    1.98    0.17 
  -3   1  10    1.73    0.15 
   3   1 -10    2.20    0.20 
  -2  -1  10    0.25    0.07 
   2  -1 -10    0.28    0.08 
  -2   1  10    0.12    0.07 
   2   1 -10    0.20    0.07 
  -1  -1  10    0.05    0.06 
   1  -1 -10    0.12    0.07 
  -1   1  10    0.05    0.04 
   1   1 -10    0.11    0.07 
   0  -1 -10    0.20    0.07 
   0  -1  10    0.25    0.07 
   0  -1  10    0.15    0.07 
   0   1  10    0.17    0.07 
   0   1 -10    0.06    0.04 
   1  -1  10    0.01    0.06 
   1  -1  10   -0.03    0.04 
  -1  -1 -10    0.00    0.05 
  -1   1 -10   -0.09    0.05 
   1   1  10    0.03    0.05 
   1   1  10   -0.07    0.06 
  -2  -1 -10    0.06    0.05 
   2  -1  10    0.05    0.07 
   2  -1  10    0.07    0.05 
   2   1  10   -0.01    0.06 
   2   1  10   -0.06    0.05 
   3  -1  10    0.14    0.05 
  -3  -1 -10    0.19    0.07 
   3  -1  10    0.04    0.08 
   3   1  10   -0.02    0.07 
  -3   1 -10   -0.06    0.08 
   3   1  10   -0.01    0.07 
   4  -1  10    7.02    0.37 
   4  -1  10    7.27    0.43 
  -4  -1 -10    7.35    0.41 
   4   1  10    7.22    0.40 
  -4   1 -10    7.28    0.42 
   4   1  10    7.31    0.39 
   5  -1  10    0.34    0.12 
  -5  -1 -10    0.23    0.08 
  -5   1 -10    0.32    0.09 
   5   1  10    0.36    0.08 
   5   1  10    0.34    0.10 
   6  -1  10   -0.01    0.09 
   6   1  10    0.00    0.06 
   6   1  10    0.03    0.09 
  -6   1 -10    0.10    0.08 
   7  -1  10   -0.07    0.11 
   7   1  10    0.12    0.09 
   7   1  10    0.10    0.07 
  -7   1 -10    0.08    0.08 
   8  -1  10    1.59    0.20 
  -8   1 -10    1.05    0.15 
   8   1  10    1.44    0.18 
   9  -1  10    0.20    0.13 
   9   1  10    0.02    0.11 
  -9  -2  10    0.03    0.12 
   9  -2 -10    0.22    0.15 
   9   2 -10    0.10    0.10 
  -8  -2  10    0.06    0.11 
   8  -2 -10    0.16    0.14 
   8   2 -10    0.07    0.09 
  -8   2  10    0.16    0.09 
   7  -2 -10   -0.05    0.12 
  -7  -2  10    0.14    0.11 
   7   2 -10    0.09    0.09 
  -7   2  10    0.11    0.08 
  -6  -2  10    0.26    0.11 
   6  -2 -10   -0.03    0.11 
  -6   2  10    0.08    0.07 
   6   2 -10    0.21    0.10 
   6   2 -10    0.30    0.08 
  -5  -2  10    0.06    0.08 
   5  -2 -10    0.08    0.09 
   5   2 -10    0.01    0.08 
   5   2 -10    0.04    0.07 
  -5   2  10    0.10    0.06 
  -4  -2  10   -0.05    0.08 
   4  -2 -10   -0.16    0.07 
  -4   2  10   -0.01    0.05 
   4   2 -10   -0.11    0.06 
   4   2 -10    0.05    0.06 
  -3  -2  10    0.18    0.08 
   3  -2 -10    0.05    0.09 
  -3   2  10    0.18    0.07 
   3   2 -10    0.04    0.06 
  -2  -2  10   -0.03    0.06 
   2  -2 -10   -0.19    0.07 
  -2   2  10    0.00    0.06 
   2   2 -10    0.08    0.07 
  -1  -2  10    0.70    0.11 
   1  -2 -10    0.93    0.13 
  -1   2  10    0.42    0.10 
   1   2 -10    0.37    0.10 
   0  -2  10    0.05    0.09 
   0  -2  10    0.05    0.07 
   0  -2 -10    0.16    0.08 
   0   2 -10    0.03    0.08 
   0   2  10    0.07    0.07 
  -1  -2 -10    0.89    0.12 
   1  -2  10    1.01    0.11 
   1  -2  10    0.56    0.12 
  -1   2 -10    0.66    0.12 
   1   2  10    0.81    0.11 
  -2  -2 -10    2.96    0.25 
   2  -2  10    3.90    0.28 
   2  -2  10    3.55    0.22 
  -2   2 -10    4.02    0.25 
   2   2  10    3.52    0.24 
   3  -2  10    1.41    0.15 
   3  -2  10    2.62    0.20 
  -3  -2 -10    1.58    0.17 
   3   2  10    2.07    0.17 
  -3   2 -10    1.66    0.17 
  -4  -2 -10    0.04    0.06 
   4  -2  10   -0.01    0.08 
   4   2  10    0.05    0.08 
  -4   2 -10    0.08    0.08 
   5  -2  10   -0.04    0.09 
   5   2  10    0.13    0.08 
  -5   2 -10   -0.02    0.07 
   6  -2  10    0.05    0.10 
   6   2  10    0.08    0.08 
  -6   2 -10   -0.02    0.09 
   7  -2  10    0.00    0.11 
  -7   2 -10   -0.05    0.08 
   7   2  10    0.03    0.08 
   8  -2  10    0.00    0.12 
  -8   2 -10   -0.02    0.09 
   8   2  10   -0.01    0.08 
   8   2  10    0.11    0.09 
  -7  -3  10   -0.02    0.11 
   7  -3 -10    0.17    0.14 
   7   3 -10    0.01    0.09 
   6  -3 -10    0.12    0.12 
  -6  -3  10    0.27    0.12 
  -6   3  10   -0.02    0.07 
   6   3 -10    0.02    0.09 
   5  -3 -10   -0.01    0.11 
  -5  -3  10   -0.04    0.09 
  -5   3  10    0.07    0.07 
   5   3 -10    0.02    0.06 
   5   3 -10   -0.04    0.09 
  -4  -3  10    0.19    0.11 
   4  -3 -10   -0.01    0.11 
  -4   3  10    0.25    0.08 
   4   3 -10    0.11    0.09 
   4   3 -10    0.18    0.07 
  -3  -3  10   -0.02    0.08 
   3  -3 -10    0.07    0.09 
   3   3 -10   -0.06    0.06 
  -3   3  10    0.05    0.07 
  -2  -3  10   -0.04    0.07 
   2  -3 -10   -0.02    0.08 
   2   3 -10   -0.01    0.07 
  -2   3  10   -0.04    0.06 
  -1  -3  10   -0.13    0.08 
   1  -3 -10   -0.07    0.08 
   1   3 -10    0.07    0.08 
  -1   3  10   -0.02    0.07 
   0  -3  10    0.32    0.10 
   0  -3 -10    0.19    0.09 
   0   3 -10    0.36    0.09 
   0   3  10    0.31    0.09 
   1  -3  10    0.93    0.15 
  -1  -3 -10    1.15    0.13 
   1  -3  10    0.97    0.12 
   1   3  10    0.76    0.12 
  -1   3 -10    0.68    0.12 
   2  -3  10    0.05    0.08 
  -2  -3 -10    0.06    0.07 
   2  -3  10    0.06    0.07 
  -2   3 -10    0.15    0.08 
   2   3  10    0.06    0.08 
   3  -3  10    0.17    0.10 
  -3   3 -10    0.09    0.08 
   3   3  10    0.13    0.08 
   4  -3  10    0.19    0.10 
   4   3  10    0.19    0.09 
  -4   3 -10    0.17    0.10 
   5  -3  10    0.13    0.09 
  -5   3 -10    0.09    0.10 
   5   3  10    0.11    0.09 
   6  -3  10   -0.01    0.08 
   6   3  10   -0.03    0.09 
  -6   3 -10   -0.03    0.10 
   7  -3  10    0.81    0.16 
   7   3  10    0.58    0.13 
  -7   3 -10    0.93    0.15 
  -5  -4  10    0.05    0.11 
   5  -4 -10    0.14    0.12 
  -5   4  10   -0.02    0.07 
   5   4 -10    0.00    0.09 
   4  -4 -10    0.10    0.13 
  -4  -4  10    0.07    0.11 
  -4   4  10   -0.04    0.07 
   4   4 -10    0.07    0.10 
   3  -4 -10    0.08    0.11 
  -3  -4  10    0.03    0.10 
  -3   4  10   -0.06    0.08 
   3   4 -10    0.04    0.09 
   3   4 -10   -0.06    0.07 
   2  -4 -10    0.18    0.11 
  -2  -4  10    0.28    0.11 
   2   4 -10    0.15    0.08 
  -2   4  10    0.10    0.08 
   1  -4 -10    0.03    0.10 
  -1  -4  10   -0.04    0.09 
   1   4 -10    0.05    0.08 
  -1   4  10   -0.10    0.07 
   0  -4  10    0.08    0.09 
   0  -4 -10    0.13    0.10 
   0   4  10    0.10    0.09 
   0   4 -10   -0.02    0.08 
  -1   4 -10    0.01    0.08 
   1   4  10    0.15    0.10 
   2  -4  10    0.09    0.10 
  -2   4 -10    0.19    0.11 
   2   4  10    0.16    0.10 
   3  -4  10    0.18    0.11 
   3   4  10    0.03    0.09 
  -3   4 -10    0.01    0.10 
   4  -4  10    0.12    0.11 
   4   4  10    0.18    0.11 
  -4   4 -10    0.20    0.12 
  -9   0  11    0.12    0.09 
   9   0 -11   -0.18    0.10 
   8   0 -11   -0.06    0.10 
  -8   0  11    0.10    0.09 
   7   0 -11    0.02    0.09 
  -7   0  11    0.03    0.08 
   6   0 -11    0.16    0.11 
  -6   0  11    0.10    0.08 
   5   0 -11    0.59    0.12 
  -5   0  11    0.45    0.10 
   4   0 -11   -0.02    0.08 
  -4   0  11   -0.11    0.08 
   4   0 -11    0.01    0.06 
   3   0 -11   -0.07    0.06 
  -3   0  11    0.19    0.08 
   3   0 -11    0.19    0.09 
   2   0 -11    0.42    0.09 
  -2   0  11    0.25    0.08 
   1   0 -11   -0.03    0.05 
  -1   0  11   -0.05    0.05 
   0   0  11    0.06    0.06 
   0   0  11   -0.03    0.05 
   0   0 -11   -0.05    0.06 
   1   0  11    0.06    0.06 
  -1   0 -11    0.02    0.06 
   1   0  11    0.00    0.06 
   2   0  11    0.01    0.05 
   2   0  11    0.11    0.07 
  -2   0 -11    0.01    0.06 
  -3   0 -11   -0.10    0.06 
   3   0  11   -0.02    0.06 
   3   0  11   -0.05    0.07 
  -4   0 -11   -0.09    0.07 
   4   0  11    0.01    0.06 
   4   0  11   -0.14    0.08 
  -5   0 -11   -0.04    0.10 
   5   0  11   -0.01    0.07 
   5   0  11   -0.03    0.10 
   6   0  11    0.72    0.15 
  -7   0 -11    0.07    0.09 
   7   0  11   -0.01    0.12 
   8   0  11    0.08    0.12 
   9  -1 -11    0.06    0.12 
  -9  -1  11   -0.02    0.10 
  -9   1  11   -0.01    0.08 
   9   1 -11    0.05    0.09 
  -8  -1  11    0.05    0.09 
   8  -1 -11    0.10    0.12 
   8   1 -11   -0.14    0.08 
   8   1 -11    0.06    0.09 
  -8   1  11    0.03    0.08 
  -7  -1  11    0.09    0.10 
   7  -1 -11    0.20    0.12 
   7   1 -11    0.07    0.09 
   7   1 -11    0.04    0.09 
  -7   1  11   -0.04    0.08 
   6  -1 -11    0.17    0.10 
  -6  -1  11    0.03    0.09 
   6   1 -11    0.07    0.09 
   6   1 -11    0.09    0.08 
  -6   1  11    0.19    0.08 
   5  -1 -11    0.14    0.09 
  -5  -1  11    0.16    0.09 
   5   1 -11    0.21    0.08 
  -5   1  11    0.14    0.08 
   5   1 -11    0.09    0.08 
  -4  -1  11    0.53    0.10 
   4  -1 -11    0.82    0.14 
   4   1 -11    0.30    0.09 
  -4   1  11    0.69    0.09 
   4   1 -11    0.49    0.10 
   3   1 -11    1.20    0.14 
   3   1 -11    1.20    0.14 
  -3   1  11    1.36    0.14 
  -2  -1  11    0.03    0.06 
   2  -1 -11    0.09    0.09 
   2   1 -11    0.10    0.08 
  -2   1  11    0.00    0.06 
   1  -1 -11    0.46    0.09 
  -1  -1  11    0.53    0.09 
  -1   1  11    0.24    0.07 
   1   1 -11    0.28    0.08 
   0  -1 -11    0.60    0.10 
   0  -1  11    0.68    0.10 
   0  -1  11    0.54    0.10 
   0   1 -11    0.55    0.09 
   0   1  11    0.59    0.09 
   1  -1  11    0.30    0.07 
  -1  -1 -11    0.20    0.08 
   1  -1  11    0.31    0.09 
  -1   1 -11    0.26    0.08 
   1   1  11    0.15    0.07 
   2  -1  11    0.05    0.08 
  -2  -1 -11    0.04    0.06 
   2  -1  11    0.11    0.06 
   2   1  11   -0.15    0.06 
  -2   1 -11    0.00    0.07 
   3  -1  11    0.55    0.08 
  -3  -1 -11    0.52    0.09 
   3  -1  11    0.29    0.10 
  -3   1 -11    0.48    0.10 
   3   1  11    0.50    0.10 
   3   1  11    0.43    0.09 
   4  -1  11    2.00    0.16 
   4  -1  11    1.97    0.20 
  -4  -1 -11    1.77    0.17 
  -4   1 -11    1.96    0.18 
   4   1  11    1.92    0.16 
   4   1  11    2.12    0.18 
   5  -1  11    0.28    0.12 
  -5  -1 -11    0.18    0.09 
   5   1  11    0.26    0.09 
   5   1  11    0.47    0.09 
  -5   1 -11    0.51    0.11 
   6  -1  11   -0.12    0.10 
  -6   1 -11    0.04    0.08 
   6   1  11    0.09    0.09 
   6   1  11    0.17    0.08 
   7  -1  11    0.29    0.13 
  -7   1 -11    0.32    0.10 
   7   1  11    0.56    0.13 
   8  -1  11    1.88    0.21 
  -8   1 -11    1.39    0.17 
   8   1  11    1.82    0.21 
   8  -2 -11    0.15    0.13 
  -8  -2  11   -0.05    0.11 
   8   2 -11    0.02    0.09 
  -8   2  11    0.07    0.09 
   7  -2 -11   -0.08    0.12 
  -7  -2  11   -0.02    0.10 
  -7   2  11   -0.01    0.08 
   7   2 -11   -0.06    0.08 
   6  -2 -11    0.09    0.12 
  -6  -2  11    0.08    0.09 
   6   2 -11    0.04    0.07 
  -6   2  11    0.07    0.07 
   6   2 -11   -0.17    0.07 
  -5  -2  11   -0.03    0.07 
   5  -2 -11    0.03    0.09 
   5   2 -11   -0.12    0.07 
   5   2 -11   -0.08    0.06 
  -5   2  11   -0.09    0.06 
  -4  -2  11    0.12    0.09 
   4  -2 -11    0.02    0.08 
   4   2 -11    0.02    0.08 
   4   2 -11   -0.04    0.06 
  -4   2  11    0.04    0.07 
  -3  -2  11    0.04    0.08 
   3  -2 -11   -0.01    0.08 
  -3   2  11    0.20    0.07 
   3   2 -11    0.04    0.07 
  -2  -2  11    0.23    0.10 
   2  -2 -11    0.13    0.10 
   2   2 -11    0.28    0.09 
  -2   2  11    0.22    0.08 
  -1  -2  11    1.95    0.18 
   1  -2 -11    2.04    0.19 
   1   2 -11    1.17    0.15 
  -1   2  11    1.66    0.16 
   0  -2 -11    0.00    0.08 
   0  -2  11    0.10    0.07 
   0   2  11    0.10    0.07 
   0   2 -11    0.08    0.08 
  -1  -2 -11    0.13    0.08 
   1  -2  11    0.11    0.10 
   1  -2  11    0.20    0.07 
  -1   2 -11    0.16    0.09 
   1   2  11    0.26    0.09 
   2  -2  11    1.05    0.12 
   2  -2  11    0.94    0.15 
  -2  -2 -11    1.29    0.14 
  -2   2 -11    1.10    0.14 
   2   2  11    0.96    0.12 
  -3  -2 -11   -0.07    0.06 
   3  -2  11    0.02    0.09 
   3  -2  11   -0.14    0.05 
  -3   2 -11    0.01    0.07 
   3   2  11   -0.03    0.07 
   4  -2  11   -0.02    0.08 
  -4  -2 -11    0.02    0.06 
   4   2  11    0.01    0.07 
  -4   2 -11    0.00    0.08 
   5  -2  11   -0.11    0.08 
   5   2  11    0.05    0.07 
  -5   2 -11    0.01    0.09 
   6  -2  11    0.06    0.11 
   6   2  11    0.00    0.08 
  -6   2 -11    0.11    0.10 
   7  -2  11    0.10    0.13 
  -7   2 -11   -0.12    0.08 
   7   2  11    0.08    0.09 
   7  -3 -11    0.10    0.14 
  -7  -3  11   -0.05    0.11 
   7   3 -11   -0.09    0.09 
   6  -3 -11    0.00    0.11 
  -6  -3  11    0.03    0.11 
   6   3 -11    0.01    0.10 
  -6   3  11   -0.07    0.07 
   5  -3 -11   -0.04    0.10 
  -5  -3  11    0.08    0.09 
  -5   3  11    0.06    0.07 
   5   3 -11    0.11    0.10 
   5   3 -11    0.08    0.07 
  -4  -3  11    0.20    0.11 
   4  -3 -11    0.07    0.12 
   4   3 -11    0.06    0.07 
  -4   3  11    0.08    0.08 
   4   3 -11    0.02    0.08 
  -3  -3  11   -0.03    0.08 
   3  -3 -11   -0.09    0.09 
   3   3 -11   -0.08    0.06 
  -3   3  11    0.01    0.07 
  -2  -3  11   -0.16    0.06 
   2  -3 -11   -0.08    0.08 
   2   3 -11   -0.05    0.07 
  -2   3  11   -0.09    0.07 
  -1  -3  11    0.04    0.09 
   1  -3 -11    0.05    0.09 
  -1   3  11    0.02    0.07 
   1   3 -11    0.05    0.08 
   0  -3 -11   -0.06    0.08 
   0  -3  11    0.17    0.09 
   0   3 -11    0.07    0.08 
   0   3  11    0.26    0.09 
   1  -3  11    0.42    0.12 
  -1  -3 -11    0.56    0.11 
   1  -3  11    0.51    0.10 
  -1   3 -11    0.34    0.11 
   1   3  11    0.36    0.10 
  -2  -3 -11    0.36    0.09 
   2  -3  11    0.16    0.11 
  -2   3 -11    0.31    0.11 
   2   3  11    0.32    0.09 
   3  -3  11    0.08    0.11 
  -3   3 -11   -0.02    0.09 
   3   3  11   -0.01    0.08 
   4  -3  11    0.04    0.09 
   4   3  11    0.05    0.09 
  -4   3 -11    0.03    0.09 
   5  -3  11    0.06    0.11 
   5   3  11   -0.14    0.08 
  -5   3 -11    0.06    0.10 
   6  -3  11    0.29    0.12 
   6   3  11    0.17    0.11 
  -6   3 -11    0.16    0.12 
  -4  -4  11    0.32    0.12 
   4  -4 -11    0.46    0.16 
   4   4 -11   -0.02    0.10 
  -4   4  11   -0.05    0.08 
  -3  -4  11    0.16    0.11 
   3  -4 -11   -0.01    0.11 
   3   4 -11    0.00    0.07 
  -3   4  11   -0.08    0.08 
   3   4 -11    0.05    0.10 
  -2  -4  11   -0.02    0.10 
   2  -4 -11    0.00    0.11 
  -2   4  11    0.04    0.08 
   2   4 -11    0.07    0.08 
   1  -4 -11   -0.08    0.09 
  -1  -4  11    0.02    0.09 
   1   4 -11   -0.04    0.08 
  -1   4  11   -0.07    0.08 
   0  -4  11   -0.08    0.08 
   0  -4 -11   -0.04    0.10 
   0   4 -11    0.02    0.09 
   0   4  11   -0.04    0.08 
  -1   4 -11   -0.02    0.09 
   1   4  11    0.13    0.10 
   2  -4  11   -0.05    0.09 
   2   4  11    0.02    0.09 
  -2   4 -11   -0.01    0.10 
   3  -4  11    0.13    0.11 
   3   4  11    0.02    0.10 
  -3   4 -11    0.22    0.13 
   8   0 -12    0.11    0.11 
  -8   0  12   -0.10    0.07 
   7   0 -12   -0.11    0.09 
  -7   0  12    0.03    0.08 
   6   0 -12    0.00    0.10 
  -6   0  12    0.03    0.08 
  -5   0  12    0.10    0.08 
   5   0 -12    0.14    0.09 
   4   0 -12   -0.06    0.08 
  -4   0  12   -0.09    0.08 
   3   0 -12    0.55    0.11 
  -3   0  12    0.45    0.09 
   2   0 -12    0.36    0.09 
  -2   0  12    0.28    0.08 
   1   0 -12    0.02    0.07 
  -1   0  12   -0.07    0.05 
   0   0 -12   -0.01    0.06 
   0   0  12    0.04    0.06 
  -1   0 -12    0.09    0.07 
   1   0  12    0.17    0.07 
   1   0  12    0.10    0.07 
  -2   0 -12   -0.01    0.07 
   2   0  12    0.07    0.07 
   2   0  12    0.01    0.06 
   3   0  12    0.31    0.09 
  -3   0 -12    0.42    0.09 
   3   0  12    0.38    0.08 
   4   0  12    0.08    0.10 
   4   0  12    0.00    0.06 
  -4   0 -12    0.08    0.08 
  -5   0 -12    1.73    0.19 
   5   0  12    2.04    0.21 
   5   0  12    2.35    0.18 
   6   0  12    1.97    0.21 
  -6   0 -12    2.25    0.20 
   7   0  12    0.02    0.11 
  -8  -1  12    0.00    0.11 
   8  -1 -12    0.03    0.13 
   8   1 -12    0.02    0.09 
  -8   1  12    0.22    0.09 
   7  -1 -12   -0.01    0.10 
  -7  -1  12    0.15    0.10 
  -7   1  12    0.06    0.08 
   7   1 -12    0.16    0.11 
   7   1 -12   -0.08    0.08 
   6  -1 -12    0.10    0.11 
  -6  -1  12    0.02    0.09 
  -6   1  12    0.07    0.08 
   6   1 -12    0.02    0.07 
   6   1 -12    0.14    0.09 
   5  -1 -12   -0.10    0.09 
  -5  -1  12    0.06    0.08 
   5   1 -12    0.01    0.07 
   5   1 -12   -0.07    0.07 
  -5   1  12    0.01    0.06 
   4  -1 -12    0.03    0.09 
  -4  -1  12    0.14    0.08 
   4   1 -12   -0.05    0.07 
  -4   1  12    0.02    0.07 
   4   1 -12    0.03    0.07 
   3  -1 -12    0.26    0.10 
  -3  -1  12    0.21    0.08 
   3   1 -12   -0.01    0.08 
  -3   1  12    0.10    0.08 
   3   1 -12    0.16    0.08 
  -2  -1  12    0.06    0.08 
   2  -1 -12    0.12    0.09 
   2   1 -12    0.05    0.08 
  -2   1  12   -0.04    0.06 
  -1  -1  12    0.47    0.10 
   1  -1 -12    0.48    0.10 
   1   1 -12    0.25    0.08 
  -1   1  12    0.22    0.08 
   0  -1 -12    0.03    0.08 
   0  -1  12    0.07    0.07 
   0   1  12    0.16    0.07 
   0   1 -12    0.18    0.08 
   1  -1  12    0.04    0.08 
   1  -1  12    0.07    0.06 
  -1  -1 -12    0.02    0.07 
  -1   1 -12   -0.01    0.07 
   1   1  12   -0.01    0.06 
   2  -1  12    0.09    0.06 
  -2  -1 -12    0.07    0.07 
   2  -1  12    0.12    0.09 
  -2   1 -12    0.02    0.08 
   2   1  12    0.04    0.06 
  -3  -1 -12    0.26    0.08 
   3  -1  12    0.17    0.10 
   3  -1  12    0.13    0.07 
  -3   1 -12    0.22    0.09 
   3   1  12    0.40    0.09 
   4  -1  12   -0.01    0.06 
   4  -1  12    0.19    0.11 
  -4  -1 -12   -0.02    0.07 
  -4   1 -12    0.18    0.09 
   4   1  12    0.13    0.07 
  -5  -1 -12   -0.17    0.07 
   5  -1  12   -0.07    0.10 
  -5   1 -12   -0.03    0.08 
   5   1  12   -0.08    0.06 
   6  -1  12    0.06    0.12 
  -6   1 -12    0.11    0.09 
   6   1  12    0.22    0.09 
   7  -1  12    0.37    0.14 
  -7   1 -12    0.19    0.10 
   7   1  12    0.40    0.13 
  -7  -2  12    0.14    0.12 
   7  -2 -12    0.14    0.14 
  -7   2  12    0.00    0.08 
   7   2 -12    0.03    0.09 
   6  -2 -12   -0.06    0.12 
  -6  -2  12    0.02    0.10 
  -6   2  12   -0.01    0.07 
   6   2 -12   -0.05    0.09 
   6   2 -12   -0.03    0.08 
   5  -2 -12    0.12    0.10 
  -5  -2  12   -0.01    0.08 
  -5   2  12   -0.01    0.06 
   5   2 -12   -0.11    0.06 
   5   2 -12    0.08    0.09 
  -4  -2  12   -0.07    0.08 
   4  -2 -12    0.07    0.10 
   4   2 -12    0.07    0.08 
  -4   2  12    0.12    0.08 
   4   2 -12   -0.05    0.07 
  -3  -2  12    0.09    0.09 
   3  -2 -12    0.24    0.11 
  -3   2  12    0.21    0.08 
   3   2 -12    0.14    0.08 
  -2  -2  12    0.51    0.11 
   2  -2 -12    0.64    0.13 
  -2   2  12    0.42    0.09 
   2   2 -12    0.42    0.09 
  -1  -2  12    0.60    0.11 
   1  -2 -12    0.73    0.13 
  -1   2  12    0.48    0.11 
   1   2 -12    0.53    0.12 
   0  -2 -12    0.31    0.10 
   0  -2  12    0.06    0.08 
   0   2  12    0.21    0.08 
   0   2 -12    0.16    0.10 
  -1  -2 -12    0.32    0.10 
   1  -2  12    0.33    0.08 
   1  -2  12    0.43    0.11 
   1   2  12    0.27    0.09 
  -1   2 -12    0.28    0.09 
  -2  -2 -12    0.02    0.08 
   2  -2  12    0.14    0.07 
   2  -2  12    0.20    0.10 
  -2   2 -12    0.18    0.09 
   2   2  12    0.23    0.08 
  -3  -2 -12    0.02    0.08 
   3  -2  12    0.00    0.09 
  -3   2 -12    0.05    0.09 
   3   2  12    0.01    0.07 
   4  -2  12    0.17    0.10 
   4   2  12    0.02    0.08 
  -4   2 -12    0.05    0.09 
   5  -2  12   -0.10    0.09 
  -5   2 -12   -0.02    0.09 
   5   2  12    0.00    0.08 
   6  -2  12    0.11    0.12 
  -6   2 -12   -0.02    0.09 
   6   2  12    0.03    0.09 
  -6  -3  12    0.16    0.11 
   6  -3 -12   -0.03    0.13 
   6   3 -12   -0.07    0.09 
  -6   3  12    0.09    0.08 
   5  -3 -12    0.11    0.14 
  -5  -3  12    0.13    0.12 
   5   3 -12    0.06    0.07 
  -5   3  12    0.04    0.08 
   5   3 -12    0.04    0.10 
  -4  -3  12    0.04    0.10 
   4  -3 -12   -0.08    0.10 
   4   3 -12    0.05    0.07 
   4   3 -12    0.01    0.09 
  -4   3  12   -0.03    0.06 
   3  -3 -12    0.12    0.11 
  -3  -3  12   -0.10    0.09 
   3   3 -12   -0.03    0.07 
  -3   3  12   -0.02    0.07 
   3   3 -12   -0.02    0.07 
  -2  -3  12   -0.04    0.09 
   2  -3 -12   -0.04    0.09 
  -2   3  12    0.08    0.08 
   2   3 -12    0.00    0.08 
  -1  -3  12    0.02    0.09 
   1  -3 -12    0.04    0.10 
  -1   3  12   -0.09    0.07 
   1   3 -12    0.13    0.09 
   0  -3  12    0.08    0.09 
   0  -3 -12    0.25    0.11 
   0   3  12    0.31    0.10 
   0   3 -12    0.27    0.11 
   1  -3  12    0.33    0.10 
   1  -3  12    0.21    0.11 
  -1  -3 -12    0.43    0.11 
   1   3  12    0.19    0.10 
  -1   3 -12    0.35    0.12 
   2  -3  12    0.13    0.11 
  -2  -3 -12    0.08    0.09 
  -2   3 -12    0.11    0.11 
   2   3  12    0.00    0.09 
   3  -3  12   -0.04    0.11 
  -3   3 -12    0.10    0.09 
   3   3  12    0.14    0.10 
   4  -3  12   -0.04    0.10 
   4   3  12    0.06    0.10 
  -4   3 -12   -0.11    0.10 
   5  -3  12    0.00    0.11 
   5   3  12    0.14    0.10 
  -5   3 -12   -0.14    0.10 
   2  -4 -12    0.16    0.12 
  -2  -4  12    0.12    0.11 
   2   4 -12    0.12    0.09 
  -2   4  12   -0.04    0.08 
  -1  -4  12    0.07    0.10 
   1  -4 -12   -0.03    0.11 
  -1   4  12    0.13    0.09 
   1   4 -12    0.06    0.09 
   0  -4 -12   -0.07    0.10 
   0  -4  12    0.02    0.10 
   0   4 -12    0.16    0.11 
   0   4  12    0.14    0.10 
   1   4  12   -0.05    0.10 
  -1   4 -12    0.04    0.10 
  -7   0  13    0.00    0.09 
   7   0 -13   -0.12    0.10 
  -6   0  13   -0.03    0.08 
   6   0 -13   -0.04    0.10 
  -5   0  13    0.04    0.08 
   5   0 -13   -0.12    0.08 
   4   0 -13    0.09    0.09 
  -4   0  13   -0.13    0.07 
  -3   0  13    0.00    0.07 
   3   0 -13   -0.01    0.08 
  -2   0  13   -0.05    0.06 
   2   0 -13   -0.09    0.07 
  -1   0  13   -0.04    0.06 
   1   0 -13    0.03    0.07 
   0   0 -13    0.00    0.08 
   0   0  13   -0.06    0.06 
  -1   0 -13    0.26    0.09 
   1   0  13    0.22    0.09 
   1   0  13    0.29    0.08 
  -2   0 -13   -0.03    0.08 
   2   0  13    0.00    0.06 
   2   0  13    0.03    0.08 
   3   0  13    0.04    0.08 
   3   0  13    0.00    0.07 
  -3   0 -13    0.01    0.08 
  -4   0 -13    0.11    0.08 
   4   0  13    0.11    0.07 
   4   0  13    0.04    0.09 
   5   0  13    0.01    0.07 
   5   0  13   -0.02    0.10 
  -5   0 -13    0.02    0.08 
   6   0  13   -0.16    0.10 
  -6   0 -13   -0.07    0.08 
   7  -1 -13   -0.03    0.13 
  -7  -1  13    0.06    0.11 
   7   1 -13    0.09    0.10 
  -7   1  13   -0.09    0.08 
   6  -1 -13    0.10    0.11 
  -6  -1  13   -0.01    0.10 
  -6   1  13    0.14    0.09 
   6   1 -13    0.09    0.10 
   5  -1 -13    0.01    0.09 
  -5  -1  13    0.08    0.08 
  -5   1  13    0.04    0.08 
   5   1 -13   -0.03    0.07 
   5   1 -13   -0.07    0.08 
   4  -1 -13   -0.06    0.08 
  -4  -1  13    0.02    0.08 
  -4   1  13   -0.08    0.07 
   4   1 -13    0.04    0.07 
   4   1 -13   -0.05    0.07 
   3  -1 -13    0.13    0.09 
  -3  -1  13   -0.03    0.07 
  -3   1  13   -0.08    0.06 
   3   1 -13   -0.03    0.06 
   3   1 -13   -0.05    0.08 
   2  -1 -13    0.04    0.09 
  -2  -1  13    0.02    0.07 
   2   1 -13   -0.02    0.07 
  -2   1  13   -0.01    0.07 
  -1  -1  13    0.45    0.09 
   1  -1 -13    0.28    0.10 
   1   1 -13    0.25    0.09 
  -1   1  13    0.37    0.09 
   0  -1 -13    0.03    0.08 
   0  -1  13    0.08    0.08 
   0   1 -13    0.18    0.08 
   0   1  13    0.00    0.06 
   1  -1  13   -0.06    0.08 
  -1  -1 -13    0.05    0.07 
   1  -1  13    0.05    0.07 
   1   1  13    0.02    0.07 
  -1   1 -13    0.02    0.08 
   2  -1  13   -0.02    0.09 
   2  -1  13    0.06    0.07 
  -2  -1 -13   -0.01    0.08 
  -2   1 -13   -0.01    0.07 
   2   1  13   -0.06    0.07 
   3  -1  13    0.25    0.11 
  -3  -1 -13    0.20    0.09 
   3  -1  13    0.09    0.07 
   3   1  13    0.08    0.07 
  -3   1 -13    0.09    0.09 
  -4  -1 -13   -0.06    0.08 
   4  -1  13   -0.08    0.09 
  -4   1 -13    0.07    0.09 
   4   1  13   -0.03    0.07 
  -5  -1 -13   -0.03    0.07 
   5  -1  13   -0.05    0.10 
  -5   1 -13   -0.01    0.09 
   5   1  13    0.15    0.09 
   6  -1  13    0.18    0.13 
   6   1  13    0.05    0.08 
  -6   1 -13   -0.01    0.09 
   6  -2 -13    0.13    0.14 
  -6  -2  13    0.18    0.12 
  -6   2  13    0.17    0.09 
   6   2 -13    0.04    0.08 
   6   2 -13   -0.02    0.09 
   5  -2 -13    0.04    0.11 
  -5  -2  13   -0.10    0.09 
   5   2 -13   -0.10    0.07 
   5   2 -13    0.00    0.08 
  -5   2  13   -0.01    0.08 
  -4  -2  13    0.02    0.09 
   4  -2 -13   -0.06    0.09 
   4   2 -13    0.10    0.07 
  -4   2  13   -0.01    0.07 
   4   2 -13   -0.08    0.07 
  -3  -2  13   -0.08    0.07 
   3  -2 -13   -0.01    0.10 
  -3   2  13    0.02    0.07 
   3   2 -13    0.17    0.09 
   3   2 -13    0.00    0.08 
   2  -2 -13    0.07    0.10 
  -2  -2  13    0.18    0.10 
   2   2 -13   -0.04    0.08 
  -2   2  13    0.00    0.08 
  -1  -2  13   -0.01    0.08 
   1  -2 -13   -0.15    0.08 
  -1   2  13   -0.06    0.07 
   1   2 -13    0.11    0.10 
   0  -2  13   -0.04    0.07 
   0  -2 -13    0.04    0.09 
   0   2  13   -0.02    0.08 
   0   2 -13    0.21    0.10 
   1  -2  13   -0.06    0.08 
   1  -2  13    0.12    0.08 
  -1  -2 -13    0.04    0.09 
   1   2  13   -0.02    0.08 
  -1   2 -13    0.11    0.09 
   2  -2  13    0.10    0.07 
  -2  -2 -13    0.14    0.09 
   2  -2  13    0.12    0.11 
  -2   2 -13    0.17    0.10 
   2   2  13    0.07    0.09 
   3  -2  13    0.01    0.10 
  -3  -2 -13   -0.07    0.08 
  -3   2 -13    0.16    0.09 
   3   2  13   -0.13    0.07 
   4  -2  13    0.02    0.10 
   4   2  13   -0.02    0.08 
  -4   2 -13    0.08    0.10 
   5  -2  13    0.01    0.11 
  -5   2 -13    0.06    0.10 
   5   2  13   -0.06    0.08 
   4  -3 -13    0.21    0.14 
  -4  -3  13    0.12    0.11 
   4   3 -13    0.07    0.08 
   4   3 -13    0.01    0.09 
  -4   3  13    0.17    0.09 
  -3  -3  13    0.21    0.11 
   3  -3 -13   -0.01    0.11 
   3   3 -13   -0.03    0.08 
   3   3 -13    0.08    0.08 
  -3   3  13   -0.06    0.07 
  -2  -3  13    0.15    0.10 
   2  -3 -13    0.18    0.11 
  -2   3  13    0.05    0.09 
   2   3 -13   -0.01    0.08 
   1  -3 -13    0.10    0.10 
  -1  -3  13    0.20    0.10 
  -1   3  13    0.20    0.09 
   1   3 -13    0.16    0.10 
   0  -3  13    0.42    0.12 
   0  -3 -13    0.36    0.11 
   0   3  13    0.43    0.11 
   0   3 -13    0.41    0.13 
   1  -3  13    0.04    0.09 
  -1  -3 -13    0.18    0.11 
  -1   3 -13    0.18    0.12 
   1   3  13    0.00    0.10 
   2  -3  13    0.03    0.10 
  -2  -3 -13   -0.03    0.09 
   2   3  13    0.10    0.10 
  -2   3 -13    0.01    0.11 
   3  -3  13    0.05    0.11 
  -3   3 -13    0.16    0.11 
   3   3  13    0.05    0.10 
  -6   0  14    0.37    0.11 
   6   0 -14    0.26    0.13 
  -5   0  14    0.38    0.10 
   5   0 -14    0.41    0.13 
  -4   0  14    0.34    0.10 
   4   0 -14    0.25    0.12 
  -3   0  14    0.22    0.09 
   3   0 -14    0.13    0.10 
  -2   0  14   -0.06    0.07 
   2   0 -14   -0.09    0.07 
   1   0 -14   -0.03    0.07 
  -1   0  14    0.04    0.07 
   0   0 -14    0.14    0.09 
   0   0  14    0.13    0.08 
   1   0  14    0.20    0.08 
  -1   0 -14    0.22    0.09 
  -2   0 -14    0.10    0.09 
   2   0  14   -0.07    0.07 
  -3   0 -14    0.07    0.09 
   3   0  14    0.12    0.08 
   4   0  14    0.09    0.07 
  -4   0 -14    0.25    0.10 
  -5   0 -14   -0.03    0.09 
   6  -1 -14   -0.07    0.12 
  -6  -1  14   -0.02    0.10 
   6   1 -14    0.07    0.11 
  -6   1  14    0.05    0.10 
   5  -1 -14   -0.03    0.11 
  -5  -1  14   -0.07    0.09 
  -5   1  14   -0.10    0.08 
   5   1 -14    0.08    0.09 
   4  -1 -14   -0.01    0.10 
  -4  -1  14   -0.05    0.07 
   4   1 -14   -0.01    0.08 
  -4   1  14    0.09    0.08 
  -3  -1  14    0.08    0.09 
   3  -1 -14    0.11    0.10 
   3   1 -14    0.19    0.10 
  -3   1  14    0.00    0.07 
  -2  -1  14    0.09    0.08 
   2  -1 -14    0.05    0.10 
   2   1 -14    0.07    0.09 
  -2   1  14    0.02    0.08 
   1  -1 -14    0.07    0.10 
  -1  -1  14    0.08    0.08 
   1   1 -14    0.11    0.08 
  -1   1  14   -0.10    0.07 
   0  -1  14   -0.04    0.07 
   0  -1 -14   -0.06    0.08 
   0   1 -14    0.01    0.08 
   0   1  14   -0.03    0.07 
   1  -1  14   -0.04    0.07 
  -1  -1 -14    0.09    0.09 
   1  -1  14   -0.06    0.09 
   1   1  14    0.07    0.08 
  -1   1 -14   -0.02    0.09 
   2  -1  14    0.19    0.11 
   2  -1  14    0.05    0.08 
  -2  -1 -14    0.05    0.08 
  -2   1 -14    0.17    0.09 
   2   1  14    0.12    0.08 
   3  -1  14    0.19    0.08 
  -3  -1 -14    0.08    0.09 
   3  -1  14    0.20    0.11 
  -3   1 -14    0.14    0.09 
   3   1  14    0.12    0.08 
   4  -1  14    0.14    0.11 
  -4  -1 -14    0.13    0.09 
  -4   1 -14    0.15    0.10 
   4   1  14    0.19    0.09 
   5  -1  14    0.11    0.11 
  -5  -1 -14   -0.05    0.08 
   5   1  14    0.08    0.09 
  -5   1 -14    0.01    0.10 
   5  -2 -14    0.02    0.12 
  -5  -2  14   -0.01    0.10 
   5   2 -14    0.05    0.09 
  -5   2  14    0.04    0.09 
   5   2 -14   -0.02    0.08 
  -4  -2  14   -0.05    0.09 
   4  -2 -14    0.16    0.12 
   4   2 -14   -0.02    0.08 
   4   2 -14    0.00    0.09 
  -4   2  14    0.09    0.08 
   3  -2 -14    0.08    0.11 
  -3  -2  14    0.10    0.10 
   3   2 -14    0.04    0.08 
   3   2 -14    0.01    0.08 
  -3   2  14   -0.03    0.08 
  -2  -2  14   -0.02    0.08 
   2  -2 -14   -0.05    0.10 
  -2   2  14   -0.11    0.08 
   2   2 -14   -0.04    0.09 
  -1  -2  14    0.07    0.08 
   1  -2 -14   -0.05    0.10 
   1   2 -14   -0.06    0.09 
  -1   2  14   -0.09    0.07 
   0  -2  14    0.16    0.09 
   0  -2 -14    0.13    0.11 
   0   2 -14    0.02    0.09 
   0   2  14   -0.10    0.08 
  -1  -2 -14    0.25    0.10 
   1  -2  14    0.18    0.09 
  -1   2 -14    0.18    0.11 
   1   2  14    0.14    0.10 
  -2  -2 -14   -0.03    0.09 
   2  -2  14    0.15    0.11 
   2  -2  14   -0.05    0.07 
  -2   2 -14    0.16    0.11 
   2   2  14    0.07    0.08 
   3  -2  14    0.00    0.11 
  -3  -2 -14    0.01    0.09 
   3   2  14    0.12    0.09 
  -3   2 -14    0.19    0.11 
   4  -2  14    0.12    0.12 
  -4   2 -14    0.12    0.11 
   4   2  14   -0.03    0.09 
  -1  -3  14   -0.01    0.09 
   1  -3 -14   -0.10    0.10 
  -1   3  14    0.01    0.09 
   1   3 -14    0.01    0.09 
   0  -3  14    0.01    0.09 
   0  -3 -14    0.17    0.11 
   0   3  14    0.07    0.10 
   0   3 -14   -0.12    0.11 
  -5   0  15   -0.02    0.10 
   5   0 -15    0.07    0.13 
   4   0 -15    0.26    0.12 
  -4   0  15    0.03    0.09 
  -3   0  15   -0.07    0.07 
   3   0 -15    0.04    0.10 
   2   0 -15   -0.08    0.09 
  -2   0  15   -0.08    0.08 
  -1   0  15    0.01    0.07 
   1   0 -15    0.00    0.08 
   0   0 -15    0.07    0.09 
   0   0  15    0.07    0.08 
  -1   0 -15   -0.12    0.08 
   1   0  15    0.03    0.08 
  -2   0 -15    0.03    0.09 
   2   0  15   -0.12    0.07 
  -3   0 -15   -0.20    0.08 
   3   0  15    0.01    0.08 
   4  -1 -15    0.27    0.12 
  -4  -1  15    0.15    0.09 
  -4   1  15    0.09    0.09 
   4   1 -15    0.24    0.12 
  -3  -1  15    0.02    0.09 
   3  -1 -15    0.20    0.12 
   3   1 -15    0.02    0.10 
  -3   1  15    0.05    0.09 
  -2  -1  15   -0.10    0.08 
   2  -1 -15    0.10    0.10 
  -2   1  15    0.05    0.08 
   2   1 -15    0.04    0.09 
  -1  -1  15   -0.02    0.08 
   1  -1 -15   -0.18    0.09 
   1   1 -15   -0.03    0.08 
  -1   1  15    0.00    0.08 
   0  -1  15    0.06    0.08 
   0  -1 -15   -0.11    0.09 
   0   1 -15    0.19    0.09 
   0   1  15   -0.04    0.08 
  -1  -1 -15    0.08    0.09 
   1  -1  15   -0.07    0.07 
   1   1  15    0.03    0.08 
  -1   1 -15    0.12    0.10 
  -2  -1 -15    0.05    0.09 
   2  -1  15    0.11    0.11 
   2  -1  15    0.13    0.09 
   2   1  15    0.07    0.08 
  -2   1 -15    0.05    0.10 
   3  -1  15    0.24    0.09 
   3  -1  15    0.33    0.12 
  -3  -1 -15    0.12    0.10 
   3   1  15    0.07    0.09 
  -3   1 -15    0.13    0.11 
  -2  -2  15    0.18    0.09 
   2  -2 -15    0.09    0.11 
  -2   2  15    0.03    0.09 
   2   2 -15    0.17    0.11 
  -1  -2  15    0.26    0.10 
   1  -2 -15    0.11    0.11 
  -1   2  15   -0.04    0.08 
   1   2 -15    0.14    0.11 
   0  -2  15    0.01    0.08 
   0  -2 -15    0.04    0.10 
   0   2 -15   -0.04    0.09 
   0   2  15   -0.20    0.08 
   1  -2  15    0.06    0.09 
  -1  -2 -15    0.05    0.10 
   1   2  15   -0.01    0.08 
  -1   2 -15   -0.19    0.09 
  -2   0  16    0.06    0.09 
   2   0 -16    0.03    0.09 
   1   0 -16    0.01    0.09 
  -1   0  16    0.06    0.09 
   0   0 -16   -0.02    0.10 
   0   0  16    0.11    0.08 
   0   0   0    0.00    0.00 
;
_shelx_hkl_checksum              12124
_olex2_submission_special_instructions 'No special instructions were received'
loop_
_space_group_symop_operation_xyz
'x, y, z'
'-x, y+1/2, -z+1/2'
'-x, -y, -z'
'x, -y-1/2, z-1/2'
loop_
_atom_site_label
_atom_site_type_symbol
_atom_site_fract_x
_atom_site_fract_y
_atom_site_fract_z
_atom_site_U_iso_or_equiv
_atom_site_adp_type
_atom_site_occupancy
_atom_site_site_symmetry_order
_atom_site_calc_flag
_atom_site_refinement_flags_posn
_atom_site_refinement_flags_adp
_atom_site_refinement_flags_occupancy
_atom_site_disorder_assembly
_atom_site_disorder_group
C16 C 0.1001(14) 1.346(4) -0.1659(11) 0.060(3) Uani 0.5 1 d D . P A -1
H16A H 0.0620 1.4455 -0.1104 0.089 Uiso 0.5 1 calc GR . P A -1
H16B H 0.0286 1.2573 -0.2065 0.089 Uiso 0.5 1 calc GR . P A -1
H16C H 0.1473 1.4695 -0.2092 0.089 Uiso 0.5 1 calc GR . P A -1
C1 C 0.9283(17) -0.362(4) 0.1387(11) 0.064(4) Uani 0.5 1 d D . P A -1
H1A H 0.9969 -0.3988 0.0904 0.095 Uiso 0.5 1 calc GR . P A -1
H1B H 0.8825 -0.5283 0.1546 0.095 Uiso 0.5 1 calc GR . P A -1
H1C H 0.9698 -0.2862 0.2011 0.095 Uiso 0.5 1 calc GR . P A -1
C13 C 0.1949(9) 1.1418(18) -0.1231(6) 0.041(2) Uani 0.5 1 d . . P A -1
C12 C 0.1918(8) 1.0689(18) -0.0192(5) 0.055(2) Uani 0.5 1 d DG . P A -1
H12 H 0.1302 1.1518 0.0230 0.065 Uiso 0.5 1 calc R . P A -1
C11 C 0.2808(9) 0.8719(18) 0.0217(5) 0.064(2) Uani 0.5 1 d DG U P A -1
H11 H 0.2787 0.8231 0.0912 0.077 Uiso 0.5 1 calc R . P A -1
C10 C 0.3728(9) 0.7479(17) -0.0414(5) 0.065(3) Uani 0.5 1 d DG U P A -1
C15 C 0.3759(9) 0.8208(19) -0.1453(5) 0.072(3) Uani 0.5 1 d DG U P A -1
H15 H 0.4375 0.7378 -0.1875 0.087 Uiso 0.5 1 calc R . P A -1
C14 C 0.2870(10) 1.018(2) -0.1862(4) 0.053(2) Uani 0.5 1 d DG . P A -1
H14 H 0.2890 1.0665 -0.2557 0.064 Uiso 0.5 1 calc R . P A -1
C2 C 0.8218(10) -0.151(2) 0.0887(6) 0.053(3) Uani 0.5 1 d . . P A -1
C7 C 0.8258(11) -0.080(2) -0.0153(6) 0.068(3) Uani 0.5 1 d DG . P A -1
H7 H 0.8900 -0.1587 -0.0564 0.082 Uiso 0.5 1 calc R . P A -1
C6 C 0.7338(12) 0.109(2) -0.0581(5) 0.083(3) Uani 0.5 1 d G U P A -1
H6 H 0.7365 0.1565 -0.1277 0.099 Uiso 0.5 1 calc R . P A -1
C5 C 0.6379(10) 0.2269(19) 0.0032(6) 0.067(3) Uani 0.5 1 d DG U P A -1
C4 C 0.6339(9) 0.1559(19) 0.1073(6) 0.059(2) Uani 0.5 1 d DG . P A -1
C3 C 0.7258(10) -0.033(2) 0.1500(5) 0.058(3) Uani 0.5 1 d DG . P A -1
H3 H 0.7232 -0.0804 0.2197 0.070 Uiso 0.5 1 calc R . P A -1
C8 C 0.5355(8) 0.2986(15) 0.1594(6) 0.080(2) Uani 0.5 1 d D . P A -1
H8 H 0.5269 0.2596 0.2293 0.096 Uiso 0.5 1 calc R . P A -1
C9 C 0.4684(9) 0.5417(18) 0.0096(5) 0.063(3) Uani 0.5 1 d D U P A -1
N1 N 0.4501(6) 0.4938(12) 0.1146(4) 0.073(2) Uani 0.5 1 d D U P A -1
N2 N 0.5585(9) 0.4190(19) -0.0505(6) 0.076(3) Uani 0.5 1 d D U P A -1
loop_
_atom_site_aniso_label
_atom_site_aniso_U_11
_atom_site_aniso_U_22
_atom_site_aniso_U_33
_atom_site_aniso_U_23
_atom_site_aniso_U_13
_atom_site_aniso_U_12
C16 0.035(5) 0.047(5) 0.097(9) -0.017(5) -0.002(5) -0.002(4)
C1 0.072(9) 0.047(5) 0.072(6) -0.005(5) 0.006(5) 0.027(6)
C13 0.039(5) 0.033(4) 0.051(5) -0.004(4) -0.006(4) -0.003(3)
C12 0.053(4) 0.057(5) 0.055(6) -0.006(4) 0.007(4) -0.009(4)
C11 0.062(5) 0.055(5) 0.073(5) 0.011(4) -0.023(4) -0.004(4)
C10 0.053(4) 0.046(4) 0.092(7) -0.010(5) -0.033(5) -0.009(4)
C15 0.051(4) 0.057(5) 0.108(7) -0.038(5) 0.002(5) 0.004(4)
C14 0.049(4) 0.052(5) 0.058(5) -0.013(4) -0.002(4) -0.003(3)
C2 0.042(4) 0.051(5) 0.066(7) -0.013(5) 0.009(5) -0.002(3)
C7 0.069(6) 0.080(6) 0.056(6) 0.007(5) -0.002(4) 0.014(5)
C6 0.082(5) 0.085(6) 0.078(5) 0.005(5) -0.012(4) 0.012(5)
C5 0.067(5) 0.062(6) 0.069(5) 0.006(4) -0.022(4) -0.027(5)
C4 0.061(5) 0.055(6) 0.060(5) -0.015(4) -0.001(4) -0.012(4)
C3 0.074(6) 0.051(5) 0.049(5) -0.005(4) 0.007(5) 0.005(4)
C8 0.084(5) 0.073(5) 0.081(4) 0.015(4) -0.006(4) 0.019(5)
C9 0.039(6) 0.039(5) 0.109(7) -0.008(5) -0.014(6) -0.011(4)
N1 0.073(4) 0.075(4) 0.068(3) 0.017(3) -0.020(3) -0.009(3)
N2 0.066(5) 0.068(5) 0.094(5) 0.008(5) 0.007(4) 0.006(3)
loop_
_atom_type_symbol
_atom_type_description
_atom_type_scat_dispersion_real
_atom_type_scat_dispersion_imag
_atom_type_scat_source
C C 0.0033 0.0016 'International Tables Vol C Tables 4.2.6.8 and 6.1.1.4'
H H 0.0000 0.0000 'International Tables Vol C Tables 4.2.6.8 and 6.1.1.4'
N N 0.0061 0.0033 'International Tables Vol C Tables 4.2.6.8 and 6.1.1.4'
loop_
_geom_angle_atom_site_label_1
_geom_angle_atom_site_label_2
_geom_angle_atom_site_label_3
_geom_angle
_geom_angle_site_symmetry_1
_geom_angle_site_symmetry_3
_geom_angle_publ_flag
H16A C16 H16B 109.5 . . ?
H16A C16 H16C 109.5 . . ?
H16B C16 H16C 109.5 . . ?
C13 C16 H16A 109.5 . . ?
C13 C16 H16B 109.5 . . ?
C13 C16 H16C 109.5 . . ?
H1A C1 H1B 109.5 . . ?
H1A C1 H1C 109.5 . . ?
H1B C1 H1C 109.5 . . ?
C2 C1 H1A 109.5 . . ?
C2 C1 H1B 109.5 . . ?
C2 C1 H1C 109.5 . . ?
C12 C13 C16 119.8(4) . . ?
C12 C13 C14 120.0 . . ?
C14 C13 C16 120.2(4) . . ?
C13 C12 H12 120.0 . . ?
C11 C12 C13 120.0 . . ?
C11 C12 H12 120.0 . . ?
C12 C11 H11 120.0 . . ?
C10 C11 C12 120.0 . . ?
C10 C11 H11 120.0 . . ?
C11 C10 C15 120.0 . . ?
C11 C10 C9 116.7(3) . . ?
C15 C10 C9 123.3(3) . . ?
C10 C15 H15 120.0 . . ?
C14 C15 C10 120.0 . . ?
C14 C15 H15 120.0 . . ?
C13 C14 H14 120.0 . . ?
C15 C14 C13 120.0 . . ?
C15 C14 H14 120.0 . . ?
C7 C2 C1 120.3(4) . . ?
C7 C2 C3 120.0 . . ?
C3 C2 C1 119.7(4) . . ?
C2 C7 H7 120.0 . . ?
C6 C7 C2 120.0 . . ?
C6 C7 H7 120.0 . . ?
C7 C6 H6 120.0 . . ?
C7 C6 C5 120.0 . . ?
C5 C6 H6 120.0 . . ?
C6 C5 C4 120.0 . . ?
N2 C5 C6 112.4(6) . . ?
N2 C5 C4 127.6(6) . . ?
C5 C4 C3 120.0 . . ?
C5 C4 C8 113.3(6) . . ?
C3 C4 C8 126.7(6) . . ?
C2 C3 H3 120.0 . . ?
C4 C3 C2 120.0 . . ?
C4 C3 H3 120.0 . . ?
C4 C8 H8 117.7 . . ?
N1 C8 C4 124.6(7) . . ?
N1 C8 H8 117.7 . . ?
N1 C9 C10 115.3(5) . . ?
N2 C9 C10 117.5(5) . . ?
N2 C9 N1 127.2(6) . . ?
C8 N1 C9 114.6(6) . . ?
C9 N2 C5 112.7(7) . . ?
loop_
_geom_bond_atom_site_label_1
_geom_bond_atom_site_label_2
_geom_bond_distance
_geom_bond_site_symmetry_2
_geom_bond_publ_flag
C16 H16A 0.9600 . ?
C16 H16B 0.9600 . ?
C16 H16C 0.9600 . ?
C16 C13 1.46(2) . ?
C1 H1A 0.9600 . ?
C1 H1B 0.9600 . ?
C1 H1C 0.9600 . ?
C1 C2 1.59(2) . ?
C13 C12 1.3900 . ?
C13 C14 1.3900 . ?
C12 H12 0.9300 . ?
C12 C11 1.3900 . ?
C11 H11 0.9300 . ?
C11 C10 1.3900 . ?
C10 C15 1.3900 . ?
C10 C9 1.510(9) . ?
C15 H15 0.9300 . ?
C15 C14 1.3900 . ?
C14 H14 0.9300 . ?
C2 C7 1.3900 . ?
C2 C3 1.3900 . ?
C7 H7 0.9300 . ?
C7 C6 1.3900 . ?
C6 H6 0.9300 . ?
C6 C5 1.3900 . ?
C5 C4 1.3900 . ?
C5 N2 1.387(6) . ?
C4 C3 1.3900 . ?
C4 C8 1.397(6) . ?
C3 H3 0.9300 . ?
C8 H8 0.9300 . ?
C8 N1 1.382(6) . ?
C9 N1 1.396(6) . ?
C9 N2 1.351(6) . ?
loop_
_geom_torsion_atom_site_label_1
_geom_torsion_atom_site_label_2
_geom_torsion_atom_site_label_3
_geom_torsion_atom_site_label_4
_geom_torsion
_geom_torsion_site_symmetry_1
_geom_torsion_site_symmetry_2
_geom_torsion_site_symmetry_3
_geom_torsion_site_symmetry_4
_geom_torsion_publ_flag
C16 C13 C12 C11 179.2(10) . . . . ?
C16 C13 C14 C15 -179.2(10) . . . . ?
C1 C2 C7 C6 -178.8(12) . . . . ?
C1 C2 C3 C4 178.8(11) . . . . ?
C13 C12 C11 C10 0.0 . . . . ?
C12 C13 C14 C15 0.0 . . . . ?
C12 C11 C10 C15 0.0 . . . . ?
C12 C11 C10 C9 178.4(9) . . . . ?
C11 C10 C15 C14 0.0 . . . . ?
C11 C10 C9 N1 1.8(10) . . . . ?
C11 C10 C9 N2 180.0(6) . . . . ?
C10 C15 C14 C13 0.0 . . . . ?
C10 C9 N1 C8 178.1(7) . . . . ?
C10 C9 N2 C5 -177.9(11) . . . . ?
C15 C10 C9 N1 -179.9(6) . . . . ?
C15 C10 C9 N2 -1.7(11) . . . . ?
C14 C13 C12 C11 0.0 . . . . ?
C2 C7 C6 C5 0.0 . . . . ?
C7 C2 C3 C4 0.0 . . . . ?
C7 C6 C5 C4 0.0 . . . . ?
C7 C6 C5 N2 177.3(9) . . . . ?
C6 C5 C4 C3 0.0 . . . . ?
C6 C5 C4 C8 177.8(8) . . . . ?
C6 C5 N2 C9 -177.7(7) . . . . ?
C5 C4 C3 C2 0.0 . . . . ?
C5 C4 C8 N1 -0.6(10) . . . . ?
C4 C5 N2 C9 -0.6(13) . . . . ?
C4 C8 N1 C9 0.1(11) . . . . ?
C3 C2 C7 C6 0.0 . . . . ?
C3 C4 C8 N1 177.0(7) . . . . ?
C8 C4 C3 C2 -177.4(10) . . . . ?
C9 C10 C15 C14 -178.3(9) . . . . ?
N1 C9 N2 C5 0.0(12) . . . . ?
N2 C5 C4 C3 -176.9(11) . . . . ?
N2 C5 C4 C8 0.9(12) . . . . ?
N2 C9 N1 C8 0.2(11) . . . . ?
