#------------------------------------------------------------------------------
#$Date: 2021-07-05 19:13:21 +0300 (Mon, 05 Jul 2021) $
#$Revision: 267002 $
#$URL: file:///home/coder/svn-repositories/cod/cif/7/12/83/7128399.cif $
#------------------------------------------------------------------------------
#
# This file is available in the Crystallography Open Database (COD),
# http://www.crystallography.net/
#
# All data on this site have been placed in the public domain by the
# contributors.
#
data_7128399
loop_
_publ_author_name
'Hung, Ling-I'
'Hsieh, Tsung-Hsiu'
'Syu, Jhao-Yang'
'Chen, Pei-Lin'
'Lin, Chia-Her'
'Wang, Sue-Lein'
_publ_section_title
;
 A titanium(iii) phosphite exhibits polymorph-distinct redox activity
 involving proton-coupled electron transfer.
;
_journal_issue                   53
_journal_name_full
'Chemical communications (Cambridge, England)'
_journal_page_first              6542
_journal_page_last               6545
_journal_paper_doi               10.1039/d1cc01190a
_journal_volume                  57
_journal_year                    2021
_chemical_formula_sum            'H5 O7 P2 Ti'
_chemical_formula_weight         226.88
_chemical_properties_physical    Oxygen-sensitive
_space_group_crystal_system      monoclinic
_space_group_IT_number           14
_space_group_name_Hall           '-P 2yn'
_space_group_name_H-M_alt        'P 1 21/n 1'
_atom_sites_solution_hydrogens   difmap
_audit_creation_method           SHELXL-2014/6
_audit_update_record
;
2021-02-17 deposited with the CCDC.	2021-05-31 downloaded from the CCDC.
;
_cell_angle_alpha                90
_cell_angle_beta                 102.801(2)
_cell_angle_gamma                90
_cell_formula_units_Z            4
_cell_length_a                   7.4859(6)
_cell_length_b                   7.5154(6)
_cell_length_c                   12.1997(10)
_cell_measurement_reflns_used    5715
_cell_measurement_temperature    296(2)
_cell_measurement_theta_max      28.31
_cell_measurement_theta_min      2.93
_cell_volume                     669.29(9)
_computing_cell_refinement       'SAINT V8.34A (Bruker AXS Inc., 2013)'
_computing_data_collection       'APEX2 (Bruker AXS, 2010)'
_computing_data_reduction        'SAINT V8.34A (Bruker AXS Inc., 2013)'
_computing_molecular_graphics    'SHELXTL (Sheldrick, 2008)'
_computing_publication_material  SHELXTL
_computing_structure_refinement  'SHELXL-2014/6 (Sheldrick, 2014)'
_diffrn_ambient_temperature      296(2)
_diffrn_detector_area_resol_mean 8.3333
_diffrn_measured_fraction_theta_full 0.998
_diffrn_measured_fraction_theta_max 0.994
_diffrn_measurement_device_type  'Bruker APEX-II CCD'
_diffrn_measurement_method       '\f and \w scans'
_diffrn_radiation_type           MoK\a
_diffrn_radiation_wavelength     0.71073
_diffrn_reflns_av_R_equivalents  0.0234
_diffrn_reflns_av_unetI/netI     0.0242
_diffrn_reflns_Laue_measured_fraction_full 0.998
_diffrn_reflns_Laue_measured_fraction_max 0.994
_diffrn_reflns_limit_h_max       9
_diffrn_reflns_limit_h_min       -9
_diffrn_reflns_limit_k_max       10
_diffrn_reflns_limit_k_min       -8
_diffrn_reflns_limit_l_max       16
_diffrn_reflns_limit_l_min       -16
_diffrn_reflns_number            5715
_diffrn_reflns_point_group_measured_fraction_full 0.998
_diffrn_reflns_point_group_measured_fraction_max 0.994
_diffrn_reflns_theta_full        25.242
_diffrn_reflns_theta_max         28.305
_diffrn_reflns_theta_min         2.933
_exptl_absorpt_coefficient_mu    1.740
_exptl_absorpt_correction_T_max  0.9485
_exptl_absorpt_correction_T_min  0.8937
_exptl_absorpt_correction_type   multi-scan
_exptl_absorpt_process_details   'SADABS V2014/4 (Bruker AXS Inc.)'
_exptl_crystal_colour            Purple
_exptl_crystal_density_diffrn    2.252
_exptl_crystal_density_meas      ?
_exptl_crystal_density_method    'not measured'
_exptl_crystal_description       Columnar
_exptl_crystal_F_000             452
_exptl_crystal_preparation       'Magnetic properties'
_exptl_crystal_size_max          0.19
_exptl_crystal_size_mid          0.05
_exptl_crystal_size_min          0.05
_refine_diff_density_max         1.331
_refine_diff_density_min         -0.867
_refine_diff_density_rms         0.099
_refine_ls_extinction_method     none
_refine_ls_goodness_of_fit_ref   1.095
_refine_ls_hydrogen_treatment    noref
_refine_ls_matrix_type           full
_refine_ls_number_parameters     128
_refine_ls_number_reflns         1645
_refine_ls_number_restraints     114
_refine_ls_restrained_S_all      1.072
_refine_ls_R_factor_all          0.0436
_refine_ls_R_factor_gt           0.0395
_refine_ls_shift/su_max          0.000
_refine_ls_shift/su_mean         0.000
_refine_ls_structure_factor_coef Fsqd
_refine_ls_weighting_details
'w=1/[\s^2^(Fo^2^)+(0.0162P)^2^+2.6105P] where P=(Fo^2^+2Fc^2^)/3'
_refine_ls_weighting_scheme      calc
_refine_ls_wR_factor_gt          0.0840
_refine_ls_wR_factor_ref         0.0857
_reflns_Friedel_coverage         0.000
_reflns_number_gt                1503
_reflns_number_total             1645
_reflns_threshold_expression     'I > 2\s(I)'
_cod_data_source_file            d1cc01190a2.cif
_cod_data_source_block           beta-III
_cod_depositor_comments
;
The following automatic conversions were performed:

data item '_exptl_crystal_density_meas' value 'not measured' was
changed to '?' -- the value is perceived as not measured.

Automatic conversion script
Id: cif_fix_values 7556 2019-12-06 15:28:31Z antanas 

 Adding full bibliography for 7128397--7128400.cif.
;
_cod_original_sg_symbol_H-M      'P 21/n'
_cod_database_code               7128399
_shelx_space_group_comment
;
The symmetry employed for this shelxl refinement is uniquely defined
by the following loop, which should always be used as a source of
symmetry information in preference to the above space-group names.
They are only intended as comments.
;
_shelxl_version_number           2014/6
_shelx_res_file
;
TITL mo_99_1_0m_a.res in P2(1)/n
CELL  0.71073   7.4859   7.5154  12.1997   90.000  102.801   90.000
ZERR    4.000   0.0006   0.0006   0.0010    0.000    0.002    0.000
LATT 1
SYMM 1/2-X, 1/2+Y, 1/2-Z
SFAC O  H  P  Ti
UNIT 28  20  8  4
L.S. 4
ACTA
BOND $H
FMAP 2
PLAN 5
HTAB O7 O3_$4
HTAB O7 O2_$5
EQIV $5 x-1/2, -y+1/2, z-1/2
HTAB O7 O6'_$4
HTAB O7 O6_$4
EQIV $4 -x+1, -y+1, -z+1
HTAB O6' O3_$3
EQIV $3 -x+2, -y+1, -z+1
HTAB O6 O5_$2
HTAB O6 O4_$2
EQIV $2 -x+3/2, y+1/2, -z+1/2
HTAB P2 O7_$1
EQIV $1 -x+1/2, y+1/2, -z+1/2
DELU 0.02 P2 > O6 P2' > O6'
SIMU 0.02 P2 > O6 P2' > O6'
TEMP 23
WGHT    0.016200    2.610500
FVAR       0.54293   0.63397
TI1   4    0.483041    0.234207    0.340959    11.00000    0.01818    0.01108 =
         0.00973    0.00187    0.00237    0.00084
P1    3    0.739168    0.131025    0.592469    11.00000    0.01571    0.02088 =
         0.01582   -0.00412   -0.00147   -0.00249
O1    1    0.615657    0.233764    0.500190    11.00000    0.04242    0.04223 =
         0.01954   -0.00433   -0.00742    0.01090
O2    1    0.641984   -0.006739    0.645811    11.00000    0.03598    0.02476 =
         0.05368   -0.00004    0.00922   -0.01285
O3    1    0.836622    0.263327    0.679522    11.00000    0.07467    0.04349 =
         0.02113    0.00483   -0.01780   -0.03769
PART 1  21.00
P2    3    0.668770    0.632883    0.278831    21.00000    0.01642    0.01034 =
         0.02662    0.00207    0.01093   -0.00251
O4    1    0.617886    0.464930    0.329749    21.00000    0.05210    0.02366 =
         0.05710    0.00224    0.03280   -0.01155
O5    1    0.800923    0.610201    0.204355    21.00000    0.03338    0.01673 =
         0.02978   -0.00499    0.01613   -0.00761
O6    1    0.738641    0.763034    0.376442    21.00000    0.04914    0.01576 =
         0.02853   -0.00231    0.01747    0.00043
AFIX   1
H2    2    0.536410    0.729335    0.215958    21.00000    0.05000
H6    2    0.753800    0.865700    0.346900    21.00000    0.05000
SAME P2   O4   O5   O6
PART 2  -21.00
AFIX   0
P2'   3    0.685964    0.624867    0.285150   -21.00000    0.03610    0.01848 =
         0.04316   -0.00679    0.01945   -0.00323
O4'   1    0.568026    0.471113    0.302014   -21.00000    0.01627    0.01810 =
         0.01951    0.00830    0.00106   -0.00778
O5'   1    0.806125    0.582030    0.204641   -21.00000    0.03533    0.00707 =
         0.03551   -0.00377    0.02718   -0.00751
O6'   1    0.811134    0.682700    0.399958   -21.00000    0.05426    0.07338 =
         0.03319   -0.02005    0.02495   -0.03900
AFIX   1
H2'   2    0.549400    0.719800    0.220000   -21.00000    0.05000
H6'   2    0.912900    0.728300    0.395100   -21.00000    0.05000
PART 0
AFIX   0
O7    1    0.274503    0.378388    0.392912    11.00000    0.03619    0.02888 =
         0.02793    0.00280    0.01312    0.01173
AFIX   1
H1    2    0.871500    0.039500    0.538200    11.00000    0.05000
H7A   2    0.292900    0.381000    0.457200    11.00000    0.05000
H7B   2    0.244600    0.481700    0.363100    11.00000    0.05000
AFIX   0
HKLF 4

REM  mo_99_1_0m_a.res in P2(1)/n
REM R1 =  0.0395 for    1503 Fo > 4sig(Fo)  and  0.0436 for all    1645 data
REM    128 parameters refined using    114 restraints

END

WGHT      0.0162      2.6106

REM Highest difference peak  1.331,  deepest hole -0.867,  1-sigma level  0.099
Q1    1   0.9129  0.1974  0.6697  11.00000  0.05    1.33
Q2    1   0.5857  0.1610  0.5195  11.00000  0.05    0.52
Q3    1   0.6524 -0.0482  0.6984  11.00000  0.05    0.47
Q4    1   0.6984  0.0706  0.6394  11.00000  0.05    0.40
Q5    1   0.6556  0.2171  0.4697  11.00000  0.05    0.37
;
_shelx_res_checksum              44290
_shelx_hkl_file
;
   1   0   0    0.60    0.50
   1   0   0    1.50    0.60
   1   0   0    0.90    0.50
   2   0   0 1878.21   36.20
   2   0   0 1855.31   35.70
   3   0   0    5.20    1.00
   3   0   0    5.20    1.20
   3   0   0    5.50    1.20
   4   0   0  726.43   15.60
   4   0   0  716.23   15.70
   4   0   0  713.33   16.20
   5   0   0    2.60    1.20
   5   0   0    3.30    1.60
   5   0   0    2.30    1.40
   6   0   0  170.88    6.90
   6   0   0  170.08    6.50
   6   0   0  166.68    6.20
  -6   0   0  184.78    8.40
   7   0   0   -0.30    1.40
   7   0   0   -0.50    1.60
   8   0   0  129.89    6.90
   9   0   0    2.30    2.40
   0   1   0   -1.70    0.60
   0   1   0   -2.20    0.40
   0   1   0   -1.70    0.50
   1   1   0    4.90    0.70
   1   1   0    5.20    0.70
   1   1   0    5.80    0.70
  -1   1   0    6.60    1.10
   2  -1   0  185.28    5.00
  -2   1   0  184.58    5.40
   2   1   0  178.48    4.80
   3  -1   0    1.90    0.90
   3  -1   0    1.80    1.00
   3   1   0    2.10    0.80
   3   1   0    1.90    0.80
   3   1   0    2.10    1.00
  -3   1   0    1.90    1.10
   4  -1   0    2.20    1.20
   4  -1   0    2.60    1.00
   4   1   0    3.00    1.00
  -4   1   0    2.60    1.30
   4   1   0    2.70    1.10
   4   1   0    3.10    1.20
   5  -1   0   11.90    2.10
   5  -1   0   14.50    2.20
   5   1   0   19.90    2.30
  -5   1   0   13.70    2.40
   5   1   0   15.00    2.20
   5   1   0   17.80    2.10
   6  -1   0  166.48    6.50
   6  -1   0  169.48    6.90
   6   1   0  171.98    6.20
   6   1   0  167.28    6.80
  -6   1   0  163.48    7.20
   6   1   0  175.78    6.10
   7  -1   0    7.10    2.30
   7   1   0    4.40    2.10
   7   1   0    5.30    1.80
   7   1   0    6.90    1.90
   8  -1   0  291.37   10.70
   8   1   0  283.17    9.90
   8   1   0  271.57   10.30
   9  -1   0   45.50    5.30
   9   1   0   33.10    4.40
   0   2   0 2375.16   46.50
   0   2   0 2402.56   46.70
   0   2   0 2367.66   46.10
   1   2   0 4944.11   97.49
  -1   2   0 4995.60  101.19
  -1   2   0 5011.10   96.59
   1   2   0 4968.60   98.29
   1   2   0 4860.71   97.29
   1   2   0 5089.69   97.19
   2   2   0  532.95   11.60
   2   2   0  521.55   11.50
  -2   2   0  577.64   13.20
   2   2   0  522.05   11.50
   3  -2   0 1251.57   26.70
   3   2   0 1307.07   26.00
   3   2   0 1291.27   25.60
   3   2   0 1307.57   25.70
  -3   2   0 1248.88   27.50
   4  -2   0  813.02   18.50
   4  -2   0  814.82   18.50
   4   2   0  804.42   17.90
   4   2   0  821.12   17.40
   4   2   0  794.12   17.40
  -4   2   0  834.62   19.50
   5  -2   0   26.50    2.70
   5  -2   0   33.20    3.30
   5   2   0   31.90    2.60
  -5   2   0   27.40    3.50
   5   2   0   32.90    3.00
   5   2   0   31.70    2.50
   6  -2   0  154.58    6.50
   6   2   0  153.48    6.30
   6   2   0  152.18    5.90
   6   2   0  148.29    5.70
  -6   2   0  166.28    7.60
   7  -2   0    8.90    2.40
   7   2   0    8.70    2.20
   7   2   0    9.00    2.20
   7   2   0    8.30    2.30
   8  -2   0   64.69    5.40
   8   2   0   74.59    4.90
   8   2   0   80.89    5.40
   9  -2   0    3.10    2.40
   9   2   0    3.60    2.30
   9   2   0    3.30    2.00
   0   3   0   -0.30    0.80
   0   3   0   -0.80    0.80
   0   3   0    0.40    1.10
   1   3   0   69.39    2.80
   1   3   0   65.99    3.10
  -1   3   0   73.89    3.90
  -1   3   0   73.79    3.40
   1   3   0   67.29    3.30
  -1   3   0   71.59    3.10
   1   3   0   70.49    3.20
   2   3   0   23.20    1.80
   2   3   0   22.60    2.00
  -2   3   0   23.30    2.90
   2   3   0   20.90    2.00
  -2   3   0   21.70    2.70
   3   3   0  311.67    8.10
   3   3   0  310.37    7.90
   3   3   0  309.77    8.10
  -3   3   0  297.47    9.80
   4  -3   0  120.49    5.30
   4   3   0  123.29    4.70
   4   3   0  120.59    4.60
  -4   3   0  125.19    6.20
   4   3   0  119.79    4.50
   5  -3   0    5.90    1.80
   5  -3   0    2.80    1.70
   5   3   0    5.10    1.70
   5   3   0    5.80    1.70
   5   3   0    7.60    1.70
  -5   3   0    5.00    2.30
   6  -3   0  176.38    7.40
   6   3   0  172.88    6.50
  -6   3   0  178.58    8.50
   6   3   0  167.38    6.70
   6   3   0  174.38    6.40
   7  -3   0   32.00    3.90
   7   3   0   33.30    3.40
   7   3   0   34.30    3.50
   7   3   0   34.20    3.80
   8  -3   0   18.60    3.50
   8   3   0   15.90    2.90
   8   3   0   18.80    3.30
   9  -3   0   70.19    6.00
   9   3   0   63.09    5.10
   9   3   0   55.79    5.20
   0   4   0  136.69    4.80
   0   4   0  138.69    5.80
   0   4   0  138.29    5.40
   1   4   0    8.20    1.60
  -1   4   0    8.20    2.00
  -1   4   0   10.20    1.90
   1   4   0    9.90    1.80
  -1   4   0    7.80    1.50
   1   4   0    9.20    1.50
   2   4   0 3160.28   62.59
   2   4   0 3210.28   61.59
   2   4   0 3120.29   63.09
  -2   4   0 3363.26   65.49
   2   4   0 3128.29   62.89
  -2   4   0 3241.58   63.79
  -3   4   0   32.20    3.70
   3   4   0   23.70    2.40
   3   4   0   24.80    2.60
   4   4   0   31.10    2.90
  -4   4   0   32.90    4.10
   4   4   0   27.50    2.60
   4   4   0   33.50    2.60
   5   4   0   23.50    2.70
   5   4   0   16.30    2.50
  -5   4   0   15.00    3.30
   5   4   0   20.70    2.80
   6  -4   0  156.48    7.10
   6   4   0  165.08    6.60
   6   4   0  158.58    6.60
   6   4   0  149.19    6.40
  -6   4   0  163.98    8.70
   7  -4   0   30.20    3.90
  -7   4   0   40.00    5.80
   7   4   0   37.40    4.00
   7   4   0   36.90    3.80
   8  -4   0   61.49    5.30
   8   4   0   55.69    4.90
   8   4   0   52.49    4.70
   0   5   0   -0.40    1.30
   0   5   0    1.20    1.10
   0   5   0    0.10    1.20
  -1   5   0  304.07   10.40
   1   5   0  274.67    9.20
   1   5   0  289.37    8.10
   1   5   0  293.07    9.30
  -1   5   0  303.27    9.60
  -1   5   0  304.07    8.90
  -2   5   0   52.49    3.80
   2   5   0   49.00    3.60
   2   5   0   49.60    3.40
   2   5   0   49.70    2.90
  -2   5   0   45.60    4.50
  -2   5   0   52.09    3.60
   3   5   0    8.10    2.00
   3   5   0   11.50    2.30
  -3   5   0    9.50    2.90
   4   5   0   76.59    4.50
   4   5   0   72.19    4.30
  -4   5   0   73.29    5.90
   5   5   0  104.29    5.60
  -5   5   0  111.19    7.30
   5   5   0  100.19    5.40
   6  -5   0  111.39    6.20
  -6   5   0  120.29    8.10
   6   5   0  120.19    5.60
   6   5   0  115.09    6.10
   7  -5   0   59.29    5.20
   7   5   0   73.19    5.20
   7   5   0   72.29    4.80
  -7   5   0   59.59    6.50
   8  -5   0    5.80    2.60
   8   5   0    2.20    2.00
   8   5   0    3.70    2.20
   0   6   0  359.16   11.50
   0   6   0  352.86   11.80
   0   6   0  362.56   10.20
   1   6   0 1375.46   31.10
   1   6   0 1392.36   31.20
  -1   6   0 1378.36   31.30
  -1   6   0 1369.36   32.50
   1   6   0 1323.97   29.00
  -1   6   0 1369.76   29.90
  -2   6   0  183.88    7.20
   2   6   0  172.18    7.50
   2   6   0  168.78    6.90
   2   6   0  180.58    6.00
  -2   6   0  186.48    8.90
  -3   6   0  228.98    8.40
  -3   6   0  231.98   10.40
   3   6   0  217.28    8.50
  -4   6   0  218.18   10.50
   4   6   0  196.08    8.10
   5   6   0   57.29    4.50
  -5   6   0   48.20    5.80
   6  -6   0   73.49    5.40
  -6   6   0   63.09    6.70
   6   6   0   67.79    5.20
   7  -6   0   29.10    4.30
   7   6   0   29.70    4.30
  -7   6   0   30.90    5.70
   0   7   0    0.10    1.70
   0   7   0    0.20    1.90
   0   7   0   -1.80    1.10
   1   7   0  254.27   10.00
   1   7   0  238.58    9.60
   1   7   0  238.48    8.10
  -1   7   0  253.37    8.90
  -1   7   0  255.57   10.70
   2   7   0   70.19    3.90
  -2   7   0   66.89    6.10
  -2   7   0   66.89    4.80
   2   7   0   63.99    4.60
   2   7   0   73.49    5.40
   3   7   0    3.40    2.00
  -3   7   0    6.40    3.00
  -3   7   0    1.00    1.80
  -4   7   0    3.40    2.80
  -4   7   0    4.30    2.20
   4   7   0    4.80    2.20
   5   7   0  145.79    7.60
  -5   7   0  139.99    9.40
  -5   7   0  140.09    7.50
   6  -7   0   50.09    5.20
   6   7   0   39.20    4.60
  -6   7   0   52.09    7.20
   0   8   0 1489.75   33.30
   0   8   0 1493.35   36.20
  -1   8   0    7.20    2.90
   1   8   0    5.00    1.90
   1   8   0    4.70    2.40
  -1   8   0    8.40    2.30
   1   8   0    5.50    2.50
   2   8   0   70.49    5.70
   2   8   0   77.69    5.20
  -2   8   0   58.49    4.90
  -2   8   0   61.09    6.30
   2   8   0   72.59    4.20
  -3   8   0    6.50    2.50
   3   8   0    3.10    2.10
  -3   8   0    7.40    3.30
   4   8   0  159.18    8.50
  -4   8   0  156.48    8.10
  -4   8   0  163.48   10.50
  -5   8   0   20.00    5.20
   5   8   0   28.80    4.70
  -5   8   0   24.30    4.20
   0   9   0    1.20    1.60
   0   9   0    2.20    2.50
  -1   9   0  115.89    6.60
   1   9   0  127.19    7.70
  -1   9   0  120.49    8.40
   1   9   0  115.29    6.10
   2   9   0   49.50    4.60
  -2   9   0   46.60    5.10
   2   9   0   37.80    3.60
  -2   9   0   46.70    6.20
  -3   9   0   63.99    7.30
   3   9   0   63.89    6.00
  -3   9   0   67.99    5.80
  -4   9   0   38.80    6.90
  -4   9   0   32.10    4.90
   4   9   0   29.10    4.90
   0  10   0   99.89    7.90
   9   0  -1  577.84   17.30
   8   0  -1    4.10    2.20
   7   0  -1   32.80    3.40
   7   0  -1   35.80    3.90
   6   0  -1    0.50    1.30
   6   0  -1    0.00    1.60
  -6   0   1    0.40    1.60
   6   0  -1   -0.80    1.40
   5   0  -1 1177.48   25.60
   5   0  -1 1188.18   25.40
   5   0  -1 1181.58   25.40
   4   0  -1    6.90    1.60
   4   0  -1    7.70    1.60
   4   0  -1    7.30    1.40
   3   0  -1   18.90    1.90
   3   0  -1   20.50    2.00
   3   0  -1   17.60    1.70
   2   0  -1    3.80    1.10
   2   0  -1    2.40    0.90
   1   0  -1 1754.92   33.20
   1   0  -1 1708.93   33.30
   0   0   1   -1.50    0.20
   0   0  -1   -1.70    0.20
   0   0   1   -1.70    0.30
   0   0  -1   -1.10    0.30
   0   0   1   -1.70    0.30
   1   0   1 2762.72   52.29
   2   0   1    0.20    0.90
   3   0   1   18.90    2.00
   4   0   1   -0.90    1.00
   5   0   1   37.60    2.60
   5   0   1   34.30    3.10
   5   0   1   38.10    2.60
   6   0   1    2.80    1.80
   6   0   1    0.90    1.30
   6   0   1    2.60    1.50
   7   0   1   53.69    4.40
   7   0   1   55.29    3.90
   8   0   1    9.70    2.80
   9   0   1   32.70    4.50
   9  -1  -1   40.40    4.80
   9   1  -1   48.90    5.10
   8  -1  -1  115.09    6.70
   8   1  -1  127.19    6.70
   8   1  -1  121.09    6.40
   7  -1  -1   21.40    3.20
   7   1  -1   25.40    3.00
   7   1  -1   24.70    3.30
   7   1  -1   25.90    3.30
   6  -1  -1   47.10    3.60
   6  -1  -1   48.90    4.00
   6   1  -1   45.70    3.50
  -6   1   1   51.49    4.30
   6   1  -1   47.10    3.60
   6   1  -1   46.70    3.40
   5  -1  -1   89.79    4.30
   5  -1  -1   91.99    4.50
  -5   1   1   87.09    4.70
   5   1  -1   79.99    4.00
   5   1  -1   81.69    3.80
   5   1  -1   76.39    4.10
   4  -1  -1   12.30    1.90
   4  -1  -1   10.90    1.80
   4   1  -1   10.50    1.70
   4   1  -1   14.10    1.80
   4   1  -1   16.30    2.10
  -4   1   1   10.10    1.90
   3  -1  -1  713.63   15.60
  -3   1   1  710.83   16.20
   3   1  -1  710.03   15.10
   3   1  -1  711.63   15.10
   3   1  -1  705.63   15.10
   2  -1  -1  424.26   10.30
   2   1  -1  431.46    9.40
   2   1  -1  420.56    9.40
   2   1  -1  433.56    9.10
  -2   1   1  415.86   10.20
   2   1  -1  426.86    9.30
   1   1  -1 2324.17   44.40
   1   1  -1 2352.56   43.60
  -1   1   1 2287.67   44.30
   1   1  -1 2358.26   44.20
  -1   1   1 2283.67   44.70
   1   1  -1 2279.87   43.90
   1   1  -1 2290.67   44.10
   0  -1   1  171.88    4.30
   0   1   1  178.28    3.90
   0   1   1  178.88    4.20
   0   1  -1  173.88    4.50
   0   1  -1  176.98    4.10
   0   1   1  179.68    4.10
   0   1  -1  172.68    4.30
   1  -1   1  786.42   15.40
   1  -1   1  766.22   15.50
   1   1   1  769.62   15.50
  -1   1  -1  769.82   15.90
   2  -1   1  967.70   19.70
   2  -1   1  980.10   20.00
   2   1   1  988.00   19.90
  -2   1  -1  974.90   20.00
   3  -1   1  402.06    9.20
   3  -1   1  403.86    9.70
  -3   1  -1  390.06    9.50
   3   1   1  381.36    9.50
   4  -1   1   60.19    3.00
   4   1   1   76.39    3.60
  -4   1  -1   54.69    3.20
   5  -1   1  267.47    7.80
   5  -1   1  275.27    8.50
  -5   1  -1  269.27    8.40
   5   1   1  247.08    8.10
   6  -1   1   15.00    2.40
   6  -1   1   12.50    2.50
   6   1   1    8.10    1.80
   6   1   1   11.40    2.40
   6   1   1   12.80    2.10
   7  -1   1  434.56   13.40
   7  -1   1  449.95   12.80
   7   1   1  460.95   13.40
   7   1   1  458.75   12.00
   7   1   1  429.56   12.00
   8  -1   1    6.00    2.40
   8   1   1    5.40    2.30
   8   1   1    4.20    1.90
   9  -1   1   53.49    5.60
   9   1   1   63.89    5.70
   9  -2  -1   83.59    6.40
   9   2  -1   88.89    6.00
   9   2  -1   92.79    6.20
   8  -2  -1  309.17   11.20
   8   2  -1  297.07   10.60
   8   2  -1  309.27   10.70
   7  -2  -1  180.28    7.70
   7   2  -1  190.08    7.50
   7   2  -1  189.28    7.60
   7   2  -1  181.98    7.20
  -7   2   1  200.08    9.30
   6  -2  -1 1009.60   25.70
   6  -2  -1 1004.70   23.80
  -6   2   1  998.00   25.30
   6   2  -1 1023.70   22.80
   6   2  -1 1018.30   23.00
   6   2  -1 1036.80   23.10
   5  -2  -1  275.97    8.70
   5  -2  -1  269.47    8.70
   5   2  -1  278.37    8.20
   5   2  -1  266.27    8.10
  -5   2   1  279.87    9.80
   5   2  -1  269.67    7.90
   4  -2  -1  486.85   12.50
  -4   2   1  483.65   13.40
   4   2  -1  493.45   11.70
   4   2  -1  504.85   11.80
   4   2  -1  501.05   11.90
  -3   2   1 1243.88   26.20
   3   2  -1 1170.78   24.40
   3   2  -1 1161.88   23.90
   3   2  -1 1174.38   24.40
  -2   2   1   64.89    3.10
   2   2  -1   66.69    2.90
   2   2  -1   68.49    2.90
  -2   2   1   60.39    3.50
   2   2  -1   70.79    2.90
   2   2  -1   67.69    2.30
  -1   2   1  486.55   11.90
   1   2  -1  501.75   11.10
  -1   2   1  476.85   11.30
   1   2  -1  510.75   11.50
   1   2  -1  522.75   10.70
   0  -2   1  366.86    8.70
   0   2   1  371.56    8.80
   0   2   1  365.26    8.00
   0   2  -1  365.86    9.10
   0   2  -1  366.26    8.70
   0   2   1  366.66    8.50
   0   2  -1  372.96    8.30
   1   2   1  144.79    3.50
  -1   2  -1  141.09    5.00
   1   2   1  148.69    4.00
   1   2   1  148.59    4.00
   2  -2   1   35.50    2.30
  -2   2  -1   39.10    2.80
   2   2   1   29.70    2.00
   3  -2   1   35.70    2.40
   3  -2   1   35.20    2.40
   3   2   1   30.80    2.20
  -3   2  -1   33.30    2.80
   4  -2   1    1.80    1.30
   4  -2   1    1.30    1.20
   4   2   1    1.80    1.30
  -4   2  -1    3.60    1.60
   5  -2   1    5.30    1.80
   5  -2   1    5.40    1.70
  -5   2  -1    6.80    2.10
   5   2   1    9.20    2.00
   6  -2   1  272.87    9.50
   6  -2   1  285.07    9.30
   6   2   1  289.17    8.30
   6   2   1  298.77    9.60
  -6   2  -1  272.67   10.30
   6   2   1  295.17    8.20
   7  -2   1   23.70    3.50
   7   2   1   14.20    2.40
   7   2   1   16.10    2.50
   7   2   1   17.40    3.00
   8  -2   1   31.40    4.30
   8   2   1   25.30    3.80
   8   2   1   23.20    3.20
   9  -2   1    3.60    2.30
   9   2   1   -0.20    2.20
   9   2   1    0.90    1.70
   9  -3  -1   37.90    5.00
   9   3  -1   33.50    4.50
   9   3  -1   31.20    4.40
   8  -3  -1  135.79    7.30
   8   3  -1  132.79    6.70
   8   3  -1  140.59    7.10
   7  -3  -1  123.89    6.60
  -7   3   1  131.29    7.90
   7   3  -1  120.89    5.90
   7   3  -1  116.99    6.10
   6  -3  -1    0.70    1.70
  -6   3   1    3.50    2.40
   6   3  -1    3.50    1.60
   6   3  -1    3.60    1.80
   6   3  -1    3.00    1.70
   5  -3  -1    3.90    1.70
   5   3  -1    0.80    1.20
  -5   3   1    3.30    2.10
   5   3  -1    3.50    1.40
   5   3  -1    3.00    1.60
   4   3  -1   23.80    2.30
  -4   3   1   21.40    3.30
   4   3  -1   21.60    2.50
   4   3  -1   22.60    2.30
   3   3  -1  534.85   12.70
  -3   3   1  548.85   14.60
   3   3  -1  533.45   12.80
   3   3  -1  530.75   11.90
  -2   3   1    9.90    2.10
   2   3  -1    7.40    1.40
  -2   3   1    5.40    1.30
   2   3  -1    8.90    1.70
   2   3  -1    6.80    1.40
   2   3  -1    7.50    1.20
   1   3  -1  568.84   13.30
  -1   3   1  567.44   13.40
  -1   3   1  581.54   14.10
   1   3  -1  564.84   13.60
   1   3  -1  565.54   12.50
   0  -3   1   78.39    3.50
   0   3   1   88.29    3.80
   0   3  -1   76.39    3.90
   0   3  -1   78.09    3.60
   0   3   1   89.49    3.60
   0   3   1   90.09    3.20
   0   3  -1   75.59    3.20
  -1   3  -1  855.31   18.00
  -1   3  -1  860.31   19.40
   1   3   1  807.52   17.70
   1   3   1  824.12   17.90
  -1   3  -1  854.91   18.50
   1   3   1  829.82   17.00
   2   3   1   24.20    1.90
   2   3   1   25.70    2.00
  -2   3  -1   33.60    3.00
   3  -3   1   25.20    2.50
  -3   3  -1   25.90    3.00
   3   3   1   24.00    1.90
   3   3   1   26.60    2.10
   3   3   1   24.50    2.00
   4  -3   1  415.76   11.30
   4  -3   1  418.86   11.70
   4   3   1  449.26   11.10
   4   3   1  435.26   10.30
  -4   3  -1  412.56   12.60
   4   3   1  433.06   10.40
   5  -3   1 1042.40   24.50
   5  -3   1 1049.70   24.30
  -5   3  -1 1045.80   25.80
   5   3   1 1087.19   22.80
   5   3   1 1081.29   22.90
   5   3   1 1072.99   23.80
   6  -3   1  255.17    9.00
   6   3   1  234.68    8.40
  -6   3  -1  256.97   10.20
   6   3   1  238.88    7.70
   6   3   1  253.57    7.80
   7  -3   1  103.69    6.10
   7   3   1  104.69    5.90
   7   3   1  102.29    5.10
   7   3   1   98.19    5.00
   8  -3   1    0.30    1.80
   8   3   1    2.60    2.10
   8   3   1    2.00    1.50
   9  -3   1   70.59    6.00
   9   3   1   71.79    5.20
   9   3   1   72.99    5.90
   9  -4  -1    1.80    2.60
   9   4  -1    2.20    2.20
   9   4  -1    2.80    2.20
   8  -4  -1   -0.20    2.00
   8   4  -1   -1.00    1.70
   8   4  -1    0.80    1.80
   7  -4  -1 1141.99   28.10
   7   4  -1 1167.58   26.90
   7   4  -1 1169.98   27.60
  -7   4   1 1206.68   31.30
   6  -4  -1    6.10    2.20
  -6   4   1    6.30    2.80
   6   4  -1   11.50    2.90
   6   4  -1    8.30    2.00
   6   4  -1   12.70    2.70
   5   4  -1  426.16   12.10
   5   4  -1  430.36   12.00
   5   4  -1  433.96   11.30
  -5   4   1  421.16   14.40
   4   4  -1    7.50    2.00
   4   4  -1   10.70    1.70
  -4   4   1   10.50    2.80
   4   4  -1    7.90    1.80
   3   4  -1  775.92   17.50
   3   4  -1  787.12   18.30
  -3   4   1  814.02   20.70
   3   4  -1  770.02   18.30
  -3   4   1  807.02   19.10
  -2   4   1  248.98    9.20
   2   4  -1  264.87    8.10
   2   4  -1  262.57    7.90
   2   4  -1  273.07    7.20
  -2   4   1  250.57    8.30
   2   4  -1  274.57    8.10
   1   4  -1 1108.19   24.10
   1   4  -1 1091.59   24.40
  -1   4   1 1091.39   25.00
  -1   4   1 1089.29   24.30
  -1   4   1 1085.99   23.30
   1   4  -1 1106.79   23.00
   0  -4   1  165.28    5.80
   0   4   1  165.38    5.20
   0   4   1  173.58    6.10
   0   4  -1  158.58    6.40
   0   4   1  164.98    6.20
   0   4  -1  158.88    5.40
   0   4  -1  168.38    6.10
  -1   4  -1   26.20    3.00
   1   4   1   24.20    1.90
   1   4   1   24.50    2.30
  -1   4  -1   30.00    2.70
   1   4   1   25.00    2.40
  -1   4  -1   30.30    2.50
   2   4   1   62.09    3.30
   2   4   1   64.89    3.50
  -2   4  -1   65.29    3.60
  -2   4  -1   65.69    4.50
   2   4   1   61.89    2.50
   3   4   1    3.90    1.30
  -3   4  -1    3.10    1.90
   3   4   1    2.60    1.20
   4  -4   1   12.00    2.20
  -4   4  -1    8.90    2.80
   4   4   1   10.60    1.90
   4   4   1    8.70    1.70
   4   4   1   13.50    2.10
   5  -4   1  154.78    6.50
   5   4   1  146.09    6.00
   5   4   1  142.79    5.70
  -5   4  -1  143.09    7.60
   5   4   1  141.99    5.60
   6  -4   1   78.59    5.20
   6   4   1   87.69    4.60
   6   4   1   85.79    4.60
   6   4   1   80.79    4.90
  -6   4  -1   76.99    6.20
   7  -4   1  103.39    6.30
   7   4   1   98.79    5.30
   7   4   1  102.19    5.90
   7   4   1  109.69    6.50
   8  -4   1    7.40    2.60
   8   4   1   14.00    3.20
   8   4   1   10.90    2.70
   8  -5  -1    7.30    2.80
   8   5  -1    9.50    2.50
  -8   5   1    3.10    3.10
   8   5  -1    9.80    2.80
   7  -5  -1   81.09    5.80
   7   5  -1   77.29    4.90
  -7   5   1   86.19    7.30
   7   5  -1   80.79    5.60
  -6   5   1   88.49    7.20
   6   5  -1   91.59    4.80
   6   5  -1   97.79    5.70
  -5   5   1    7.60    3.00
   5   5  -1    4.60    1.60
   5   5  -1    3.20    1.80
  -4   5   1    3.60    2.30
   4   5  -1    3.60    1.80
   4   5  -1    4.70    1.80
  -3   5   1   75.19    5.70
   3   5  -1   59.29    4.00
   3   5  -1   65.49    3.80
   3   5  -1   62.89    4.20
   2   5  -1  239.98    8.20
  -2   5   1  240.08    7.90
  -2   5   1  244.88    9.50
  -2   5   1  252.57    8.70
   2   5  -1  237.98    8.30
   2   5  -1  239.38    7.10
  -1   5   1  794.12   19.20
  -1   5   1  771.52   19.90
   1   5  -1  771.12   18.90
   1   5  -1  781.82   17.60
   1   5  -1  764.42   19.20
  -1   5   1  775.12   17.90
   0  -5   1   57.59    3.70
   0   5   1   56.39    3.20
   0   5  -1   56.19    3.40
   0   5  -1   58.49    3.90
   0   5   1   51.59    3.70
   0   5   1   53.29    4.00
   0   5  -1   60.39    4.40
   1   5   1 1038.70   22.40
  -1   5  -1 1065.89   25.80
  -1   5  -1 1082.29   24.50
   1   5   1 1037.30   24.10
  -1   5  -1 1104.39   23.70
   1   5   1 1031.50   23.70
   2   5   1   12.70    2.30
  -2   5  -1    9.30    2.30
  -2   5  -1   12.30    3.00
   2   5   1   11.60    1.60
  -2   5  -1   15.40    2.50
  -3   5  -1  127.99    7.30
   3   5   1  131.29    5.70
   3   5   1  136.99    5.60
   4   5   1   60.09    3.80
  -4   5  -1   60.89    5.50
   4   5   1   61.29    4.00
   5  -5   1  903.21   21.40
  -5   5  -1  862.21   24.30
   5   5   1  862.31   20.70
   5   5   1  876.71   21.00
   6  -5   1    8.60    2.50
  -6   5  -1   17.60    4.10
   6   5   1   10.70    2.50
   6   5   1   10.20    2.40
   7  -5   1   47.50    5.00
   7   5   1   41.20    4.10
   7   5   1   38.10    4.20
   8  -5   1    6.00    2.70
   8   5   1    5.30    2.20
   8   5   1    2.40    2.20
   7  -6  -1  127.69    7.50
   7   6  -1  121.19    7.20
  -7   6   1  125.89    9.30
  -6   6   1  147.59    9.50
   6   6  -1  139.69    7.40
  -5   6   1   76.19    6.80
   5   6  -1   65.69    5.00
   4   6  -1  488.45   14.60
  -4   6   1  503.85   17.20
   3   6  -1  271.87    9.60
  -3   6   1  252.97    9.20
  -3   6   1  267.27   11.20
   3   6  -1  262.57    8.60
   2   6  -1    2.80    1.40
   2   6  -1    1.00    1.60
  -2   6   1    2.30    1.80
  -2   6   1    1.00    1.90
   2   6  -1    0.60    1.60
  -2   6   1    3.60    2.00
   1   6  -1   47.70    3.30
  -1   6   1   44.70    4.00
   1   6  -1   43.60    4.20
   1   6  -1   37.80    3.90
  -1   6   1   48.10    3.70
  -1   6   1   48.30    4.60
   0   6   1    1.30    1.50
   0   6   1    2.60    1.40
   0   6   1    2.30    1.90
   0   6  -1    3.50    2.10
   0   6  -1    1.70    1.40
   0   6  -1    1.60    1.70
   1   6   1  117.79    6.00
  -1   6  -1  111.49    5.50
  -1   6  -1  121.99    6.20
   1   6   1  120.19    4.90
   1   6   1  117.19    5.80
  -1   6  -1  122.79    7.00
  -2   6  -1  163.98    6.90
   2   6   1  172.08    5.50
   2   6   1  164.98    7.10
  -2   6  -1  173.58    8.80
   3   6   1   -0.20    1.40
  -3   6  -1   -1.00    1.40
  -3   6  -1    0.00    2.20
  -4   6  -1  168.88    9.20
   4   6   1  173.88    7.40
  -4   6  -1  168.58    7.50
   5  -6   1   10.90    2.60
  -5   6  -1    8.20    3.20
   5   6   1    9.20    2.50
   6  -6   1   11.00    2.80
  -6   6  -1   12.40    3.70
   6   6   1   12.60    2.80
   7  -6   1   15.70    3.40
  -7   6  -1   18.80    4.90
   7   6   1   14.30    3.10
   7  -7  -1   -0.20    2.20
  -7   7   1   -1.50    2.90
   7   7  -1   -1.20    1.90
   6   7  -1   84.69    6.30
  -6   7   1   76.09    7.80
  -5   7   1   28.00    5.50
   5   7  -1   24.80    4.10
  -4   7   1  114.39    6.50
   4   7  -1  122.99    7.00
  -4   7   1  113.49    8.30
   3   7  -1   89.09    5.90
  -3   7   1   95.19    7.20
  -3   7   1   89.89    5.60
   3   7  -1   93.19    5.20
   2   7  -1    4.60    2.00
  -2   7   1    6.40    2.30
  -2   7   1    1.80    2.10
   2   7  -1    2.90    1.50
   2   7  -1    4.50    2.20
  -1   7   1   87.79    5.90
  -1   7   1   97.29    5.30
   1   7  -1   89.49    4.90
   1   7  -1   88.39    6.00
  -1   7   1   94.39    6.40
   1   7  -1   82.79    5.70
   0   7  -1    4.60    1.80
   0   7   1    5.80    1.80
   0   7   1    8.10    2.70
   0   7  -1    7.10    2.40
   0   7  -1    7.10    2.70
   0   7   1    6.80    2.50
  -1   7  -1   31.50    3.50
  -1   7  -1   38.00    4.50
   1   7   1   31.40    3.20
   1   7   1   28.30    3.60
   1   7   1   33.50    4.40
  -2   7  -1  407.66   12.60
  -2   7  -1  433.36   15.40
   2   7   1  408.06   13.30
   2   7   1  395.56   10.50
   2   7   1  391.86   11.50
  -3   7  -1  255.27   12.00
  -3   7  -1  261.47    9.80
   3   7   1  272.57   10.40
  -4   7  -1  135.59    7.20
  -4   7  -1  135.89    9.10
   4   7   1  133.19    7.10
   5  -7   1   84.69    5.50
   5   7   1   88.59    5.90
  -5   7  -1   87.49    7.70
  -5   7  -1   91.89    6.10
   6  -7   1   15.80    3.30
  -6   7  -1   13.80    4.30
  -6   7  -1   17.60    3.60
   6   7   1   16.30    3.50
  -5   8   1  247.28   10.70
  -5   8   1  252.47   13.50
   5   8  -1  250.77   11.20
   4   8  -1   41.50    5.40
  -4   8   1   35.80    4.60
  -4   8   1   36.40    6.00
  -3   8   1    3.50    2.80
  -3   8   1    2.10    2.00
   3   8  -1    1.60    1.80
   3   8  -1    2.20    2.20
  -2   8   1   86.39    5.50
  -2   8   1   82.49    7.00
   2   8  -1   75.69    5.60
   2   8  -1   76.79    4.60
   2   8  -1   77.99    5.90
  -1   8   1   75.09    5.00
   1   8  -1   78.69    6.10
  -1   8   1   65.49    6.00
   1   8  -1   82.89    4.90
   0   8   1  145.19    8.10
   0   8   1  153.88    6.80
   0   8  -1  156.78    7.10
   0   8  -1  156.98    8.80
   1   8   1   87.99    6.30
  -1   8  -1   97.59    5.70
   1   8   1   83.09    4.70
   1   8   1   95.29    6.10
  -1   8  -1   92.09    7.00
  -2   8  -1   36.40    4.30
   2   8   1   38.60    4.60
  -2   8  -1   45.10    6.50
   2   8   1   36.20    3.10
  -3   8  -1    2.40    3.20
  -3   8  -1    0.70    1.90
   3   8   1    0.40    1.90
  -4   8  -1  105.89    8.90
   4   8   1  110.69    7.10
  -4   8  -1  120.99    7.20
   5  -8   1    8.20    2.60
  -5   8  -1    6.00    3.80
   5   8   1    4.70    2.50
  -5   8  -1    6.40    2.90
   4   9  -1   21.90    5.10
  -4   9   1   31.90    6.70
  -4   9   1   28.00    4.50
  -3   9   1  111.19    7.00
  -3   9   1  111.39    9.00
   2   9  -1   77.49    6.00
  -2   9   1   75.09    5.60
  -2   9   1   80.49    7.40
   2   9  -1   70.69    4.70
   1   9  -1   54.19    5.70
  -1   9   1   61.09    4.80
  -1   9   1   60.59    6.20
   1   9  -1   53.09    4.50
   0   9  -1   74.49    5.30
   0   9   1   87.29    6.70
   0   9  -1   73.09    6.70
   0   9   1   76.49    5.10
   1   9   1    5.50    2.60
  -1   9  -1    7.30    3.70
  -1   9  -1    6.70    2.50
   1   9   1    5.10    2.00
   2   9   1    2.80    2.50
   2   9   1    3.50    1.70
  -2   9  -1    3.60    2.30
  -2   9  -1    3.50    3.30
  -3   9  -1  246.98   10.90
   3   9   1  264.57   11.70
  -3   9  -1  263.77   13.70
  -4   9  -1   17.70    3.90
  -4   9  -1   21.50    6.00
   4   9   1   22.60    4.40
   0  10   1  104.69    7.60
   0  10  -1   96.09    8.10
   9   0  -2    4.40    2.50
   8   0  -2  158.88    7.50
  -7   0   2    0.70    1.90
   7   0  -2    3.10    1.80
   6   0  -2  151.18    6.50
  -6   0   2  147.19    6.80
   6   0  -2  141.49    6.00
   6   0  -2  149.49    6.20
   5   0  -2    5.20    1.80
   5   0  -2    4.50    1.60
  -5   0   2    7.20    2.10
   5   0  -2    4.80    1.50
   4   0  -2   83.99    4.00
   4   0  -2   84.99    3.80
   4   0  -2   81.09    3.70
   3   0  -2    2.30    1.30
   3   0  -2    1.30    1.00
   2   0  -2   65.19    3.10
   2   0  -2   65.29    3.30
  -1   0   2   -0.40    0.80
  -1   0   2   -0.80    1.00
   1   0  -2   -2.10    0.90
   1   0  -2   -1.00    0.90
   0   0   2 2279.17   41.60
   0   0  -2 2203.88   41.70
   0   0   2 2245.98   41.50
   0   0   2 2099.59   41.40
   0   0  -2 2127.49   41.30
   1   0   2    1.10    0.80
   2   0   2   24.20    1.80
   3   0   2    1.50    1.10
   4   0   2   82.49    4.00
   5   0   2    6.40    1.80
   6   0   2 1232.48   26.00
   6   0   2 1217.18   27.80
   7   0   2    0.50    1.70
   7   0   2    3.80    1.70
   8   0   2   27.70    4.00
   9   0   2    1.50    2.40
   9  -1  -2    9.20    3.00
   9   1  -2    6.50    2.70
   8  -1  -2  117.99    6.50
   8   1  -2  116.09    6.50
   8   1  -2  117.19    6.30
   7  -1  -2   21.60    3.20
   7   1  -2   17.10    3.00
  -7   1   2   22.50    3.90
   7   1  -2   21.10    3.10
   6  -1  -2  422.26   12.30
   6  -1  -2  418.06   12.10
   6   1  -2  432.26   12.10
   6   1  -2  444.36   11.90
   6   1  -2  433.06   11.80
  -6   1   2  412.86   13.10
   5  -1  -2    9.70    2.00
   5  -1  -2    7.20    1.80
   5   1  -2    8.70    1.80
   5   1  -2    8.70    2.10
   5   1  -2    6.60    1.60
  -5   1   2    8.40    2.20
   4  -1  -2  133.89    4.90
   4   1  -2  119.09    4.40
   4   1  -2  114.79    4.70
  -4   1   2  138.19    5.60
   4   1  -2  118.79    4.50
   3   1  -2   39.90    2.40
   3   1  -2   39.10    2.50
  -3   1   2   32.40    2.80
   3   1  -2   40.30    2.60
   3   1  -2   44.00    2.30
   2   1  -2 7815.62  146.09
  -2   1   2 7702.13  148.09
   2   1  -2 7542.25  149.69
   2   1  -2 7668.03  147.09
   2   1  -2 7638.04  146.69
  -2   1   2 7565.44  148.19
  -1  -1   2  994.40   20.40
   1   1  -2 1010.50   20.20
   1   1  -2  991.40   20.50
  -1   1   2 1055.99   20.60
   1   1  -2 1023.00   21.00
  -1   1   2 1035.50   21.00
   0  -1   2   13.40    1.30
   0  -1  -2   13.40    1.30
   0  -1   2   13.10    0.80
   0   1   2   14.40    1.10
   0   1  -2   11.60    1.20
   0   1   2   14.60    1.20
   0   1  -2   13.80    1.60
   1  -1   2  232.48    5.50
   1  -1   2  227.68    5.30
  -1   1  -2  225.78    5.70
   1   1   2  220.68    5.60
   2  -1   2  471.45   10.60
   2  -1   2  477.55   10.20
  -2   1  -2  459.25   10.40
   2   1   2  481.15   10.70
   3  -1   2  149.59    5.00
   3  -1   2  147.89    4.30
   3   1   2  135.19    4.80
  -3   1  -2  147.99    4.60
   4  -1   2  343.47    8.50
   4  -1   2  356.56    9.60
  -4   1  -2  343.17    8.90
   4   1   2  333.67    9.40
   5  -1   2    2.20    1.30
   5  -1   2    2.60    1.70
   5   1   2    1.40    1.50
  -5   1  -2    3.00    1.40
   6  -1   2  174.08    7.20
   6  -1   2  186.28    6.60
   6   1   2  185.28    7.40
   7  -1   2   13.60    2.80
   7  -1   2   22.10    3.20
   7   1   2   10.40    2.60
   8  -1   2    8.10    2.90
   8   1   2    4.90    2.40
   8   1   2   10.40    2.40
   9  -1   2   59.19    5.70
   9   1   2   57.79    5.50
   9  -2  -2    3.20    2.40
   9   2  -2    1.50    2.20
   9   2  -2    2.10    2.00
   8  -2  -2   20.20    3.40
   8   2  -2   22.40    3.60
   8   2  -2   25.10    3.50
   7  -2  -2   22.20    3.30
   7   2  -2   26.00    3.30
   7   2  -2   25.50    3.50
  -7   2   2   29.60    4.60
   6  -2  -2    8.80    2.20
  -6   2   2    9.30    2.80
   6   2  -2    8.70    2.10
   6   2  -2    8.90    2.00
   6   2  -2    9.70    2.40
   5  -2  -2  273.67    8.90
  -5   2   2  266.17    9.90
   5   2  -2  288.77    8.10
   5   2  -2  269.07    8.50
   5   2  -2  285.67    8.40
   4   2  -2    1.80    1.30
   4   2  -2    2.50    1.10
  -4   2   2    1.80    1.70
   4   2  -2    1.70    1.00
   3   2  -2   55.79    2.40
   3   2  -2   57.49    3.10
   3   2  -2   52.09    2.80
   3   2  -2   53.29    3.10
  -3   2   2   39.30    3.40
  -2   2   2  199.88    6.80
   2   2  -2  211.18    4.80
   2   2  -2  222.08    6.40
   2   2  -2  215.08    6.10
   2   2  -2  214.48    6.10
  -2   2   2  196.58    6.20
  -1  -2   2   18.30    1.90
   1   2  -2   17.90    2.20
  -1   2   2   16.80    1.80
  -1   2   2   20.40    2.30
   1   2  -2   20.00    1.70
   1   2  -2   18.30    1.90
   0  -2   2    7.30    1.30
   0   2   2    4.30    0.90
   0   2   2    4.40    1.10
   0   2   2    5.20    1.10
   0   2  -2    9.20    1.70
   0   2  -2    6.20    1.10
   0   2  -2    7.50    1.30
   1  -2   2  186.38    4.60
   1  -2   2  184.18    5.40
  -1   2  -2  178.98    5.70
  -1   2  -2  180.58    5.00
   2  -2   2   64.49    2.80
   2  -2   2   69.99    3.10
   2   2   2   63.69    2.90
  -2   2  -2   64.59    3.40
   3  -2   2   22.50    2.10
   3  -2   2   22.40    2.10
   3   2   2   25.70    2.20
  -3   2  -2   24.60    2.50
   4  -2   2  882.21   20.00
   4  -2   2  905.71   19.80
   4   2   2  889.61   20.00
  -4   2  -2  879.21   20.50
   5  -2   2  226.48    7.40
   5  -2   2  215.58    7.60
   5   2   2  201.58    7.40
  -5   2  -2  210.48    7.90
   6  -2   2  410.56   11.90
   6  -2   2  413.36   12.50
   6   2   2  423.96   12.30
   7  -2   2  375.66   12.40
   7   2   2  390.86   12.40
   8  -2   2   46.30    5.20
   8   2   2   45.80    3.70
   8   2   2   56.29    5.20
   9  -2   2  104.79    7.10
   9   2   2  105.99    5.80
   9   2   2  114.79    7.40
   9  -3  -2    3.50    2.40
   9   3  -2   -0.40    1.90
   9   3  -2    0.10    2.10
   8  -3  -2  108.49    6.70
   8   3  -2  103.09    5.90
   8   3  -2  101.29    6.40
   7  -3  -2    3.20    2.10
  -7   3   2    5.60    2.90
   7   3  -2    2.80    1.80
   7   3  -2    5.90    2.20
   6   3  -2  102.59    5.20
   6   3  -2  102.49    4.80
   6   3  -2  102.89    5.40
  -6   3   2  108.09    6.90
   5   3  -2  185.88    6.80
   5   3  -2  193.58    7.00
   5   3  -2  187.48    6.10
  -5   3   2  172.48    8.20
   4   3  -2  906.51   20.90
   4   3  -2  905.71   19.50
   4   3  -2  924.21   20.90
  -4   3   2  966.40   23.20
   3   3  -2  745.13   17.30
   3   3  -2  776.82   15.90
   3   3  -2  775.72   17.60
  -3   3   2  758.22   19.00
  -3   3   2  765.72   17.90
   3   3  -2  753.42   17.20
  -2   3   2 2441.46   50.09
   2   3  -2 2465.25   49.10
  -2   3   2 2397.16   49.00
   2   3  -2 2444.06   48.70
   2   3  -2 2488.55   47.80
  -1  -3   2    5.80    1.50
   1   3  -2    3.70    1.20
  -1   3   2    6.70    1.50
  -1   3   2    9.70    2.00
   1   3  -2    6.70    1.70
   1   3  -2    5.50    1.20
   0  -3   2  136.39    4.70
   0   3  -2  137.79    5.30
   0   3   2  113.19    4.40
   0   3   2  116.29    3.90
   0   3  -2  139.09    4.80
   0   3   2  111.99    4.40
   0   3  -2  139.59    4.40
   1   3   2   11.70    1.20
  -1   3  -2   11.20    2.10
  -1   3  -2    9.30    1.50
   1   3   2   12.10    1.60
   2  -3   2  216.38    6.10
   2  -3   2  213.08    7.70
  -2   3  -2  212.98    7.60
   2   3   2  219.68    5.80
   2   3   2  234.48    6.00
   3  -3   2   26.20    2.40
   3  -3   2   25.80    2.50
   3   3   2   31.80    2.40
  -3   3  -2   27.20    3.10
   4  -3   2  222.88    7.60
   4  -3   2  221.18    7.30
   4   3   2  227.78    7.30
  -4   3  -2  212.88    8.40
   5  -3   2   54.19    3.90
   5  -3   2   53.49    3.90
   5   3   2   51.29    3.80
  -5   3  -2   48.20    4.30
   6  -3   2   39.90    3.80
   6   3   2   41.00    3.90
   7  -3   2    4.70    2.20
   7   3   2    3.90    2.10
   8  -3   2   91.39    6.20
   8   3   2   80.99    5.80
   9  -4  -2    6.50    2.80
   9   4  -2    9.10    2.80
   9   4  -2    9.20    3.10
   8  -4  -2   22.20    4.00
  -8   4   2   25.80    5.10
   8   4  -2   27.70    4.10
   8   4  -2   23.90    3.40
   7  -4  -2   40.50    4.60
   7   4  -2   41.10    4.20
  -7   4   2   38.30    5.60
   7   4  -2   43.70    3.80
   6   4  -2  110.69    5.00
  -6   4   2  106.89    7.30
   6   4  -2  106.89    5.80
   5   4  -2    7.90    2.00
  -5   4   2    8.00    2.80
   5   4  -2   10.80    2.50
   5   4  -2   11.50    1.90
   4   4  -2  108.89    5.30
   4   4  -2  113.09    4.10
   4   4  -2  113.19    5.10
  -4   4   2  116.19    6.80
   4   4  -2  115.39    4.60
   3   4  -2   70.29    4.10
   3   4  -2   64.29    3.90
   3   4  -2   72.69    4.00
  -3   4   2   68.19    5.00
  -3   4   2   70.39    4.20
   2   4  -2   83.49    4.20
   2   4  -2   83.99    3.70
  -2   4   2   80.69    5.00
  -2   4   2   72.79    4.20
   2   4  -2   85.89    4.50
   1   4  -2  218.58    7.20
  -1   4   2  215.38    7.80
  -1   4   2  208.18    7.20
   1   4  -2  231.98    6.70
   1   4  -2  246.18    8.10
  -1   4   2  203.98    6.50
   0  -4   2    4.30    1.40
   0   4   2    5.30    1.60
   0   4   2    4.90    1.20
   0   4  -2    3.30    1.70
   0   4  -2    2.30    1.20
   0   4   2    4.20    1.40
   0   4  -2    5.40    1.40
   1   4   2   41.80    2.80
   1   4   2   41.80    2.50
  -1   4  -2   36.00    2.90
   1   4   2   40.40    2.10
  -1   4  -2   34.50    2.80
  -1   4  -2   33.60    3.40
  -2   4  -2  339.27   11.00
   2   4   2  345.57    9.20
   2   4   2  330.37    9.00
  -2   4  -2  347.87    9.50
   3  -4   2  186.38    6.40
   3   4   2  200.58    6.30
   3   4   2  201.28    6.20
  -3   4  -2  190.98    8.30
   4  -4   2  504.35   13.30
   4   4   2  520.85   12.40
  -4   4  -2  493.45   15.40
   4   4   2  530.15   13.30
   4   4   2  532.15   12.70
   5  -4   2    5.10    1.90
   5   4   2    5.50    1.60
  -5   4  -2    5.60    2.50
   5   4   2    4.50    1.50
   5   4   2    7.40    2.00
   6  -4   2   26.60    3.40
  -6   4  -2   27.90    4.40
   6   4   2   30.60    3.60
   6   4   2   23.50    2.70
   7  -4   2    8.00    2.60
   7   4   2    5.20    2.30
   7   4   2    6.90    2.00
   7   4   2    9.40    2.20
   8  -4   2  437.66   15.00
   8   4   2  481.05   14.90
   8   4   2  457.15   13.40
   8  -5  -2   60.49    6.20
  -8   5   2   53.49    6.90
   8   5  -2   54.79    4.50
   8   5  -2   53.89    5.40
   7  -5  -2   -0.90    1.80
   7   5  -2    0.30    1.80
   7   5  -2    1.90    1.60
  -7   5   2    1.50    2.60
   6   5  -2   60.59    3.80
   6   5  -2   53.99    4.80
  -6   5   2   59.89    6.20
  -5   5   2   90.09    6.80
   5   5  -2   78.99    3.90
   5   5  -2   70.99    5.10
  -4   5   2  679.73   19.80
   4   5  -2  642.54   17.30
  -3   5   2  176.78    8.40
   3   5  -2  156.48    6.60
   3   5  -2  159.78    6.60
  -3   5   2  169.98    7.20
   3   5  -2  155.98    6.70
  -2   5   2   67.59    5.00
   2   5  -2   67.29    4.50
   2   5  -2   66.99    4.30
  -2   5   2   72.39    4.50
   2   5  -2   67.49    3.70
  -2   5   2   63.19    4.00
   1   5  -2    5.10    1.80
  -1   5   2    3.10    1.40
  -1   5   2    2.70    1.50
   1   5  -2    8.70    2.40
  -1   5   2    3.30    1.90
   1   5  -2    3.10    1.30
   0  -5   2  888.71   20.70
   0   5  -2  852.11   21.70
   0   5   2  886.91   20.90
   0   5  -2  899.41   21.00
   0   5   2  873.21   19.30
   0   5  -2  899.61   20.00
   0   5   2  851.91   20.80
   1  -5   2   23.10    2.90
  -1   5  -2   18.20    3.10
   1   5   2   27.10    2.90
   1   5   2   24.40    2.50
  -1   5  -2   24.10    2.80
  -1   5  -2   21.30    2.60
   1   5   2   27.30    2.20
   2   5   2  273.47    6.50
  -2   5  -2  259.57   10.30
  -2   5  -2  265.67    8.60
   2   5   2  269.27    8.60
   3   5   2  107.49    5.10
   3   5   2  111.99    5.00
  -3   5  -2  117.79    5.60
  -3   5  -2  118.79    6.90
   4  -5   2   34.10    3.20
   4   5   2   34.10    3.10
  -4   5  -2   38.30    4.60
   4   5   2   32.60    2.90
   5  -5   2   23.50    3.20
  -5   5  -2   29.70    4.70
   5   5   2   29.50    3.00
   5   5   2   31.10    3.10
   6  -5   2   61.19    4.70
   6   5   2   56.49    4.10
   6   5   2   59.19    4.10
  -6   5  -2   61.59    6.00
   7  -5   2   84.69    5.80
   7   5   2   95.99    5.50
   7   5   2   96.29    5.90
   8  -5   2   36.50    4.80
   8   5   2   25.60    3.70
   8   5   2   30.40    4.30
   7   6  -2  157.38    8.30
  -7   6   2  154.28   10.30
  -6   6   2    9.20    3.70
   6   6  -2    8.70    2.80
  -5   6   2    6.60    3.30
   5   6  -2    2.10    2.00
   4   6  -2   -0.20    1.30
  -4   6   2    0.90    2.40
   4   6  -2   -0.40    1.60
   3   6  -2  327.77    9.40
  -3   6   2  339.47   10.70
   3   6  -2  318.77   11.00
  -3   6   2  324.17   12.50
   3   6  -2  325.07   10.60
   2   6  -2   34.80    3.60
   2   6  -2   32.60    3.80
   2   6  -2   32.10    3.10
  -2   6   2   38.10    3.50
  -2   6   2   37.90    3.90
  -2   6   2   36.40    4.40
  -1   6   2  332.47   10.00
   1   6  -2  355.36   11.30
   1   6  -2  335.27   10.00
  -1   6   2  331.57   11.80
   1   6  -2  358.16   12.00
  -1   6   2  335.97   11.40
   0   6  -2   37.40    4.30
   0   6   2   37.20    3.00
   0   6   2   38.20    3.70
   0   6  -2   36.70    3.80
   0   6   2   37.50    3.80
   0   6  -2   43.50    3.40
   1  -6   2   38.80    4.90
   1   6   2   23.60    2.90
  -1   6  -2   27.80    4.10
   1   6   2   26.70    2.40
   1   6   2   24.50    3.30
  -1   6  -2   28.00    3.20
   2   6   2    1.60    1.10
  -2   6  -2    0.70    1.50
   2   6   2    1.20    1.60
  -2   6  -2   -0.50    1.80
  -3   6  -2   27.20    3.50
   3   6   2   24.60    3.20
  -3   6  -2   28.70    4.40
   4  -6   2  341.77   10.50
  -4   6  -2  347.37   13.80
  -4   6  -2  354.06   11.40
   4   6   2  341.87   11.10
   5  -6   2  217.78    8.50
   5   6   2  230.18    8.60
  -5   6  -2  219.68   11.20
   6  -6   2   75.39    5.20
   6   6   2   67.59    4.90
  -6   6  -2   67.79    6.90
   7  -6   2   83.39    5.90
   7   6   2   78.99    5.50
   7   7  -2   12.00    3.60
  -7   7   2    6.80    4.00
  -6   7   2   95.09    8.60
   6   7  -2   82.49    6.40
   5   7  -2   60.89    5.30
  -5   7   2   55.09    6.50
  -4   7   2   76.39    5.50
  -4   7   2   77.69    7.00
   4   7  -2   67.29    5.50
   3   7  -2  205.98    8.50
   3   7  -2  213.88    7.40
  -3   7   2  198.78    8.30
  -3   7   2  204.78   10.40
   3   7  -2  204.38    9.10
   2   7  -2  615.24   17.50
   2   7  -2  597.44   15.40
  -2   7   2  582.64   16.20
  -2   7   2  610.04   18.90
   2   7  -2  602.14   17.50
   1   7  -2  490.85   13.40
   1   7  -2  459.65   14.70
  -1   7   2  467.55   15.00
  -1   7   2  486.35   13.50
   1   7  -2  500.75   15.70
  -1   7   2  479.45   15.50
   0   7   2    7.10    1.80
   0   7   2    6.50    2.40
   0   7   2    5.30    2.10
   0   7  -2    8.60    2.10
   0   7  -2    8.90    2.90
  -1   7  -2   36.40    5.20
   1   7   2   22.60    3.60
   1   7   2   26.00    3.50
  -1   7  -2   28.30    3.50
   1   7   2   24.50    2.70
   2   7   2   82.29    3.70
  -2   7  -2   75.99    5.20
   2   7   2   81.59    5.50
  -2   7  -2   75.09    6.50
   3   7   2   17.10    3.20
  -3   7  -2   15.10    3.80
  -3   7  -2   16.70    3.20
   4  -7   2   62.19    4.40
  -4   7  -2   55.29    6.30
   4   7   2   59.79    4.90
  -4   7  -2   56.59    4.90
   5  -7   2  162.88    7.40
  -5   7  -2  159.08   10.20
  -5   7  -2  160.08    8.10
   5   7   2  154.98    7.60
   6  -7   2   56.99    4.80
  -6   7  -2   51.19    5.20
   6   7   2   48.30    4.70
  -6   7  -2   62.09    7.10
   6   8  -2   46.50    5.90
  -6   8   2   48.10    7.90
  -5   8   2   14.20    4.70
  -5   8   2   10.30    3.10
   5   8  -2    8.20    3.10
   4   8  -2   25.80    4.30
  -4   8   2   35.90    4.70
  -4   8   2   28.60    5.40
   3   8  -2  130.09    5.90
   3   8  -2  132.59    7.80
  -3   8   2  130.89    8.90
   3   8  -2  137.49    7.20
  -3   8   2  130.89    7.10
  -2   8   2    3.90    2.80
   2   8  -2    1.50    2.20
   2   8  -2    1.40    1.60
  -2   8   2    1.40    1.70
  -1   8   2  101.09    7.00
   1   8  -2  107.09    7.20
   1   8  -2  100.59    5.60
  -1   8   2   92.19    5.50
   0   8  -2   99.49    7.20
   0   8   2   92.19    5.10
   0   8  -2   99.09    5.70
   0   8   2   94.49    6.40
   0   8   2   97.39    6.70
   1   8   2  117.29    6.20
  -1   8  -2  112.19    6.30
   1   8   2  111.39    5.20
   1   8   2  109.49    6.90
  -1   8  -2  106.19    7.70
   2   8   2   18.90    2.30
  -2   8  -2   18.10    3.40
   2   8   2   16.20    3.40
  -2   8  -2   12.80    4.10
   3   8   2   49.10    5.00
  -3   8  -2   53.39    6.50
  -3   8  -2   47.20    4.90
   4  -8   2    9.00    2.50
  -4   8  -2    5.80    3.90
  -4   8  -2   11.50    3.10
   4   8   2    7.60    2.80
   5  -8   2   30.20    4.00
  -5   8  -2   37.00    5.00
  -5   8  -2   28.30    5.80
   5   8   2   37.10    5.00
  -4   9   2   43.60    6.90
  -4   9   2   37.30    5.00
  -3   9   2   -1.00    2.00
   3   9  -2    1.80    1.80
   3   9  -2    2.40    2.30
  -3   9   2   -0.10    2.80
  -2   9   2  499.95   15.40
   2   9  -2  495.85   14.40
  -2   9   2  490.75   18.10
   2   9  -2  506.65   16.70
   1   9  -2    3.40    2.80
  -1   9   2    4.90    2.80
  -1   9   2    1.00    1.70
   1   9  -2    2.70    2.00
   0   9  -2    2.10    1.90
   0   9  -2    1.30    2.60
   0   9   2    3.50    1.80
   0   9   2    1.30    2.20
   1   9   2   29.20    3.30
   1   9   2   28.20    3.70
  -1   9  -2   30.40    5.60
  -1   9  -2   31.30    4.40
   2   9   2   48.90    3.30
  -2   9  -2   51.99    5.10
   2   9   2   50.39    6.30
  -2   9  -2   54.39    6.70
  -3   9  -2   57.49    5.80
   3   9   2   62.69    6.00
  -3   9  -2   56.49    7.40
   9   0  -3    3.60    2.40
   8   0  -3    7.10    2.50
   7   0  -3   87.59    5.10
  -7   0   3   90.49    6.20
  -6   0   3    3.60    2.20
   6   0  -3    3.20    1.80
   6   0  -3    2.70    2.00
   6   0  -3    3.10    1.60
   5   0  -3  488.75   13.00
   5   0  -3  495.25   12.50
   5   0  -3  493.35   12.90
  -5   0   3  486.55   13.70
   4   0  -3    7.20    1.50
   4   0  -3    7.60    1.80
   3   0  -3 1065.79   22.70
   2   0  -3   14.80    2.00
  -2   0   3   15.90    2.10
   2   0  -3   15.10    1.80
  -2   0   3   18.50    1.90
  -1   0   3  124.49    3.90
   1   0  -3  126.09    4.30
   1   0  -3  115.89    4.40
   0   0   3    6.80    0.90
   0   0  -3    6.80    1.20
   0   0   3    6.90    1.20
   0   0   3    6.60    1.20
   0   0  -3   10.20    1.20
   0   0   3    8.10    1.10
   1   0   3 9999.00  190.08
   2   0   3   77.39    3.20
   3   0   3   28.00    2.40
   4   0   3    3.20    1.40
   5   0   3 1254.87   27.70
   6   0   3    5.70    2.00
   7   0   3   43.20    4.70
   8   0   3   -0.80    1.80
   8   0   3   -0.80    2.00
   9   0   3   76.19    6.40
   9  -1  -3    7.10    2.70
   9   1  -3    8.20    2.70
   8  -1  -3   82.09    5.50
   8   1  -3   79.29    5.60
   8   1  -3   86.29    5.50
   7  -1  -3  282.37    9.80
  -7   1   3  284.47   11.30
   7   1  -3  277.87    9.90
   7   1  -3  275.97    9.30
   6  -1  -3    2.80    1.80
  -6   1   3    4.90    2.30
   6   1  -3    4.70    1.80
   6   1  -3    3.40    1.90
   6   1  -3    4.20    1.70
   5  -1  -3  203.68    7.20
   5   1  -3  219.28    6.80
  -5   1   3  207.98    8.20
   5   1  -3  218.68    7.50
   5   1  -3  207.88    7.10
   4   1  -3   17.90    2.00
  -4   1   3   15.10    2.50
   4   1  -3   20.10    2.10
   4   1  -3   22.60    2.70
   3   1  -3   52.19    3.30
  -3   1   3   52.09    3.50
   3   1  -3   52.09    3.10
  -2  -1   3   37.80    2.40
  -2   1   3   35.30    3.00
   2   1  -3   37.40    2.50
  -2   1   3   31.90    2.40
   2   1  -3   38.70    2.80
  -1  -1   3  554.04   12.30
   1  -1  -3  576.74   12.80
  -1   1   3  570.34   12.80
   1   1  -3  534.95   12.30
   1   1  -3  561.24   12.00
   1   1  -3  555.64   12.90
  -1   1   3  558.14   12.30
   0  -1   3    2.30    0.70
   0  -1   3    3.40    1.10
   0  -1   3    3.20    1.20
   0  -1  -3    0.50    1.00
   0   1  -3    1.70    0.90
   0   1   3    0.70    0.60
   0   1   3    0.00    0.80
   0   1  -3    3.10    1.30
   1  -1   3    0.70    0.70
   1  -1   3   -0.40    0.90
   1   1   3   -0.20    0.90
  -1   1  -3    0.30    0.80
  -1   1  -3    0.70    0.70
   2  -1   3   57.69    2.70
  -2   1  -3   51.99    2.60
   2   1   3   58.29    2.80
   3  -1   3  188.88    5.90
   3   1   3  173.08    5.80
   4  -1   3   48.60    2.70
   4  -1   3   49.60    3.30
   4   1   3   55.69    3.50
   5  -1   3   21.60    2.90
   5  -1   3   18.80    2.30
   5   1   3   14.20    2.50
   6  -1   3    3.00    1.80
   6  -1   3    5.70    1.80
   6   1   3    2.80    1.80
   7  -1   3   10.10    2.70
   7  -1   3    9.30    2.30
   7   1   3    8.50    2.60
   8  -1   3    0.50    2.00
   8   1   3   -0.90    2.00
   9  -1   3  156.38    8.70
   9   1   3  160.28    8.70
   9  -2  -3   14.70    3.30
   9   2  -3   13.90    3.00
   9   2  -3   11.20    3.10
   8  -2  -3    0.00    1.80
   8   2  -3   -0.30    1.70
   8   2  -3    0.70    1.80
  -8   2   3    1.30    2.60
   7  -2  -3   49.60    4.40
  -7   2   3   49.60    5.30
   7   2  -3   47.30    4.30
   7   2  -3   54.49    4.00
   6   2  -3    7.00    1.90
  -6   2   3    9.40    3.00
   6   2  -3    5.90    1.80
   6   2  -3    7.50    2.20
   5   2  -3  486.15   13.10
  -5   2   3  520.65   14.90
   5   2  -3  459.25   12.80
   5   2  -3  482.35   12.00
   4   2  -3    4.70    1.70
   4   2  -3    5.00    1.70
  -4   2   3    3.50    1.80
   4   2  -3    5.50    1.30
   4   2  -3    4.00    1.30
   3   2  -3 2206.28   43.70
   3   2  -3 2198.18   42.00
   3   2  -3 2165.08   43.90
  -3   2   3 2152.58   45.00
  -3   2   3 2200.98   43.90
   3   2  -3 2111.39   44.60
   2   2  -3 1499.35   30.60
  -2   2   3 1523.75   31.60
  -2   2   3 1491.25   30.70
   2   2  -3 1467.65   28.50
   2   2  -3 1470.55   31.10
  -1  -2   3  305.77    7.90
  -1   2   3  298.57    8.20
  -1   2   3  292.87    7.80
   1   2  -3  306.77    7.50
   1   2  -3  299.37    7.90
   1   2  -3  303.77    8.50
   0  -2   3 3161.08   61.99
   0  -2   3 3208.68   60.19
   0   2   3 3215.38   61.49
   0   2  -3 3188.08   61.49
   0   2   3 3243.88   61.29
   0   2   3 3196.78   60.69
   0   2  -3 3205.28   62.69
   1  -2   3  185.18    4.70
   1  -2   3  184.98    5.50
  -1   2  -3  178.28    5.10
  -1   2  -3  185.98    6.00
   2  -2   3 2348.47   45.10
   2  -2   3 2316.77   45.50
   2   2   3 2269.17   45.40
  -2   2  -3 2286.17   46.10
   3  -2   3 2188.88   43.40
   3  -2   3 2152.78   43.20
  -3   2  -3 2164.78   44.10
   3   2   3 2187.98   43.60
   4  -2   3 1038.10   22.40
   4  -2   3 1025.60   22.90
  -4   2  -3 1012.30   23.10
   4   2   3 1036.60   22.90
   5  -2   3  560.34   13.80
   5  -2   3  541.35   14.40
   5   2   3  519.55   14.30
  -5   2  -3  555.54   16.10
   6  -2   3   81.29    5.20
   6  -2   3   86.29    4.90
   6   2   3   83.59    5.10
   7  -2   3   74.99    5.50
   7   2   3   68.89    5.20
   8  -2   3   23.70    3.80
   8   2   3   22.20    3.80
   9  -3  -3  201.98    9.50
   9   3  -3  197.98    8.60
   9   3  -3  190.88    9.40
   8  -3  -3  114.89    7.00
  -8   3   3  131.19    8.80
   8   3  -3  140.69    6.50
   8   3  -3  135.39    7.40
   7  -3  -3    1.50    2.00
   7   3  -3    2.80    1.60
  -7   3   3    4.30    2.60
   7   3  -3    3.60    2.20
   6   3  -3   55.49    4.40
  -6   3   3   55.09    5.40
   6   3  -3   58.19    3.60
   5   3  -3  197.38    7.60
   5   3  -3  199.38    7.40
   5   3  -3  204.38    6.30
  -5   3   3  202.98    9.10
   4   3  -3   16.80    2.40
   4   3  -3   20.00    2.90
   4   3  -3   17.60    2.30
  -4   3   3   14.70    3.00
   4   3  -3   18.60    1.90
   3   3  -3  490.15   12.60
  -3   3   3  484.15   12.90
  -3   3   3  488.35   13.90
   3   3  -3  492.75   12.80
   3   3  -3  491.15   10.50
   2   3  -3  735.13   16.00
   2   3  -3  719.03   16.70
   2   3  -3  709.03   17.20
  -2   3   3  711.53   16.90
  -2   3   3  719.03   17.70
  -1  -3   3   85.99    4.00
  -1   3   3   90.99    4.40
  -1   3   3   89.79    4.00
   1   3  -3   93.59    4.60
   1   3  -3   87.39    3.60
   1   3  -3   92.89    4.20
   0  -3   3    0.80    1.00
   0  -3   3    2.40    0.60
   0   3   3    3.10    1.10
   0   3   3    2.20    0.90
   0   3  -3    1.60    1.00
   0   3  -3    1.30    1.20
   0   3   3    3.60    1.20
   0   3  -3    3.00    1.60
   1  -3   3   33.40    1.80
  -1   3  -3   30.00    3.00
  -1   3  -3   34.40    2.50
   1   3   3   39.50    2.30
   2  -3   3   13.10    1.90
   2  -3   3   14.40    1.70
  -2   3  -3   12.70    2.40
  -2   3  -3   14.00    1.80
   3  -3   3    0.80    1.10
   3  -3   3    0.80    1.30
   3   3   3   -0.70    1.30
  -3   3  -3    2.20    1.60
   4  -3   3  428.16   11.80
   4  -3   3  412.16   11.40
   4   3   3  455.05   11.80
  -4   3  -3  421.66   12.80
   5  -3   3  191.68    7.40
   5  -3   3  198.78    7.40
  -5   3  -3  197.48    8.30
   5   3   3  188.58    7.30
   6  -3   3    5.40    2.10
   6   3   3    5.60    2.30
   7  -3   3   13.50    3.00
   7   3   3   14.30    3.00
   8  -3   3   10.60    3.00
   8   3   3    3.60    2.50
   9  -4  -3   66.59    6.00
   9   4  -3   59.19    5.00
   9   4  -3   64.09    5.90
   8  -4  -3    1.70    2.20
   8   4  -3    0.40    1.60
  -8   4   3    0.60    2.70
   8   4  -3   -0.30    1.90
   7   4  -3   63.79    4.20
  -7   4   3   81.79    7.00
   7   4  -3   72.19    5.50
  -6   4   3   56.29    5.80
   6   4  -3   58.69    4.70
   6   4  -3   68.39    3.90
   5   4  -3  142.79    6.60
   5   4  -3  141.19    5.00
  -5   4   3  128.19    7.70
   4   4  -3   13.50    1.60
  -4   4   3   22.10    3.90
   4   4  -3   14.80    2.70
   4   4  -3   15.60    2.50
   4   4  -3   11.80    2.20
  -3   4   3   30.30    3.80
   3   4  -3   26.50    3.20
   3   4  -3   29.50    3.10
  -3   4   3   29.40    3.00
  -2   4   3    2.30    1.70
   2   4  -3    3.30    1.30
   2   4  -3    1.10    1.30
   2   4  -3    3.00    1.80
  -2   4   3    1.70    1.30
  -1  -4   3 3573.64   70.19
  -1   4   3 3552.84   70.99
   1   4  -3 3498.05   71.39
   1   4  -3 3620.44   69.49
   1   4  -3 3582.84   70.49
  -1   4   3 3580.34   70.59
  -1   4   3 3535.05   69.19
   0  -4   3    0.00    1.00
   0   4  -3    1.20    1.20
   0   4   3   -0.80    1.10
   0   4  -3    1.30    1.00
   0   4   3    0.00    1.10
   0   4  -3    2.20    1.60
   0   4   3    0.70    0.90
   1  -4   3  444.46    9.80
   1   4   3  424.86   11.10
  -1   4  -3  444.36   13.00
  -1   4  -3  429.66   11.20
   1   4   3  425.96    9.40
   2  -4   3    3.40    1.20
  -2   4  -3    3.40    1.50
  -2   4  -3    3.10    2.00
   2   4   3    3.20    1.30
   3  -4   3 3305.47   67.09
   3  -4   3 3318.27   65.39
  -3   4  -3 3367.26   68.69
   3   4   3 3396.76   65.09
   3   4   3 3312.17   64.79
   4  -4   3   21.40    2.70
  -4   4  -3   18.50    3.30
   5  -4   3    2.90    1.70
  -5   4  -3    3.70    2.20
   5   4   3    4.60    1.90
   6  -4   3    5.30    2.20
   6   4   3    4.80    2.20
   7  -4   3  179.98    8.30
   7   4   3  163.58    7.80
   8  -4   3    6.00    2.70
   8   4   3    8.40    3.00
   8  -5  -3   -1.10    2.10
   8   5  -3    0.00    1.90
   8   5  -3    0.30    2.20
  -8   5   3    1.80    2.70
  -7   5   3   -0.70    2.60
   7   5  -3   -0.90    1.90
   7   5  -3    0.20    1.50
   6   5  -3  105.59    6.30
  -6   5   3  101.49    7.80
   6   5  -3  100.99    4.60
  -5   5   3  129.19    8.30
   5   5  -3  130.89    6.70
   5   5  -3  129.59    4.80
   4   5  -3   69.59    4.50
   4   5  -3   67.69    4.90
  -4   5   3   66.89    5.90
   3   5  -3  208.58    7.00
   3   5  -3  217.98    8.30
  -3   5   3  216.58    8.30
  -3   5   3  205.18    9.30
   3   5  -3  212.68    8.20
   2   5  -3   28.40    3.70
  -2   5   3   26.80    3.10
   2   5  -3   29.10    3.30
   2   5  -3   26.40    2.80
  -2   5   3   25.40    3.60
  -1  -5   3   37.90    3.20
   1   5  -3   32.60    3.30
  -1   5   3   34.70    3.50
  -1   5   3   37.30    3.50
   1   5  -3   36.00    3.00
  -1   5   3   35.40    2.90
   1   5  -3   34.20    3.80
   0  -5   3  100.29    5.20
   0   5   3   98.09    4.90
   0   5  -3  106.79    6.00
   0   5  -3   96.69    5.10
   0   5   3  108.09    4.30
   0   5   3  104.69    5.20
   0   5  -3  102.39    4.80
   1  -5   3   -0.10    1.50
  -1   5  -3   -0.20    1.20
   1   5   3    0.20    1.30
   1   5   3    0.10    0.90
  -1   5  -3    0.70    1.40
  -1   5  -3    0.20    1.80
   2  -5   3  171.48    5.60
   2   5   3  188.68    6.80
  -2   5  -3  171.18    8.30
  -2   5  -3  168.48    6.70
   3  -5   3   59.09    3.60
   3   5   3   55.19    3.70
  -3   5  -3   52.39    4.00
  -3   5  -3   56.39    5.20
   4  -5   3    5.70    1.70
  -4   5  -3    9.20    3.20
   4   5   3   11.60    2.10
   4   5   3    9.60    2.00
  -4   5  -3    8.50    2.20
   5  -5   3  133.79    6.20
   5   5   3  129.69    5.50
   5   5   3  123.89    5.60
  -5   5  -3  135.89    8.20
   6  -5   3   37.50    4.20
   6   5   3   39.70    3.40
   6   5   3   40.70    3.50
   7  -5   3   21.90    3.80
   7   5   3   15.00    2.80
   7   6  -3    3.30    2.50
  -7   6   3    7.80    3.90
  -6   6   3   31.70    5.50
   6   6  -3   35.80    4.70
  -5   6   3  196.88   10.60
   5   6  -3  202.68    9.00
   4   6  -3   67.39    4.60
  -4   6   3   58.09    6.00
   4   6  -3   58.49    4.90
   3   6  -3  280.87    8.70
   3   6  -3  272.27   10.10
  -3   6   3  270.17   11.30
   3   6  -3  272.47   10.20
  -2   6   3   19.20    3.10
  -2   6   3   20.60    2.90
   2   6  -3   24.60    3.40
  -2   6   3   28.70    4.50
   2   6  -3   26.40    4.00
   2   6  -3   27.10    3.00
  -1   6   3  190.48    7.10
  -1   6   3  207.48    8.80
   1   6  -3  215.88    8.50
  -1   6   3  201.68    8.40
   1   6  -3  215.78    7.60
   1   6  -3  215.38    9.30
   0   6  -3  851.71   20.30
   0   6   3  820.82   20.70
   0   6   3  829.32   19.10
   0   6  -3  891.61   22.20
   0   6  -3  862.31   22.70
   0   6   3  858.91   21.50
   1  -6   3   20.30    3.10
   1   6   3   31.50    2.50
  -1   6  -3   23.90    3.10
   1   6   3   38.40    3.70
  -1   6  -3   26.50    3.90
   2  -6   3 1091.49   23.00
   2   6   3 1045.20   25.10
  -2   6  -3 1073.49   28.00
  -2   6  -3 1054.69   24.90
   3  -6   3  416.46   11.20
  -3   6  -3  408.76   12.50
   3   6   3  406.56   12.30
  -3   6  -3  418.66   15.00
   4  -6   3  104.19    5.30
   4   6   3  106.39    5.60
  -4   6  -3   99.89    7.50
  -4   6  -3  103.09    6.00
   5  -6   3  174.08    7.30
  -5   6  -3  173.48    7.90
  -5   6  -3  168.88    9.70
   5   6   3  154.58    7.00
   6  -6   3   63.59    5.00
  -6   6  -3   61.69    6.60
   6   6   3   59.39    4.60
   7  -6   3   31.70    4.40
   7   6   3   28.60    3.80
  -7   7   3   32.30    6.20
   7   7  -3   30.30    4.90
   6   7  -3   60.99    5.70
  -6   7   3   56.19    7.20
   5   7  -3   44.40    5.00
  -5   7   3   52.99    7.20
  -4   7   3  170.38    9.90
  -4   7   3  171.98    8.00
   4   7  -3  170.98    7.60
   4   7  -3  179.08    8.70
   3   7  -3   41.20    3.60
  -3   7   3   43.90    5.40
   3   7  -3   50.69    4.80
  -3   7   3   44.90    4.30
   3   7  -3   46.00    4.70
   2   7  -3   17.40    2.70
  -2   7   3   10.20    3.20
   2   7  -3   13.20    3.20
   2   7  -3   17.70    3.30
  -2   7   3   17.10    2.90
  -1   7   3   61.29    5.10
   1   7  -3   64.89    4.50
   1   7  -3   63.79    5.70
  -1   7   3   62.29    4.20
  -1   7   3   73.29    5.40
   0   7   3  139.99    5.70
   0   7  -3  124.89    7.70
   0   7   3  145.89    6.90
   0   7   3  137.59    7.20
   0   7  -3  136.29    6.50
  -1   7  -3    1.10    2.10
   1   7   3    0.40    1.10
   1   7   3   -0.30    1.50
  -1   7  -3   -0.60    1.40
   2  -7   3  176.88    6.20
  -2   7  -3  177.88    9.80
  -2   7  -3  177.98    7.90
   2   7   3  184.98    8.20
   3  -7   3   38.00    3.30
   3   7   3   39.20    4.00
  -3   7  -3   39.20    5.80
  -3   7  -3   35.40    4.20
   4  -7   3   34.90    3.40
   4   7   3   36.20    4.00
  -4   7  -3   31.80    4.10
  -4   7  -3   43.60    6.50
   5  -7   3    7.60    2.40
  -5   7  -3    9.30    3.80
   5   7   3    8.60    2.70
  -5   7  -3    9.70    3.00
   6  -7   3   39.40    4.50
  -6   7  -3   50.89    7.60
   6   7   3   39.10    4.30
  -5   8   3   75.09    7.80
   5   8  -3   75.89    6.60
  -5   8   3   73.99    5.90
   4   8  -3   54.49    7.20
  -4   8   3   51.89    6.60
   4   8  -3   54.89    4.70
  -4   8   3   51.59    5.10
   3   8  -3  151.38    8.10
  -3   8   3  157.58    7.70
  -3   8   3  158.58    9.70
   3   8  -3  157.68    6.90
   2   8  -3    1.10    2.20
  -2   8   3    0.10    1.60
   2   8  -3   -0.80    1.40
  -2   8   3   -1.80    1.90
   1   8  -3   17.80    4.30
  -1   8   3   18.80    3.80
  -1   8   3   20.70    3.10
   1   8  -3   22.20    3.30
   0   8  -3    7.60    3.40
   0   8   3    4.90    2.40
   0   8   3    3.20    2.10
   0   8   3    2.90    1.70
   0   8  -3    4.00    2.00
  -1   8  -3  811.02   21.50
  -1   8  -3  841.52   25.00
   1   8   3  842.82   19.20
   1   8   3  857.81   23.20
  -2   8  -3   -0.50    1.70
  -2   8  -3   -1.40    2.40
   2   8   3   -0.30    1.80
   3   8   3   18.30    3.60
  -3   8  -3   22.40    5.40
  -3   8  -3   19.90    3.70
   4   8   3   18.90    3.60
  -4   8  -3   22.70    5.60
  -4   8  -3   20.60    3.90
  -5   8  -3  177.48    9.20
  -5   8  -3  181.58   11.90
   5   8   3  154.78    8.40
  -4   9   3   18.40    3.80
   4   9  -3   20.60    3.60
  -4   9   3   11.60    4.50
   3   9  -3   16.00    2.90
  -3   9   3   22.90    3.80
  -3   9   3   30.80    5.80
   3   9  -3   19.20    4.00
   2   9  -3  107.09    6.10
   2   9  -3  119.19    8.00
  -2   9   3  123.39    8.50
  -2   9   3  112.29    6.60
   1   9  -3   79.09    5.60
  -1   9   3   80.39    6.60
   1   9  -3   80.79    7.20
  -1   9   3   85.89    5.40
   0   9   3   92.09    5.20
   0   9  -3   96.99    6.20
   0   9  -3   92.79    7.80
   0   9   3  101.49    6.60
  -1   9  -3    1.90    2.20
  -1   9  -3    1.50    3.10
   1   9   3    3.70    2.60
   1   9   3    3.70    1.60
  -2   9  -3   66.09    5.80
  -2   9  -3   62.79    7.20
   2   9   3   59.29    5.90
  -3   9  -3   14.80    3.60
  -3   9  -3   14.30    5.10
   3   9   3   16.00    3.80
   9   0  -4    3.30    2.50
   8   0  -4  801.22   20.70
  -8   0   4  814.02   23.40
  -7   0   4   -1.40    1.90
   7   0  -4    0.40    1.60
   6   0  -4  152.48    6.20
  -6   0   4  151.78    7.60
   6   0  -4  155.98    7.10
  -5   0   4    4.10    2.10
   5   0  -4    5.20    2.00
   4   0  -4 5139.19   99.19
  -4   0   4 5099.29  100.19
  -3   0   4   32.90    3.00
  -3   0   4   29.70    2.50
   3   0  -4   33.20    3.10
   3   0  -4   33.90    2.80
   2   0  -4 1475.85   30.50
  -2   0   4 1402.36   30.40
  -2   0   4 1484.25   29.70
   2   0  -4 1478.45   29.80
   1   0  -4   15.30    2.00
  -1   0   4   11.30    1.80
  -1   0   4   16.30    1.90
   0   0   4 1871.31   36.20
   0   0   4 1864.31   36.40
   0   0   4 1928.81   35.90
   0   0   4 1826.62   36.40
   0   0  -4 1868.01   36.00
   0   0  -4 1882.11   36.80
   1   0   4    1.20    0.90
   2   0   4  474.95   11.20
   3   0   4    0.10    1.10
   4   0   4   65.09    3.90
   5   0   4    4.60    2.00
   6   0   4   11.60    2.60
   7   0   4   -1.00    1.80
   8   0   4   24.00    3.90
   9  -1  -4   29.30    4.30
   9   1  -4   26.00    3.90
   8  -1  -4  103.39    6.30
  -8   1   4  103.19    7.40
   8   1  -4  100.99    6.40
   8   1  -4   92.19    5.60
   7  -1  -4   90.29    5.60
  -7   1   4   97.49    6.90
   7   1  -4  114.79    6.30
   7   1  -4  122.39    5.70
  -6   1   4   17.40    3.40
   6   1  -4   22.80    3.10
   6   1  -4   20.90    2.70
   5   1  -4   26.80    2.70
  -5   1   4   37.30    4.00
   5   1  -4   32.60    2.80
   5   1  -4   32.80    3.40
   4   1  -4  258.17    8.50
  -4   1   4  256.47    9.00
   4   1  -4  271.07    8.30
  -3   1   4   84.69    4.60
  -3   1   4   87.29    4.00
   3   1  -4   78.99    4.30
   3   1  -4   79.99    4.10
   2  -1  -4  167.18    6.10
  -2  -1   4  166.28    5.40
  -2   1   4  174.58    6.20
   2   1  -4  159.38    5.90
  -2   1   4  176.28    5.60
   2   1  -4  165.18    5.50
   1  -1  -4  154.38    5.40
  -1  -1   4  169.58    5.20
  -1   1   4  158.78    5.00
  -1   1   4  154.68    5.30
   1   1  -4  168.68    5.70
   1   1  -4  157.48    7.00
   1   1  -4  166.88    4.80
   0  -1  -4  569.84   12.50
   0  -1   4  575.54   12.80
   0  -1   4  595.04   12.80
   0   1  -4  579.04   13.20
   0   1  -4  575.34   12.30
   0   1   4  568.34   11.50
   1  -1   4   66.39    2.60
   1  -1   4   66.19    2.80
  -1   1  -4   66.79    2.40
  -1   1  -4   66.39    2.90
   2  -1   4  798.12   17.40
   2   1   4  828.22   17.80
  -2   1  -4  823.32   18.30
   3  -1   4  556.94   13.10
   3   1   4  531.55   13.10
   4  -1   4 1549.94   32.60
   4   1   4 1533.95   32.70
   5  -1   4  156.18    6.50
   5   1   4  159.08    6.70
   6  -1   4    0.00    1.60
   6  -1   4    2.80    1.60
   6   1   4    1.20    1.80
   7  -1   4   26.30    3.30
   7  -1   4   17.90    3.30
   7   1   4   15.40    3.10
   8  -1   4  217.38    9.70
   8   1   4  232.38   10.10
   9  -2  -4   35.60    4.80
   9   2  -4   33.70    4.30
   9   2  -4   31.30    4.60
   8  -2  -4   74.19    5.50
   8   2  -4   76.79    5.60
  -8   2   4   66.89    6.60
   8   2  -4   70.69    4.80
   7  -2  -4  384.76   12.20
   7   2  -4  386.76   12.50
  -7   2   4  373.96   14.10
   7   2  -4  374.76   11.10
   6   2  -4  215.88    7.40
   6   2  -4  228.28    8.80
  -6   2   4  250.87   10.40
  -5   2   4 1461.75   34.00
   5   2  -4 1412.56   31.80
   5   2  -4 1503.55   32.30
   5   2  -4 1508.95   30.40
   4   2  -4 2146.19   43.50
  -4   2   4 2006.80   43.90
   4   2  -4 2161.28   43.70
  -4   2   4 2045.90   44.90
   4   2  -4 2155.48   41.40
  -3   2   4 1271.17   26.70
   3   2  -4 1205.78   27.00
  -3   2   4 1307.47   28.00
   3   2  -4 1205.68   24.40
   3   2  -4 1172.38   26.30
  -2  -2   4  116.89    4.70
  -2   2   4  133.59    5.50
   2   2  -4  124.09    5.40
  -2   2   4  136.09    5.00
   2   2  -4  121.49    4.80
   2   2  -4  119.99    3.10
   2   2  -4  120.89    4.40
  -1  -2   4  272.87    7.60
   1   2  -4  264.37    7.50
   1   2  -4  267.07    8.20
  -1   2   4  270.47    7.70
   1   2  -4  262.87    7.10
  -1   2   4  280.27    7.50
   0  -2  -4  123.09    4.40
   0  -2   4  121.59    4.50
   0  -2   4  123.69    3.10
   0   2   4  129.49    3.40
   0   2  -4  123.09    5.00
   0   2   4  125.99    4.10
   0   2  -4  122.29    4.20
   1  -2   4   77.19    2.70
   1  -2   4   77.09    3.50
  -1   2  -4   76.79    3.10
  -1   2  -4   80.69    3.90
   2  -2   4  160.28    5.30
   2  -2   4  164.18    5.00
  -2   2  -4  162.28    5.80
  -2   2  -4  160.78    4.90
   3  -2   4    4.70    1.40
   3  -2   4    3.20    1.30
   3   2   4    6.50    1.70
  -3   2  -4    3.90    1.40
   4  -2   4  130.99    5.10
   4  -2   4  113.99    5.20
   4   2   4  122.79    5.50
  -4   2  -4  121.59    5.40
   5  -2   4    3.90    1.70
   5  -2   4    7.30    2.10
   5   2   4    2.40    1.80
   6  -2   4    5.90    2.10
   6  -2   4    2.20    1.90
   6   2   4    6.70    2.40
   7  -2   4   86.89    5.70
   7   2   4   98.79    6.10
   8  -2   4    0.40    2.20
   8   2   4    3.10    2.40
   9  -3  -4   11.20    3.30
   9   3  -4    8.50    3.00
  -9   3   4   10.10    4.50
   9   3  -4    7.50    2.60
   8  -3  -4   15.60    3.50
  -8   3   4   25.90    4.90
   8   3  -4   25.50    4.10
   8   3  -4   19.30    3.00
   7   3  -4  140.39    5.90
   7   3  -4  142.09    7.30
  -7   3   4  119.99    8.20
   6   3  -4  140.19    6.90
   6   3  -4  146.29    5.60
  -6   3   4  141.39    8.20
   5   3  -4   23.60    3.70
   5   3  -4   23.70    2.40
   5   3  -4   24.50    3.30
  -5   3   4   19.80    3.70
   5   3  -4   27.70    3.20
  -4   3   4  115.19    5.60
  -4   3   4  111.59    6.50
   4   3  -4  118.09    5.60
   4   3  -4  116.29    5.70
   4   3  -4  126.19    4.00
   3   3  -4   16.90    1.30
  -3   3   4   13.90    2.20
  -3   3   4   11.40    2.60
   3   3  -4   20.40    2.90
   3   3  -4   20.10    2.70
  -2  -3   4  137.19    5.40
  -2   3   4  152.58    6.30
   2   3  -4  132.99    6.00
   2   3  -4  139.79    5.60
   2   3  -4  131.99    5.00
  -2   3   4  151.68    5.70
  -1  -3   4   42.10    3.00
   1   3  -4   42.40    3.00
  -1   3   4   39.20    2.90
  -1   3   4   40.80    3.10
   1   3  -4   45.80    3.60
   1   3  -4   45.10    2.80
   0  -3   4   20.30    1.00
   0  -3   4   15.20    2.10
   0   3  -4   21.20    2.80
   0   3   4   14.00    1.80
   0   3   4   15.60    1.70
   0   3   4   15.00    1.40
   0   3  -4   22.80    2.30
   1  -3   4  227.08    5.50
  -1   3  -4  214.68    6.50
   1   3   4  210.48    6.10
  -1   3  -4  226.68    7.90
   2  -3   4 1635.54   34.40
   2  -3   4 1649.93   33.10
  -2   3  -4 1652.03   35.50
  -2   3  -4 1674.03   33.70
   3  -3   4   37.40    3.20
   3  -3   4   35.40    2.80
  -3   3  -4   37.10    3.50
   4  -3   4  168.58    6.60
   4  -3   4  162.48    6.30
   4   3   4  153.88    6.40
  -4   3  -4  157.48    7.10
   5  -3   4  254.27    8.70
   5  -3   4  251.37    8.70
   5   3   4  243.78    8.80
   6  -3   4  281.77   10.10
   6   3   4  295.97   10.40
   7  -3   4   74.49    5.40
   7   3   4   71.09    5.50
   8  -3   4   49.40    5.40
   8   3   4   50.89    5.60
   9  -4  -4    2.20    2.30
  -9   4   4    0.90    3.10
   9   4  -4    2.00    2.60
   9   4  -4    3.00    2.10
   8  -4  -4    2.20    2.40
   8   4  -4    5.30    2.60
   8   4  -4    1.30    1.70
  -8   4   4    8.00    3.60
   7   4  -4    3.00    1.60
   7   4  -4    3.50    2.40
  -7   4   4    0.90    2.70
  -6   4   4 1371.56   34.50
   6   4  -4 1338.77   31.50
   6   4  -4 1353.86   28.60
  -5   4   4   12.20    3.60
   5   4  -4   12.80    1.70
   5   4  -4   11.90    2.50
   5   4  -4    8.70    2.40
   4   4  -4  149.59    6.70
  -4   4   4  159.38    8.20
  -4   4   4  139.29    6.90
   4   4  -4  152.58    6.80
   4   4  -4  152.08    4.40
   3   4  -4   13.80    2.90
   3   4  -4    9.70    2.30
  -3   4   4   19.10    3.50
  -3   4   4   16.10    2.80
   2   4  -4  819.52   18.60
  -2   4   4  814.22   20.60
  -2   4   4  844.82   20.10
   2   4  -4  810.02   20.40
   2   4  -4  832.02   19.80
  -1  -4   4  119.69    5.40
   1   4  -4  124.59    5.50
  -1   4   4  121.99    4.60
  -1   4   4  122.59    5.40
  -1   4   4  124.69    5.60
   1   4  -4  122.49    6.20
   1   4  -4  122.99    5.00
   0  -4   4  318.57    9.80
   0  -4   4  329.77    6.90
   0   4  -4  328.97    9.80
   0   4   4  339.27    9.50
   0   4   4  328.77    8.90
   0   4   4  353.06    8.30
   0   4  -4  323.77   10.70
   0   4  -4  317.17    9.10
   1  -4   4  102.69    5.10
   1  -4   4  108.09    3.40
   1   4   4  106.19    4.60
  -1   4  -4  103.79    5.80
  -1   4  -4  109.89    4.70
   2  -4   4   26.30    2.10
   2   4   4   25.10    2.50
  -2   4  -4   28.80    2.90
  -2   4  -4   28.70    3.80
   3  -4   4  113.29    4.60
   3  -4   4  112.49    5.60
  -3   4  -4  110.49    5.10
  -3   4  -4  106.39    6.20
   4  -4   4   47.70    3.50
  -4   4  -4   36.70    4.20
   5  -4   4    8.80    2.20
  -5   4  -4    9.40    2.80
   5   4   4    9.30    2.50
   6  -4   4   66.99    4.90
   6   4   4   76.09    5.30
   7  -4   4   11.90    2.90
   7   4   4   14.00    3.10
   8  -4   4   42.50    5.10
   8   4   4   49.40    5.50
   8   5  -4   59.69    5.80
  -8   5   4   62.69    7.40
   7   5  -4    5.60    2.50
  -7   5   4    5.30    3.50
   6   5  -4   83.29    4.10
  -6   5   4   79.39    7.20
   6   5  -4   78.99    5.80
   5   5  -4  178.78    5.50
  -5   5   4  174.28    9.60
   5   5  -4  170.08    7.10
   5   5  -4  171.88    8.00
   4   5  -4   39.90    4.10
   4   5  -4   38.90    4.00
  -4   5   4   41.70    5.00
  -3   5   4   60.39    4.60
   3   5  -4   70.99    4.90
   3   5  -4   71.39    5.20
  -3   5   4   61.89    5.40
   3   5  -4   70.49    4.10
  -2   5   4   15.60    2.60
   2   5  -4   16.00    3.30
  -2   5   4   10.90    2.80
   2   5  -4   17.70    3.10
   2   5  -4   12.40    2.30
  -1  -5   4  110.79    5.70
  -1   5   4  129.49    6.00
   1   5  -4  112.49    5.80
   1   5  -4  109.09    6.40
  -1   5   4  116.39    4.90
  -1   5   4  121.89    5.90
   1   5  -4  113.39    5.20
   0  -5   4  260.07    9.00
   0  -5   4  251.97    5.80
   0   5  -4  257.17    9.00
   0   5   4  268.47    8.20
   0   5  -4  254.17    8.30
   0   5   4  279.37    7.40
   0   5   4  275.77    9.00
   0   5  -4  258.67   10.00
   1  -5   4    4.40    2.00
   1  -5   4    6.30    1.10
   1   5   4    3.30    1.70
  -1   5  -4    5.70    2.00
   1   5   4    3.60    1.00
  -1   5  -4    5.00    2.70
   2  -5   4 1052.69   22.30
   2   5   4 1065.49   23.90
  -2   5  -4 1064.39   24.20
  -2   5  -4 1047.50   26.70
   3  -5   4   20.40    2.40
   3   5   4   26.40    2.80
  -3   5  -4   20.00    3.80
  -3   5  -4   17.60    2.80
   4  -5   4    6.60    1.80
  -4   5  -4    5.10    2.50
   4   5   4    8.10    1.80
  -4   5  -4    2.90    1.70
   4   5   4    8.40    2.00
   5  -5   4   25.60    3.20
   5   5   4   26.10    2.80
  -5   5  -4   17.90    3.90
   6  -5   4  346.07   11.70
   7  -5   4   30.50    4.20
  -7   6   4  223.08   12.70
   7   6  -4  214.78   10.30
   6   6  -4  118.79    7.30
  -6   6   4  116.89    8.80
  -5   6   4  311.37   13.50
   5   6  -4  284.47   11.20
   5   6  -4  292.07   10.00
   4   6  -4  352.66   11.90
  -4   6   4  374.96   14.30
   4   6  -4  360.76   12.50
   3   6  -4  701.63   18.90
   3   6  -4  676.33   17.00
   3   6  -4  691.83   19.20
  -3   6   4  678.23   20.20
  -2   6   4   87.09    6.10
  -2   6   4   90.79    5.10
   2   6  -4   94.09    5.80
   2   6  -4   99.59    5.10
  -2   6   4   89.79    5.70
   2   6  -4   94.79    6.20
  -1   6   4   45.60    3.50
   1   6  -4   51.29    4.40
  -1   6   4   49.30    4.40
  -1   6   4   47.40    4.30
   1   6  -4   57.39    4.10
   1   6  -4   57.19    5.30
   0   6   4   60.49    4.00
   0   6   4   62.99    3.40
   0   6  -4   47.80    5.10
   0   6   4   57.19    4.50
   0   6  -4   45.60    3.90
   1  -6   4   46.50    2.50
   1  -6   4   48.00    4.30
  -1   6  -4   43.00    4.90
  -1   6  -4   46.70    4.00
   1   6   4   51.39    2.70
   1   6   4   46.80    4.00
   2  -6   4   93.69    5.90
   2  -6   4   87.49    3.80
  -2   6  -4   90.09    5.30
   2   6   4   83.59    5.10
  -2   6  -4   91.49    6.80
   3  -6   4  146.59    5.80
  -3   6  -4  159.08    9.10
   3   6   4  167.38    7.10
  -3   6  -4  168.98    7.40
   4  -6   4   23.20    2.90
  -4   6  -4   21.50    3.40
   4   6   4   17.60    2.90
  -4   6  -4   24.10    4.60
   5  -6   4   95.69    5.40
   5   6   4   92.69    5.30
  -5   6  -4   88.59    7.50
  -5   6  -4   98.69    6.90
   6  -6   4    3.00    2.00
   6   6   4    1.50    1.70
   7   7  -4   13.10    3.90
  -7   7   4   13.00    4.80
   6   7  -4    2.20    2.40
  -6   7   4    1.20    3.00
  -5   7   4  178.48   10.90
   5   7  -4  190.38    9.40
   5   7  -4  189.88    7.80
  -4   7   4   80.79    7.10
   4   7  -4   88.99    5.90
   4   7  -4   76.69    6.10
  -3   7   4  175.88    9.70
   3   7  -4  193.78    9.10
  -3   7   4  171.38    7.80
   3   7  -4  191.58    9.40
   3   7  -4  194.18    7.50
  -2   7   4   31.30    4.80
   2   7  -4   34.60    3.80
  -2   7   4   30.20    3.60
   2   7  -4   36.70    5.10
  -1   7   4    6.20    2.50
   1   7  -4    4.20    2.00
  -1   7   4    4.20    1.80
   1   7  -4    5.20    2.70
  -1   7   4    5.10    2.40
   0   7   4   26.50    3.30
   0   7  -4   22.20    3.30
   0   7   4   25.70    4.00
   0   7  -4   20.70    4.20
   0   7   4   25.10    2.80
   1   7   4    6.80    1.50
   1   7   4    4.40    2.30
  -1   7  -4    6.00    3.10
  -1   7  -4    5.70    2.20
  -2   7  -4   84.79    5.70
   2   7   4   84.59    5.60
  -2   7  -4   91.69    7.40
  -3   7  -4  255.37   10.10
  -3   7  -4  270.97   12.70
   3   7   4  256.17    9.90
   4  -7   4  260.47    8.80
  -4   7  -4  272.47   10.70
  -4   7  -4  272.67   13.20
   4   7   4  270.37   10.20
   5  -7   4   91.59    5.40
  -5   7  -4   91.89    8.20
  -5   7  -4   93.69    6.40
   5   7   4   85.49    5.80
  -5   8   4   17.00    3.50
  -5   8   4   18.40    5.00
  -4   8   4  543.35   19.80
   4   8  -4  547.85   16.80
  -4   8   4  559.34   16.90
  -3   8   4   72.19    6.90
   3   8  -4   73.89    6.20
  -3   8   4   75.49    5.40
   3   8  -4   86.59    5.30
   2   8  -4    5.80    2.20
  -2   8   4    5.50    2.90
   2   8  -4    7.80    3.10
  -2   8   4    4.30    2.00
   1   8  -4   51.99    5.90
  -1   8   4   54.49    4.20
  -1   8   4   60.39    5.30
   1   8  -4   47.70    4.40
   0   8  -4   85.09    7.30
   0   8  -4   96.09    6.00
   0   8   4   93.59    4.80
   0   8   4   92.59    6.60
   0   8   4   86.79    5.50
   1   8   4  108.79    4.50
   1   8   4  111.59    7.20
  -1   8  -4  121.99    8.60
  -1   8  -4  114.99    6.60
   2   8   4   32.20    4.50
  -2   8  -4   42.80    6.60
  -2   8  -4   39.10    4.60
   3   8   4   73.29    5.80
  -3   8  -4   78.79    7.90
  -3   8  -4   73.29    6.00
  -4   8  -4   18.30    3.80
  -4   8  -4   13.20    4.50
   4   8   4   12.30    3.20
  -4   9   4    6.40    2.90
   4   9  -4    5.00    2.80
  -4   9   4    8.30    4.20
  -3   9   4   48.20    4.90
  -3   9   4   50.09    6.50
   3   9  -4   42.00    4.20
   3   9  -4   49.20    5.70
  -2   9   4   71.39    5.30
  -2   9   4   73.19    6.80
   2   9  -4   77.69    7.00
   2   9  -4   77.89    5.50
   1   9  -4   53.49    5.00
  -1   9   4   55.29    5.50
  -1   9   4   56.59    4.40
   1   9  -4   59.29    6.70
   0   9   4   38.20    3.50
   0   9   4   29.60    3.90
   0   9  -4   38.70    6.70
   0   9  -4   36.90    4.70
  -1   9  -4   52.49    5.20
  -1   9  -4   56.59    7.80
   1   9   4   49.90    3.20
   1   9   4   49.60    5.40
   2   9   4    9.90    3.20
  -2   9  -4    6.60    2.90
  -2   9  -4   11.60    4.60
   3   9   4    0.70    2.20
   9   0  -5  197.58    8.80
   8   0  -5    7.00    2.40
  -8   0   5    7.80    3.40
   7   0  -5  125.89    6.00
  -7   0   5  111.89    7.40
   6   0  -5    5.90    2.50
  -6   0   5    6.60    2.80
   5   0  -5   64.89    4.50
  -5   0   5   57.89    4.90
   4   0  -5    0.00    1.60
   4   0  -5   -0.50    1.50
  -4   0   5   -0.40    1.70
  -3   0   5  525.45   12.90
   3   0  -5  524.95   13.80
  -3   0   5  496.85   13.70
   3   0  -5  512.35   13.00
   2   0  -5    0.50    1.30
  -2   0   5   -1.30    1.00
   2   0  -5    0.30    1.20
  -2   0   5   -0.50    1.40
  -1   0   5  149.69    5.00
   1   0  -5  144.19    5.40
  -1   0   5  139.29    5.00
   0   0   5    0.90    1.00
   0   0   5   -0.20    0.60
   0   0   5   -0.10    0.90
   0   0  -5   -0.50    1.10
   0   0  -5    0.90    0.90
   1   0   5 1538.85   30.90
   2   0   5    2.00    1.20
   3   0   5   82.79    4.10
   4   0   5    1.90    1.50
   5   0   5    5.50    2.10
   6   0   5   -1.30    1.70
   7   0   5  497.15   15.40
   8   0   5    3.30    2.50
   9  -1  -5   94.19    6.40
   9   1  -5   97.19    6.20
  -8  -1   5   11.00    3.60
   8  -1  -5    8.70    2.70
   8   1  -5    9.90    2.90
  -8   1   5    9.00    3.30
   8   1  -5   10.00    2.70
   7  -1  -5  224.78    8.60
  -7  -1   5  217.08   10.00
  -7   1   5  235.68   10.60
   7   1  -5  213.08    8.00
   7   1  -5  231.38    9.20
   6   1  -5   64.09    4.10
  -6   1   5   75.29    5.90
   6   1  -5   71.29    5.00
  -5   1   5  747.33   20.10
   5   1  -5  761.02   18.80
   5   1  -5  760.32   17.30
  -4   1   5   25.50    2.80
   4   1  -5   14.40    2.40
   4   1  -5   15.10    2.60
  -4   1   5   26.30    3.60
   3  -1  -5   63.99    4.40
  -3  -1   5   68.19    3.70
   3   1  -5   63.09    3.80
   3   1  -5   65.79    4.30
  -3   1   5   58.59    4.20
  -3   1   5   63.69    3.80
   2  -1  -5   40.70    3.40
  -2  -1   5   47.00    3.10
  -2   1   5   40.10    3.00
  -2   1   5   40.90    3.50
   2   1  -5   46.70    3.50
   2   1  -5   46.00    3.10
   1  -1  -5  829.32   18.20
  -1  -1   5  794.92   17.70
   1   1  -5  776.72   17.10
   1   1  -5  797.42   18.40
  -1   1   5  830.22   17.60
   0  -1   5  196.28    5.80
   0  -1   5  188.78    5.80
   0  -1  -5  192.38    5.70
   0   1  -5  190.08    6.20
   0   1   5  191.08    5.30
   0   1   5  194.98    4.40
   0   1  -5  192.68    5.30
   1  -1   5 2142.89   41.40
   1  -1   5 2139.09   41.30
   1  -1   5 2084.09   41.10
  -1   1  -5 2041.40   40.70
  -1   1  -5 2111.59   41.80
   2  -1   5  176.28    5.60
   2  -1   5  182.48    5.20
   2   1   5  198.58    6.00
  -2   1  -5  174.48    4.70
  -2   1  -5  170.38    5.30
   3  -1   5  464.65   11.50
   3   1   5  431.76   11.60
   4  -1   5    0.70    1.50
   4   1   5   -0.60    1.40
   5  -1   5   98.09    5.30
   5   1   5   97.79    5.40
   6  -1   5   -0.40    1.70
   6   1   5    1.50    1.90
   7  -1   5   51.99    5.00
   7   1   5   67.99    5.50
   8  -1   5    2.90    2.60
   8   1   5    0.10    2.20
   9  -2  -5   18.90    3.80
   9   2  -5   14.20    3.40
   9   2  -5   14.60    3.10
  -9   2   5   16.80    4.60
   8  -2  -5    7.60    2.70
   8   2  -5    8.30    2.70
   8   2  -5   10.60    2.40
  -8   2   5    8.50    3.50
   7   2  -5   15.90    3.10
  -7   2   5   23.10    4.40
   7   2  -5   17.30    2.60
   6   2  -5   18.20    3.00
   6   2  -5   23.60    2.60
  -6   2   5   32.10    4.70
   5   2  -5   50.19    4.30
  -5   2   5   49.30    5.00
   5   2  -5   50.69    4.20
   5   2  -5   51.49    3.10
   4   2  -5  591.94   15.10
   4   2  -5  585.04   15.60
  -4   2   5  551.94   16.20
  -4   2   5  561.94   14.80
   4   2  -5  589.54   12.90
  -3  -2   5   32.70    2.90
  -3   2   5   35.70    3.80
   3   2  -5   36.50    3.10
   3   2  -5   30.70    3.50
  -3   2   5   34.10    3.10
  -2  -2   5   20.30    2.60
  -2   2   5   23.50    2.60
   2   2  -5   16.10    2.70
   2   2  -5   21.00    2.30
  -2   2   5   24.80    3.00
   2   2  -5   20.80    2.60
  -1  -2   5   48.90    3.20
   1  -2  -5   50.59    3.50
   1   2  -5   45.70    2.90
   1   2  -5   45.10    3.60
  -1   2   5   48.10    3.10
  -1   2   5   51.89    3.10
   0  -2  -5   15.50    2.10
   0  -2   5   15.10    2.10
   0  -2   5   19.70    2.50
   0   2   5   14.50    1.80
   0   2   5   14.60    1.30
   0   2   5   12.80    1.10
   0   2  -5   18.30    2.60
   0   2  -5   18.70    2.00
   1  -2   5   41.70    2.80
   1  -2   5   36.40    2.80
   1  -2   5   40.70    2.10
  -1   2  -5   41.60    2.50
  -1   2  -5   41.10    3.10
   2  -2   5  333.17    8.60
   2  -2   5  337.47    9.00
  -2   2  -5  339.97    9.60
  -2   2  -5  346.87    8.60
   3  -2   5  259.37    7.80
   3  -2   5  276.27    7.90
  -3   2  -5  265.87    8.30
   3   2   5  264.07    8.30
   4  -2   5    2.30    1.50
   4  -2   5    3.00    1.60
   4   2   5    2.60    1.80
   5  -2   5   61.59    4.30
   5  -2   5   68.29    4.20
   5   2   5   60.09    4.50
   6  -2   5   45.10    3.80
   6  -2   5   46.90    4.20
   6   2   5   37.10    4.30
   7  -2   5  186.98    8.50
   7   2   5  174.38    8.50
   8  -2   5  118.79    7.40
   8   2   5  117.39    7.50
   9  -3  -5   19.80    3.90
   9   3  -5   26.70    3.70
   9   3  -5   18.80    3.80
  -9   3   5   28.20    5.50
   8   3  -5    8.10    2.90
   8   3  -5    7.30    2.20
  -8   3   5    5.20    3.10
   7   3  -5  202.58    9.20
  -7   3   5  208.28   10.70
   7   3  -5  203.88    7.30
   6   3  -5   33.40    4.00
   6   3  -5   32.60    2.80
  -6   3   5   42.30    5.10
  -5   3   5  208.98    9.70
   5   3  -5  218.98    8.60
   5   3  -5  214.58    6.30
   5   3  -5  220.38    8.50
   4   3  -5  241.68    8.90
   4   3  -5  256.77    8.80
  -4   3   5  244.68    9.90
   4   3  -5  238.68    6.20
  -4   3   5  235.78    8.50
   3   3  -5 1022.30   20.30
   3   3  -5 1060.29   24.70
   3   3  -5 1044.60   23.80
  -3   3   5 1071.09   25.20
  -3   3   5 1000.50   23.70
  -2  -3   5 1114.89   24.40
   2   3  -5 1093.09   23.70
   2   3  -5 1084.09   25.40
  -2   3   5 1117.79   25.30
   2   3  -5 1072.89   24.40
  -2   3   5 1093.59   24.50
  -1  -3   5   50.59    3.50
   1   3  -5   47.80    4.00
  -1   3   5   54.29    3.50
   1   3  -5   54.89    3.50
  -1   3   5   52.09    3.40
   1   3  -5   50.19    3.20
   0  -3   5   21.60    2.60
   0  -3   5   23.80    1.20
   0   3  -5   25.80    2.40
   0   3   5   24.00    2.40
   0   3  -5   23.80    3.10
   0   3   5   25.90    1.60
   1  -3   5 1656.13   34.30
   1  -3   5 1633.54   34.20
   1  -3   5 1637.64   32.10
  -1   3  -5 1658.83   35.40
   1   3   5 1610.44   32.80
  -1   3  -5 1610.44   33.40
   2  -3   5   20.20    2.60
   2  -3   5   17.20    1.80
  -2   3  -5   21.30    2.90
  -2   3  -5   17.00    2.10
   3  -3   5  249.97    8.10
   3  -3   5  241.58    7.40
  -3   3  -5  251.97    8.90
  -3   3  -5  249.18    7.50
   4  -3   5   10.90    2.30
   4  -3   5    5.30    1.90
   4   3   5    8.60    2.30
  -4   3  -5    3.60    1.90
   5  -3   5   72.79    5.40
   5  -3   5   72.29    4.60
   5   3   5   76.99    5.00
   6  -3   5   21.60    3.10
   6   3   5   14.40    3.00
   7  -3   5   10.00    2.80
   7   3   5    9.00    2.80
   8  -3   5    0.40    2.30
   8   3   5    0.10    2.50
   9  -4  -5    1.30    2.50
   9   4  -5    4.40    2.70
  -9   4   5    0.10    3.10
   8   4  -5    9.80    2.30
  -8   4   5    6.50    3.60
   8   4  -5   10.30    3.30
  -7   4   5   38.10    5.80
   7   4  -5   34.40    3.10
   7   4  -5   32.10    4.60
   6   4  -5   53.09    3.20
   6   4  -5   55.49    4.30
  -6   4   5   40.40    5.80
   6   4  -5   56.59    5.00
  -5   4   5  229.18   10.50
   5   4  -5  210.38    8.70
   5   4  -5  211.78    8.50
   5   4  -5  213.08    6.10
  -4   4   5   48.90    4.20
   4   4  -5   43.20    4.30
  -4   4   5   46.20    5.10
   4   4  -5   48.00    4.30
   4   4  -5   46.20    2.10
  -3   4   5   86.19    5.10
   3   4  -5   83.19    5.00
  -3   4   5   90.99    6.00
   3   4  -5   79.49    5.50
  -2  -4   5    9.50    2.30
   2   4  -5   11.10    2.40
   2   4  -5    8.70    2.00
  -2   4   5    6.60    1.90
  -2   4   5    5.80    2.10
   2   4  -5    8.00    2.40
  -1  -4   5   23.10    3.00
   1   4  -5   20.50    2.80
  -1   4   5   23.30    2.80
   1   4  -5   21.20    2.50
  -1   4   5   22.70    2.80
   1   4  -5   20.40    3.20
   0  -4   5  103.29    5.20
   0   4   5   99.59    4.70
   0   4  -5   97.99    4.70
   0   4  -5  102.29    5.90
   0   4   5  102.59    3.60
   1  -4   5   21.80    1.60
   1  -4   5   17.90    2.70
  -1   4  -5   23.40    3.40
   1   4   5   24.90    2.60
  -1   4  -5   21.20    2.50
   2  -4   5  135.39    4.70
   2  -4   5  139.09    6.20
  -2   4  -5  137.99    5.70
  -2   4  -5  143.49    7.10
   2   4   5  142.99    5.10
   3  -4   5  408.86   10.90
  -3   4  -5  427.56   11.70
  -3   4  -5  437.26   13.80
   4  -4   5   27.60    3.00
  -4   4  -5   33.00    3.20
  -4   4  -5   30.30    4.00
   5  -4   5   38.20    3.70
   6  -4   5    3.40    2.00
   6   4   5   -1.40    1.90
   7  -4   5    0.00    1.80
   7   4   5   -1.10    2.10
  -8   5   5    7.30    4.00
   8   5  -5   13.80    3.90
  -7   5   5  118.99    9.10
   7   5  -5  127.69    7.80
   6   5  -5    6.20    2.20
   6   5  -5    6.90    2.90
  -6   5   5    5.70    3.40
  -5   5   5   84.89    7.00
   5   5  -5   82.59    5.80
   5   5  -5   67.39    5.20
   4   5  -5   26.60    3.90
   4   5  -5   33.70    4.00
  -4   5   5   33.10    5.10
   3   5  -5  666.33   17.90
  -3   5   5  661.73   18.10
   3   5  -5  659.93   18.50
  -3   5   5  652.93   19.10
   3   5  -5  669.53   16.50
  -2   5   5  115.29    6.10
   2   5  -5  112.99    6.60
   2   5  -5  113.89    6.00
  -2   5   5  111.19    6.30
   2   5  -5  111.49    5.30
  -1  -5   5   51.69    4.30
   1   5  -5   58.89    5.20
  -1   5   5   41.10    3.90
   1   5  -5   57.29    4.40
   1   5  -5   57.39    4.00
  -1   5   5   46.20    3.30
  -1   5   5   40.90    3.80
   0  -5   5   50.79    4.30
   0   5   5   65.69    4.40
   0   5   5   57.89    3.00
   0   5  -5   55.09    5.10
   0   5  -5   56.49    4.10
   1  -5   5 1517.95   30.10
   1  -5   5 1481.65   33.80
   1   5   5 1570.94   33.20
  -1   5  -5 1536.75   32.90
  -1   5  -5 1521.95   35.60
   2  -5   5   75.69    3.40
   2  -5   5   71.69    5.10
  -2   5  -5   72.39    5.80
  -2   5  -5   75.59    4.60
   2   5   5   59.89    4.00
   3  -5   5  125.49    5.10
  -3   5  -5  137.19    7.70
   3   5   5  115.39    5.20
  -3   5  -5  129.29    6.10
   4  -5   5    6.70    1.90
  -4   5  -5    6.90    3.00
   4   5   5    8.40    1.90
  -4   5  -5    4.40    2.00
   5  -5   5   52.09    4.10
   6  -5   5    4.60    2.20
   7  -5   5   18.20    3.50
  -7   6   5   19.00    4.90
   7   6  -5   25.70    4.60
   6   6  -5  166.18    8.70
  -6   6   5  154.28   10.20
   5   6  -5   31.70    4.50
   5   6  -5   28.10    4.10
  -5   6   5   31.60    5.40
   4   6  -5   14.40    3.40
   4   6  -5   10.90    3.10
  -4   6   5    7.90    3.30
   3   6  -5    0.60    1.60
   3   6  -5    0.70    2.00
  -3   6   5   -0.30    2.20
   3   6  -5    1.70    2.20
   2   6  -5  175.28    7.20
  -2   6   5  183.08    8.30
   2   6  -5  177.18    8.70
  -2   6   5  182.38    8.60
  -2   6   5  176.08    7.00
   1   6  -5   20.80    4.00
  -1   6   5   23.90    3.40
  -1   6   5   21.50    2.60
  -1   6   5   22.80    3.60
   1   6  -5   21.30    3.00
   0   6   5  184.08    6.70
   0   6  -5  180.38    9.10
   0   6   5  187.18    6.00
   0   6   5  191.28    8.10
   0   6  -5  186.48    7.50
   1  -6   5   10.40    2.50
   1   6   5   10.60    2.50
  -1   6  -5   10.70    2.40
  -1   6  -5   12.10    3.40
   2  -6   5    3.80    1.20
   2  -6   5    0.70    1.90
   2   6   5    3.40    1.80
  -2   6  -5    1.70    1.80
  -2   6  -5   -0.50    2.30
   3  -6   5   46.50    3.30
  -3   6  -5   41.70    4.20
   3   6   5   43.30    3.80
  -3   6  -5   41.70    5.40
   4  -6   5   19.80    2.70
  -4   6  -5   18.50    4.20
  -4   6  -5   20.00    3.30
   4   6   5   16.30    2.80
   5  -6   5   75.79    4.90
   5   6   5   72.69    4.60
  -5   6  -5   75.09    7.10
   6  -6   5  135.39    7.00
  -6   7   5   22.30    5.40
   5   7  -5  158.08    7.90
  -5   7   5  165.78   10.50
  -4   7   5   29.70    5.10
   4   7  -5   36.90    5.00
  -3   7   5   89.39    7.10
  -3   7   5   92.69    5.70
   3   7  -5   96.59    5.50
   3   7  -5   97.39    6.90
  -2   7   5   93.99    5.30
  -2   7   5   96.69    6.70
   2   7  -5   99.19    7.00
  -2   7   5   91.99    6.50
   2   7  -5  100.89    5.60
  -1   7   5  217.48    7.60
  -1   7   5  202.38    9.20
   1   7  -5  203.68    8.30
  -1   7   5  204.58    8.70
   1   7  -5  204.68   10.30
   0   7  -5  320.97   10.80
   0   7   5  314.97    9.00
   0   7   5  309.77    9.80
   0   7  -5  317.67   13.10
   0   7   5  302.97   11.50
  -1   7  -5   89.89    5.70
  -1   7  -5   96.79    7.60
   1   7   5   92.59    6.00
   1   7   5   93.79    3.40
   2   7   5    1.90    1.90
  -2   7  -5   -0.10    2.90
  -2   7  -5    4.70    2.30
   3   7   5   78.79    5.50
  -3   7  -5   86.19    7.60
  -3   7  -5   88.19    6.00
   4   7   5   10.70    2.70
  -4   7  -5    9.40    2.80
  -4   7  -5    7.40    3.50
  -5   7  -5   29.30    5.70
   5   7   5   25.50    3.80
  -5   8   5   27.50    4.30
   5   8  -5   30.90    4.40
  -5   8   5   28.60    5.80
  -4   8   5   39.20    4.80
   4   8  -5   46.40    5.40
  -4   8   5   43.00    6.80
  -3   8   5   47.40    4.50
   3   8  -5   43.20    4.20
  -3   8   5   51.69    6.00
   3   8  -5   40.90    5.40
  -2   8   5   62.39    5.80
  -2   8   5   60.39    4.60
   2   8  -5   67.19    6.40
   2   8  -5   50.29    4.50
  -1   8   5    1.60    1.60
   1   8  -5   -0.20    1.90
   1   8  -5    2.20    2.90
  -1   8   5    1.30    2.10
  -1   8   5    1.30    2.20
   0   8  -5   87.59    6.00
   0   8   5  108.49    4.90
   0   8   5  113.69    7.30
   0   8  -5   98.59    7.90
  -1   8  -5   92.89    8.10
  -1   8  -5   98.59    6.40
   1   8   5   89.29    6.50
   1   8   5   95.79    3.60
  -2   8  -5  136.59    7.60
   2   8   5  135.99    7.80
  -2   8  -5  141.79    9.70
  -3   8  -5   16.10    3.60
  -3   8  -5   18.10    4.60
   3   8   5   20.20    3.60
   4   8   5   10.30    3.00
  -4   8  -5    9.40    4.30
  -4   8  -5   11.30    3.40
   3   9  -5   29.30    5.20
   3   9  -5   21.90    3.50
  -3   9   5   25.10    5.40
  -3   9   5   21.90    3.70
   2   9  -5   18.40    3.60
   2   9  -5   16.90    4.40
  -2   9   5   28.10    5.00
  -2   9   5   28.30    3.90
  -1   9   5  366.26   11.40
   1   9  -5  340.57   15.10
  -1   9   5  354.86   12.90
   1   9  -5  341.87   12.50
   0   9  -5    1.70    3.60
   0   9   5    0.80    1.40
   0   9  -5   -1.60    2.10
  -1   9  -5    5.40    2.70
  -1   9  -5    2.60    3.60
   1   9   5    4.40    2.80
  -2   9  -5   72.69    8.50
   2   9   5   71.89    6.30
  -2   9  -5   75.69    6.50
   9   0  -6   -1.20    2.20
  -9   0   6    5.40    3.20
   8   0  -6    0.10    1.90
  -8   0   6    1.60    2.60
   7   0  -6    8.20    2.30
  -7   0   6    7.40    3.10
  -6   0   6   74.19    6.00
   5   0  -6    5.70    2.30
  -5   0   6    6.20    2.60
  -4   0   6  215.28    7.50
  -4   0   6  205.78    8.60
   4   0  -6  206.18    7.80
   4   0  -6  217.48    8.50
  -3   0   6   14.20    2.70
  -3   0   6   15.30    2.50
   3   0  -6   13.90    2.60
  -2   0   6  249.58    8.30
  -2   0   6  249.48    7.70
   2   0  -6  251.87    8.40
  -1   0   6    2.60    1.50
   1   0  -6    1.60    1.60
  -1   0   6    2.40    1.50
  -1   0   6    3.10    1.40
   0   0   6  754.42   16.30
   0   0  -6  746.43   16.70
   0   0  -6  741.03   15.70
   0   0   6  753.42   16.20
   0   0   6  714.53   15.00
   1   0   6    0.10    1.00
   1   0   6    0.10    1.00
  -1   0  -6    0.30    0.90
  -1   0  -6   -0.20    0.70
   2   0   6 5457.85  104.69
   3   0   6    8.10    1.90
   4   0   6  397.96   11.50
   5   0   6   -0.30    1.60
   6   0   6  687.73   18.70
   7   0   6    0.20    1.90
   8   0   6   19.60    4.00
   9  -1  -6   42.80    5.00
  -9   1   6   37.60    6.10
   9   1  -6   43.70    4.70
   8  -1  -6   12.60    3.00
  -8  -1   6    8.30    3.30
   8   1  -6    9.60    3.10
  -8   1   6    9.20    3.40
   8   1  -6    8.50    2.50
  -7  -1   6   84.09    6.60
  -7   1   6   72.19    6.50
   7   1  -6   99.19    5.20
   7   1  -6   96.19    6.10
  -6  -1   6  841.12   22.70
  -6   1   6  818.52   22.90
   6   1  -6  843.82   21.30
   6   1  -6  847.82   19.60
   5   1  -6   26.40    3.50
   5   1  -6   27.90    3.90
  -5   1   6   17.10    3.40
  -4  -1   6    6.30    2.00
  -4   1   6    4.50    2.40
   4   1  -6    6.80    2.10
   4   1  -6    2.90    1.90
  -4   1   6    5.60    2.00
   3  -1  -6    4.50    2.20
  -3  -1   6    8.40    1.90
   3   1  -6    3.30    2.00
   3   1  -6    7.00    1.80
  -3   1   6    5.10    1.70
  -3   1   6    2.20    1.90
   2  -1  -6  100.49    5.20
  -2  -1   6  102.49    4.60
   2   1  -6   96.49    5.20
   2   1  -6   99.09    4.50
  -2   1   6  101.09    4.60
  -2   1   6   99.49    5.00
   1  -1  -6   27.20    2.90
  -1  -1   6   29.20    3.00
  -1  -1   6   35.00    2.80
  -1   1   6   25.80    2.50
   1   1  -6   31.50    3.20
   1   1  -6   30.80    2.50
   0  -1   6  111.59    4.50
   0  -1   6  106.79    4.30
   0  -1  -6  113.09    4.50
   0  -1   6  112.29    4.40
   0   1   6  115.19    4.20
   0   1  -6  102.39    3.90
   0   1  -6  102.79    4.80
   0   1   6  114.69    2.90
   1  -1   6   13.80    1.70
   1  -1   6   14.90    2.00
   1  -1   6   15.30    1.90
  -1   1  -6   12.90    1.50
  -1   1  -6   14.50    2.00
   2  -1   6   47.00    3.00
   2  -1   6   49.90    2.90
  -2   1  -6   49.00    3.00
  -2   1  -6   49.70    2.40
   2   1   6   47.90    3.30
   3  -1   6   32.90    3.00
   3   1   6   25.50    2.80
   4  -1   6   51.79    3.80
   4   1   6   44.30    3.80
   5  -1   6   18.10    2.80
   5   1   6   22.70    3.30
   6  -1   6    1.80    2.10
   6   1   6    2.40    2.10
   7  -1   6    0.90    2.10
   7   1   6   -1.80    2.00
   8  -1   6   46.10    5.50
   8   1   6   51.29    5.70
   9  -2  -6   77.19    6.50
  -9   2   6   79.89    7.90
   9   2  -6   90.49    6.90
   9   2  -6   92.69    5.80
  -8   2   6    9.40    3.70
   8   2  -6    5.60    2.60
   8   2  -6   13.10    2.60
   7   2  -6    5.70    1.90
  -7   2   6    4.10    3.10
   7   2  -6    4.00    2.30
   6   2  -6  115.59    6.50
   6   2  -6  115.89    4.90
  -6   2   6  107.89    7.30
  -5   2   6   59.09    5.50
   5   2  -6   57.89    4.60
   5   2  -6   53.19    3.20
   5   2  -6   54.39    4.80
  -4   2   6  288.47    9.40
   4   2  -6  254.17    9.70
   4   2  -6  253.37    9.20
  -4   2   6  288.47   10.50
  -3  -2   6   53.59    3.70
   3   2  -6   58.09    4.00
   3   2  -6   59.19    4.60
  -3   2   6   50.29    3.80
  -3   2   6   51.79    4.60
  -2  -2   6  934.01   21.20
   2  -2  -6  909.51   22.20
  -2   2   6  908.11   21.80
   2   2  -6  964.30   22.50
   2   2  -6  950.00   21.30
  -2   2   6  940.11   21.40
   2   2  -6  953.00   20.70
  -1  -2   6  472.35   12.40
   1  -2  -6  484.25   12.90
  -1   2   6  490.25   12.20
   1   2  -6  482.95   13.40
  -1   2   6  481.05   12.10
   1   2  -6  504.75   11.90
   0  -2   6  776.62   18.40
   0  -2   6  789.22   18.50
   0  -2  -6  844.62   18.40
   0   2   6  828.92   16.00
   0   2  -6  788.32   17.80
   0   2   6  847.22   17.90
   0   2  -6  777.52   19.20
   0   2   6  846.62   16.00
   1  -2   6 1248.18   26.20
   1  -2   6 1253.97   26.20
   1  -2   6 1217.18   24.80
  -1   2  -6 1234.58   26.90
  -1   2  -6 1180.48   25.30
   2  -2   6  411.66   10.80
   2  -2   6  430.06   10.40
  -2   2  -6  399.86   10.10
  -2   2  -6  417.66   11.50
   3  -2   6 1191.08   24.90
   3  -2   6 1153.48   24.90
  -3   2  -6 1177.18   24.20
  -3   2  -6 1163.28   25.60
   3   2   6 1081.69   25.50
   4  -2   6  170.38    6.60
   4  -2   6  172.18    6.40
   4   2   6  168.98    7.00
   5  -2   6  390.76   11.90
   5  -2   6  406.66   11.10
   5   2   6  362.76   12.00
   6  -2   6  189.38    8.20
   6  -2   6  189.38    7.40
   6   2   6  167.68    8.10
   7  -2   6   23.00    3.70
   7   2   6   18.60    3.60
   8  -2   6   73.79    6.20
   8   2   6   76.89    6.40
   9  -3  -6   12.20    3.60
   9   3  -6    9.50    3.30
   9   3  -6   11.10    2.70
  -9   3   6   12.00    4.20
  -8   3   6  178.88   10.80
   8   3  -6  170.58    9.00
   8   3  -6  181.08    7.30
   7   3  -6  107.69    5.00
   7   3  -6  110.59    6.80
  -7   3   6   89.59    7.60
   6   3  -6   92.19    5.90
   6   3  -6   95.89    6.20
  -6   3   6   94.99    7.20
   6   3  -6   94.39    4.20
   5   3  -6   51.89    4.70
  -5   3   6   62.79    6.00
   5   3  -6   51.09    4.60
   5   3  -6   57.59    3.00
   4   3  -6   52.09    4.80
  -4   3   6   53.49    4.20
  -4   3   6   53.19    5.20
   4   3  -6   48.10    4.20
   4   3  -6   47.10    2.30
  -3  -3   6   16.90    2.70
   3   3  -6   15.80    2.70
   3   3  -6   15.00    3.10
  -3   3   6   15.60    3.10
  -3   3   6   14.40    2.50
   3   3  -6   15.20    1.10
  -2  -3   6  431.96   12.10
  -2   3   6  435.26   12.10
   2   3  -6  421.46   12.00
   2   3  -6  426.46   13.10
  -2   3   6  432.86   12.50
   2   3  -6  432.86   11.40
  -1  -3   6  359.86   10.40
   1   3  -6  339.77    9.60
  -1   3   6  345.67   10.00
   1   3  -6  341.57   11.20
  -1   3   6  349.67    9.80
   0  -3   6   17.60    2.60
   0  -3  -6   13.60    2.20
   0   3   6   11.80    1.20
   0   3  -6   16.60    2.20
   0   3   6   11.10    1.20
   0   3   6   12.40    2.00
   0   3  -6   14.90    2.80
   1  -3   6   14.50    1.50
   1  -3   6   21.70    2.90
  -1  -3  -6   11.10    1.90
   1  -3   6   19.00    2.80
  -1   3  -6   12.60    1.90
  -1   3  -6   15.90    2.90
   1   3   6    8.80    1.70
   2  -3   6    2.70    1.60
   2  -3   6    1.60    1.10
  -2   3  -6    3.00    1.90
  -2   3  -6    3.30    1.40
   3  -3   6   15.30    2.10
   3  -3   6   15.80    2.50
  -3   3  -6   12.60    2.00
  -3   3  -6   13.30    2.70
   4  -3   6   10.70    2.10
   4  -3   6   11.80    2.40
   5  -3   6  108.09    5.60
   5   3   6  115.69    6.30
   6  -3   6   84.09    5.60
   6   3   6   81.09    5.80
   7  -3   6    4.70    2.30
   7   3   6    1.70    2.30
  -8   4   6   85.99    8.20
   8   4  -6   86.49    6.90
   7   4  -6   22.60    4.00
  -7   4   6   19.70    4.60
  -6   4   6  167.48    9.80
   6   4  -6  173.28    5.80
   6   4  -6  176.48    8.50
   6   4  -6  169.88    7.80
   5   4  -6   78.89    5.60
   5   4  -6   74.59    3.10
   5   4  -6   75.49    5.50
  -5   4   6   63.69    6.20
  -4   4   6    3.20    2.50
  -4   4   6    1.70    1.70
   4   4  -6    4.00    2.30
   4   4  -6    1.70    2.30
   4   4  -6    3.90    0.80
  -3   4   6   12.00    2.60
   3   4  -6   18.30    3.10
   3   4  -6   21.10    3.80
  -3   4   6   12.20    3.00
  -2  -4   6   51.59    4.30
  -2   4   6   65.49    4.50
  -2   4   6   63.49    4.70
   2   4  -6   58.69    4.00
   2   4  -6   53.99    4.20
   2   4  -6   59.09    5.00
  -1  -4   6   30.50    3.50
   1   4  -6   34.50    3.40
  -1   4   6   24.90    2.90
  -1   4   6   17.90    2.70
   1   4  -6   31.90    4.20
   1   4  -6   28.00    3.30
   0  -4   6 3243.48   65.29
   0   4   6 3270.67   61.69
   0   4   6 3204.48   64.29
   0   4  -6 3211.08   66.69
   0   4  -6 3204.08   63.99
   1  -4   6   12.70    2.80
   1  -4   6   11.30    1.40
  -1   4  -6   11.00    2.10
  -1   4  -6   13.90    3.20
   1   4   6    7.70    1.90
   2  -4   6   36.50    2.50
   2  -4   6   36.40    3.80
  -2   4  -6   34.90    4.20
   2   4   6   41.20    3.10
  -2   4  -6   36.60    3.30
   3  -4   6   20.50    2.50
  -3   4  -6   21.50    3.70
  -3   4  -6   17.10    2.50
   4  -4   6  815.42   19.40
   5  -4   6    4.50    1.90
   6  -4   6    0.60    1.80
   7  -4   6   11.90    3.10
  -8   5   6  296.77   15.00
   8   5  -6  290.07   12.70
   7   5  -6    1.80    2.40
  -7   5   6    4.30    3.40
  -6   5   6   26.70    5.10
   6   5  -6   29.50    4.10
   6   5  -6   22.90    3.90
   5   5  -6  133.39    7.30
  -5   5   6  121.29    8.30
   5   5  -6  120.09    7.00
   4   5  -6   69.49    5.30
  -4   5   6   61.89    6.00
   4   5  -6   64.39    5.50
   3   5  -6   28.50    3.70
   3   5  -6   21.00    2.80
  -3   5   6   35.60    4.10
   3   5  -6   27.50    4.10
  -3   5   6   28.60    4.20
  -2   5   6  164.68    7.50
   2   5  -6  148.19    6.40
   2   5  -6  137.59    7.70
   2   5  -6  139.69    7.80
  -2   5   6  170.98    7.60
  -1  -5   6   41.00    4.60
  -1   5   6   31.40    3.30
   1   5  -6   38.00    5.10
   1   5  -6   36.60    3.60
  -1   5   6   31.50    2.90
  -1   5   6   32.50    3.70
   0  -5   6   22.40    3.60
   0   5  -6   24.40    4.40
   0   5   6   25.90    2.10
   0   5   6   25.50    3.40
   0   5  -6   23.10    3.10
   1  -5   6  149.49    7.00
   1  -5   6  140.49    4.20
  -1   5  -6  146.79    8.00
   1   5   6  151.28    6.40
  -1   5  -6  145.49    6.30
   2  -5   6   21.80    2.10
   2  -5   6   22.50    3.50
   2   5   6   26.50    3.00
  -2   5  -6   19.40    3.90
  -2   5  -6   24.90    3.00
   3  -5   6   82.19    4.00
  -3   5  -6   86.19    5.10
  -3   5  -6   85.39    6.50
   3   5   6   79.19    4.30
   4  -5   6   14.20    2.40
  -4   5  -6   12.00    3.60
   5  -5   6   -0.40    1.50
   6  -5   6   32.80    4.00
  -7   6   6   48.40    7.40
  -6   6   6   18.80    4.80
   6   6  -6   19.50    3.60
   6   6  -6   17.90    4.50
  -5   6   6   55.79    6.50
   5   6  -6   64.09    5.60
   4   6  -6  131.09    7.70
  -4   6   6  123.09    8.20
  -3   6   6    2.40    2.50
   3   6  -6    6.30    2.10
   3   6  -6    6.00    2.90
  -2   6   6  112.09    6.60
  -2   6   6  114.99    6.70
   2   6  -6  102.39    5.60
   2   6  -6   98.19    6.90
  -2   6   6  112.29    5.50
   1   6  -6    2.80    2.70
  -1   6   6    6.70    1.70
   1   6  -6    7.20    2.20
  -1   6   6    6.40    2.10
  -1   6   6    6.40    2.50
   0   6  -6  361.46   11.50
   0   6  -6  359.36   13.70
   0   6   6  368.16   12.10
   0   6   6  367.36    9.20
   1  -6   6  427.46   13.90
   1   6   6  426.46   13.10
  -1   6  -6  435.96   15.40
  -1   6  -6  423.06   12.80
   2  -6   6   72.89    5.60
  -2   6  -6   71.89    6.50
  -2   6  -6   71.09    5.00
   2   6   6   71.49    4.80
   3  -6   6  397.26   13.80
  -3   6  -6  399.16   12.70
  -3   6  -6  403.66   15.30
   3   6   6  378.06   11.80
   4  -6   6  117.49    5.50
   4   6   6  102.19    5.60
  -4   6  -6  123.39    8.50
   5  -6   6  107.19    5.80
   5   6   6  108.39    5.60
   6  -6   6   93.69    6.00
  -6   7   6   80.29    8.20
   6   7  -6   77.59    5.80
   5   7  -6  143.09    8.10
  -5   7   6  135.19    9.70
  -4   7   6   36.20    5.40
   4   7  -6   38.10    5.30
  -3   7   6  105.29    6.00
   3   7  -6  101.79    5.90
   3   7  -6   95.19    7.30
  -3   7   6  111.59    7.70
  -2   7   6   38.60    4.60
  -2   7   6   42.60    4.80
   2   7  -6   42.80    5.40
  -2   7   6   41.40    3.80
   2   7  -6   42.00    4.20
  -1   7   6   14.70    2.30
  -1   7   6   10.20    2.50
  -1   7   6   12.10    3.00
   1   7  -6   18.60    3.20
   1   7  -6   27.10    5.20
   0   7   6   22.20    3.70
   0   7  -6   28.50    5.40
   0   7   6   21.10    2.30
   0   7  -6   24.10    3.50
  -1   7  -6  179.38    8.20
  -1   7  -6  182.48   10.30
   1   7   6  179.98    8.40
   2   7   6   15.60    3.10
  -2   7  -6   17.80    3.30
  -2   7  -6   19.50    4.70
   3   7   6   83.69    5.70
  -3   7  -6   92.59    8.00
  -3   7  -6   97.39    6.30
   4   7   6   27.60    3.90
  -4   7  -6   32.80    5.80
  -4   7  -6   31.50    4.50
   5   7   6   14.60    3.00
  -5   8   6   17.20    3.60
  -5   8   6   19.10    5.00
   5   8  -6   20.10    4.30
   4   8  -6   46.00    5.60
  -4   8   6   54.39    6.80
  -4   8   6   42.60    4.80
   3   8  -6   25.50    3.80
  -3   8   6   16.50    4.10
  -3   8   6   12.40    2.90
   3   8  -6   25.30    5.00
   2   8  -6   78.19    7.10
  -2   8   6   80.79    5.20
   2   8  -6   75.39    5.60
  -2   8   6   80.69    6.30
  -1   8   6    2.30    2.20
  -1   8   6    2.70    1.60
  -1   8   6    4.00    2.10
   1   8  -6    5.20    3.50
   1   8  -6   -0.60    2.00
   0   8  -6    0.50    2.30
   0   8   6    1.20    1.20
   0   8  -6    1.60    3.30
   0   8   6    0.80    2.00
  -1   8  -6   20.80    5.00
   1   8   6   23.60    4.10
  -1   8  -6   22.80    3.80
   2   8   6  568.44   18.20
  -2   8  -6  605.04   18.00
  -2   8  -6  631.14   21.80
  -3   8  -6    2.70    3.40
  -3   8  -6    0.70    2.40
   3   8   6   -1.20    1.90
   3   9  -6    6.80    3.50
  -3   9   6    4.80    3.40
   3   9  -6    3.90    2.40
  -3   9   6    6.40    2.50
  -2   9   6    5.80    2.90
  -2   9   6    6.30    2.30
   2   9  -6    8.60    3.70
   2   9  -6    3.40    2.40
   1   9  -6  128.49    9.70
  -1   9   6  127.69    6.10
   1   9  -6  121.19    7.50
  -1   9   6  128.79    7.00
   0   9   6   55.59    3.40
   0   9  -6   53.99    7.60
   0   9  -6   55.49    5.70
   0   9   6   46.00    7.80
  -1   9  -6  117.99    7.80
  -1   9  -6  120.69   10.00
   1   9   6  111.99    7.90
  -9   0   7  107.39    8.70
   9   0  -7  107.99    6.80
  -8   0   7    2.80    2.90
   8   0  -7    1.00    2.00
  -7   0   7  985.70   27.10
  -6   0   7    7.90    3.00
   5   0  -7  232.98    9.70
  -5   0   7  233.68   10.10
  -4   0   7   10.30    3.00
   4   0  -7   15.70    3.20
  -4   0   7   14.10    2.60
  -3   0   7 2173.98   45.00
  -3   0   7 2172.78   46.10
   3   0  -7 2185.38   46.40
   2   0  -7    1.20    1.80
  -2   0   7    3.00    1.60
  -2   0   7    1.30    1.80
  -1   0   7  148.49    5.60
   1   0  -7  148.99    6.20
  -1   0   7  142.49    5.50
  -1   0   7  149.88    5.70
   0   0   7   10.30    1.10
   0   0  -7   10.80    1.60
   0   0  -7   12.40    2.10
   0   0   7   10.40    1.90
   0   0   7   13.50    2.00
  -1   0  -7  732.43   15.70
   1   0   7  756.42   16.50
  -1   0  -7  749.23   16.80
   1   0   7  764.02   16.40
   2   0   7   14.80    2.20
   3   0   7   24.50    2.90
   4   0   7    0.10    1.70
   5   0   7   59.49    4.70
   6   0   7    0.20    2.00
   7   0   7    6.80    2.90
   9  -1  -7   33.70    4.70
  -9  -1   7   32.40    5.90
   9   1  -7   31.00    4.10
  -9   1   7   27.90    5.50
  -8  -1   7   18.80    4.30
   8  -1  -7   24.80    3.80
   8   1  -7   18.80    3.70
  -8   1   7   31.00    5.20
   8   1  -7   23.90    3.30
  -7  -1   7   55.89    5.90
   7   1  -7   49.20    4.00
   7   1  -7   48.70    5.00
  -7   1   7   52.99    6.00
  -6  -1   7   85.89    6.50
   6   1  -7   88.29    5.80
  -6   1   7   89.19    6.90
  -5  -1   7   97.99    6.60
  -5   1   7   80.89    6.40
   5   1  -7   88.09    6.10
   5   1  -7   90.69    5.50
   4  -1  -7   58.69    5.20
   4   1  -7   51.79    4.20
   4   1  -7   46.70    4.70
  -4   1   7   58.89    5.20
  -4   1   7   58.39    4.40
  -3  -1   7  264.97    9.60
   3  -1  -7  259.57    9.60
  -3  -1   7  263.07    8.70
  -3   1   7  254.67    8.60
   3   1  -7  268.17    9.70
  -3   1   7  257.47    9.60
   2  -1  -7   90.39    5.40
  -2  -1   7  108.79    5.10
  -2  -1   7  101.69    5.50
   2   1  -7   97.49    5.50
  -2   1   7   97.89    5.20
  -2   1   7   94.99    4.80
  -1  -1   7  466.25   12.10
  -1  -1   7  456.25   12.10
   1  -1  -7  461.25   12.50
  -1  -1   7  465.35   12.40
   1   1  -7  464.05   11.40
  -1   1   7  464.35   11.90
   1   1  -7  468.65   12.90
  -1   1   7  470.45   11.90
   0  -1   7   73.29    3.50
   0  -1  -7   67.19    3.80
   0  -1   7   77.39    4.00
   0  -1   7   74.99    3.90
   0   1   7   63.39    3.50
   0   1   7   66.29    2.10
   0   1  -7   79.59    3.50
   0   1  -7   72.79    4.20
   1  -1   7  563.44   13.40
  -1  -1  -7  560.44   12.20
   1  -1   7  580.54   13.50
   1   1   7  557.04   12.50
  -1   1  -7  552.14   13.80
  -1   1  -7  550.74   12.60
   2  -1   7   14.70    2.00
   2  -1   7   14.20    2.00
   2  -1   7   14.10    2.10
  -2   1  -7   14.50    2.00
   3  -1   7    5.60    1.80
   3   1   7    4.10    1.90
   4  -1   7  151.88    6.50
   4   1   7  151.68    6.70
   5  -1   7  816.52   20.50
   5   1   7  805.52   20.70
   6  -1   7   79.99    5.60
   6   1   7   91.99    6.10
   7  -1   7   25.20    4.00
   7   1   7   21.90    3.80
   9  -2  -7   75.29    6.50
  -9  -2   7   65.69    7.40
   9   2  -7   66.59    5.10
  -9   2   7   76.59    8.00
   9   2  -7   71.49    8.10
  -8  -2   7   17.80    4.60
   8   2  -7   14.80    3.50
   8   2  -7   19.30    3.00
  -8   2   7   11.30    3.90
   7   2  -7  114.59    5.40
   7   2  -7  104.89    6.70
  -7   2   7  106.89    8.00
   6   2  -7  363.86   10.10
  -6   2   7  387.66   14.40
   6   2  -7  360.66   12.40
   6   2  -7  364.56   12.80
   5   2  -7  311.87   10.90
  -5   2   7  339.47   12.70
   5   2  -7  320.37   11.70
   5   2  -7  316.17    8.60
  -4  -2   7 1600.44   35.50
  -4   2   7 1674.23   36.10
   4   2  -7 1662.53   37.20
   4   2  -7 1589.14   35.80
  -4   2   7 1685.03   37.70
  -3  -2   7  551.04   14.50
   3   2  -7  548.25   14.60
   3   2  -7  562.44   15.80
  -3   2   7  542.85   15.50
  -3   2   7  524.45   14.50
  -2  -2   7 1077.29   24.40
   2  -2  -7 1115.89   25.60
  -2   2   7 1079.19   24.30
   2   2  -7 1052.79   23.60
   2   2  -7 1055.69   24.30
   2   2  -7 1080.29   25.70
  -2   2   7 1090.29   24.80
   1  -2  -7 1396.16   29.90
  -1  -2   7 1309.17   29.10
  -1   2   7 1379.16   29.00
   1   2  -7 1322.27   30.30
  -1   2   7 1368.46   28.50
   1   2  -7 1332.07   28.40
   0  -2  -7  360.26   10.30
   0  -2   7  387.66   10.60
   0  -2   7  386.66   10.60
   0   2  -7  376.56   11.40
   0   2  -7  374.46    9.80
   0   2   7  366.56    9.80
   1  -2   7   76.59    4.20
   1  -2   7   72.89    4.20
   1  -2   7   74.29    3.30
  -1   2  -7   76.59    3.70
  -1   2  -7   69.89    4.50
   2  -2   7    8.70    2.10
   2  -2   7   11.10    2.30
   2  -2   7    8.60    1.70
  -2   2  -7    7.50    2.00
  -2   2  -7    7.00    1.50
   3  -2   7  100.29    4.80
   3  -2   7   99.69    4.80
   4  -2   7   20.00    2.70
   4  -2   7   20.00    2.80
   4   2   7   21.80    3.20
   5  -2   7   21.80    3.00
   5  -2   7   17.90    2.90
   5   2   7   10.60    2.70
   6  -2   7    0.00    2.40
   6  -2   7    1.50    2.00
   6   2   7   -1.40    2.10
   7  -2   7    4.90    2.50
   7   2   7   -0.80    2.30
   9  -3  -7   -2.60    2.40
  -9   3   7    0.50    3.10
   8   3  -7    9.00    2.20
  -8   3   7    9.40    3.90
   8   3  -7    4.60    2.60
  -7   3   7   50.99    6.30
   7   3  -7   43.00    4.90
   7   3  -7   46.10    3.40
  -6   3   7  236.28   11.40
   6   3  -7  238.88   10.00
   6   3  -7  244.38   10.00
   6   3  -7  243.58    7.30
   5   3  -7   84.39    5.80
   5   3  -7   80.19    3.40
   5   3  -7   79.79    6.00
  -5   3   7   85.59    6.80
   4   3  -7    8.70    2.90
   4   3  -7    6.90    2.30
  -4   3   7   16.70    3.80
   4   3  -7    6.00    1.10
  -4   3   7   12.90    2.70
  -3  -3   7   71.79    4.90
   3   3  -7   79.79    5.90
  -3   3   7   80.59    5.10
   3   3  -7   77.39    5.00
  -3   3   7   76.69    5.70
  -2  -3   7   14.70    2.90
   2   3  -7   11.50    2.30
  -2   3   7    6.60    2.20
   2   3  -7   10.10    2.90
   2   3  -7   11.10    2.60
  -2   3   7    4.80    2.00
  -1  -3   7  262.47    8.90
   1  -3  -7  248.98    9.10
  -1   3   7  257.97    7.90
  -1   3   7  266.67    8.60
   1   3  -7  254.57    8.10
   1   3  -7  252.47    9.70
   0  -3  -7   24.20    3.20
   0  -3   7   24.30    3.00
   0   3   7   25.50    3.00
   0   3  -7   21.50    2.60
   0   3  -7   22.40    3.40
   1  -3   7  148.39    6.30
   1  -3   7  155.18    6.40
  -1  -3  -7  129.39    5.50
   1  -3   7  152.28    4.70
   1   3   7  130.99    5.20
  -1   3  -7  154.78    5.70
  -1   3  -7  156.18    7.00
   2  -3   7   84.39    4.80
   2  -3   7   86.09    4.90
   2  -3   7   85.49    3.90
  -2   3  -7   87.09    4.30
  -2   3  -7   83.09    5.40
   3  -3   7  208.18    7.70
   3  -3   7  206.18    6.90
  -3   3  -7  185.78    8.20
   4  -3   7   33.70    3.30
   4  -3   7   35.80    4.70
   5  -3   7   60.99    4.50
   6  -3   7   73.19    5.30
   6   3   7   81.59    6.00
   7  -3   7  301.57   11.40
   7   3   7  279.47   11.70
   8   4  -7    8.00    4.20
  -8   4   7    0.50    3.10
   7   4  -7   13.80    3.70
  -7   4   7   19.50    4.90
   6   4  -7    2.40    2.50
  -6   4   7    2.60    2.90
   6   4  -7    1.00    2.40
  -5   4   7 1316.07   33.50
   5   4  -7 1307.07   31.50
   5   4  -7 1340.57   32.00
   4   4  -7    0.80    2.40
  -4   4   7    1.10    1.90
  -4   4   7    0.70    2.30
   4   4  -7    1.80    2.00
   3   4  -7  571.14   17.10
  -3   4   7  541.95   15.70
  -3   4   7  540.85   16.50
   3   4  -7  571.64   15.90
  -2  -4   7   34.30    4.10
  -2   4   7   49.30    4.30
   2   4  -7   33.70    4.40
   2   4  -7   29.40    3.30
  -2   4   7   46.10    4.30
  -1  -4   7 2294.47   48.40
   1   4  -7 2326.37   50.09
  -1   4   7 2327.67   45.70
  -1   4   7 2263.27   46.90
  -1   4   7 2281.97   48.00
   1   4  -7 2346.67   47.50
   0  -4   7   78.49    5.20
   0   4  -7   77.79    4.70
   0   4   7   56.79    4.30
   0   4  -7   79.89    6.00
   1  -4   7   43.30    4.20
   1  -4   7   48.90    2.50
   1   4   7   36.20    3.40
  -1   4  -7   48.20    3.80
  -1   4  -7   40.10    4.60
   2  -4   7   19.20    3.10
   2  -4   7   19.00    2.10
  -2   4  -7   15.90    3.30
  -2   4  -7   15.40    2.40
   2   4   7   24.10    2.80
   3  -4   7   40.80    3.10
  -3   4  -7   41.10    3.60
  -3   4  -7   43.80    4.70
   4  -4   7   41.10    3.60
   5  -4   7    1.30    1.70
   6  -4   7   19.80    3.40
  -8   5   7   73.29    8.40
   7   5  -7  100.49    6.30
  -7   5   7  105.19    9.00
  -6   5   7    4.20    3.20
   6   5  -7   11.70    3.20
  -5   5   7   69.49    6.70
   5   5  -7   58.09    5.60
   4   5  -7   38.90    5.00
  -4   5   7   44.90    5.40
  -3   5   7   11.70    2.90
   3   5  -7    8.80    3.10
  -3   5   7   11.50    3.10
   3   5  -7    8.80    2.20
  -2   5   7   97.59    5.80
   2   5  -7   87.99    5.20
  -2   5   7   96.19    6.00
   2   5  -7   94.19    6.70
  -1  -5   7   94.19    5.90
   1   5  -7   89.09    5.30
  -1   5   7   85.99    4.70
   1   5  -7   99.19    6.90
  -1   5   7   95.39    4.30
  -1   5   7   88.89    5.60
   0  -5   7  172.88    7.90
   0   5   7  172.18    7.40
   0   5   7  167.98    4.60
   0   5  -7  181.98    9.10
   0   5  -7  169.48    7.10
   1  -5   7  238.98    9.40
  -1   5  -7  224.68    8.40
  -1   5  -7  225.28   10.20
   1   5   7  231.48    8.30
   2  -5   7    5.00    2.40
   2  -5   7    4.60    1.30
   2   5   7    6.40    1.90
  -2   5  -7    5.10    2.70
  -2   5  -7    3.30    1.90
   3  -5   7  175.88    6.30
   3  -5   7  178.68    8.40
  -3   5  -7  180.38    9.40
   3   5   7  171.18    6.60
  -3   5  -7  177.68    7.50
   4  -5   7   51.49    3.80
   5  -5   7    4.30    2.10
   6  -5   7   37.70    4.30
  -7   6   7   51.99    7.70
   7   6  -7   36.70    4.40
   6   6  -7  246.98   10.50
  -6   6   7  229.68   12.70
  -5   6   7  185.68   10.70
   5   6  -7  192.98    9.60
   4   6  -7  203.38   10.00
  -4   6   7  213.58   10.70
  -3   6   7  149.49   10.10
  -3   6   7  142.79    8.10
   3   6  -7  128.49    8.20
   3   6  -7  132.19    6.60
  -2   6   7  491.75   13.60
   2   6  -7  525.55   14.70
   2   6  -7  522.65   17.10
  -2   6   7  502.15   15.90
  -2   6   7  489.15   15.30
  -1   6   7  202.68    6.90
  -1   6   7  202.78    7.70
   1   6  -7  222.38    8.60
   1   6  -7  219.58   10.60
  -1   6   7  216.58    9.30
   0   6  -7   16.70    3.90
   0   6  -7   12.30    2.90
   0   6   7   19.10    3.30
   0   6   7   16.40    1.60
   1  -6   7   55.19    5.30
   1   6   7   65.79    4.90
  -1   6  -7   60.29    6.30
  -1   6  -7   65.79    5.00
   2  -6   7   41.50    5.30
   2   6   7   33.50    3.70
  -2   6  -7   36.10    4.10
  -2   6  -7   27.80    4.70
   3  -6   7   45.90    5.20
  -3   6  -7   49.99    4.70
  -3   6  -7   53.59    6.20
   3   6   7   43.40    3.90
   4  -6   7   25.20    4.40
   4   6   7   29.00    3.30
  -4   6  -7   24.60    5.60
   6   7  -7    4.60    2.80
  -6   7   7    2.70    3.70
   5   7  -7    1.30    2.60
  -5   7   7   -4.00    2.50
   4   7  -7  132.29    8.50
  -4   7   7  119.29    8.50
  -3   7   7   37.20    4.10
   3   7  -7   29.50    3.70
   3   7  -7   34.10    5.40
  -3   7   7   30.20    4.80
  -2   7   7   98.69    6.50
   2   7  -7  105.19    6.20
   2   7  -7  106.59    7.80
  -2   7   7  101.79    7.00
  -2   7   7  105.79    5.60
   1   7  -7   50.59    5.10
  -1   7   7   43.00    3.80
   1   7  -7   45.20    6.00
  -1   7   7   44.10    3.40
  -1   7   7   43.60    4.80
   0   7  -7   13.70    3.20
   0   7   7   10.60    2.80
   0   7  -7   17.30    4.70
   0   7   7   12.90    1.60
   1   7   7   54.59    5.00
  -1   7  -7   58.49    6.90
  -1   7  -7   56.19    5.10
  -2   7  -7    0.60    2.80
   2   7   7    0.30    1.80
  -2   7  -7    3.70    2.30
   3   7   7    3.50    2.20
  -3   7  -7    4.60    3.30
  -3   7  -7    2.20    2.40
   4   7   7  172.38    8.10
  -4   7  -7  175.88   11.20
  -5   8   7   45.40    7.00
  -5   8   7   39.70    5.00
   5   8  -7   49.90    5.90
  -4   8   7    6.10    3.70
  -4   8   7    2.50    2.30
   4   8  -7    5.40    3.50
   3   8  -7  403.16   13.30
  -3   8   7  389.06   15.10
  -3   8   7  398.26   12.90
   3   8  -7  379.26   15.60
  -2   8   7   21.50    3.80
  -2   8   7   26.30    3.40
   2   8  -7   45.20    6.80
   2   8  -7   39.40    4.70
   1   8  -7    3.50    3.40
   1   8  -7    1.90    2.30
  -1   8   7    1.50    2.50
  -1   8   7    0.60    1.40
   0   8  -7  100.69    8.90
   0   8   7   97.29    7.00
   0   8   7  103.19    3.80
   0   8  -7   92.39    6.60
  -1   8  -7   97.49    6.80
  -1   8  -7   95.39    8.80
   1   8   7   79.59    6.40
  -2   8  -7   31.30    4.70
  -2   8  -7   33.20    6.60
   2   8   7   26.20    4.30
  -3   8  -7   12.60    4.70
  -3   8  -7   12.30    3.40
   3   8   7   13.40    3.50
   1   9  -7   65.89    6.10
   1   9  -7   71.29    8.20
  -1   9   7   72.99    4.40
   0   9   7   93.99    7.70
  -9   0   8   -1.90    2.90
   9   0  -8   -0.40    2.30
  -8   0   8  515.05   18.60
   8   0  -8  534.05   15.50
  -7   0   8   15.40    4.00
  -6   0   8   15.30    4.00
  -5   0   8    3.70    3.00
   5   0  -8    4.90    2.80
  -4   0   8    0.30    2.10
  -4   0   8    1.60    2.60
   4   0  -8   -0.20    2.40
   3   0  -8   13.20    3.20
  -3   0   8   11.20    2.50
  -3   0   8    9.50    3.00
   2   0  -8   59.89    4.70
  -2   0   8   65.79    4.30
  -2   0   8   63.89    4.70
  -1   0   8    0.90    1.70
  -1   0   8    1.60    1.70
   1   0  -8    1.70    1.90
  -1   0   8    2.00    1.60
   0   0   8    1.10    0.70
   0   0  -8    0.40    1.20
   0   0   8    1.80    1.60
   0   0  -8    0.20    1.60
   0   0   8    1.20    1.50
   1   0   8    5.80    1.70
   1   0   8    2.90    1.50
  -1   0  -8    4.20    1.30
  -1   0  -8    3.40    1.70
   3   0   8    0.00    1.80
   4   0   8   40.30    4.00
   5   0   8   -0.10    2.00
   6   0   8   66.89    5.70
   7   0   8   -0.40    2.40
   9  -1  -8    0.10    2.60
  -9  -1   8    3.40    3.50
   9   1  -8    0.30    2.20
  -9   1   8    0.70    3.20
  -8  -1   8  120.99    8.90
   8   1  -8  117.09    6.20
  -8   1   8  106.59    8.50
  -7  -1   8    2.30    2.90
   7   1  -8    1.90    1.80
  -7   1   8    0.50    2.60
  -6  -1   8  135.39    8.40
   6   1  -8  132.79    7.30
  -6   1   8  141.49    8.50
   6   1  -8  127.89    7.80
  -5  -1   8  101.49    7.00
  -5   1   8  124.49    7.70
   5   1  -8  105.49    7.00
   5   1  -8   96.39    6.00
  -4  -1   8  682.13   17.60
  -4  -1   8  687.83   19.00
   4  -1  -8  661.33   19.20
  -4   1   8  674.83   19.10
   4   1  -8  683.03   19.10
  -4   1   8  656.23   17.60
   4   1  -8  679.63   17.60
   3  -1  -8  126.39    7.00
  -3  -1   8  113.59    6.60
  -3  -1   8  111.59    5.70
   3   1  -8  111.79    5.60
   3   1  -8  109.69    6.60
  -3   1   8  117.99    6.00
  -3   1   8  121.39    6.70
  -2  -1   8  332.97   10.30
  -2  -1   8  336.47   11.00
   2  -1  -8  336.27   11.10
  -2   1   8  338.47   10.30
  -2   1   8  353.36   10.80
   2   1  -8  335.47   11.30
  -1  -1   8   14.80    2.70
   1  -1  -8   16.80    2.80
  -1  -1   8   13.20    2.40
  -1  -1   8   16.70    2.80
  -1   1   8   14.90    2.40
  -1   1   8   13.00    2.10
   1   1  -8   14.20    2.90
   1   1  -8   14.80    2.20
  -1   1   8   12.80    2.40
   0  -1   8 1466.25   30.70
   0  -1  -8 1432.76   30.90
   0  -1   8 1409.06   28.80
   0  -1   8 1457.25   30.80
   0   1   8 1423.06   30.10
   0   1   8 1461.65   30.20
   0   1  -8 1430.46   31.50
   0   1  -8 1451.45   29.80
   1  -1   8  138.99    5.50
  -1  -1  -8  128.39    4.30
   1  -1   8  134.39    5.40
  -1  -1  -8  131.89    5.10
  -1   1  -8  129.19    5.80
   1   1   8  134.79    4.80
  -1   1  -8  130.19    4.80
   2  -1   8    4.30    1.70
   2  -1   8    5.30    1.90
   2  -1   8    2.50    1.60
  -2   1  -8    4.40    2.40
   3  -1   8   73.49    4.40
   4  -1   8  403.66   11.90
   4   1   8  365.66   11.80
   5  -1   8    1.10    1.90
   5   1   8   -0.50    2.00
   6  -1   8  100.49    6.50
   6   1   8  105.19    6.70
   7  -1   8    5.80    2.70
   7   1   8    7.10    3.20
  -9  -2   8  156.78   10.60
   9  -2  -8  145.39    8.40
  -9   2   8  141.99   10.50
   9   2  -8  145.19    7.30
  -8  -2   8   68.99    7.10
   8   2  -8   75.69    4.80
  -8   2   8   75.19    7.70
  -7  -2   8   29.00    5.00
  -7   2   8   29.70    5.20
   7   2  -8   27.60    3.00
   6   2  -8   -0.10    2.00
   6   2  -8   -0.30    2.30
   6   2  -8    2.30    1.60
  -6   2   8    6.20    3.40
   5   2  -8    0.20    2.30
   5   2  -8    0.00    1.90
  -5   2   8    0.50    2.50
  -4   2   8   67.49    5.00
  -4   2   8   67.49    6.00
   4   2  -8   75.49    5.20
   4   2  -8   76.89    6.10
   3  -2  -8  313.57   11.70
  -3  -2   8  332.77   10.50
  -3   2   8  313.17   10.50
   3   2  -8  326.47   11.60
  -3   2   8  299.27   11.00
   3   2  -8  329.67   10.50
   2  -2  -8   10.50    2.80
  -2  -2   8   10.30    2.50
  -2   2   8    4.80    2.20
   2   2  -8   17.90    3.60
  -2   2   8    8.40    2.40
   1  -2  -8    1.70    2.00
  -1  -2   8    3.00    2.00
   1   2  -8    3.40    1.80
  -1   2   8    2.50    1.50
  -1   2   8    1.60    1.80
   1   2  -8    1.70    2.20
   0  -2   8    7.30    2.20
   0  -2   8    8.50    2.20
   0  -2   8    6.30    2.20
   0  -2  -8   11.60    2.40
   0   2  -8   12.20    2.70
   0   2  -8   12.10    2.10
   0   2   8   11.90    2.20
   1  -2   8    3.30    2.00
   1  -2   8    1.10    1.80
  -1  -2  -8    0.50    1.60
   1   2   8    1.70    1.50
  -1   2  -8    4.20    2.20
  -1   2  -8    2.80    1.60
   2  -2   8    2.90    1.80
   2  -2   8    1.40    1.50
   2  -2   8    4.20    1.90
  -2   2  -8    3.40    2.00
  -2   2  -8    1.80    1.40
   3  -2   8   71.19    4.20
   3  -2   8   71.39    4.40
   4  -2   8  113.79    5.50
   4  -2   8  114.69    5.80
   5  -2   8    4.80    2.10
   5  -2   8    2.70    2.00
   5   2   8    3.60    2.40
   6  -2   8  140.79    7.50
   6   2   8  138.79    7.90
   7  -2   8   17.80    3.70
   7   2   8   14.70    3.60
  -9  -3   8    4.50    3.50
  -9   3   8    0.70    3.30
  -8   3   8   27.60    5.50
   7   3  -8   10.50    3.20
  -7   3   8    1.80    2.90
   6   3  -8  122.09    7.70
  -6   3   8  145.29    9.20
   6   3  -8  118.09    4.80
  -5   3   8   22.60    4.40
   5   3  -8   22.20    3.90
   5   3  -8   22.20    2.00
   5   3  -8   21.30    4.30
   4   3  -8  182.28    9.00
   4   3  -8  183.08   10.60
  -4   3   8  177.78    9.00
  -4   3   8  177.88    8.10
  -3  -3   8  165.88    7.40
  -3   3   8  146.49    7.70
   3   3  -8  162.78    8.40
  -3   3   8  140.79    7.10
  -2  -3   8 1528.15   34.50
   2   3  -8 1586.34   36.40
   2   3  -8 1586.64   33.70
  -2   3   8 1582.04   34.50
   1  -3  -8  592.54   16.90
  -1  -3   8  639.14   16.60
   1   3  -8  641.54   17.90
   1   3  -8  654.23   15.70
  -1   3   8  600.34   16.10
   0  -3  -8   82.29    5.10
   0  -3   8   94.39    5.50
   0  -3   8  126.29    6.70
   0   3  -8  104.59    6.50
   0   3  -8   96.59    4.90
   1  -3   8  223.08    8.30
   1  -3   8  221.68    8.30
  -1   3  -8  226.08    7.50
   1   3   8  219.28    7.30
  -1   3  -8  216.58    9.00
   2  -3   8  237.08    8.50
   2  -3   8  228.28    7.00
   2  -3   8  226.38    8.50
  -2   3  -8  218.48    7.40
  -2   3  -8  230.38    9.10
   3  -3   8   62.19    4.60
   3  -3   8   58.39    3.80
   4  -3   8  154.38    6.60
   5  -3   8   17.80    3.00
   6  -3   8   91.79    6.10
  -8   4   8    0.10    3.40
  -7   4   8   25.10    5.20
   7   4  -8   23.40    4.10
   6   4  -8   33.80    4.80
  -6   4   8   34.60    5.60
   5   4  -8   30.60    4.70
  -5   4   8   19.00    4.20
   4   4  -8  150.58    8.40
  -4   4   8  155.48    8.40
  -4   4   8  169.48    8.90
   3   4  -8   25.50    4.20
  -3   4   8   22.40    3.40
  -3   4   8   22.90    3.80
  -2  -4   8   75.79    5.40
   2   4  -8   76.99    6.30
   2   4  -8   77.79    5.00
  -2   4   8   82.59    5.30
  -2   4   8   86.89    5.60
  -1  -4   8   98.29    5.90
  -1   4   8   87.29    5.50
   1   4  -8   95.79    6.80
  -1   4   8   89.99    3.90
   1   4  -8   95.79    5.40
   0  -4   8    1.90    2.10
   0   4   8    2.60    2.00
   0   4  -8    0.60    1.80
   0   4  -8    1.90    2.50
   1  -4   8   38.50    4.20
   1  -4   8   37.40    2.40
  -1   4  -8   36.00    3.60
  -1   4  -8   38.70    4.80
   1   4   8   32.50    3.40
   2  -4   8    2.50    1.30
   2  -4   8    4.00    2.10
  -2   4  -8    0.10    1.50
   2   4   8    5.00    1.80
  -2   4  -8    1.40    2.20
   3  -4   8   18.10    2.40
   3  -4   8   20.80    3.50
   4  -4   8  124.29    5.80
   5  -4   8   34.30    3.80
   6  -4   8  102.59    6.40
  -8   5   8   77.29    8.80
  -7   5   8    5.20    3.80
   7   5  -8    5.00    2.60
   6   5  -8   52.89    5.50
  -6   5   8   44.00    6.50
  -5   5   8    3.30    3.10
   5   5  -8   -1.50    2.20
  -4   5   8   56.29    5.90
   4   5  -8   54.99    5.80
  -3   5   8   15.50    3.50
  -3   5   8   18.10    3.50
   3   5  -8   11.40    2.60
   3   5  -8    9.00    3.20
  -2   5   8  932.91   23.60
  -2   5   8  908.21   22.80
   2   5  -8  936.21   22.50
   2   5  -8  904.51   25.10
  -1  -5   8  137.09    7.40
   1   5  -8  149.69    7.00
  -1   5   8  152.28    5.30
  -1   5   8  146.09    7.20
   1   5  -8  140.59    8.50
   0  -5   8    5.20    2.70
   0   5   8    1.40    1.90
   0   5  -8    1.00    1.90
   0   5  -8    0.30    2.40
   1  -5   8   46.50    4.80
  -1   5  -8   44.40    5.50
   1   5   8   54.29    4.30
  -1   5  -8   46.20    4.30
   2  -5   8  413.16   13.40
   2   5   8  393.96   11.60
  -2   5  -8  401.66   14.60
  -2   5  -8  389.76   12.10
   3  -5   8   16.20    2.70
   3  -5   8   15.00    3.50
   3   5   8    7.20    1.90
  -3   5  -8   12.70    3.90
   4  -5   8   68.09    4.40
   4  -5   8   75.59    6.20
   5  -5   8   35.70    3.90
   7   6  -8   79.29    6.30
  -7   6   8   82.09    8.70
   6   6  -8   23.70    4.60
  -6   6   8   13.00    4.40
   5   6  -8   87.69    7.30
  -5   6   8   89.49    7.90
   4   6  -8   27.20    4.90
  -4   6   8   27.70    4.90
   3   6  -8   22.30    4.80
   3   6  -8   22.60    3.50
  -3   6   8   11.80    3.20
  -3   6   8   19.70    4.60
  -2   6   8    1.70    2.00
  -2   6   8    3.90    2.50
  -2   6   8    2.50    1.70
   2   6  -8   -1.30    1.80
   2   6  -8    0.10    2.70
   1   6  -8  202.98    8.60
  -1   6   8  202.48    6.60
  -1   6   8  215.48    9.40
   1   6  -8  201.78   10.70
   0   6   8    0.10    1.90
   0   6  -8   -0.50    2.80
   0   6  -8    4.40    2.40
   1  -6   8   88.09    7.00
  -1   6  -8   93.19    7.60
  -1   6  -8  101.69    6.00
   1   6   8   81.29    5.60
   2  -6   8    3.10    2.50
  -2   6  -8    1.40    3.00
  -2   6  -8    2.10    2.20
   2   6   8    4.00    2.00
   3  -6   8    1.70    2.40
  -3   6  -8    1.10    2.80
   3   6   8    1.60    1.70
   4  -6   8   14.00    4.00
   4   6   8   10.80    2.40
   5  -6   8   27.30    5.10
  -6   7   8   13.90    4.90
   6   7  -8   11.70    3.60
  -5   7   8    4.30    3.50
   5   7  -8    9.50    3.70
   4   7  -8  167.88   10.00
  -4   7   8  195.88   10.50
  -3   7   8   26.00    3.60
  -3   7   8   21.60    4.10
   3   7  -8   26.20    5.30
   3   7  -8   29.30    4.10
   2   7  -8  104.59    6.50
   2   7  -8  115.49    8.50
  -2   7   8   81.99    5.80
  -2   7   8  100.59    5.40
  -2   7   8   99.99    7.20
  -1   7   8  133.59    7.80
   1   7  -8  113.99    6.90
  -1   7   8  114.39    4.90
   1   7  -8  110.39    8.70
   0   7  -8  219.48    9.30
   0   7  -8  211.78   11.70
   0   7   8  204.28    9.60
  -1   7  -8  175.98    8.60
  -1   7  -8  185.08   11.10
   1   7   8  181.28    8.70
  -2   7  -8   21.40    5.20
  -2   7  -8   23.00    3.90
   2   7   8   11.80    3.00
  -3   7  -8   10.50    4.10
   3   7   8    5.00    2.30
  -3   7  -8   14.40    3.90
  -4   8   8    9.10    3.80
  -4   8   8   10.60    3.00
   4   8  -8   13.50    4.30
  -3   8   8   56.39    4.80
  -3   8   8   49.10    5.80
   3   8  -8   52.19    5.10
   3   8  -8   55.39    7.60
   2   8  -8   24.10    4.00
  -2   8   8   19.30    3.50
   2   8  -8   36.00    6.30
  -2   8   8   25.10    3.20
  -1   8   8   81.49    6.80
  -1   8   8   77.09    4.20
   1   8  -8   85.09    6.50
   1   8  -8   84.39    8.40
   0   8  -8    2.30    3.90
   0   8  -8    4.60    2.70
   0   8   8    2.80    2.50
   1   8   8   69.99    6.10
  -1   8  -8   89.79    8.90
  -1   8  -8   67.49    6.30
  -2   8  -8   62.49    6.00
  -2   8  -8   63.39    8.10
   2   8   8   49.60    5.30
  -9   0   9  109.59    9.30
   9   0  -9  109.39    7.10
   8   0  -9   -1.90    1.90
  -8   0   9    0.60    3.30
  -7   0   9    1.20    3.00
  -6   0   9   16.20    4.00
   5   0  -9   96.09    7.00
  -5   0   9   96.19    7.20
  -4   0   9    1.50    2.70
  -4   0   9    1.40    2.30
   4   0  -9    0.10    2.60
  -3   0   9  438.16   13.70
  -3   0   9  420.66   12.80
   3   0  -9  439.16   14.20
   2   0  -9    5.40    2.60
  -2   0   9   10.60    2.70
  -2   0   9    5.00    2.50
  -1   0   9  234.08    7.70
  -1   0   9  235.68    8.30
   1   0  -9  224.58    8.70
  -1   0   9  226.68    8.00
   0   0   9    3.20    1.90
   0   0   9    1.50    0.80
   0   0  -9    2.00    1.50
   0   0  -9    1.60    1.90
   0   0   9    2.10    1.80
  -1   0  -9    1.90    1.90
   1   0   9    4.00    1.90
  -1   0  -9    4.80    2.10
   1   0   9    1.80    1.70
   2   0   9    0.70    1.50
   2   0   9    0.90    1.60
   4   0   9   10.90    2.50
   5   0   9   -0.90    2.10
   6   0   9   16.60    3.60
  -9  -1   9  170.98   11.30
   9  -1  -9  168.38    9.00
   9   1  -9  171.88    8.10
  -9   1   9  170.98   11.40
  -8  -1   9   46.10    6.70
   8   1  -9   52.49    4.60
  -8   1   9   42.60    6.50
  -7  -1   9   15.40    4.30
  -7   1   9   11.90    4.10
   7   1  -9    8.40    2.30
  -6  -1   9  136.19    9.00
  -6   1   9  136.89    8.90
   6   1  -9  126.39    8.10
  -5  -1   9  436.56   15.50
   5   1  -9  445.76   15.30
  -5   1   9  432.66   15.30
  -4  -1   9    4.90    2.40
  -4  -1   9    4.20    3.00
   4  -1  -9    4.20    3.00
  -4   1   9    3.30    2.20
   4   1  -9    5.70    2.90
  -4   1   9    2.40    2.70
  -3  -1   9  445.36   13.10
   3  -1  -9  432.26   14.30
  -3  -1   9  441.86   14.10
  -3   1   9  433.16   13.10
  -3   1   9  423.26   13.60
   3   1  -9  445.56   14.40
  -2  -1   9    3.00    2.20
   2  -1  -9    4.00    2.40
  -2  -1   9    5.80    2.70
   2   1  -9    2.20    2.40
  -2   1   9    6.40    2.30
  -2   1   9    2.20    2.40
  -2   1   9    3.90    2.30
  -1  -1   9    2.30    2.10
   1  -1  -9    1.70    2.10
  -1  -1   9    4.90    2.10
  -1  -1   9    2.90    2.00
  -1   1   9   -0.40    1.80
   1   1  -9    3.50    1.70
  -1   1   9    0.60    1.60
   1   1  -9    2.80    2.30
   0  -1   9   34.50    2.20
   0  -1  -9   24.70    3.30
   0  -1   9   32.40    3.50
   0  -1   9   38.40    3.60
   0   1  -9   32.70    3.00
   0   1  -9   32.60    3.90
   0   1   9   31.70    3.30
   0   1   9   32.10    3.10
   1  -1   9  114.49    5.40
   1  -1   9  121.29    5.60
   1   1   9  135.99    5.20
   1   1   9  131.59    5.10
  -1   1  -9  118.89    4.90
  -1   1  -9  118.79    6.00
   2  -1   9    7.00    2.10
   2  -1   9    7.30    2.10
   3  -1   9    2.70    2.10
   3  -1   9    8.80    2.30
   3  -1   9    4.80    2.10
   4  -1   9   12.90    2.70
   5  -1   9   32.00    4.10
   5   1   9   28.80    4.00
   6  -1   9   10.00    3.10
   6   1   9   15.10    3.60
  -9  -2   9    2.30    3.80
  -9   2   9    0.20    3.40
  -8  -2   9  112.29    9.00
   8   2  -9  107.29    5.70
  -8   2   9   96.89    8.70
  -7  -2   9    0.00    2.90
  -7   2   9    5.60    3.60
   7   2  -9    5.30    1.80
  -6  -2   9    6.20    3.40
   6   2  -9    3.20    2.70
   6   2  -9    3.60    1.60
  -6   2   9    4.90    3.30
  -5   2   9  166.88    9.30
   5   2  -9  180.98    9.30
  -4   2   9   14.80    3.60
   4   2  -9   10.00    3.10
  -4   2   9   12.30    3.00
  -3  -2   9  412.06   13.00
   3  -2  -9  452.05   14.80
   3   2  -9  421.96   14.40
  -3   2   9  461.95   14.10
  -3   2   9  447.16   13.40
  -2  -2   9  116.39    6.90
  -2  -2   9  119.99    6.30
   2  -2  -9  128.89    7.30
  -2   2   9  131.79    8.50
  -2   2   9  126.59    6.30
  -2   2   9  137.19    6.60
   2   2  -9  119.29    7.30
  -1  -2   9  463.15   13.10
   1  -2  -9  425.66   13.30
  -1  -2   9  443.16   13.00
  -1   2   9  437.16   12.60
   1   2  -9  455.05   14.10
   1   2  -9  452.45   12.20
   0  -2   9   59.69    4.50
   0  -2  -9   56.69    4.30
   0  -2   9   62.49    4.50
   0  -2   9   59.79    4.30
   0   2  -9   56.99    5.00
   0   2  -9   56.19    3.90
   0   2   9   61.29    4.10
   1  -2   9   16.10    2.80
   1  -2   9   13.60    2.70
  -1   2  -9   14.20    2.80
   1   2   9   26.90    3.00
   2  -2   9  302.97    9.80
   2  -2   9  304.07    9.80
   2  -2   9  315.77    9.20
   3  -2   9  481.45   13.20
   3  -2   9  474.55   13.00
   3  -2   9  484.55   13.30
   4  -2   9  281.37    9.50
   4  -2   9  295.07    9.90
   5  -2   9  249.38    9.60
   6  -2   9  157.08    8.20
  -8   3   9   15.80    4.80
  -7   3   9  227.98   12.30
   7   3  -9  219.78   10.70
  -6   3   9  126.69    9.00
   6   3  -9  131.49    8.30
  -5   3   9   10.80    3.60
   5   3  -9    6.80    3.10
  -4   3   9   51.19    5.60
   4   3  -9   52.99    5.70
  -4   3   9   47.80    4.80
  -3  -3   9  409.46   13.40
   3   3  -9  439.26   15.00
  -3   3   9  457.15   14.20
  -3   3   9  432.36   13.60
  -2  -3   9   46.00    4.50
   2  -3  -9   29.00    4.10
  -2   3   9   23.70    3.30
   2   3  -9   49.40    5.90
   2   3  -9   38.50    3.80
  -1  -3   9  114.39    6.30
   1  -3  -9  108.79    6.60
  -1   3   9  114.69    6.00
   1   3  -9  119.99    5.90
   1   3  -9  120.29    7.40
   0  -3  -9   84.09    5.50
   0  -3   9   89.39    5.60
   0   3  -9   88.79    6.30
   0   3  -9   94.39    5.10
   0   3   9   97.89    5.30
   1  -3   9   25.60    3.50
   1   3   9   27.90    3.20
  -1   3  -9   27.80    3.10
  -1   3  -9   22.10    3.70
   2  -3   9    6.50    1.80
   2  -3   9    7.70    2.50
  -2   3  -9    6.90    3.10
   3  -3   9    3.50    1.80
   3  -3   9    3.80    2.20
   4  -3   9   19.70    3.50
   5  -3   9    3.30    2.20
   6  -3   9   34.80    4.20
  -8   4   9   20.80    5.50
  -7   4   9  109.49    9.10
   7   4  -9   89.29    7.10
   6   4  -9    6.20    3.10
  -6   4   9    5.50    3.50
   5   4  -9  113.29    7.80
  -5   4   9  112.79    8.20
   4   4  -9   96.69    7.20
  -4   4   9   85.19    6.90
  -3   4   9   13.90    3.20
  -3   4   9   18.00    3.50
   3   4  -9   18.80    4.20
  -2  -4   9   -1.50    2.00
   2   4  -9   -1.60    2.50
  -2   4   9   -0.30    2.20
  -2   4   9    1.50    1.90
   2   4  -9   -3.10    1.60
  -1  -4   9  148.69    7.50
   1   4  -9  153.38    8.60
  -1   4   9  159.88    5.10
  -1   4   9  165.78    7.50
   1   4  -9  157.18    7.00
   0  -4   9   17.70    3.60
   0   4  -9   16.10    2.80
   0   4  -9   17.00    3.90
   1  -4   9  571.14   16.30
  -1   4  -9  547.45   15.10
   1   4   9  571.44   14.90
  -1   4  -9  572.24   17.70
   2  -4   9    5.60    2.60
   2  -4   9    5.60    1.70
  -2   4  -9    8.70    3.20
   2   4   9    7.00    2.00
   3  -4   9    3.60    2.40
   3  -4   9    1.50    1.60
   4  -4   9    2.50    1.80
   4  -4   9    4.60    2.70
   5  -4   9  616.94   17.00
  -7   5   9  395.96   17.20
   7   5  -9  382.06   14.50
   6   5  -9    2.50    2.80
  -6   5   9    3.00    3.40
  -5   5   9    3.80    3.30
   5   5  -9    1.90    3.00
   4   5  -9   56.99    6.20
  -4   5   9   60.59    6.10
   3   5  -9  246.88   11.60
  -3   5   9  228.78   10.10
  -3   5   9  228.78   10.20
   3   5  -9  258.77    9.60
   2   5  -9   55.19    6.30
  -2   5   9   50.79    5.20
   2   5  -9   49.90    4.70
  -2   5   9   42.90    4.20
   1   5  -9   67.99    6.70
   1   5  -9   68.59    5.30
  -1   5   9   76.49    3.50
  -1   5   9   75.49    5.70
   0  -5   9   11.00    3.10
   0   5  -9   10.10    3.60
   0   5  -9    6.90    2.40
   0   5   9   13.40    3.10
   1  -5   9   -0.50    2.30
  -1   5  -9    2.60    2.90
   1   5   9   -0.50    1.80
  -1   5  -9   -1.90    1.90
   2  -5   9   60.59    5.50
   2   5   9   56.49    4.40
  -2   5  -9   60.29    4.90
  -2   5  -9   58.89    6.20
   3  -5   9    1.00    2.30
   3   5   9    1.20    1.60
   4  -5   9   79.69    6.40
   5  -5   9    6.40    3.50
   6   6  -9   14.00    4.10
  -6   6   9   10.40    4.20
  -5   6   9   22.00    4.70
   5   6  -9   11.70    3.80
   4   6  -9   99.39    8.00
  -4   6   9   99.89    7.70
   3   6  -9  212.08    9.00
   3   6  -9  207.48   11.10
  -3   6   9  192.98    9.40
  -2   6   9   25.20    4.10
   2   6  -9   32.90    4.20
  -2   6   9   20.60    3.20
  -2   6   9   23.70    2.90
   2   6  -9   24.20    5.00
  -1   6   9   79.49    3.60
   1   6  -9   68.49    7.10
  -1   6   9   70.29    5.80
   1   6  -9   73.99    5.60
   0   6  -9    9.90    2.80
   0   6   9   12.00    3.00
   0   6  -9    8.80    3.80
  -1   6  -9   74.09    5.60
  -1   6  -9   68.19    7.10
   1   6   9   66.59    5.30
   2  -6   9  190.18    9.60
   2   6   9  186.58    8.30
  -2   6  -9  190.18   10.70
  -2   6  -9  185.98    8.60
   3  -6   9  102.69    7.50
   3   6   9  106.99    6.00
   4  -6   9  207.08   10.50
   4   6   9  207.28    8.20
  -5   7   9   40.40    6.30
   5   7  -9   34.70    5.70
   4   7  -9  115.29    8.90
  -4   7   9   96.79    7.90
   3   7  -9  110.19    8.90
   3   7  -9  105.19    6.80
  -3   7   9  100.69    7.10
  -3   7   9  103.69    6.00
  -2   7   9  120.29    8.00
   2   7  -9  114.79    7.10
  -2   7   9  121.29    5.70
  -2   7   9  110.59    6.20
   2   7  -9  101.49    8.70
  -1   7   9   24.00    4.10
   1   7  -9   22.90    3.90
  -1   7   9   14.60    1.90
   1   7  -9   26.40    5.90
   0   7   9    0.20    2.20
   0   7  -9    0.90    2.30
   0   7  -9    9.20    4.10
   1   7   9   20.50    3.70
  -1   7  -9   24.20    3.90
  -1   7  -9   21.90    5.20
   2   7   9  103.29    6.50
  -2   7  -9   98.19    8.80
  -2   7  -9  103.69    6.80
  -3   7  -9    3.10    3.90
   3   7   9    3.10    2.30
   3   8  -9   74.09    8.20
   3   8  -9   73.69    6.20
  -3   8   9   78.49    6.40
  -3   8   9   74.89    5.40
   2   8  -9   59.79    5.90
   2   8  -9   60.99    8.00
  -2   8   9   48.70    4.00
   1   8  -9   64.29    8.10
  -1   8   9   59.99    3.20
  -1   8   9   59.89    6.30
   1   8  -9   59.49    6.20
   0   8   9    4.00    2.70
   0   8  -9   10.80    4.90
   0   8  -9    4.70    2.90
  -1   8  -9   -1.60    3.80
   1   8   9    2.10    2.30
   9   0 -10   -3.00    2.30
  -9   0  10    2.10    3.50
  -8   0  10  209.58   12.20
  -7   0  10   11.40    4.10
  -6   0  10  687.23   21.60
  -5   0  10    9.60    3.60
   5   0 -10   12.00    3.60
  -4   0  10   24.40    4.20
  -4   0  10   24.70    3.80
   4   0 -10   23.00    4.30
   3   0 -10    3.90    3.00
  -3   0  10    1.60    2.70
  -3   0  10    3.30    2.30
   2   0 -10 1784.72   40.50
  -2   0  10 1821.62   39.10
  -2   0  10 1818.92   39.20
  -1   0  10   -1.10    2.00
  -1   0  10    3.70    2.20
  -1   0  10    2.10    1.90
   1   0 -10    2.20    2.40
   0   0 -10  119.39    6.30
   0   0  10  115.69    5.70
   0   0  10  115.99    5.80
   1   0  10    5.80    2.20
   1   0  10    5.30    2.10
   2   0  10  750.82   17.70
   2   0  10  735.73   17.50
   5   0  10    2.40    2.50
   6   0  10   63.49    6.00
  -8  -1  10    8.70    4.20
  -8   1  10   13.30    4.80
   8   1 -10    5.70    2.70
  -7  -1  10   20.30    4.70
  -7   1  10   28.60    5.60
  -6  -1  10   21.60    4.60
  -6   1  10   29.60    5.30
   6   1 -10   26.00    4.70
  -5  -1  10   78.99    7.00
   5  -1 -10   57.89    6.30
  -5   1  10   60.99    6.50
   5   1 -10   68.79    6.50
  -4  -1  10    8.50    3.50
   4  -1 -10    2.80    2.90
  -4   1  10    3.60    2.90
   4   1 -10    8.10    3.40
  -4   1  10    4.40    2.50
   3  -1 -10    2.30    2.70
  -3  -1  10    1.20    2.00
  -3  -1  10    2.60    2.90
   3   1 -10    3.90    2.80
  -3   1  10    2.80    2.80
  -3   1  10    4.60    2.80
  -2  -1  10   11.50    3.20
   2  -1 -10    8.00    3.00
  -2  -1  10   16.40    3.50
  -2   1  10    6.10    2.60
   2   1 -10   19.90    4.20
  -2   1  10    9.10    2.80
   1  -1 -10   23.40    3.80
  -1  -1  10   18.20    3.20
  -1  -1  10   19.30    3.00
   1   1 -10   22.80    3.70
  -1   1  10   22.40    3.20
  -1   1  10   25.10    3.40
   0  -1 -10  102.69    5.80
   0  -1  10   98.79    5.50
   0  -1  10   99.89    5.60
   0   1  10  113.19    5.30
   0   1 -10   92.69    5.90
   0   1  10  104.69    5.30
   1  -1  10   11.30    2.70
   1  -1  10   11.40    2.60
   1   1  10    3.50    1.80
   1   1  10    6.60    1.80
   2  -1  10  328.97   10.20
   2  -1  10  336.47   10.20
   3  -1  10   15.10    2.60
   3  -1  10   16.80    2.70
   4  -1  10   91.79    5.00
   4  -1  10   93.19    5.10
   4  -1  10   91.69    5.80
   5  -1  10   53.49    5.00
   6  -1  10  176.08    8.90
  -8  -2  10   42.00    6.80
  -8   2  10   50.99    7.30
  -7  -2  10   -0.80    3.10
   7   2 -10    2.80    2.80
  -7   2  10    2.70    3.40
   7   2 -10   -1.50    2.00
  -6  -2  10  169.18   10.00
  -6   2  10  148.69    9.70
   6   2 -10  158.48    9.40
  -5  -2  10  199.98   10.40
   5   2 -10  201.48   10.30
  -5   2  10  196.18   10.30
  -4  -2  10  473.55   16.30
   4  -2 -10  530.55   17.40
  -4   2  10  527.45   15.70
  -4   2  10  513.45   16.40
   4   2 -10  477.65   16.60
   3  -2 -10  851.41   23.60
  -3  -2  10  871.71   22.10
  -3  -2  10  921.01   23.40
   3   2 -10  890.81   23.90
  -3   2  10  825.92   21.90
  -3   2  10  860.91   22.60
   2  -2 -10  401.86   14.00
  -2  -2  10  455.65   13.50
  -2  -2  10  462.25   14.10
   2   2 -10  444.36   14.80
  -2   2  10  390.96   12.30
  -2   2  10  411.86   13.10
  -1  -2  10  668.33   17.90
  -1  -2  10  690.73   17.70
   1  -2 -10  683.53   18.60
  -1   2  10  643.14   18.70
   1   2 -10  667.93   16.80
  -1   2  10  690.03   17.60
   1   2 -10  662.33   19.10
   0   2  10  104.39    5.40
   1  -2  10  323.97   10.40
  -1   2 -10  310.77   11.20
   1   2  10  308.77    9.40
   2  -2  10  243.68    8.90
   3  -2  10    8.70    2.40
   3  -2  10    9.90    2.70
   4  -2  10   87.19    5.40
   4  -2  10   88.89    5.40
   5  -2  10   20.60    3.50
   5  -2  10   20.80    3.50
   6  -2  10   10.00    3.10
  -8  -3  10   -1.80    3.20
  -8   3  10    4.30    4.10
   7   3 -10    5.90    3.40
  -7   3  10    4.40    3.80
   6   3 -10   34.80    5.50
  -6   3  10   33.10    5.50
   5   3 -10  207.28   10.50
  -5   3  10  186.48   10.30
   4   3 -10  114.49    8.00
  -4   3  10  105.59    6.90
  -4   3  10  119.79    7.70
   3   3 -10    0.60    2.90
  -3   3  10    3.30    2.40
  -3   3  10    2.40    2.30
   2  -3 -10    3.60    2.90
  -2  -3  10    7.60    2.80
   2   3 -10    2.50    2.00
   2   3 -10    6.90    3.30
  -2   3  10    1.70    1.80
  -2   3  10    2.40    2.40
   1  -3 -10   -0.20    2.10
  -1  -3  10    0.10    2.20
  -1   3  10    0.10    2.00
   1   3 -10   -0.20    2.50
   1   3 -10    0.30    1.90
   0  -3  10   42.90    4.50
   0  -3  10   48.70    4.40
   0   3 -10   48.60    4.10
   0   3 -10   45.40    5.20
   0   3  10   52.19    4.40
   1  -3  10   -0.50    2.10
   1   3  10    2.30    2.00
  -1   3 -10    2.10    2.60
  -1   3 -10    1.70    1.80
   2  -3  10  117.69    6.60
   3  -3  10   76.29    5.50
   3  -3  10   79.79    4.70
   4  -3  10  332.97   11.50
   4  -3  10  329.47   10.80
   5  -3  10   41.10    5.00
   5  -3  10   29.50    3.90
  -7   4  10    0.30    3.50
   7   4 -10    6.80    3.40
   6   4 -10   56.99    6.30
  -6   4  10   47.40    6.70
   5   4 -10   23.50    4.70
  -5   4  10   11.40    3.80
   4   4 -10 1043.10   28.50
  -4   4  10 1054.29   27.70
  -3   4  10   12.20    3.20
   3   4 -10   20.40    4.60
  -3   4  10    5.70    2.60
  -2  -4  10  205.58   12.60
  -2   4  10  180.28    8.50
  -2   4  10  168.88    7.20
   2   4 -10  178.48    9.90
   2   4 -10  179.08    7.80
  -1  -4  10   20.70    3.50
  -1   4  10   33.80    4.30
   0  -4  10  773.72   20.70
   0   4 -10  767.02   19.50
   0   4  10  769.82   19.70
   0   4 -10  763.02   22.20
   1  -4  10   42.80    5.10
  -1   4 -10   40.40    4.10
  -1   4 -10   46.30    5.50
   2  -4  10   30.80    4.40
   2   4  10   24.10    3.20
   3  -4  10   56.09    5.40
   3  -4  10   53.59    3.90
   4  -4  10   92.49    5.30
   4  -4  10   89.69    6.60
   5  -4  10    9.30    2.80
   5  -4  10    9.30    3.50
  -7   5  10   43.70    7.00
   7   5 -10   53.39    6.40
  -6   5  10  102.39    8.80
   6   5 -10  110.59    8.30
  -5   5  10    6.30    3.30
   5   5 -10   16.30    4.40
  -4   5  10   73.99    6.60
   4   5 -10   69.29    7.10
   3   5 -10   71.79    7.30
  -3   5  10   77.29    6.30
  -3   5  10   78.09    6.00
   2   5 -10    0.60    2.10
  -2   5  10   -1.30    1.40
  -2   5  10   -0.80    1.60
   2   5 -10    0.10    3.00
  -2   5  10    1.40    2.40
  -1   5  10   49.90    2.50
   1   5 -10   52.79    4.90
   1   5 -10   57.59    6.50
  -1   5  10   45.70    5.00
   0  -5  10   35.00    4.70
   0   5 -10   31.80    3.90
   0   5  10   32.50    4.20
   0   5 -10   35.50    5.50
   1  -5  10   22.80    4.20
  -1   5 -10   34.70    4.00
   1   5  10   36.60    4.20
  -1   5 -10   28.40    5.00
   2  -5  10   81.69    6.50
  -2   5 -10   87.59    7.50
   2   5  10   89.29    5.50
   3  -5  10    2.60    2.80
   3   5  10    2.50    1.90
   4  -5  10  287.97   12.10
   6   6 -10   45.40    6.30
  -6   6  10   63.19    7.70
  -5   6  10  125.79    9.10
   5   6 -10  122.09    9.10
   4   6 -10  255.67   12.60
  -4   6  10  233.38   11.40
   3   6 -10  177.28    8.60
  -3   6  10  195.58    9.20
  -3   6  10  184.58    7.60
   3   6 -10  173.88   10.70
  -2   6  10  115.49    7.60
   2   6 -10  107.09    8.80
  -2   6  10  115.99    5.20
   2   6 -10  103.29    6.90
   1   6 -10  334.97   12.10
   1   6 -10  353.86   15.00
  -1   6  10  359.86   13.20
   0   6  10   43.30    5.00
   0   6 -10   51.09    5.00
   0   6 -10   46.10    6.50
  -1   6 -10   21.00    5.10
  -1   6 -10   22.20    3.90
   1   6  10   11.40    3.10
   2  -6  10   81.29    7.10
  -2   6 -10   96.39    8.30
   2   6  10  108.09    6.40
   3  -6  10   96.79    7.60
   3   6  10   94.99    5.90
   4   7 -10    3.50    3.70
  -4   7  10    4.60    3.20
  -4   7  10    2.40    2.30
   3   7 -10  172.38   11.10
  -3   7  10  168.18    7.50
   3   7 -10  175.88    8.80
  -3   7  10  166.48    8.70
   2   7 -10    5.20    2.90
  -2   7  10    2.60    2.80
   2   7 -10    3.20    3.60
  -2   7  10    2.70    1.60
  -1   7  10   32.80    4.80
   1   7 -10   42.10    6.90
   1   7 -10   35.10    4.80
   0   7  10   18.20    3.80
   0   7 -10   26.10    4.10
   0   7 -10   26.30    5.60
  -1   7 -10    1.70    4.10
   1   7  10    5.40    2.70
  -1   7 -10    7.10    3.00
  -2   7 -10   29.20    6.10
   2   7  10   23.40    4.00
  -8   0  11    3.70    3.80
  -7   0  11  448.36   17.70
   6   0 -11   11.70    4.00
  -6   0  11   14.70    4.40
   5   0 -11   77.29    7.10
  -5   0  11   73.89    7.00
  -4   0  11    1.70    3.30
  -4   0  11   -0.10    2.70
   4   0 -11   -2.20    2.70
  -3   0  11    5.80    2.50
  -3   0  11    7.90    3.20
   3   0 -11    7.60    3.40
  -2   0  11    2.70    2.40
   2   0 -11    2.70    2.70
  -2   0  11    1.70    2.50
   1   0 -11  123.09    7.10
  -1   0  11  125.89    6.40
   0   0 -11   -0.30    4.00
   0   0  11    0.70    2.00
   1   0  11   34.20    3.80
   1   0  11   36.70    3.80
   2   0  11    1.80    1.90
   2   0  11   -2.40    1.70
   3   0  11  138.99    6.00
   3   0  11  140.39    6.10
  -8  -1  11    8.00    4.20
  -8   1  11    9.30    4.40
   8   1 -11    4.20    2.50
  -7  -1  11  167.68   10.90
  -7   1  11  147.49   10.30
  -6  -1  11   -2.00    3.00
   6   1 -11    4.90    3.30
  -6   1  11    5.70    3.70
   5  -1 -11  153.78    9.50
  -5  -1  11  128.09    8.80
  -5   1  11  137.79    8.80
   5   1 -11  121.59    8.50
  -4  -1  11   58.79    6.30
   4  -1 -11   69.29    6.80
  -4   1  11   68.19    5.60
  -4   1  11   61.69    6.10
   4   1 -11   56.29    6.40
  -3  -1  11  453.25   14.30
   3  -1 -11  437.76   15.40
  -3  -1  11  467.45   14.80
  -3   1  11  444.06   14.40
   3   1 -11  470.95   15.90
  -3   1  11  450.35   14.30
  -2  -1  11  108.69    6.40
   2  -1 -11  119.19    7.40
  -2  -1  11  110.79    6.60
  -2   1  11  110.49    6.40
   2   1 -11  103.69    7.10
   1  -1 -11    5.10    2.60
  -1  -1  11    5.00    2.60
  -1  -1  11    2.80    2.10
   1   1 -11    4.50    2.80
  -1   1  11    5.40    2.40
   0  -1  11   68.69    5.10
   0   1  11   79.39    5.00
   0   1  11   72.59    5.00
   0   1 -11   74.59    5.70
   1  -1  11 1284.47   29.10
   1   1  11 1294.07   28.50
   1   1  11 1281.17   28.50
   2  -1  11   56.39    5.50
   2  -1  11   57.59    4.50
   2   1  11   72.49    4.40
   2   1  11   66.79    4.20
   3  -1  11   51.29    4.50
   3  -1  11   50.99    4.60
   4  -1  11   12.10    3.60
   4  -1  11   23.00    3.10
  -8  -2  11  213.98   12.90
  -8   2  11  201.48   12.60
  -7  -2  11   28.10    6.10
   7   2 -11   28.00    5.30
  -7   2  11   19.80    5.10
  -6  -2  11   75.09    7.80
   6   2 -11   64.29    7.10
  -6   2  11   79.59    7.70
  -5  -2  11  102.39    8.20
   5   2 -11  113.09    8.40
  -5   2  11  113.59    8.10
  -4  -2  11   25.40    5.10
   4  -2 -11   13.50    4.00
   4   2 -11   26.40    5.00
  -4   2  11   11.60    3.20
  -4   2  11    8.60    3.20
  -3  -2  11   11.50    3.10
  -3  -2  11   12.50    4.00
   3  -2 -11    8.90    3.20
   3   2 -11   18.80    4.40
  -3   2  11    6.20    2.70
  -3   2  11    7.90    2.80
  -2  -2  11   99.19    6.70
  -2  -2  11  104.29    6.40
   2  -2 -11  107.69    7.20
  -2   2  11   98.09    5.40
   2   2 -11  100.19    7.40
  -2   2  11   98.39    6.40
   1  -2 -11   18.60    3.70
  -1  -2  11   13.60    3.10
  -1  -2  11   11.80    2.80
   1   2 -11   13.20    3.40
  -1   2  11   17.10    3.50
   0  -2  11   -0.40    2.00
   0   2 -11    0.10    1.80
   0   2 -11    0.10    2.20
   0   2  11    1.20    2.10
   1  -2  11   11.60    3.10
   1   2  11   11.60    2.50
   1   2  11    7.70    2.30
   2  -2  11    2.20    2.30
   2   2  11   -0.40    1.70
   2   2  11    2.80    1.90
   3  -2  11   10.40    2.90
   4  -2  11   39.00    4.30
   4  -2  11   36.50    4.30
   5  -2  11   14.40    3.40
   5  -2  11   12.70    3.20
  -8  -3  11   10.30    4.70
  -8   3  11    4.60    4.10
  -7  -3  11   37.70    6.60
  -7   3  11   28.90    5.90
   7   3 -11   31.20    5.50
  -6  -3  11   42.50    6.80
  -6   3  11   28.60    5.30
   6   3 -11   46.00    6.50
   5   3 -11  205.78   11.10
  -5   3  11  223.48   11.20
  -4   3  11   11.80    3.70
   4   3 -11    4.50    3.40
  -3  -3  11   73.29    6.70
   3   3 -11   75.89    7.10
  -3   3  11   73.39    5.70
  -3   3  11   72.19    5.90
  -2  -3  11   50.49    5.70
   2  -3 -11   45.80    5.70
  -2  -3  11   41.90    4.90
  -2   3  11   40.20    4.90
   2   3 -11   43.80    5.80
   1  -3 -11  459.15   17.10
  -1  -3  11  411.46   13.80
  -1  -3  11  436.26   13.70
   1   3 -11  425.16   15.20
  -1   3  11  442.76   13.60
   1   3 -11  431.86   13.00
   0  -3  11  235.78    9.70
   0   3 -11  241.88   10.80
   0   3  11  227.48    9.00
   0   3 -11  235.28    8.70
   1  -3  11  155.98    7.70
   1   3  11  137.09    6.60
   2  -3  11   75.79    5.80
   2   3  11   74.59    4.70
   3  -3  11  392.46   13.10
   4  -3  11   42.60    5.00
   4  -3  11   34.80    4.00
   5  -3  11   16.40    3.40
   5  -3  11   21.70    4.30
   7   4 -11   18.00    4.60
  -7   4  11   13.10    5.00
  -6   4  11   17.40    4.80
   6   4 -11   14.10    4.30
  -5   4  11  183.98   10.40
   5   4 -11  176.88   10.50
   4   4 -11   38.60    6.10
  -4   4  11   18.10    3.90
  -3   4  11   37.90    5.10
  -3   4  11   40.80    4.60
   3   4 -11   39.30    6.10
  -2   4  11   21.70    4.00
   2   4 -11   11.80    2.70
   2   4 -11   19.10    4.30
  -1  -4  11    1.00    2.50
  -1   4  11   -0.10    2.30
   1   4 -11    1.10    2.30
   1   4 -11    0.90    3.00
   0  -4  11   35.90    4.50
   0  -4  11   39.50    5.10
   0   4 -11   46.20    6.20
   0   4 -11   43.20    4.40
   0   4  11   40.00    4.50
   1  -4  11   15.00    3.60
  -1   4 -11   16.30    4.20
   1   4  11   18.60    3.20
   2  -4  11   36.90    5.20
   2   4  11   37.20    4.00
   3  -4  11    3.60    3.10
   4  -4  11   16.10    3.90
   6   5 -11   13.00    4.50
  -6   5  11    5.60    3.70
  -5   5  11   96.99    8.10
   5   5 -11  105.49    8.80
   4   5 -11    9.90    4.00
  -4   5  11   16.40    3.90
   3   5 -11   30.60    5.60
  -3   5  11   39.50    4.60
  -3   5  11   37.40    5.20
  -2   5  11   37.30    3.20
  -2   5  11   38.10    5.20
   2   5 -11   26.70    5.20
   2   5 -11   27.60    4.00
   1   5 -11  330.77   11.80
   1   5 -11  327.07   14.20
  -1   5  11  336.87   12.50
   0  -5  11   77.29    6.50
   0   5 -11   79.79    7.50
   0   5  11   80.69    6.10
   0   5 -11   91.49    6.00
   1  -5  11   15.10    3.50
   1   5  11   26.00    4.00
  -1   5 -11   15.80    4.30
   2  -5  11   90.89    7.30
   2   5  11   92.49    6.00
   3  -5  11  375.06   14.20
  -5   6  11   33.80    5.30
   5   6 -11   57.99    7.50
  -4   6  11   88.69    7.20
   4   6 -11   93.09    8.60
  -3   6  11   14.50    2.70
  -3   6  11   14.70    3.30
   3   6 -11   16.90    4.70
   2   6 -11   10.80    4.70
  -2   6  11    6.00    3.20
  -2   6  11    5.30    1.80
   2   6 -11    4.30    2.80
   1   6 -11    3.50    3.60
  -1   6  11    3.40    2.70
   1   6 -11   -0.80    2.40
   0   6  11   87.99    6.60
   0   6 -11   91.79    8.50
   0   6 -11   84.09    6.30
  -1   6 -11    2.90    2.40
  -1   6 -11    3.60    3.80
   1   6  11    5.40    2.50
   2  -6  11   98.29   13.00
   2   6  11   82.39    6.10
  -3   7  11  149.69    7.70
   3   7 -11  139.19   10.70
  -3   7  11  157.48    6.90
  -2   7  11   38.40    5.80
  -2   7  11   41.90    3.20
   2   7 -11   51.79    5.80
   2   7 -11   59.39    8.40
   1   7 -11   13.10    4.90
  -1   7  11    7.70    3.30
   1   7 -11    8.10    3.20
   0   7  11   78.89    6.90
   0   7 -11   94.29    9.20
   0   7 -11   87.49    6.90
  -8   0  12  123.39   10.40
  -7   0  12    4.30    3.90
  -6   0  12   -2.20    2.90
   6   0 -12   -0.50    3.20
   5   0 -12    2.60    3.50
  -5   0  12    0.40    3.30
   4   0 -12    3.30    3.20
  -4   0  12    3.80    3.20
   3   0 -12   -0.50    2.60
  -3   0  12    0.00    2.70
  -3   0  12    0.50    2.40
   2   0 -12  208.48   10.10
  -2   0  12  211.08    9.20
  -2   0  12  226.98    8.70
  -1   0  12   18.60    3.60
   1   0 -12   19.40    3.90
   0   0  12  317.17   10.90
   1   0  12    4.40    2.30
   2   0  12   98.99    5.60
   3   0  12    0.40    2.30
   3   0  12   -0.60    2.00
  -8  -1  12  191.88   12.50
  -8   1  12  172.08   12.00
  -7  -1  12   30.50    5.90
  -7   1  12   50.49    7.60
   7   1 -12   29.10    5.20
  -6  -1  12   31.50    5.60
  -6   1  12   38.30    6.10
   6   1 -12   27.10    5.30
   5  -1 -12  111.79    8.90
  -5  -1  12  113.79    8.40
   5   1 -12  117.09    8.70
  -5   1  12  102.49    8.00
  -4  -1  12  442.26   15.50
   4  -1 -12  421.36   16.00
  -4   1  12  410.96   14.90
   4   1 -12  420.06   16.00
  -3  -1  12    6.70    2.80
   3  -1 -12   14.50    4.20
  -3  -1  12    7.20    3.20
  -3   1  12   10.10    3.20
   3   1 -12    9.00    3.60
  -3   1  12    8.30    3.20
   2  -1 -12   29.10    4.80
  -2  -1  12   19.60    3.60
  -2  -1  12   18.40    3.50
  -2   1  12   34.10    4.60
  -2   1  12   30.50    3.70
   2   1 -12   23.40    4.30
   1  -1 -12    2.30    2.60
  -1  -1  12    0.00    2.40
   1   1 -12   -1.70    2.40
  -1   1  12    2.20    2.50
   0  -1  12  123.89    6.70
   0   1  12  111.39    6.30
   1  -1  12   24.50    3.90
   1   1  12   16.80    3.00
   2  -1  12   40.70    4.30
   2   1  12   45.40    4.30
   2   1  12   44.40    4.00
   3  -1  12   -2.20    2.10
   4  -1  12   10.80    3.10
  -7  -2  12  107.79    9.70
  -7   2  12  114.09    9.80
   7   2 -12  121.69    9.40
  -6  -2  12   14.80    4.70
  -6   2  12   10.50    4.30
   6   2 -12   17.90    4.80
  -5  -2  12    1.50    3.10
   5   2 -12    2.10    3.20
  -5   2  12    6.00    3.50
  -4  -2  12   40.60    5.90
   4  -2 -12   38.30    5.80
  -4   2  12   30.10    4.80
   4   2 -12   50.99    6.60
   3  -2 -12    9.10    3.60
  -3  -2  12    4.80    3.20
  -3  -2  12    6.60    4.20
   3   2 -12    8.90    3.60
  -3   2  12    7.00    2.80
  -3   2  12   12.60    3.40
   2  -2 -12  191.28    9.70
  -2  -2  12  179.18    8.90
  -2  -2  12  179.18    8.50
   2   2 -12  185.68   10.00
  -2   2  12  203.08    9.10
  -1  -2  12   25.60    3.60
  -1  -2  12   28.80    4.20
  -1   2  12   27.10    4.10
   1   2 -12   31.40    5.20
   0  -2  12  337.87   11.80
   0   2 -12  326.07   13.00
   0   2  12  297.67   10.70
   1  -2  12   48.20    4.90
   1   2  12   47.00    4.40
   2  -2  12  153.58    7.70
   2   2  12  164.28    6.80
   2   2  12  167.38    6.90
   3  -2  12   95.69    6.30
   4  -2  12   51.99    5.30
  -7  -3  12   19.40    6.00
  -7   3  12   16.40    5.10
   7   3 -12   19.30    5.10
  -6  -3  12  252.37   13.30
  -6   3  12  263.37   13.20
   6   3 -12  256.57   13.00
  -5  -3  12   93.99    8.30
   5   3 -12   96.99    8.40
  -5   3  12   85.69    7.70
  -4  -3  12   30.20    5.50
   4   3 -12   29.10    5.60
  -4   3  12   26.50    4.30
   3  -3 -12   24.30    4.70
  -3   3  12   21.30    4.00
   3   3 -12   38.20    6.10
  -2  -3  12   99.69    7.30
   2  -3 -12  110.79    8.00
  -2  -3  12  106.59    7.20
   2   3 -12  100.49    8.00
  -2   3  12  115.89    7.30
  -1  -3  12   49.80    5.80
  -1  -3  12   42.50    4.90
  -1   3  12   30.00    4.00
   1   3 -12   48.00    6.00
   1   3 -12   42.60    4.40
   0  -3  12  153.58    8.20
   0   3  12  148.99    7.60
   0   3 -12  158.78    9.10
   1  -3  12   39.80    4.90
   1   3  12   39.00    4.40
   2  -3  12   16.80    3.70
   2   3  12   15.30    3.00
   3  -3  12    6.80    3.20
   4  -3  12    1.80    3.10
   6   4 -12  104.79    9.10
  -6   4  12  105.69    9.00
   5   4 -12   29.90    5.70
  -5   4  12   18.70    4.50
   4   4 -12   22.50    5.10
  -4   4  12   13.90    3.50
   3   4 -12   24.20    5.40
  -2  -4  12   15.30    3.90
  -2   4  12   17.40    3.80
   2   4 -12   10.00    2.80
   2   4 -12    9.80    3.90
  -1  -4  12    0.10    2.50
  -1  -4  12    0.20    2.70
  -1   4  12    0.40    2.50
   1   4 -12   -1.00    2.00
   1   4 -12    2.90    3.30
   0  -4  12  166.18    8.70
   0   4 -12  149.39    9.50
   0   4 -12  165.38    7.90
   0   4  12  147.19    7.80
   1  -4  12   43.70    5.50
   1   4  12   24.40    3.70
   2  -4  12  482.25   15.90
   2   4  12  483.65   14.20
   3  -4  12   13.30    4.30
  -6   5  12  304.07   14.80
   6   5 -12  349.57   15.60
   5   5 -12    5.60    4.10
  -5   5  12    4.40    3.50
  -4   5  12    3.50    2.80
   4   5 -12   -0.80    3.30
   3   5 -12   33.70    6.10
  -3   5  12   51.09    6.00
  -3   5  12   49.20    4.70
  -2   5  12  102.89    4.30
   2   5 -12   93.49    6.50
  -2   5  12   98.09    7.40
   2   5 -12   98.89    8.70
   1   5 -12   31.20    4.40
  -1   5  12   20.30    4.00
   1   5 -12   30.80    5.80
   0  -5  12   73.39    6.00
   0   5  12   86.39    6.50
   0   5 -12   70.29    5.70
   0   5 -12   69.39    7.60
   1  -5  12   38.30    5.60
  -1   5 -12   27.10    8.50
   1   5  12   42.30    4.90
   2  -5  12    6.10    3.80
   2   5  12    3.20    2.50
   4   6 -12    7.10    4.00
  -4   6  12    8.50    3.30
  -3   6  12   39.40    4.00
   3   6 -12   44.00    7.30
  -2   6  12   93.89    7.60
  -2   6  12   88.89    3.80
   2   6 -12  102.89    9.20
   2   6 -12   92.19    6.90
   1   6 -12    8.10    4.30
  -1   6  12    2.30    2.80
   1   6 -12    4.60    2.80
   0   6 -12   34.80    6.20
   0   6  12   52.79    5.80
   0   6 -12   44.90    5.10
   1   6  12    0.20    2.40
  -1   6 -12   -0.30    3.50
  -7   0  13  242.38   13.70
  -6   0  13    2.30    3.80
   6   0 -13    2.70    3.70
  -5   0  13  343.27   14.40
   5   0 -13  347.47   15.20
   4   0 -13    6.20    3.70
  -4   0  13   -0.80    3.10
  -3   0  13   17.10    3.80
   3   0 -13   18.80    4.60
  -3   0  13   20.60    4.00
   2   0 -13   19.90    4.40
  -2   0  13   18.40    3.80
  -2   0  13   16.40    3.00
  -1   0  13 1373.66   32.30
   0   0  13   12.00    3.20
   1   0  13    1.10    2.30
   2   0  13    8.40    2.90
   3   0  13  182.18    7.80
   4   0  13    3.50    2.40
  -7  -1  13   64.49    8.40
  -7   1  13   65.79    8.20
   7   1 -13   60.29    7.90
  -6  -1  13   15.40    4.70
  -6   1  13   13.20    4.70
   6   1 -13    7.90    4.10
   5  -1 -13   50.89    7.10
  -5  -1  13   38.40    6.20
   5   1 -13   37.40    5.90
  -5   1  13   38.60    6.00
  -4  -1  13   38.70    5.60
   4  -1 -13   35.40    5.90
   4   1 -13   31.60    5.90
  -4   1  13   25.20    4.50
  -3  -1  13   36.30    5.00
   3  -1 -13   40.70    5.80
  -3  -1  13   25.70    4.30
   3   1 -13   36.40    5.60
  -3   1  13   37.40    5.00
  -3   1  13   24.90    4.00
  -2  -1  13    1.80    2.50
   2  -1 -13    2.80    3.20
  -2  -1  13    1.60    2.60
   2   1 -13    0.00    2.80
  -2   1  13    1.80    2.60
  -1  -1  13   95.49    6.70
   1   1 -13   95.89    7.50
  -1   1  13  107.99    6.90
   0  -1  13    9.40    3.40
   0   1  13    6.10    2.80
   1  -1  13   56.39    5.20
   1   1  13   51.89    4.80
   2  -1  13    4.50    2.70
   2   1  13    3.50    2.40
   3  -1  13   36.80    4.70
   3   1  13   31.40    3.90
   4  -1  13    8.40    3.10
  -7  -2  13   42.40    7.00
   7   2 -13   45.10    6.90
  -7   2  13   47.80    7.30
  -6  -2  13    0.00    3.60
  -6   2  13    1.80    3.70
   6   2 -13   -1.70    3.50
  -5  -2  13  152.38   10.20
   5   2 -13  172.08   10.90
  -5   2  13  144.19    9.40
   4  -2 -13   61.49    7.50
  -4  -2  13   65.59    7.00
  -4   2  13   59.59    6.20
   4   2 -13   72.19    7.60
  -3  -2  13  170.88    9.20
   3  -2 -13  180.58   10.30
  -3   2  13  179.48    9.10
   3   2 -13  153.48   10.00
  -2  -2  13  308.67   11.10
   2  -2 -13  297.07   12.80
  -2  -2  13  298.57   11.80
  -2   2  13  291.07   11.70
   2   2 -13  285.47   12.90
  -1  -2  13  445.26   14.70
  -1   2  13  410.66   14.00
   1   2 -13  425.26   15.80
   0  -2  13  196.18    9.20
   0   2  13  204.38    8.80
   1  -2  13  131.19    7.60
   1   2  13  144.49    7.10
   2  -2  13  103.09    6.90
   2   2  13  117.59    6.30
   3  -2  13   59.09    5.70
  -6  -3  13   -1.00    3.80
  -6   3  13    1.20    3.60
   6   3 -13    1.90    3.60
  -5  -3  13    8.30    4.40
  -5   3  13    7.60    3.70
   5   3 -13    6.20    4.10
  -4  -3  13  108.59    8.70
   4   3 -13  111.99    9.10
  -4   3  13  106.19    7.50
   3  -3 -13   14.70    4.50
  -3  -3  13   14.40    4.20
   3   3 -13    9.70    4.20
  -3   3  13    8.50    3.40
  -3   3  13    7.90    2.60
  -2  -3  13    0.50    2.90
  -2   3  13    2.20    2.70
   2   3 -13   -1.60    3.10
  -1  -3  13   46.90    5.60
  -1  -3  13   51.39    5.00
  -1   3  13   55.39    5.50
   1   3 -13   60.59    5.10
   1   3 -13   51.39    6.40
   0  -3  13   15.70    3.80
   0   3  13   13.90    3.40
   1  -3  13   26.20    4.60
   1   3  13   24.00    3.80
   2  -3  13    4.80    3.10
   2   3  13    5.50    2.70
   3  -3  13   17.50    4.00
  -6  -4  13   11.20    4.90
   6   4 -13   11.50    5.00
  -6   4  13    4.50    3.80
  -5  -4  13   38.50    6.40
  -5   4  13   39.80    5.90
   5   4 -13   48.10    7.10
  -4  -4  13   11.60    4.90
   4   4 -13   12.80    4.70
  -4   4  13    4.00    2.70
  -3  -4  13  413.96   15.70
   3   4 -13  413.36   17.00
  -3   4  13  403.46   15.20
  -2  -4  13    4.10    3.70
  -2   4  13    4.60    3.20
  -2   4  13    1.50    1.30
   2   4 -13    3.90    3.90
  -1  -4  13    2.30    2.90
   1   4 -13    3.90    3.30
   1   4 -13    1.70    2.40
  -1   4  13    2.60    2.70
   0  -4  13    7.90    3.40
   0   4 -13    7.70    3.50
   0   4  13   14.10    3.70
   1  -4  13  473.25   16.20
   2  -4  13   13.00    4.30
   2   4  13    2.70    2.40
   5   5 -13   55.99    7.80
   4   5 -13    0.80    3.90
  -4   5  13    2.60    2.70
   3   5 -13   29.70    6.30
  -2  -5  13   45.00    6.30
  -2   5  13   37.60    5.30
   2   5 -13   44.90    7.20
   2   5 -13   45.00    5.30
  -1  -5  13   11.40    3.80
  -1   5  13   11.70    3.70
   1   5 -13    9.80    3.20
   1   5 -13   12.30    4.50
   0   5 -13   72.79    7.90
   0   5  13   65.29    6.40
   1  -5  13   14.30    4.20
   1   5  13   15.80    3.60
  -2   6  13   92.99    7.70
   2   6 -13   90.89    9.40
  -6   0  14  446.96   18.10
   6   0 -14  495.45   19.80
   5   0 -14    9.10    4.30
  -5   0  14    8.90    4.30
   4   0 -14   -0.20    3.40
  -4   0  14    3.80    3.20
   3   0 -14    1.50    3.30
  -3   0  14    2.20    2.70
  -3   0  14    1.70    2.70
  -2   0  14   56.79    5.90
   2   0 -14   60.09    6.80
  -1   0  14    5.10    3.10
   0   0  14   11.30    3.40
   1   0  14   -3.30    2.20
   2   0  14   -2.20    2.30
   3   0  14    1.30    2.40
  -6  -1  14   57.59    7.70
   6   1 -14   64.89    8.40
  -6   1  14   66.69    8.00
   5  -1 -14    2.60    3.80
  -5  -1  14    1.30    3.50
  -5   1  14    1.10    3.30
   5   1 -14   -0.40    3.50
   4  -1 -14  122.59    9.50
  -4  -1  14  113.69    8.40
   4   1 -14  121.89    9.50
  -4   1  14  134.89    8.30
  -3  -1  14   15.30    3.70
   3  -1 -14   28.20    5.40
  -3   1  14   21.30    4.30
  -3   1  14   19.00    3.60
   3   1 -14   15.40    4.40
   2  -1 -14  405.36   21.10
  -2  -1  14  422.66   14.60
  -2   1  14  397.76   14.30
   2   1 -14  427.86   16.20
  -1  -1  14   69.39    6.10
  -1   1  14   79.59    6.30
   0  -1  14   30.30    4.30
   0   1  14   42.70    5.20
   1  -1  14   65.09    5.80
   1   1  14   72.89    5.80
   2  -1  14  236.08   10.00
   2   1  14  215.58    9.00
  -6  -2  14   55.59    7.70
   6   2 -14   61.79    8.60
  -5  -2  14   67.79    7.70
  -5   2  14   57.39    6.80
   5   2 -14   63.89    8.40
   4  -2 -14   40.80    6.90
  -4  -2  14   23.30    4.80
  -4   2  14   30.80    4.80
   4   2 -14   22.50    5.10
   3  -2 -14   35.10    5.70
  -3  -2  14   39.00    5.40
   3   2 -14   41.30    6.50
  -3   2  14   26.70    4.60
  -2  -2  14   44.10    5.00
  -2  -2  14   52.39    6.40
  -2   2  14   35.90    4.90
   2   2 -14   50.79    6.40
  -1  -2  14   22.00    4.50
  -1   2  14   21.80    4.20
   0  -2  14    2.10    2.80
   0   2  14   -2.40    2.60
   1  -2  14    5.00    3.20
   1   2  14    3.60    2.70
   2  -2  14   -0.40    2.80
   2   2  14    0.80    2.50
  -5  -3  14   19.60    5.70
  -5   3  14    8.50    3.70
   5   3 -14   24.30    6.00
  -4  -3  14  162.28   10.40
   4   3 -14  159.88   11.00
  -3  -3  14    0.00    3.20
   3  -3 -14    2.60    3.60
  -3   3  14    4.10    3.40
   3   3 -14    0.00    3.60
  -2  -3  14   96.29    6.80
   2   3 -14   80.19    8.10
  -2   3  14   80.79    6.90
  -1  -3  14   57.79    6.30
   1   3 -14   56.49    7.00
  -1   3  14   57.49    5.90
   0  -3  14  422.46   15.10
   0   3  14  422.06   14.30
   1  -3  14  114.29    7.90
   1   3  14  118.39    7.30
   2  -3  14    2.40    3.30
   2   3  14    5.90    3.00
  -4  -4  14   95.29    9.10
   4   4 -14  100.59    9.50
  -3  -4  14   28.40    5.70
   3   4 -14   25.20    5.80
  -3   4  14   11.20    4.20
  -2  -4  14   25.30    4.70
   2   4 -14   30.20    6.10
  -2   4  14   25.50    4.60
  -1   4  14   28.20    4.60
   1   4 -14   25.60    5.40
   0  -4  14    1.30    3.30
   0   4  14    1.60    2.80
   1  -4  14   12.60    4.10
   1   4  14    7.50    3.10
  -2  -5  14   36.70    5.60
   2   5 -14   45.50    7.10
  -2   5  14   40.20    5.60
  -1  -5  14    3.40    3.10
  -1   5  14    6.80    3.60
   1   5 -14    3.60    3.60
   5   0 -15    7.40    4.60
  -5   0  15    4.60    3.90
  -4   0  15    2.10    3.30
   4   0 -15    2.50    3.80
   3   0 -15   89.99    8.50
  -2   0  15    2.20    3.00
  -1   0  15   49.90    5.80
   0   0  15    0.70    2.90
   1   0  15   48.30    5.60
  -5  -1  15    4.90    3.90
   5  -1 -15   17.80    5.40
   5   1 -15    7.60    4.60
  -5   1  15   16.40    4.60
  -4  -1  15   55.49    6.70
   4  -1 -15   69.59    8.10
   4   1 -15   54.99    7.50
   3  -1 -15  387.96   16.40
  -3   1  15  406.06   19.80
   3   1 -15  416.16   16.90
  -2  -1  15   12.50    3.70
  -2   1  15   20.40    4.80
   2   1 -15   13.20    4.40
  -1  -1  15   29.30    4.90
  -1   1  15   36.40    5.20
   0  -1  15    1.90    3.00
   0   1  15    8.50    3.60
   1  -1  15   29.60    4.90
   1   1  15   18.70    3.90
  -5  -2  15    6.50    4.20
  -5   2  15    5.50    3.80
   5   2 -15    4.90    4.60
  -4  -2  15    0.90    3.40
   4  -2 -15    9.80    4.70
   4   2 -15    0.00    3.70
  -4   2  15    5.10    3.00
  -3  -2  15  102.09    7.50
   3  -2 -15  101.49    8.80
   3   2 -15   99.89    9.10
  -3   2  15  105.09    8.80
  -2   2  15    2.10    3.20
   2   2 -15    1.30    3.60
  -1  -2  15   65.29    6.70
  -1   2  15   64.49    6.50
   0  -2  15    4.20    3.30
   0   2  15    8.30    3.70
   1  -2  15   57.69    6.30
   1   2  15   54.69    5.70
  -4  -3  15   66.29    7.50
   4   3 -15   59.89    8.30
  -3  -3  15   65.19    6.90
   3   3 -15   67.69    8.30
  -2  -3  15    8.40    3.30
  -2   3  15    3.40    3.20
   2   3 -15    8.20    4.30
  -1  -3  15   82.19    9.10
  -1   3  15   96.89    7.40
   0  -3  15   10.90    4.10
   0   3  15    9.30    3.50
   3   0 -16   13.00    4.80
  -2   0  16    7.50    3.80
  -1   0  16    8.30    3.80
   3   1 -16   15.50    5.40
  -2   1  16    5.30    3.70
  -1  -1  16   -1.10    2.90
  -1   1  16   -3.50    3.00

_computing_structure_solution     'SHELXT 2014/4 (Sheldrick, 2014)'
)
_shelx_hkl_checksum   56953

;
_shelx_hkl_checksum              59045
loop_
_space_group_symop_operation_xyz
'x, y, z'
'-x+1/2, y+1/2, -z+1/2'
'-x, -y, -z'
'x-1/2, -y-1/2, z-1/2'
loop_
_atom_site_label
_atom_site_type_symbol
_atom_site_fract_x
_atom_site_fract_y
_atom_site_fract_z
_atom_site_U_iso_or_equiv
_atom_site_adp_type
_atom_site_occupancy
_atom_site_site_symmetry_order
_atom_site_calc_flag
_atom_site_refinement_flags_posn
_atom_site_refinement_flags_adp
_atom_site_refinement_flags_occupancy
_atom_site_disorder_assembly
_atom_site_disorder_group
Ti1 Ti 0.48304(7) 0.23421(7) 0.34096(4) 0.01311(14) Uani 1 1 d . . . . .
P1 P 0.73917(11) 0.13103(11) 0.59247(7) 0.01824(18) Uani 1 1 d . . . . .
O1 O 0.6157(4) 0.2338(4) 0.5002(2) 0.0369(6) Uani 1 1 d . . . . .
O2 O 0.6420(4) -0.0067(4) 0.6458(3) 0.0383(7) Uani 1 1 d . . . . .
O3 O 0.8366(5) 0.2633(4) 0.6795(2) 0.0508(9) Uani 1 1 d . . . . .
P2 P 0.6688(11) 0.6329(11) 0.2788(5) 0.0168(9) Uani 0.63(2) 1 d D U P A 1
O4 O 0.6179(17) 0.4649(13) 0.3297(10) 0.041(2) Uani 0.63(2) 1 d D U P A 1
O5 O 0.801(3) 0.610(3) 0.2044(15) 0.025(3) Uani 0.63(2) 1 d D U P A 1
O6 O 0.7386(11) 0.7630(7) 0.3764(5) 0.0298(15) Uani 0.63(2) 1 d D U P A 1
H2 H 0.5364 0.7293 0.2160 0.050 Uiso 0.634 1 d . . P A 1
H6 H 0.7538 0.8657 0.3469 0.050 Uiso 0.634 1 d . . P A 1
P2' P 0.686(2) 0.625(2) 0.2852(12) 0.031(3) Uani 0.37(2) 1 d D U P A 2
O4' O 0.5680(18) 0.471(2) 0.3020(12) 0.018(2) Uani 0.37(2) 1 d D U P A 2
O5' O 0.806(5) 0.582(5) 0.205(3) 0.023(4) Uani 0.37(2) 1 d D U P A 2
O6' O 0.811(2) 0.683(3) 0.4000(10) 0.051(5) Uani 0.37(2) 1 d D U P A 2
H2' H 0.5494 0.7198 0.2200 0.050 Uiso 0.366 1 d . . P A 2
H6' H 0.9129 0.7283 0.3951 0.050 Uiso 0.366 1 d . . P A 2
O7 O 0.2745(4) 0.3784(3) 0.3929(2) 0.0301(6) Uani 1 1 d . . . . .
H1 H 0.8715 0.0395 0.5382 0.050 Uiso 1 1 d . . . . .
H7A H 0.2929 0.3810 0.4572 0.050 Uiso 1 1 d . . . . .
H7B H 0.2446 0.4817 0.3631 0.050 Uiso 1 1 d . . . . .
loop_
_atom_site_aniso_label
_atom_site_aniso_U_11
_atom_site_aniso_U_22
_atom_site_aniso_U_33
_atom_site_aniso_U_23
_atom_site_aniso_U_13
_atom_site_aniso_U_12
Ti1 0.0182(3) 0.0111(2) 0.0097(2) 0.00187(18) 0.00237(19) 0.00084(19)
P1 0.0157(4) 0.0209(4) 0.0158(4) -0.0041(3) -0.0015(3) -0.0025(3)
O1 0.0424(15) 0.0422(16) 0.0195(12) -0.0043(11) -0.0074(11) 0.0109(13)
O2 0.0360(15) 0.0248(13) 0.0537(18) 0.0000(12) 0.0092(13) -0.0128(11)
O3 0.075(2) 0.0435(17) 0.0211(13) 0.0048(12) -0.0178(14) -0.0377(16)
P2 0.0164(12) 0.0103(14) 0.0266(16) 0.0021(11) 0.0109(10) -0.0025(10)
O4 0.052(6) 0.024(3) 0.057(6) 0.002(3) 0.033(4) -0.012(4)
O5 0.033(4) 0.017(7) 0.030(3) -0.005(3) 0.016(3) -0.008(4)
O6 0.049(3) 0.016(2) 0.029(2) -0.0023(18) 0.017(2) 0.000(2)
P2' 0.036(5) 0.018(3) 0.043(4) -0.007(3) 0.019(3) -0.003(3)
O4' 0.016(4) 0.018(4) 0.020(4) 0.008(3) 0.001(3) -0.008(3)
O5' 0.035(6) 0.007(7) 0.036(6) -0.004(4) 0.027(5) -0.008(5)
O6' 0.054(8) 0.073(11) 0.033(5) -0.020(6) 0.025(5) -0.039(8)
O7 0.0362(14) 0.0289(13) 0.0279(13) 0.0028(10) 0.0131(11) 0.0117(11)
loop_
_atom_type_symbol
_atom_type_description
_atom_type_scat_dispersion_real
_atom_type_scat_dispersion_imag
_atom_type_scat_source
O O 0.0106 0.0060 'International Tables Vol C Tables 4.2.6.8 and 6.1.1.4'
H H 0.0000 0.0000 'International Tables Vol C Tables 4.2.6.8 and 6.1.1.4'
P P 0.1023 0.0942 'International Tables Vol C Tables 4.2.6.8 and 6.1.1.4'
Ti Ti 0.2776 0.4457 'International Tables Vol C Tables 4.2.6.8 and 6.1.1.4'
loop_
_geom_angle_atom_site_label_1
_geom_angle_atom_site_label_2
_geom_angle_atom_site_label_3
_geom_angle
_geom_angle_site_symmetry_1
_geom_angle_site_symmetry_3
_geom_angle_publ_flag
O2 Ti1 O1 93.57(12) 3_656 . ?
O2 Ti1 O4' 168.7(3) 3_656 . ?
O1 Ti1 O4' 96.8(4) . . ?
O2 Ti1 O4 178.4(4) 3_656 . ?
O1 Ti1 O4 85.3(4) . . ?
O2 Ti1 O3 85.60(14) 3_656 4_565 ?
O1 Ti1 O3 177.54(13) . 4_565 ?
O4' Ti1 O3 83.8(4) . 4_565 ?
O4 Ti1 O3 95.5(4) . 4_565 ?
O2 Ti1 O5 92.6(6) 3_656 2_645 ?
O1 Ti1 O5 90.6(6) . 2_645 ?
O4 Ti1 O5 86.3(7) . 2_645 ?
O3 Ti1 O5 91.8(6) 4_565 2_645 ?
O2 Ti1 O7 91.40(12) 3_656 . ?
O1 Ti1 O7 87.11(11) . . ?
O4' Ti1 O7 84.8(5) . . ?
O4 Ti1 O7 89.6(3) . . ?
O3 Ti1 O7 90.59(11) 4_565 . ?
O5 Ti1 O7 175.5(7) 2_645 . ?
O2 Ti1 O5' 87.0(10) 3_656 2_645 ?
O1 Ti1 O5' 90.9(10) . 2_645 ?
O4' Ti1 O5' 97.1(11) . 2_645 ?
O3 Ti1 O5' 91.4(10) 4_565 2_645 ?
O7 Ti1 O5' 177.4(7) . 2_645 ?
O2 P1 O1 113.83(17) . . ?
O2 P1 O3 110.72(16) . . ?
O1 P1 O3 107.95(17) . . ?
O2 P1 H1 108.2 . . ?
O1 P1 H1 105.4 . . ?
O3 P1 H1 110.6 . . ?
P1 O1 Ti1 146.02(18) . . ?
P1 O2 Ti1 157.1(2) . 3_656 ?
P1 O3 Ti1 139.18(19) . 4_666 ?
O4 P2 O5 114.9(9) . . ?
O4 P2 O6 106.8(6) . . ?
O5 P2 O6 112.7(8) . . ?
O4 P2 H2 118.4 . . ?
O5 P2 H2 102.8 . . ?
O6 P2 H2 100.5 . . ?
P2 O4 Ti1 158.2(9) . . ?
P2 O5 Ti1 141.4(11) . 2_655 ?
P2 O6 H6 107.2 . . ?
O4' P2' O5' 112.4(15) . . ?
O4' P2' O6' 110.3(10) . . ?
O5' P2' O6' 108.5(16) . . ?
O4' P2' H2' 95.5 . . ?
O5' P2' H2' 102.3 . . ?
O6' P2' H2' 127.2 . . ?
P2' O4' Ti1 163.1(13) . . ?
P2' O5' Ti1 130.0(18) . 2_655 ?
P2' O6' H6' 114.7 . . ?
Ti1 O7 H7A 110.1 . . ?
Ti1 O7 H7B 118.3 . . ?
H7A O7 H7B 112.2 . . ?
loop_
_geom_bond_atom_site_label_1
_geom_bond_atom_site_label_2
_geom_bond_distance
_geom_bond_site_symmetry_2
_geom_bond_publ_flag
Ti1 O2 1.973(3) 3_656 ?
Ti1 O1 1.976(2) . ?
Ti1 O4' 1.984(13) . ?
Ti1 O4 2.026(9) . ?
Ti1 O3 2.031(3) 4_565 ?
Ti1 O5 2.046(15) 2_645 ?
Ti1 O7 2.110(2) . ?
Ti1 O5' 2.12(3) 2_645 ?
P1 O2 1.495(3) . ?
P1 O1 1.502(3) . ?
P1 O3 1.518(3) . ?
P1 H1 1.4776 . ?
O2 Ti1 1.973(3) 3_656 ?
O3 Ti1 2.031(3) 4_666 ?
P2 O4 1.493(8) . ?
P2 O5 1.494(8) . ?
P2 O6 1.540(7) . ?
P2 H2 1.3262 . ?
O5 Ti1 2.046(14) 2_655 ?
O6 H6 0.8696 . ?
P2' O4' 1.496(12) . ?
P2' O5' 1.506(13) . ?
P2' O6' 1.564(13) . ?
P2' H2' 1.3512 . ?
O5' Ti1 2.12(3) 2_655 ?
O6' H6' 0.8493 . ?
O7 H7A 0.7659 . ?
O7 H7B 0.8655 . ?
loop_
_geom_hbond_atom_site_label_D
_geom_hbond_atom_site_label_H
_geom_hbond_atom_site_label_A
_geom_hbond_distance_DH
_geom_hbond_distance_HA
_geom_hbond_distance_DA
_geom_hbond_angle_DHA
_geom_hbond_site_symmetry_A
O7 H7B O3 0.87 2.04 2.898(4) 169.5 3_666
O7 H7B O2 0.87 2.60 3.111(4) 119.0 4_565
O7 H7A O6' 0.77 2.12 2.779(10) 145.3 3_666
O7 H7A O6 0.77 2.36 3.030(6) 147.2 3_666
O6' H6' O3 0.85 2.26 3.032(12) 151.2 3_766
O6 H6 O5 0.87 1.95 2.782(18) 158.3 2_655
O6 H6 O4 0.87 2.65 3.314(12) 133.6 2_655
P2 H2 O7 1.33 2.66 3.965(10) 168.1 2
