#------------------------------------------------------------------------------
#$Date: 2021-10-06 16:58:58 +0300 (Wed, 06 Oct 2021) $
#$Revision: 269652 $
#$URL: file:///home/coder/svn-repositories/cod/cif/7/12/87/7128793.cif $
#------------------------------------------------------------------------------
#
# This file is available in the Crystallography Open Database (COD),
# http://www.crystallography.net/
#
# All data on this site have been placed in the public domain by the
# contributors.
#
data_7128793
loop_
_publ_author_name
'Hoser, Anna A.'
'Sztylko, Marcin'
'Trzybi\'nski, Damian'
'Madsen, Anders \/O'
_publ_section_title
;
 Theoretically derived thermodynamic properties can be improved by the
 refinement of low-frequency modes against X-ray diffraction data.
;
_journal_issue                   74
_journal_name_full
'Chemical communications (Cambridge, England)'
_journal_page_first              9370
_journal_page_last               9373
_journal_paper_doi               10.1039/d1cc02608a
_journal_volume                  57
_journal_year                    2021
_chemical_formula_moiety         'C2 H5 N O2'
_chemical_formula_sum            'C2 H5 N O2'
_chemical_formula_weight         75.07
_space_group_crystal_system      monoclinic
_space_group_IT_number           4
_space_group_name_Hall           'P 2yb'
_space_group_name_H-M_alt        'P 1 21 1'
_atom_sites_solution_hydrogens   mixed
_atom_sites_solution_primary     dual
_audit_creation_date             2021-04-03
_audit_creation_method
;
Olex2 1.2
(compiled 2018.05.29 svn.r3508 for OlexSys, GUI svn.r5506)
;
_audit_update_record
;
2021-05-13 deposited with the CCDC.	2021-08-11 downloaded from the CCDC.
;
_cell_angle_alpha                90
_cell_angle_beta                 113.422(4)
_cell_angle_gamma                90
_cell_formula_units_Z            2
_cell_length_a                   5.0757(2)
_cell_length_b                   6.1737(2)
_cell_length_c                   5.3882(2)
_cell_measurement_reflns_used    7569
_cell_measurement_temperature    100(2)
_cell_measurement_theta_max      30.4690
_cell_measurement_theta_min      4.1100
_cell_volume                     154.931(11)
_computing_cell_refinement       'CrysAlisPro 1.171.40.67a (Rigaku OD, 2019)'
_computing_data_collection       'CrysAlisPro 1.171.40.67a (Rigaku OD, 2019)'
_computing_data_reduction        'CrysAlisPro 1.171.40.67a (Rigaku OD, 2019)'
_computing_molecular_graphics    'Olex2 (Dolomanov et al., 2009)'
_computing_publication_material  'Olex2 (Dolomanov et al., 2009)'
_computing_structure_refinement  'ShelXL (Sheldrick, 2015)'
_computing_structure_solution    'ShelXT (Sheldrick, 2015)'
_diffrn_ambient_environment      N~2~
_diffrn_ambient_temperature      100(2)
_diffrn_detector                 'CCD plate'
_diffrn_detector_area_resol_mean 16.0026
_diffrn_detector_type            Eos
_diffrn_measured_fraction_theta_full 0.997
_diffrn_measured_fraction_theta_max 0.998
_diffrn_measurement_details
;
List of Runs (angles in degrees, time in seconds):

  # Type    Start    End  Width  t~exp~   \w     \q     \k     \f   Frames
#--------------------------------------------------------------------------
  1  \w     -4.00 102.00   1.00   16.50    --   29.20  77.00 -30.00  106
  2  \w     21.00 109.00   1.00   16.50    --   29.20-160.00 150.00   88
  3  \w     -4.00 102.00   1.00   16.50    --   29.20  77.00-120.00  106
  4  \w     -4.00 102.00   1.00   16.50    --   29.20  77.00  60.00  106
  5  \w     21.00 109.00   1.00   16.50    --   29.20-160.00 -30.00   88
  6  \w     -4.00 102.00   1.00   16.50    --   29.20  77.00 150.00  106
  7  \w   -104.00 -49.00   1.00   16.50    --  -29.36-160.00  30.00   55
  8  \w   -104.00 -49.00   1.00   16.50    --  -29.36-160.00-150.00   55
  9  \w   -104.00  46.00   1.00   16.50    --  -29.36   0.00-120.00  150
 10  \w   -104.00  46.00   1.00   16.50    --  -29.36   0.00  60.00  150
 11  \w     49.00 103.00   1.00   16.50    --   29.20 160.00 120.00   54
 12  \w     -1.00 102.00   1.00   16.50    --   29.20  39.00-153.00  103
 13  \w    -46.00 104.00   1.00   16.50    --   29.20   0.00-180.00  150
 14  \w    -46.00 104.00   1.00   16.50    --   29.20   0.00-150.00  150
 15  \w    -46.00 104.00   1.00   16.50    --   29.20   0.00-120.00  150
 16  \w    -46.00 104.00   1.00   16.50    --   29.20   0.00 -90.00  150
 17  \w    -46.00 104.00   1.00   16.50    --   29.20   0.00 -60.00  150
 18  \w     49.00 103.00   1.00   16.50    --   29.20 160.00 -60.00   54
 19  \w    -46.00 104.00   1.00   16.50    --   29.20   0.00   0.00  150
 20  \w    -46.00 104.00   1.00   16.50    --   29.20   0.00  30.00  150
 21  \w    -46.00 104.00   1.00   16.50    --   29.20   0.00  60.00  150
 22  \w    -46.00  15.00   1.00   16.50    --   29.20   0.00  90.00   61
 23  \w    -46.00 104.00   1.00   16.50    --   29.20   0.00 -30.00  150
;
_diffrn_measurement_device       'four-circle diffractometer'
_diffrn_measurement_device_type  'SuperNova, Single source at offset/far, Eos'
_diffrn_measurement_method       '\w scans'
_diffrn_orient_matrix_type
'CrysAlisPro convention (1999,Acta A55,543-557)'
_diffrn_orient_matrix_UB_11      -0.0174620000
_diffrn_orient_matrix_UB_12      0.0365213000
_diffrn_orient_matrix_UB_13      0.1173579000
_diffrn_orient_matrix_UB_21      0.1358886000
_diffrn_orient_matrix_UB_22      -0.0440451000
_diffrn_orient_matrix_UB_23      0.0822356000
_diffrn_orient_matrix_UB_31      0.0665108000
_diffrn_orient_matrix_UB_32      0.0996248000
_diffrn_orient_matrix_UB_33      -0.0066449000
_diffrn_radiation_monochromator  mirror
_diffrn_radiation_probe          x-ray
_diffrn_radiation_type           MoK\a
_diffrn_radiation_wavelength     0.71073
_diffrn_reflns_av_R_equivalents  0.0314
_diffrn_reflns_av_unetI/netI     0.0131
_diffrn_reflns_Laue_measured_fraction_full 0.997
_diffrn_reflns_Laue_measured_fraction_max 0.998
_diffrn_reflns_limit_h_max       7
_diffrn_reflns_limit_h_min       -7
_diffrn_reflns_limit_k_max       8
_diffrn_reflns_limit_k_min       -8
_diffrn_reflns_limit_l_max       7
_diffrn_reflns_limit_l_min       -7
_diffrn_reflns_number            9425
_diffrn_reflns_point_group_measured_fraction_full 0.998
_diffrn_reflns_point_group_measured_fraction_max 0.999
_diffrn_reflns_theta_full        25.242
_diffrn_reflns_theta_max         30.489
_diffrn_reflns_theta_min         4.122
_diffrn_source                   'micro-focus sealed X-ray tube'
_diffrn_source_type              'SuperNova (Mo) X-ray Source'
_exptl_absorpt_coefficient_mu    0.143
_exptl_absorpt_correction_T_max  1.00000
_exptl_absorpt_correction_T_min  0.37619
_exptl_absorpt_correction_type   multi-scan
_exptl_absorpt_process_details
;
CrysAlisPro 1.171.40.67a (Rigaku Oxford Diffraction, 2019)
Empirical absorption correction using spherical harmonics,
 implemented in SCALE3 ABSPACK scaling algorithm.
;
_exptl_crystal_colour            colourless
_exptl_crystal_colour_primary    colourless
_exptl_crystal_density_diffrn    1.609
_exptl_crystal_description       needle
_exptl_crystal_F_000             80
_exptl_crystal_size_max          0.69
_exptl_crystal_size_mid          0.10
_exptl_crystal_size_min          0.06
_refine_diff_density_max         0.409
_refine_diff_density_min         -0.194
_refine_diff_density_rms         0.043
_refine_ls_abs_structure_details
;
 Flack x determined using 423 quotients [(I+)-(I-)]/[(I+)+(I-)]
 (Parsons, Flack and Wagner, Acta Cryst. B69 (2013) 249-259).
;
_refine_ls_abs_structure_Flack   0.3(4)
_refine_ls_extinction_method     none
_refine_ls_goodness_of_fit_ref   1.100
_refine_ls_hydrogen_treatment    mixed
_refine_ls_matrix_type           full
_refine_ls_number_parameters     55
_refine_ls_number_reflns         942
_refine_ls_number_restraints     4
_refine_ls_restrained_S_all      1.098
_refine_ls_R_factor_all          0.0233
_refine_ls_R_factor_gt           0.0229
_refine_ls_shift/su_max          0.000
_refine_ls_shift/su_mean         0.000
_refine_ls_structure_factor_coef Fsqd
_refine_ls_weighting_details
'w=1/[\s^2^(Fo^2^)+(0.0321P)^2^+0.0406P] where P=(Fo^2^+2Fc^2^)/3'
_refine_ls_weighting_scheme      calc
_refine_ls_wR_factor_gt          0.0638
_refine_ls_wR_factor_ref         0.0642
_reflns_Friedel_coverage         0.843
_reflns_Friedel_fraction_full    1.000
_reflns_Friedel_fraction_max     1.000
_reflns_number_gt                931
_reflns_number_total             942
_reflns_threshold_expression     'I > 2\s(I)'
_cod_data_source_file            d1cc02608a2.cif
_cod_data_source_block           2016_09_29_dt_b-gly_d
_cod_depositor_comments
'Adding full bibliography for 7128792--7128793.cif.'
_cod_original_sg_symbol_H-M      'P 21'
_cod_database_code               7128793
_shelx_shelxl_version_number     2016/4
_shelx_space_group_comment
;
The symmetry employed for this shelxl refinement is uniquely defined
by the following loop, which should always be used as a source of
symmetry information in preference to the above space-group names.
They are only intended as comments.
;
_reflns_odcompleteness_completeness 100.00
_reflns_odcompleteness_iscentric 1
_reflns_odcompleteness_theta     30.44
_olex2_refinement_description
;
1. Fixed Uiso
 At 1.2 times of:
  All C(H,H) groups, All N(H,H,H) groups
2. Restrained distances
 N1-H1B
 0.87 with sigma of 0.01
 N1-H1C
 0.87 with sigma of 0.01
 N1-H1A
 0.87 with sigma of 0.01
3.a Secondary CH2 refined with riding coordinates:
 C2(H2A,H2B)
;
_shelx_res_file
;
TITL 2016_09_29_dt_b-gly_d_a.res in P2(1)
 2016_09_29_dt_b-gly_d.res created by SHELXL-2016/4 at 13:24:44 on 03-Apr-2021
REM Old TITL 2016_09_29_DT_B-GLY_D in P2(1)
REM SHELXT solution in P2(1)
REM R1 0.066, Rweak 0.189, Alpha 0.004, Orientation as input
REM Flack x = -0.064 ( 0.458 ) from Parsons' quotients
REM Formula found by SHELXT: C2 N O2
CELL 0.71073 5.0757 6.1737 5.3882 90 113.422 90
ZERR 2 0.0002 0.0002 0.0002 0 0.004 0
LATT -1
SYMM -X,0.5+Y,-Z
SFAC C H N O
UNIT 4 10 2 4
DFIX 0.87 0.01 N1 H1b
DFIX 0.87 0.01 N1 H1c
DFIX 0.87 0.01 N1 H1a

L.S. 99
PLAN  20
BOND $H
list 4
conf
fmap 2 53
acta
OMIT 0 0 3
REM <olex2.extras>
REM <HklSrc "%.\\2016_09_29_DT_B-GLY_D.hkl">
REM </olex2.extras>

WGHT    0.032100    0.040600
FVAR      21.82907
C1    1    0.636546    0.537356    0.560094    11.00000    0.01146    0.00747 =
         0.00810   -0.00030    0.00522   -0.00107
C2    1    0.613051    0.549972    0.268392    11.00000    0.00959    0.01254 =
         0.00731    0.00066    0.00404    0.00229
AFIX  23
H2A   2    0.432586    0.486161    0.148573    11.00000   -1.20000
H2B   2    0.613217    0.700680    0.217560    11.00000   -1.20000
AFIX   0
N1    3    0.853103    0.435526    0.234963    11.00000    0.00906    0.01138 =
         0.00743   -0.00044    0.00385    0.00047
H1A   2    1.018687    0.480168    0.349351    11.00000   -1.20000
H1B   2    0.858578    0.453720    0.076161    11.00000   -1.20000
H1C   2    0.836902    0.298025    0.257282    11.00000   -1.20000
O1    4    0.882895    0.508174    0.742148    11.00000    0.00926    0.01907 =
         0.00772   -0.00006    0.00350   -0.00131
O2    4    0.409591    0.565051    0.597110    11.00000    0.01022    0.01298 =
         0.01129   -0.00131    0.00635    0.00007
HKLF 4




REM  2016_09_29_dt_b-gly_d_a.res in P2(1)
REM R1 =  0.0229 for     931 Fo > 4sig(Fo)  and  0.0233 for all     942 data
REM     55 parameters refined using      4 restraints

END

WGHT      0.0321      0.0407

REM Highest difference peak  0.409,  deepest hole -0.194,  1-sigma level  0.043
Q1    1   0.6292  0.5409  0.4101  11.00000  0.05    0.41
Q2    1   0.7363  0.4953  0.2640  11.00000  0.05    0.21
Q3    1   0.4354  0.5702  0.7370  11.00000  0.05    0.16
Q4    1   0.5105  0.5003  0.5785  11.00000  0.05    0.16
Q5    1   0.5156  0.6059  0.5811  11.00000  0.05    0.14
Q6    1   0.8675  0.4984  0.8770  11.00000  0.05    0.14
Q7    1   0.7623  0.5553  0.6878  11.00000  0.05    0.13
Q8    1   0.8393  0.7713  0.8516  11.00000  0.05    0.13
Q9    1   0.3063  0.5619  0.4477  11.00000  0.05    0.13
Q10   1   0.4440  0.2932  0.1338  11.00000  0.05    0.11
Q11   1   0.2980  0.5188  0.5595  11.00000  0.05    0.11
Q12   1   1.0974  0.2333  0.2898  11.00000  0.05    0.10
Q13   1   0.4765  0.5826  0.1435  11.00000  0.05    0.10
Q14   1   1.2394  0.3626  0.3330  11.00000  0.05    0.10
Q15   1   1.0096  0.5689  0.7332  11.00000  0.05    0.10
Q16   1   0.6635  0.7296  0.0073  11.00000  0.05    0.10
Q17   1   0.3681  0.6679  0.5776  11.00000  0.05    0.10
Q18   1   1.1115  0.2826  0.4455  11.00000  0.05    0.09
Q19   1   1.1765  0.4684  0.2231  11.00000  0.05    0.09
Q20   1   1.1224  0.5614  0.2882  11.00000  0.05    0.09
;
_shelx_res_checksum              14929
_shelx_hkl_file
;
   0  -8   0 20566.8 1020.83   1
   0  -8   1 4749.61 473.247   1
   0  -8  -1 4218.42 413.779   1
   0  -8  -2 122.047 103.209   1
   0  -8   2 420.136 154.246   1
   0  -7   0 3443.58 369.127   1
   0  -7  -1 10120.8 611.894   1
   0  -7   1 11062.7 688.349   1
   0  -7   1 10503.4 583.455   3
   0  -7  -2 4557.75 384.634   1
   0  -7   2 4300.43 395.223   3
   0  -7   2 5295.40 482.920   1
   0  -7  -3 34292.5 1187.16   1
   0  -7   3 32304.8 1342.06   3
   0  -7  -3 31470.1 1240.15   4
   0  -7   4 5724.25 530.544   3
   0  -7  -4 5937.11 380.227   1
   0  -7  -4 6704.42 479.404   4
   0  -6   0 26338.5 899.578   3
   0  -6   0 28474.5 1078.61   1
   0  -6   1 14470.9 750.514   1
   0  -6  -1 15002.2 706.034   1
   0  -6   1 14482.6 665.826   3
   0  -6   2 1105.19 189.291   3
   0  -6  -2 1330.01 190.105   1
   0  -6   3 1070.14 211.709   3
   0  -6  -3 1753.02 231.240   4
   0  -6  -3 1453.89 188.283   1
   0  -6  -4 792.664 148.928   4
   0  -6  -4 760.641 122.583   1
   0  -6   4 537.939 161.360   3
   0  -6   5 2327.28 347.547   3
   0  -6  -5 2645.15 216.538   1
   0  -6  -5 2699.29 263.530   4
   0  -5   0 852.438 101.491  22
   0  -5   0 801.333 97.6520  21
   0  -5   0 666.312 109.648   3
   0  -5   0 713.888 89.9503  19
   0  -5   0 514.035 67.3131   9
   0  -5   0 1212.00 178.747   1
   0  -5   0 791.586 96.2899  20
   0  -5  -1 21999.7 652.745   9
   0  -5   1 24239.9 739.082  20
   0  -5   1 23901.1 742.426  21
   0  -5  -1 22508.6 704.669  21
   0  -5  -1 22714.1 856.560   1
   0  -5   1 22442.6 737.065  22
   0  -5   1 21944.4 822.715   3
   0  -5  -1 22745.2 699.179  20
   0  -5  -1 23986.5 714.680  19
   0  -5   1 24424.2 739.430  19
   0  -5   1 21667.9 661.447   9
   0  -5  -1 22463.1 718.922  22
   0  -5   1 23824.0 730.773  23
   0  -5   1 23010.1 918.459   1
   0  -5  -2 9120.95 398.919  20
   0  -5   2 8453.86 403.712  19
   0  -5  -2 8265.90 350.708   9
   0  -5  -2 8894.18 467.246   1
   0  -5   2 8531.76 362.604   9
   0  -5   2 8550.10 389.682  17
   0  -5   2 8604.38 416.918  21
   0  -5   2 8240.64 490.680   3
   0  -5   2 8647.11 399.655  23
   0  -5  -2 8871.40 399.293  21
   0  -5   2 8107.60 402.465  20
   0  -5   3 17465.9 673.694  23
   0  -5  -3 21254.9 804.852   4
   0  -5   3 19868.4 887.804   3
   0  -5   3 16677.1 653.803  17
   0  -5   3 17083.6 649.696  16
   0  -5  -3 21251.3 736.808   1
   0  -5  -3 23603.0 773.309  20
   0  -5  -3 19932.9 665.258   9
   0  -5  -3 22397.1 750.586  21
   0  -5   3 17395.4 684.828  19
   0  -5   3 17037.7 687.803  20
   0  -5  -4 14244.5 603.460   9
   0  -5  -4 17024.9 702.821   4
   0  -5  -4 16164.7 598.673   1
   0  -5  -4 16896.9 707.707  21
   0  -5  -4 18087.8 742.407  20
   0  -5   4 15745.3 839.382   3
   0  -5  -5 11742.8 452.266   1
   0  -5  -5 11299.0 606.075  21
   0  -5   5 10719.3 725.017   3
   0  -5  -5 11096.5 513.063   4
   0  -5  -5 9729.42 586.409  13
   0  -5  -5 8897.17 492.591   9
   0  -4   0 106552. 2499.36  22
   0  -4   0 109561. 2437.21   9
   0  -4   0 105352. 2485.64  23
   0  -4   0 105134. 2490.47  20
   0  -4   0 104094. 2492.41  21
   0  -4   0 99511.4 2660.46   1
   0  -4   0 105079. 2486.41  19
   0  -4   0 105099. 2555.47   3
   0  -4  -1 48431.6 1256.32   9
   0  -4   1 52648.1 1336.01  19
   0  -4  -1 50877.5 1310.81  19
   0  -4  -1 50472.7 1307.34  21
   0  -4   1 51909.4 1327.00  23
   0  -4   1 50315.6 1261.77   9
   0  -4   1 51162.4 1318.21  17
   0  -4  -1 51799.8 1325.89  22
   0  -4  -1 49689.9 1245.19   3
   0  -4   1 47651.1 1416.27   3
   0  -4  -1 49904.9 1444.12   1
   0  -4  -1 50864.6 1307.86  20
   0  -4   1 53733.2 1352.00  21
   0  -4   1 53009.4 1341.90  20
   0  -4   2 19101.2 620.437   9
   0  -4  -2 20644.8 662.028  20
   0  -4  -2 20315.4 663.340  21
   0  -4   2 19439.9 769.189   3
   0  -4   2 19769.2 663.439  23
   0  -4   2 18505.9 635.747  16
   0  -4  -2 20114.1 618.654   9
   0  -4   2 19238.4 673.098  20
   0  -4   2 19711.3 672.302  19
   0  -4  -2 19547.4 695.235   1
   0  -4   2 18606.9 645.787  17
   0  -4  -3 2469.28 216.272   4
   0  -4   3 2162.06 195.683  23
   0  -4  -3 2382.10 188.126   9
   0  -4   3 1988.77 240.556   3
   0  -4   3 1864.09 177.892  17
   0  -4   3 2262.54 206.947  19
   0  -4  -3 2652.60 221.386  20
   0  -4   3 1801.40 174.571  16
   0  -4  -3 2179.67 175.786   1
   0  -4  -3 2260.53 202.254  21
   0  -4   3 1849.75 192.723  20
   0  -4   3 2477.74 196.090  12
   0  -4   4 8981.65 478.065  17
   0  -4   4 10700.5 517.472  12
   0  -4  -4 9971.11 474.576   9
   0  -4   4 7902.47 448.544  16
   0  -4  -4 10787.4 527.488  21
   0  -4   4 9252.88 506.757  19
   0  -4   4 9151.57 489.398  23
   0  -4  -4 10464.4 399.353   1
   0  -4  -4 11734.4 561.030  20
   0  -4   4 9169.78 515.795  20
   0  -4  -4 10053.9 461.675   4
   0  -4   4 10953.2 637.483   3
   0  -4   5 486.661 125.567  17
   0  -4  -5 597.080 139.118  21
   0  -4   5 548.234 133.876  19
   0  -4   5 667.796 155.513  20
   0  -4  -5 804.260 157.929  13
   0  -4  -5 663.787 89.9193   1
   0  -4   5 608.523 135.490  23
   0  -4   5 959.481 208.064   3
   0  -4  -5 478.361 113.508   9
   0  -4   5 654.225 134.590  16
   0  -4  -5 562.433 95.1640   4
   0  -4   6 8830.39 613.111  19
   0  -4   6 10686.4 742.959   3
   0  -4   6 9217.05 603.032  23
   0  -4  -6 9287.01 558.933   9
   0  -4   6 9162.48 590.335  17
   0  -4  -6 10517.6 430.018   4
   0  -4  -6 10042.8 611.054  21
   0  -4  -6 9883.58 635.364  13
   0  -4   6 8315.26 554.327  16
   0  -4   6 9706.74 650.168  20
   0  -3   0 23.7855 21.8475  20
   0  -3   0 62.9652 47.8514   1
   0  -3   0 14.5950 18.6160   9
   0  -3   0 6.60886 17.0312  19
   0  -3   0 4.56137 19.8623  21
   0  -3   0 3.48095 19.9783  23
   0  -3   0-3.48973 19.8548  22
   0  -3   0 17.4799 26.7053   3
   0  -3  -1 61692.2 1479.93   3
   0  -3  -1 65068.0 1524.44   9
   0  -3   1 61649.4 1481.18   6
   0  -3   1 66025.2 1578.74  23
   0  -3  -1 61698.3 1562.11  21
   0  -3   1 59085.5 1651.33   3
   0  -3  -1 64302.9 1578.25  22
   0  -3   1 64357.2 1524.37   9
   0  -3  -1 62448.6 1563.19  20
   0  -3  -1 63448.7 1652.52   1
   0  -3   1 68306.3 1595.48  20
   0  -3   1 66002.4 1571.12  17
   0  -3  -1 63459.8 1568.13  19
   0  -3   1 66858.5 1596.85  21
   0  -3   1 66504.8 1586.72  19
   0  -3   2 30302.3 925.016  19
   0  -3   2 29442.7 888.685  16
   0  -3   2 30426.3 934.130  20
   0  -3  -2 32299.3 870.612   9
   0  -3   2 29256.3 904.632  23
   0  -3   2 29198.0 894.449  17
   0  -3  -2 31360.1 910.691  21
   0  -3   2 30724.2 1012.16   3
   0  -3  -2 30030.1 885.475   1
   0  -3   2 33349.1 737.874   6
   0  -3   2 31939.5 864.399  12
   0  -3  -2 30514.1 901.866  20
   0  -3   2 29400.0 864.380   9
   0  -3  -3 13245.4 540.409  21
   0  -3  -3 13406.3 517.545   4
   0  -3   3 12961.3 536.023  16
   0  -3   3 12931.7 625.642   3
   0  -3   3 13341.7 555.955  23
   0  -3  -3 13044.7 451.097   1
   0  -3  -3 14886.7 570.856  20
   0  -3   3 14176.9 596.623  20
   0  -3  -3 14182.8 524.259   9
   0  -3   3 13631.3 387.676   6
   0  -3   3 13496.7 551.305  17
   0  -3   3 13955.9 580.802  19
   0  -3   3 14084.3 535.899  12
   0  -3   4 24741.4 881.733  12
   0  -3  -4 24077.2 751.324   4
   0  -3  -4 25096.6 850.747   9
   0  -3   4 23586.9 898.246  23
   0  -3   4 22536.9 962.128   3
   0  -3   4 24680.0 937.134  19
   0  -3  -4 26522.8 923.324  20
   0  -3  -4 23964.0 690.929   1
   0  -3   4 23787.6 883.199  17
   0  -3   4 23774.2 874.226  16
   0  -3  -4 25089.8 890.720  21
   0  -3  -5 9229.45 530.320  21
   0  -3   5 9256.07 537.207  12
   0  -3   5 9004.01 538.693  17
   0  -3   5 8324.08 513.807  16
   0  -3  -5 9314.82 506.973   9
   0  -3  -5 8713.78 532.867  13
   0  -3  -5 9514.86 380.523   4
   0  -3   5 8995.81 570.482  19
   0  -3  -5 9580.13 362.727   1
   0  -3   5 8794.43 545.150  23
   0  -3   5 8714.38 595.663   3
   0  -3   6 3432.71 398.351  20
   0  -3  -6 4104.34 366.068   9
   0  -3   6 4087.41 407.124  23
   0  -3  -6 4116.85 396.879  13
   0  -3   6 3289.21 382.796  19
   0  -3  -6 4177.02 381.551  21
   0  -3   6 3908.13 421.931   3
   0  -3   6 3850.35 387.088  17
   0  -3  -6 3821.65 232.511   1
   0  -3   6 3684.62 371.740  16
   0  -2   0 890471. 19342.1  20
   0  -2   0 830204. 19376.0   3
   0  -2   0 886935. 19343.6  21
   0  -2   0 867384. 19436.1   1
   0  -2   0 847288. 19338.4  23
   0  -2   0 876746. 19345.0  22
   0  -2   0 853960. 19339.5  19
   0  -2  -1 130684. 3070.53  20
   0  -2   1 136205. 3091.85  19
   0  -2   1 136847. 3082.71  23
   0  -2   1 135726. 3072.72  17
   0  -2   1 138425. 2983.82   6
   0  -2   1 135952. 3068.50  16
   0  -2  -1 136001. 3080.90  19
   0  -2  -1 129607. 3071.27  21
   0  -2  -1 138762. 3045.25   9
   0  -2   1 130488. 3043.85   9
   0  -2  -1 133235. 3106.64   1
   0  -2   1 135903. 3097.18  20
   0  -2   1 134746. 3032.66  12
   0  -2  -1 136271. 3093.10  22
   0  -2   1 130920. 3157.53   3
   0  -2   2 68617.2 1855.02   3
   0  -2  -2 67414.9 1751.69  21
   0  -2  -2 71969.3 1766.76  20
   0  -2   2 70326.2 1740.19  12
   0  -2   2 73927.1 1812.63  19
   0  -2  -2 64614.4 1678.82   1
   0  -2   2 73502.8 1791.14  23
   0  -2   2 72581.6 1764.02  16
   0  -2  -2 72553.3 1729.90   9
   0  -2   2 74408.2 1622.22   6
   0  -2   2 72255.4 1776.25  17
   0  -2  -2 66210.7 1732.94   4
   0  -2   2 72246.2 1758.50  15
   0  -2   3 2440.68 133.648   6
   0  -2   3 3121.75 218.268  15
   0  -2  -3 2254.92 189.494  21
   0  -2  -3 2067.66 146.114   4
   0  -2  -3 2530.28 184.516   9
   0  -2   3 2661.49 210.285  17
   0  -2   3 2333.82 191.372  12
   0  -2   3 2235.00 208.436  19
   0  -2   3 2322.76 203.747  23
   0  -2   3 2753.35 207.438  16
   0  -2   3 2494.04 232.317   3
   0  -2  -3 2293.85 131.048   1
   0  -2  -3 2254.25 189.260  20
   0  -2   4 22249.9 839.414  15
   0  -2   4 24230.8 866.319  16
   0  -2  -4 24438.4 856.446  21
   0  -2   4 22760.1 861.563  17
   0  -2   4 23253.8 850.674  12
   0  -2   4 22894.8 881.190  23
   0  -2  -4 24262.8 653.186   1
   0  -2   4 21792.1 902.348   3
   0  -2   4 23547.4 916.486  19
   0  -2  -4 23461.9 672.499   4
   0  -2   4 23007.0 693.143   6
   0  -2  -4 24741.9 872.909  20
   0  -2  -4 23875.2 818.705   9
   0  -2  -5 2410.56 150.535   4
   0  -2   5 1986.32 243.205  17
   0  -2   5 2173.71 249.414  15
   0  -2  -5 2356.32 155.486   1
   0  -2   5 2425.55 262.569  16
   0  -2   5 2131.58 264.011   3
   0  -2  -5 2758.94 256.766   9
   0  -2  -5 2130.86 236.421  21
   0  -2   5 2613.01 271.622  12
   0  -2   5 2236.60 279.462  19
   0  -2   5 2464.43 278.669  23
   0  -2  -5 1877.46 233.484  13
   0  -2   6 39621.3 1445.05  16
   0  -2   6 36586.9 1399.23  15
   0  -2   6 39223.1 1461.66  17
   0  -2   6 39339.5 1529.96  19
   0  -2   6 38063.8 1455.72   3
   0  -2   6 41151.1 1538.39  10
   0  -2  -6 35931.6 1400.17  13
   0  -2  -6 40947.7 1409.70  21
   0  -2   6 39105.7 1483.11  23
   0  -2  -6 39294.7 1372.69   9
   0  -2   6 40175.4 1451.65  12
   0  -1   0-11.8539 10.7846  22
   0  -1   0 16.6926 11.6965  23
   0  -1   0 6.40287 10.5411  20
   0  -1   0 7.87263 10.1775  19
   0  -1   0 9.33077 8.22233   9
   0  -1   0 1.05095 12.9050   3
   0  -1   0 11.5093 11.6681  21
   0  -1   1 22357.4 574.684  17
   0  -1   1 22374.9 567.496  15
   0  -1  -1 21236.6 568.807  20
   0  -1  -1 21810.3 549.685   9
   0  -1   1 22594.9 570.503  16
   0  -1   1 20071.2 551.118   9
   0  -1   1 23178.4 583.190  23
   0  -1   1 22895.1 591.227  19
   0  -1  -1 20137.1 563.737  21
   0  -1   1 21454.1 504.042   6
   0  -1  -1 19748.9 539.533   1
   0  -1   1 22410.3 565.706  12
   0  -1   1 20648.2 613.507   3
   0  -1   2 118769. 2651.24  16
   0  -1  -2 109200. 2629.73  21
   0  -1   2 116744. 2658.42  17
   0  -1   2 116622. 2694.59  19
   0  -1  -2 106183. 2516.75   1
   0  -1   2 115246. 2669.13  23
   0  -1   2 111411. 2647.71  12
   0  -1   2 113631. 2708.74   3
   0  -1   2 116360. 2643.93  15
   0  -1   2 111742. 2545.82   6
   0  -1  -2 115039. 2646.50  20
   0  -1  -2 112819. 2607.57   9
   0  -1  -2 109390. 2554.33   4
   0  -1   3 66503.2 1841.23   3
   0  -1   3 69413.1 1805.03  17
   0  -1   3 69074.1 1822.87  23
   0  -1   3 67194.0 1671.20   6
   0  -1   3 66087.4 1793.49  12
   0  -1   3 68833.3 1787.99  15
   0  -1  -3 70769.9 1615.78   1
   0  -1  -3 70496.5 1535.56   7
   0  -1  -3 66353.4 1770.25  21
   0  -1   3 69521.3 1853.61  19
   0  -1  -3 67117.8 1743.33   9
   0  -1  -3 66995.3 1618.21   4
   0  -1   3 68267.3 1789.87  16
   0  -1  -3 71575.7 1801.57  20
   0  -1   4 18197.8 699.587  16
   0  -1   4 17704.5 720.764  23
   0  -1   4 17507.6 741.775  19
   0  -1   4 17933.7 704.064  17
   0  -1  -4 17987.8 499.174   4
   0  -1   4 17541.3 688.070  15
   0  -1  -4 17946.9 515.580   1
   0  -1   4 16630.8 710.344   3
   0  -1  -4 14661.0 650.534  13
   0  -1   4 17922.8 710.257  12
   0  -1  -4 17351.1 670.895  21
   0  -1  -4 17680.7 657.061   9
   0  -1  -5 2497.41 248.817  21
   0  -1   5 2196.78 250.634   3
   0  -1   5 2215.20 248.162  16
   0  -1  -5 2055.45 237.717  13
   0  -1   5 2673.41 275.585  17
   0  -1   5 2419.57 272.335  23
   0  -1  -5 2330.86 139.262   4
   0  -1  -5 2580.42 245.038   9
   0  -1   5 2461.37 257.082  15
   0  -1   5 2405.27 261.902  12
   0  -1   5 2805.68 302.927  19
   0  -1   6 1354.24 222.988  12
   0  -1   6 1170.34 234.819  19
   0  -1   6 1508.83 235.157  17
   0  -1   6 1151.53 205.313  15
   0  -1  -6 1371.52 208.117  21
   0  -1  -6 1378.74 203.825   9
   0  -1   6 1326.75 218.342  16
   0  -1   6 1086.72 213.352  23
   0  -1  -6 1146.04 206.338  13
   0  -1   6 1147.74 198.966   3
   0  -1   6 1331.28 245.338  10
   0  -1  -7 722.136 170.120   9
   0  -1   7 353.769 147.716  23
   0  -1   7 591.485 198.408  10
   0  -1   7 530.197 170.227  17
   0  -1  -7 516.334 148.002  21
   0  -1   7 410.662 156.157  16
   0  -1  -7 382.016 138.202  13
   0  -1   7 662.136 184.612  19
   0  -1   7 543.189 163.660  15
   0   0   1 194156. 4283.76   3
   0   0   1 197186. 4284.00  23
   0   0   1 193307. 4274.33  17
   0   0   1 199415. 4290.69  12
   0   0  -1 186591. 4268.87  21
   0   0   1 200138. 4249.63   6
   0   0  -1 193125. 4216.19   1
   0   0   1 191632. 4270.77  15
   0   0  -1 184053. 4209.71   4
   0   0   1 193746. 4271.84  16
   0   0  -1 200444. 4281.49  20
   0   0   1 186101. 4262.14  14
   0   0   2 185665. 4249.45  12
   0   0   2 187056. 4239.91  23
   0   0   2 184226. 4213.91  16
   0   0   2 188010. 4225.43  17
   0   0   2 189095. 4171.81   6
   0   0  -2 187381. 4109.89   1
   0   0  -2 183534. 4074.42   7
   0   0   2 183226. 4212.00  15
   0   0  -2 189903. 4091.68   4
   0   0   2 177934. 4196.92  14
   0   0   2 180918. 4224.84   3
   0   0  -2 193890. 4233.50  20
   0   0  -2 181417. 4212.50  21
   0   0   3 2607.37 200.227   3
   0   0   3 2464.65 206.047  12
   0   0   3 2684.76 212.640  23
   0   0  -3 2294.86 183.640  21
   0   0   3 2270.61 186.127  15
   0   0  -3 2276.26 190.543  13
   0   0   3 2665.34 223.313  19
   0   0   3 2466.59 194.513  16
   0   0   3 2460.83 198.109  17
   0   0   3 2012.86 151.662   6
   0   0   4 35670.6 1154.39  12
   0   0  -4 36623.0 892.577   4
   0   0  -4 36406.2 1091.76  21
   0   0   4 36022.1 1120.40  15
   0   0   4 35828.8 1181.32  19
   0   0   4 36196.8 1153.55  23
   0   0   4 33564.5 1083.61   3
   0   0  -4 33239.8 1094.76  13
   0   0   4 35533.0 1123.27  17
   0   0   4 34654.3 1103.57  16
   0   0  -5 6226.26 394.301  21
   0   0   5 6322.12 413.144  15
   0   0   5 6300.36 438.337  12
   0   0  -5 6148.35 256.446   4
   0   0   5 6261.91 453.822  10
   0   0  -5 5666.27 397.230  13
   0   0   5 6591.00 466.707  19
   0   0  -5 6032.68 398.362   5
   0   0   5 6053.68 430.980  23
   0   0   5 5948.06 416.885  17
   0   0   5 5859.21 404.803  16
   0   0   5 6035.14 381.628   3
   0   0  -5 5915.02 375.303   9
   0   0  -6 65211.1 1935.56  21
   0   0   6 60573.3 1963.36  15
   0   0   6 64746.6 2065.90  23
   0   0   6 61723.6 2088.45  19
   0   0  -6 64515.3 1913.77   9
   0   0   6 63647.9 1997.96  16
   0   0   6 64766.6 2115.86  10
   0   0   6 65016.6 2026.01  17
   0   0   6 67364.3 2076.23  12
   0   0  -6 61970.0 1964.26  13
   0   0   7 8192.64 603.339  15
   0   0  -7 8273.03 596.612  13
   0   0   7 7166.81 584.613  17
   0   0  -7 7902.02 553.940  21
   0   0  -7 7795.32 543.982   9
   0   0   7 8553.55 679.574  10
   0   0   7 7946.01 628.620  23
   0   0   7 7846.01 652.186  19
   0   0   7 7929.39 598.408  16
   0   1   0 2.68032 17.1994  11
   0   1   0-5.52975 7.69720  13
   0   1   0 8.11608 17.1996   5
   0   1   0-19.2497 20.8401   8
   0   1   0 5.43223 7.37441  16
   0   1   0 3.28920 8.04509  15
   0   1   0 22.0829 11.9007  10
   0   1   0 1.84981 7.51955  14
   0   1   0 6.97844 16.0176   2
   0   1   1 22004.1 547.134   2
   0   1   1 21505.5 583.069  11
   0   1  -1 22117.9 565.315  13
   0   1  -1 21859.1 554.620   4
   0   1   1 20843.9 554.068  15
   0   1   1 21009.6 584.466   8
   0   1   1 20989.8 555.678  16
   0   1   1 20888.7 551.093  14
   0   1  -1 22938.3 546.148   8
   0   1  -1 20729.6 607.638   5
   0   1   1 22502.8 573.223  12
   0   1  -1 22989.9 561.724  21
   0   1   1 21634.4 583.783  10
   0   1  -1 22184.5 577.753  10
   0   1  -1 23013.2 566.572  18
   0   1   1 21252.1 562.536  17
   0   1   1 21243.4 568.592  23
   0   1   2 118238. 2637.20  12
   0   1   2 116230. 2648.03  10
   0   1   2 107457. 2574.41  14
   0   1   2 108594. 2583.02   6
   0   1   2 111283. 2529.83   3
   0   1   2 110339. 2588.52  15
   0   1  -2 106108. 2506.42   4
   0   1  -2 115391. 2590.76  21
   0   1   2 111167. 2589.22  16
   0   1   2 108759. 2594.86  17
   0   1   2 112385. 2501.35   2
   0   1   2 110396. 2611.30  23
   0   1  -2 105712. 2595.62  13
   0   1   2 114475. 2559.62   8
   0   1   3 68799.6 1582.06   8
   0   1   3 67551.5 1547.67   2
   0   1   3 68504.7 1702.29  16
   0   1   3 65158.1 1719.49  23
   0   1   3 68504.7 1773.54  10
   0   1  -3 63262.1 1697.35  13
   0   1   3 64447.6 1672.58  14
   0   1   3 66993.3 1708.60  17
   0   1   3 67688.1 1749.89  12
   0   1   3 65700.5 1690.57  15
   0   1  -3 61984.0 1550.31   4
   0   1   3 63298.0 1623.78   3
   0   1  -3 66876.7 1685.99  21
   0   1  -4 16563.2 689.625   5
   0   1   4 15772.4 669.457  23
   0   1   4 16692.3 653.313  15
   0   1   4 17858.4 726.030  19
   0   1   4 18165.1 734.785  10
   0   1  -4 15924.5 505.879   4
   0   1   4 17106.7 502.660   2
   0   1   4 16658.3 596.604   3
   0   1   4 16579.0 660.919  17
   0   1  -4 16598.2 657.930  13
   0   1   4 17320.7 665.089  16
   0   1  -4 17355.6 640.728  21
   0   1   4 18241.5 717.751  12
   0   1   5 2619.66 290.104  19
   0   1   5 2502.74 163.776   2
   0   1  -5 2188.58 162.089   4
   0   1  -5 2379.32 260.731   5
   0   1   5 2245.26 256.034  23
   0   1  -5 2266.15 227.396  21
   0   1   5 2166.96 243.136  17
   0   1   5 2694.17 263.909  15
   0   1  -5 2174.85 234.600  13
   0   1   5 2568.92 275.568  12
   0   1   5 2066.79 232.529  16
   0   1   5 2141.82 266.520  10
   0   1   6 1333.44 225.115  23
   0   1  -6 1420.06 207.064  21
   0   1  -6 1228.59 184.174   9
   0   1   6 1196.93 232.687  10
   0   1  -6 941.268 178.953   5
   0   1   6 1263.01 208.619  15
   0   1   6 1368.88 228.007  12
   0   1  -6 1168.05 173.129  18
   0   1   6 1126.66 197.376  16
   0   1   6 905.415 180.132  17
   0   1  -6 1129.54 196.062  13
   0   1   6 937.454 202.277  19
   0   1  -7 655.075 169.536  13
   0   1   7 334.283 154.014  19
   0   1   7 632.993 172.201  16
   0   1  -7 559.620 147.504   9
   0   1   7 443.082 168.064  10
   0   1   7 384.276 151.600  23
   0   1   7 400.368 143.392  17
   0   1   7 548.307 162.538  15
   0   1  -7 567.266 149.649  21
   0   1  -7 395.655 123.049  18
   0   2   0 892934. 20096.6  13
   0   2   0 922423. 20212.8   5
   0   2   0 929180. 20101.0  15
   0   2   0 920514. 20098.9  14
   0   2   0 878518. 20227.9   8
   0   2   0 925685. 20140.7  10
   0   2   0 867094. 20197.9   2
   0   2   0 936025. 20102.3  16
   0   2   1 135788. 3015.26  14
   0   2   1 131389. 3011.42  13
   0   2  -1 131527. 3013.17  13
   0   2   1 141607. 3047.67   5
   0   2  -1 128938. 3040.11  10
   0   2   1 132648. 3133.89   8
   0   2   1 134060. 3024.63  17
   0   2   1 147662. 3021.69  12
   0   2   1 133278. 3018.53  16
   0   2   1 122441. 3060.55   2
   0   2  -1 133351. 3081.00   8
   0   2  -1 128916. 3137.27   5
   0   2   1 133858. 3068.97  10
   0   2  -1 131324. 3018.11  14
   0   2   1 129625. 3099.46  11
   0   2   1 136207. 3020.73  15
   0   2  -1 128919. 3061.01  18
   0   2   2 70082.8 1740.09  23
   0   2   2 70861.9 1777.77  10
   0   2  -2 75062.3 1716.98  21
   0   2   2 67848.7 1710.59  15
   0   2   2 73640.0 1748.87  12
   0   2   2 70201.6 1773.76   8
   0   2  -2 72043.8 1727.38  13
   0   2   2 68858.0 1719.79  17
   0   2   2 68445.4 1703.80  14
   0   2   2 76050.7 1800.33  11
   0   2   2 69427.6 1704.19   2
   0   2  -2 67608.5 1829.88   5
   0   2  -2 67654.3 1709.94   4
   0   2   2 69427.9 1716.28  16
   0   2  -2 73153.4 1743.94  18
   0   2   3 2434.93 182.570  15
   0   2  -3 2299.88 179.262  13
   0   2   3 2252.73 177.180  16
   0   2   3 2337.79 120.752   3
   0   2   3 2222.71 196.758  11
   0   2   3 2324.07 190.874  23
   0   2   3 2195.34 171.373   8
   0   2   3 2370.93 197.287  12
   0   2  -3 2096.58 153.108   4
   0   2  -3 2432.32 221.234   5
   0   2   3 2284.10 152.097   2
   0   2  -3 2470.54 178.113  21
   0   2   3 2553.53 191.598  17
   0   2   3 2480.22 211.081  10
   0   2   3 2175.17 168.414  14
   0   2  -3 2228.45 169.447  18
   0   2   4 23509.1 812.968  15
   0   2  -4 21492.4 790.430  13
   0   2   4 23665.6 850.034  23
   0   2  -4 24675.1 798.750  21
   0   2  -4 21761.4 756.016  18
   0   2   4 23404.6 706.876   2
   0   2   4 24672.8 870.266  12
   0   2  -4 23205.1 722.342   4
   0   2   4 23241.8 726.681   8
   0   2  -4 22657.7 898.370   5
   0   2   4 22277.8 813.264  17
   0   2   4 21675.8 780.231  14
   0   2   4 21896.3 873.935  10
   0   2   4 22751.4 805.988  16
   0   2   5 1916.83 250.586  19
   0   2  -5 1646.40 230.848   5
   0   2  -5 1934.12 202.818  18
   0   2   5 2173.98 253.557  12
   0   2  -5 1951.17 213.747  21
   0   2   5 2446.41 255.089  17
   0   2   5 2158.94 269.717  10
   0   2   5 1965.96 169.493   2
   0   2   5 2452.17 250.443  15
   0   2   5 2240.69 258.597  23
   0   2   5 2580.37 257.312  16
   0   2  -5 2311.03 240.905  13
   0   2  -6 36667.9 1275.43   9
   0   2   6 38720.4 1395.14  16
   0   2  -6 39159.2 1322.22  21
   0   2   6 37638.2 1480.09  19
   0   2   6 37100.3 1369.39  15
   0   2   6 37803.0 1431.12  23
   0   2  -6 36916.5 1333.29  13
   0   2  -6 36312.3 1278.49  18
   0   2   6 39272.9 1439.43  12
   0   2  -6 35439.4 1421.35   5
   0   2   6 39964.0 1519.61  10
   0   2   6 37452.6 1392.80  17
   0   2   6 43684.8 1468.43  11
   0   3   0 8.07081 22.9072  10
   0   3   0 13.0942 33.4536   5
   0   3   0 22.3393 39.5294   8
   0   3   0 19.6313 16.1806  14
   0   3   0 14.1910 17.7391  16
   0   3   0 22.4114 16.3482  13
   0   3   0 2.86755 15.6018  15
   0   3   0-0.66139 38.1130   2
   0   3   0 20.9433 46.7304  11
   0   3   1 64274.3 1532.19  13
   0   3   1 65145.2 1546.80  17
   0   3  -1 66150.9 1672.99   8
   0   3   1 64973.9 1611.52   5
   0   3   1 62464.6 1678.11  11
   0   3   1 62726.2 1706.66   8
   0   3  -1 65848.4 1531.76  13
   0   3   1 57458.6 1622.80   2
   0   3   1 67080.4 1544.87  16
   0   3   1 65972.7 1503.96  12
   0   3  -1 60416.6 1694.65   5
   0   3  -1 62956.6 1532.89  15
   0   3   1 66898.8 1543.41  15
   0   3  -1 65492.8 1535.51  14
   0   3  -1 63260.3 1566.44  10
   0   3   1 66114.7 1537.19  14
   0   3   1 63193.2 1600.11  10
   0   3   2 28968.5 886.558   2
   0   3  -2 29679.2 849.983  14
   0   3   2 28959.4 942.121  11
   0   3   2 30982.7 855.020  16
   0   3   2 30789.3 846.668  14
   0   3   2 32161.5 983.095   8
   0   3  -2 32373.0 898.729   8
   0   3  -2 29433.8 899.569  18
   0   3  -2 31922.3 890.838  10
   0   3   2 30285.5 850.327  15
   0   3   2 31743.2 862.853  12
   0   3   2 30855.3 864.467  17
   0   3   2 32322.4 888.018  23
   0   3   2 30222.1 922.717  10
   0   3  -2 28753.8 995.131   5
   0   3  -2 31598.4 854.151  13
   0   3  -3 12991.2 511.059  14
   0   3  -3 14010.9 522.186  13
   0   3  -3 13874.2 543.980  18
   0   3   3 13485.8 585.550  11
   0   3   3 13603.2 584.335  10
   0   3   3 13196.9 503.364   2
   0   3   3 14264.6 531.175  16
   0   3   3 13681.7 567.078   8
   0   3   3 14560.2 559.347  23
   0   3   3 14586.8 549.875  12
   0   3  -3 13249.0 633.560   5
   0   3   3 14182.8 537.333  17
   0   3   3 13402.4 519.669  15
   0   3   3 13289.5 508.575  14
   0   3   4 24921.5 932.291  11
   0   3   4 24751.3 882.383  12
   0   3  -4 22897.7 966.510   5
   0   3   4 24154.9 933.963  10
   0   3  -4 22980.5 789.112   4
   0   3   4 24255.1 879.601  23
   0   3  -4 23038.8 822.586  13
   0   3   4 23722.3 789.635   2
   0   3   4 23967.0 854.961  17
   0   3   4 23747.2 826.687  14
   0   3   4 24098.4 845.388  15
   0   3   4 23851.7 845.823  16
   0   3  -4 23011.3 831.370  18
   0   3   4 24249.7 834.194   8
   0   3   5 8504.84 511.485  17
   0   3   5 9599.72 597.733  10
   0   3   5 8905.64 510.526  15
   0   3   5 9154.30 565.605  11
   0   3  -5 9046.33 496.198  13
   0   3  -5 8426.93 478.171  18
   0   3   5 9002.19 565.258  19
   0   3   5 9735.98 550.274  12
   0   3   5 8574.41 529.439  23
   0   3  -5 9199.71 604.722   5
   0   3   5 9141.88 518.229  16
   0   3   6 4374.02 406.167  12
   0   3   6 3798.02 368.860  16
   0   3  -6 4180.95 437.547   5
   0   3   6 4234.48 430.920  19
   0   3   6 3929.70 382.273  17
   0   3  -6 2997.82 312.826  14
   0   3   6 4382.07 419.201  11
   0   3   6 3187.35 337.809  15
   0   3  -6 3143.95 314.773  18
   0   3   6 3845.83 390.812  23
   0   3   6 3768.16 409.120  10
   0   3  -6 4047.47 357.198  13
   0   4   0 110410. 2499.23  15
   0   4   0 110140. 2500.89  16
   0   4   0 108716. 2494.59  14
   0   4   0 110293. 2572.55  10
   0   4   0 106740. 2762.35   8
   0   4   0 107496. 2492.56  13
   0   4   0 109149. 2713.50   2
   0   4   0 103448. 2693.03   5
   0   4   1 52572.1 1495.89   8
   0   4   1 50024.9 1243.63  13
   0   4  -1 50428.3 1237.99  13
   0   4   1 50998.8 1378.06   5
   0   4  -1 46349.4 1445.23   5
   0   4  -1 51581.7 1446.81   8
   0   4   1 45225.7 1383.45   2
   0   4  -1 50676.4 1244.86  14
   0   4   1 52178.6 1262.65  17
   0   4  -1 50819.7 1289.21  10
   0   4   1 51091.8 1256.10  15
   0   4   1 48254.3 1446.71  11
   0   4   1 50050.1 1326.49  10
   0   4  -1 49412.5 1245.25  15
   0   4   1 50466.9 1248.34  14
   0   4   1 51198.5 1255.87  16
   0   4   2 21005.2 634.480  14
   0   4  -2 18683.2 791.074   5
   0   4   2 20046.8 632.670  15
   0   4   2 18190.3 742.838  11
   0   4   2 22034.7 674.080  23
   0   4   2 18195.6 689.090   2
   0   4   2 20727.5 646.879  17
   0   4   2 20580.3 798.123   8
   0   4  -2 17980.7 678.737  18
   0   4   2 19321.5 702.467  10
   0   4  -2 21929.0 676.447  10
   0   4  -2 21102.0 632.435  14
   0   4  -2 20885.1 727.406   8
   0   4   2 21475.2 643.696  16
   0   4  -2 21007.3 626.599  13
   0   4   3 2540.09 194.573  14
   0   4   3 2094.33 228.484  11
   0   4   3 2410.02 194.980  12
   0   4  -3 2115.61 177.853  14
   0   4   3 2254.47 233.633   8
   0   4   3 2251.66 221.810  10
   0   4  -3 1958.30 243.545   5
   0   4  -3 2268.42 205.048  18
   0   4   3 2418.14 195.589  15
   0   4   3 2030.00 191.682   2
   0   4   3 2349.66 204.536  23
   0   4  -3 2440.51 186.901  13
   0   4   3 2474.92 197.267  16
   0   4   3 2694.37 208.839  17
   0   4   4 9711.33 473.527   2
   0   4   4 9809.38 571.844  11
   0   4  -4 10086.7 479.980  13
   0   4   4 10602.4 516.256  17
   0   4  -4 9326.72 602.675   5
   0   4   4 10617.4 510.896  15
   0   4   4 11079.2 523.437  12
   0   4  -4 9652.82 498.527  18
   0   4   4 11166.2 546.680  23
   0   4   4 10289.8 505.578  16
   0   4   4 9695.52 479.211  14
   0   4   4 10103.8 567.631  10
   0   4  -4 9795.17 480.946  14
   0   4   4 10289.4 539.895   8
   0   4   5 485.810 129.916  19
   0   4   5 778.509 151.974  16
   0   4   5 491.591 147.154  10
   0   4  -5 394.528 131.024   5
   0   4  -5 490.229 114.228  13
   0   4   5 610.039 132.753  15
   0   4  -5 322.957 92.9611  18
   0   4   5 810.858 166.440  23
   0   4  -5 618.807 128.624  14
   0   4   5 806.766 156.889  17
   0   4   5 661.113 158.399  11
   0   4  -6 9975.12 726.430   5
   0   4   6 10654.6 640.272  16
   0   4   6 11434.2 748.241  10
   0   4   6 9517.01 671.895  11
   0   4   6 10026.7 657.772  23
   0   4   6 9509.52 611.802  15
   0   4  -6 11053.8 607.006  13
   0   4   6 10077.6 639.873  17
   0   4  -6 8862.82 562.679  14
   0   4   6 10447.3 697.796  19
   0   5   0 625.660 71.8020  15
   0   5   0 548.113 66.5389  14
   0   5   0 553.544 65.6249  13
   0   5   0 987.659 157.334   5
   0   5   0 1060.47 171.328   8
   0   5   0 708.011 76.6451  16
   0   5   0 689.885 92.1480  10
   0   5  -1 23406.2 706.853  10
   0   5   1 24218.9 662.769  14
   0   5  -1 21967.8 645.531  14
   0   5   1 23504.2 811.736   5
   0   5   1 22688.9 904.901   8
   0   5  -1 21593.8 649.019  16
   0   5  -1 21934.4 640.900  13
   0   5   1 23065.1 741.994  10
   0   5   1 21249.1 818.584   2
   0   5   1 23912.9 656.979  13
   0   5  -1 21373.2 870.710   5
   0   5  -1 22927.6 873.778   8
   0   5   1 23313.0 664.814  16
   0   5   1 21496.3 867.808  11
   0   5   1 24089.7 665.825  15
   0   5  -1 22374.6 653.225  15
   0   5   1 23479.7 675.513  17
   0   5   2 8118.65 488.920  11
   0   5   2 7935.82 440.566   2
   0   5  -2 7746.14 505.199   5
   0   5  -2 8237.23 355.885  15
   0   5   2 8943.87 380.408  17
   0   5  -2 9021.93 391.276  10
   0   5  -2 9437.85 488.159   8
   0   5   2 8424.37 425.102  10
   0   5   2 8739.11 363.321  14
   0   5   2 9174.11 397.124  23
   0   5  -2 8761.23 357.754  14
   0   5  -2 9148.32 356.899  13
   0   5   2 9081.62 374.629  16
   0   5   2 8324.71 361.854  15
   0   5   2 9082.75 525.268   8
   0   5   3 21892.8 762.669  17
   0   5   3 22893.0 760.187  16
   0   5   3 21632.1 749.733  15
   0   5   3 22970.1 859.583  10
   0   5   3 22073.4 740.678  14
   0   5  -3 21942.1 730.476  14
   0   5  -3 21824.5 716.125  13
   0   5   3 20798.7 898.339   8
   0   5   3 20173.5 799.574   2
   0   5  -3 19785.6 785.148  18
   0   5   3 19897.4 885.581  11
   0   5  -3 19524.5 932.465   5
   0   5   3 22622.7 793.020  23
   0   5   4 16465.2 823.957  11
   0   5   4 16847.5 691.937  15
   0   5   4 16902.8 792.840   8
   0   5  -4 16371.1 883.655   5
   0   5   4 17994.0 743.958  23
   0   5   4 15617.3 762.498  10
   0   5   4 16853.3 701.498  17
   0   5  -4 14985.3 626.634  13
   0   5  -4 15760.6 651.820  14
   0   5   4 16594.7 689.056  16
   0   5   4 15519.2 656.399  14
   0   5   5 11034.4 660.971  19
   0   5   5 10359.0 686.859  11
   0   5  -5 10641.0 741.786   5
   0   5   5 11734.4 649.248  23
   0   5   5 11485.6 612.263  15
   0   5   5 10001.3 654.579  10
   0   5   5 11946.2 630.185  17
   0   5   5 10890.3 601.737  16
   0   6   0 27427.0 1025.56   5
   0   6   0 28880.5 1111.13   8
   0   6  -1 14833.2 717.926   8
   0   6   1 14162.9 667.477   2
   0   6   1 14504.7 637.704   5
   0   6   1 14615.1 745.134   8
   0   6  -1 13787.2 704.161   5
   0   6   1 14154.0 708.214  11
   0   6  -2 883.664 179.613   5
   0   6   2 1067.92 167.173   2
   0   6   2 1159.06 198.205   8
   0   6   2 996.224 183.411  11
   0   6   3 1248.52 220.425   8
   0   6   3 1060.30 207.583  11
   0   6  -3 1553.68 256.769   5
   0   6   3 1120.64 177.220   2
   0   6  -4 1040.49 229.575   5
   0   6   4 892.268 190.760   8
   0   6   4 601.185 176.849  11
   0   6  -5 2691.91 387.715   5
   0   6   5 2093.61 321.861  11
   0   7   0 3300.40 366.471   8
   0   7   0 3815.96 353.460   5
   0   7  -1 9282.98 608.382   5
   0   7   1 10510.1 665.753   8
   0   7  -1 11060.7 660.247   8
   0   7   1 10712.8 572.344   5
   0   7   2 4362.37 426.562   8
   0   7   2 4725.00 431.457  11
   0   7   2 4222.92 370.667   2
   0   7  -2 4752.09 448.290   5
   0   7   3 30369.7 1292.22  11
   0   7   3 29535.3 1156.75   2
   0   7  -3 27668.7 1300.26   5
   0   7  -4 6153.76 589.584   5
   0   7   4 5962.05 548.547  11
   0   8   0 18938.0 904.818   5
   0   8   1 4865.11 480.167   8
   0   8  -1 4187.21 421.030   5
   0   8   2 990.428 240.734   8
   0   8  -2 320.694 125.168   5
   1  -8  -3 3520.35 347.637   1
  -1  -8   3 3652.71 424.718   3
  -1  -8   3 2697.75 349.139   1
   1  -8  -2 1506.61 239.357   1
  -1  -8   2 1998.88 312.542   1
  -1  -8   1 2887.63 363.391   1
   1  -8  -1 3255.38 365.507   1
  -1  -8   0 8059.59 592.010   1
   1  -8   0 6831.03 559.391   1
  -1  -8  -1 22093.2 1019.30   1
   1  -8   1 22635.1 1127.96   1
  -1  -8  -2 261.269 94.7882   1
  -1  -8  -2 139.506 74.7195   4
  -1  -7   4 514.994 166.954   3
   1  -7  -4 324.450 90.4171   1
   1  -7  -4 459.262 134.738   4
  -1  -7   3 6932.90 559.759   3
   1  -7  -3 7800.83 496.852   1
   1  -7  -2 6782.32 487.435   1
  -1  -7   2 6566.39 503.170   3
  -1  -7   2 6263.81 518.942   1
   1  -7  -1 16190.5 814.472   1
  -1  -7   1 17542.7 884.911   1
   1  -7   0 3164.03 341.172   1
  -1  -7   0 2829.71 315.552   1
   1  -7   1 3021.47 349.197   1
   1  -7   1 2366.67 263.700   3
  -1  -7  -1 2486.57 284.439   1
  -1  -7  -2 822.326 169.459   4
   1  -7   2 757.821 173.006   3
  -1  -7  -2 837.404 152.444   1
   1  -7   2 1300.25 248.074   1
   1  -7   3 7952.99 636.541   1
  -1  -7  -3 7300.08 435.456   1
   1  -7   3 8035.68 591.974   3
  -1  -7  -3 8158.00 526.748   4
  -1  -6   5 6455.71 583.562   3
   1  -6  -5 6349.33 366.380   1
   1  -6  -5 6094.76 426.543   4
   1  -6  -4 4263.18 305.584   9
   1  -6  -4 5310.35 403.395   4
   1  -6  -4 4964.13 340.933   1
   1  -6  -4 4992.81 378.668  20
  -1  -6   4 4764.60 462.061   3
   1  -6  -4 5024.58 377.972  21
  -1  -6   3 350.646 133.342   3
   1  -6  -3 145.069 59.5671   9
   1  -6  -3 192.691 73.9082  20
   1  -6  -3 185.585 77.7725  21
   1  -6  -3 114.640 71.4005   1
   1  -6  -2 2677.38 240.545  21
   1  -6  -2 2426.34 196.193   9
   1  -6  -2 3082.98 268.217  22
   1  -6  -2 2348.52 256.782   1
   1  -6  -2 2939.58 251.541  19
  -1  -6   2 2728.06 291.116   3
   1  -6  -2 2793.10 245.735  20
   1  -6  -1 13626.1 513.382   9
  -1  -6   1 14748.7 737.073   1
  -1  -6   1 14065.8 668.547   3
   1  -6  -1 13859.5 684.493   1
   1  -6   0 27038.1 910.012   3
   1  -6   0 25842.7 1039.85   1
  -1  -6   0 26649.1 1030.19   1
  -1  -6  -1 27648.2 1027.40   1
   1  -6   1 28014.3 1125.27   1
   1  -6   1 28079.1 1030.39   3
   1  -6   2 160.292 86.7864   3
  -1  -6  -2 175.856 79.6704   4
  -1  -6  -2 261.692 81.1692   1
   1  -6   2 225.821 107.710   1
   1  -6   3 5883.76 485.331   3
  -1  -6  -3 5903.99 412.705   4
  -1  -6  -3 5696.81 348.038   1
  -1  -6  -4 884.324 147.523   4
   1  -6   4 603.415 175.644   3
   1  -5  -6 2400.66 301.595  21
   1  -5  -6 3102.00 350.366  20
  -1  -5   6 2815.80 382.987   3
   1  -5  -6 2807.70 211.450   1
   1  -5  -6 2326.35 266.670   9
   1  -5  -5 9972.99 597.007  20
   1  -5  -5 10065.9 588.517  21
   1  -5  -5 10225.8 513.239   4
  -1  -5   5 9897.68 695.534   3
   1  -5  -5 8879.95 505.084   9
   1  -5  -5 9806.81 440.391   1
   1  -5  -4 2626.74 265.612  21
   1  -5  -4 2450.96 256.141  20
   1  -5  -4 2346.15 221.125   9
   1  -5  -4 2601.98 253.055   4
  -1  -5   4 2606.61 318.245   3
   1  -5  -4 2636.05 216.455   1
   1  -5  -3 38812.2 1251.05  20
   1  -5  -3 40580.1 1245.12   1
   1  -5  -3 39120.9 1175.18   9
   1  -5  -3 43323.3 1333.81  22
   1  -5  -3 40154.5 1271.12  21
  -1  -5   3 38080.9 1385.49   3
  -1  -5   2 4630.81 363.240   3
   1  -5  -2 5192.36 284.321   9
   1  -5  -2 4949.47 322.136  20
   1  -5  -2 5259.59 332.376  19
   1  -5  -2 5338.63 360.165   1
   1  -5  -2 5603.34 351.033  22
   1  -5  -2 5430.20 339.229  21
  -1  -5   1 30367.2 1054.54   3
   1  -5  -1 32818.8 891.017   3
   1  -5  -1 31740.9 1012.01  21
   1  -5  -1 30933.6 903.988   9
   1  -5  -1 30034.3 1008.21  22
   1  -5  -1 31130.3 1003.83  20
   1  -5  -1 30324.0 1074.03   1
   1  -5  -1 32146.0 1000.35  19
   1  -5   0 9028.58 437.287  19
   1  -5   0 8306.84 477.420   1
   1  -5   0 8314.73 361.106   9
  -1  -5   0 7728.88 447.209   1
  -1  -5   0 8151.25 413.529   3
   1  -5   0 8391.18 404.820   3
   1  -5   0 8371.92 421.973  23
   1  -5   0 8723.51 440.471  21
   1  -5   0 9060.79 451.422  22
   1  -5   0 8529.67 430.143  20
  -1  -5  -1 4464.19 314.130   1
   1  -5   1 4248.85 257.617   9
   1  -5   1 4026.93 308.006   3
   1  -5   1 4296.83 313.782  21
   1  -5   1 4411.29 305.997  23
   1  -5   1 4160.31 293.158  17
   1  -5   1 4507.05 312.872  19
   1  -5   1 4926.97 373.940   1
   1  -5   1 4446.63 315.511  20
  -1  -5  -2 9839.44 504.804   4
   1  -5   2 9741.96 513.243  20
   1  -5   2 9326.84 509.417  21
   1  -5   2 9535.75 543.643   3
   1  -5   2 9210.13 487.148  23
   1  -5   2 9763.54 507.310  19
   1  -5   2 9389.06 482.695  17
  -1  -5  -2 10310.8 476.342   1
   1  -5   2 9768.00 458.308   9
   1  -5   3 25749.0 1001.36  19
   1  -5   3 25557.7 982.868  23
   1  -5   3 28298.6 1134.61   3
  -1  -5  -3 32455.5 1016.74   4
   1  -5   3 28744.1 984.622   9
  -1  -5  -3 29503.3 885.483   1
   1  -5   3 25749.0 973.288  17
   1  -5   3 24760.8 999.662  20
   1  -5   4 7414.12 474.931  17
   1  -5   4 7398.09 495.955  19
   1  -5   4 7444.13 506.601  20
   1  -5   4 9206.51 620.282   3
  -1  -5  -4 9132.20 450.049   4
   1  -5   4 7109.74 475.317  23
   1  -5   4 6967.46 453.427  16
   1  -5   5 1169.00 208.668  19
   1  -5   5 1749.74 260.432  20
  -1  -5  -5 2011.37 194.001   4
   1  -5   5 1593.44 230.314  17
   1  -5   5 1416.99 222.119  23
   1  -5   5 1838.09 308.641   3
   1  -5   5 1325.76 209.009  16
  -1  -4   6 12763.5 818.046   3
  -1  -4   6 13486.1 724.979  12
   1  -4  -6 13779.7 748.038  21
   1  -4  -6 13553.7 514.245   1
   1  -4  -6 14916.6 796.134  20
   1  -4  -6 12510.7 676.104   9
  -1  -4   5 2171.87 206.406  16
   1  -4  -5 2275.58 199.527   4
   1  -4  -5 2148.15 236.330   9
   1  -4  -5 2615.86 277.759  21
  -1  -4   5 2276.70 256.882  10
  -1  -4   5 1638.04 200.457  20
  -1  -4   5 1767.41 202.747  19
  -1  -4   5 2330.24 306.905   3
  -1  -4   5 1496.77 181.390  23
   1  -4  -5 2413.98 177.649   1
  -1  -4   5 2693.50 265.362  12
  -1  -4   5 1946.92 198.292  17
   1  -4  -5 2626.85 283.190  20
  -1  -4   4 2812.10 221.223  19
  -1  -4   4 2564.82 219.153  20
  -1  -4   4 2814.93 209.761  17
   1  -4  -4 3298.94 259.551   9
   1  -4  -4 3710.24 269.467   4
  -1  -4   4 2795.88 205.964  16
  -1  -4   4 3812.87 364.051   3
  -1  -4   4 2504.79 204.440  23
   1  -4  -4 3209.95 214.306   1
  -1  -4   4 3482.13 263.577  12
   1  -4  -4 3301.81 286.638  20
   1  -4  -4 3331.77 287.249  21
  -1  -4   3 3262.23 192.444  16
  -1  -4   3 3557.77 319.710   3
   1  -4  -3 3335.36 233.154   1
  -1  -4   3 2848.58 196.857  19
   1  -4  -3 3994.52 291.393  19
  -1  -4   3 3015.55 205.886  20
   1  -4  -3 3869.67 251.145   9
   1  -4  -3 3691.56 274.085  20
  -1  -4   3 3836.02 180.687   6
   1  -4  -3 4219.93 310.635  22
  -1  -4   3 2922.02 187.410  17
  -1  -4   3 3754.79 235.868  12
   1  -4  -3 3927.35 285.979  21
  -1  -4   3 3170.21 198.399  23
   1  -4  -2 19189.4 627.134   9
  -1  -4   2 18553.4 541.950  17
   1  -4  -2 19272.9 690.968  20
  -1  -4   2 18237.5 558.966  20
   1  -4  -2 19069.1 699.777   1
  -1  -4   2 18136.0 753.270   3
  -1  -4   2 20081.6 572.686  12
   1  -4  -2 18730.2 700.128  22
  -1  -4   2 18079.1 553.522  19
   1  -4  -2 19169.7 693.204  21
  -1  -4   2 17756.4 532.891  16
  -1  -4   2 19479.9 588.439   6
   1  -4  -2 18917.8 687.393  19
  -1  -4   2 19125.2 551.238  23
   1  -4  -1 44232.9 1089.80   3
   1  -4  -1 41662.8 1198.55  23
   1  -4  -1 41795.4 1124.23   9
   1  -4  -1 40199.1 1191.57  19
   1  -4  -1 39201.0 1205.82  22
   1  -4  -1 40502.4 1196.59  20
  -1  -4   1 40089.9 1248.29   3
   1  -4  -1 42268.8 1216.01  21
  -1  -4   1 43793.3 1003.07  12
   1  -4  -1 41896.0 1271.97   1
   1  -4   0 78626.7 2010.23  20
   1  -4   0 79542.9 1906.57   9
  -1  -4   0 79246.7 1731.63  21
  -1  -4   0 78422.6 1985.02   3
   1  -4   0 76468.6 2018.27  22
  -1  -4   0 76491.0 2031.08   1
  -1  -4   0 77036.5 1730.89   9
   1  -4   0 78972.5 1998.94  23
  -1  -4   0 74263.6 1765.60  12
   1  -4   0 77121.4 1969.11   3
   1  -4   0 72507.6 2045.36   1
   1  -4   0 78275.1 2003.01  19
   1  -4   0 78534.7 2017.01  21
   1  -4   1 13589.8 592.613   3
   1  -4   1 14590.5 604.797  20
   1  -4   1 15072.0 595.993  23
  -1  -4  -1 15353.5 457.571  21
   1  -4   1 15418.5 609.811  19
   1  -4   1 14871.8 583.648  17
  -1  -4  -1 14351.7 571.709   1
   1  -4   1 14890.9 614.449  21
   1  -4   1 14808.2 529.468   9
  -1  -4  -1 14213.1 426.893   9
  -1  -4  -2 2980.07 231.022   4
   1  -4   2 2803.94 236.784  16
  -1  -4  -2 2824.61 204.276   1
   1  -4   2 2802.58 264.445   3
  -1  -4  -2 2579.38 188.563  13
  -1  -4  -2 2716.64 168.702   9
   1  -4   2 2837.33 255.734  19
  -1  -4  -2 3087.58 197.298  21
   1  -4   2 2811.79 256.688  20
   1  -4   2 2698.82 235.393  17
   1  -4   2 3436.26 240.409   9
   1  -4   2 2950.77 252.581  23
  -1  -4  -3 2018.20 149.695   1
   1  -4   3 2002.65 216.486  16
   1  -4   3 1793.93 214.112  23
   1  -4   3 1867.53 222.756  19
   1  -4   3 1935.41 202.635   9
  -1  -4  -3 2258.02 198.134  21
   1  -4   3 1684.67 203.828  17
   1  -4   3 1714.30 222.626  20
   1  -4   3 1968.68 246.212   3
  -1  -4  -3 1697.47 153.388   9
  -1  -4  -3 1872.10 187.764  13
  -1  -4  -3 2216.72 194.365   4
  -1  -4  -4 3720.27 249.433   4
   1  -4   4 4296.58 406.185   3
   1  -4   4 3358.37 320.297  17
  -1  -4  -4 3280.85 249.607   9
   1  -4   4 4042.44 367.764  19
   1  -4   4 3724.53 328.274  16
  -1  -4  -4 3982.66 304.140  21
  -1  -4  -4 3883.96 313.745  13
   1  -4   4 3783.41 363.683  20
   1  -4   4 3279.35 323.285  23
  -1  -4  -4 3913.32 203.315   1
   1  -4   5 13696.0 806.449   3
   1  -4   5 11310.2 717.599  19
   1  -4   5 11870.9 709.584  23
  -1  -4  -5 14136.5 528.905   4
   1  -4   5 12939.5 710.420  16
   1  -4   5 11471.7 686.905  17
  -1  -4  -5 12024.9 584.087   9
  -1  -4  -5 12371.3 663.756  13
   1  -4   5 12257.5 757.003  20
  -1  -4  -5 14002.9 670.198  21
  -1  -3   6 3703.62 373.768  10
  -1  -3   6 3194.82 340.140  19
  -1  -3   6 3298.37 381.561   3
  -1  -3   6 3932.16 358.932  23
  -1  -3   6 4025.24 370.869  12
   1  -3  -6 3795.61 373.877  20
  -1  -3   6 3510.46 331.840  17
   1  -3  -6 3873.66 231.374   1
  -1  -3   6 3577.55 321.313  15
   1  -3  -6 4097.30 376.767  21
  -1  -3   6 3426.69 319.364  16
   1  -3  -6 3769.31 342.809   9
   1  -3  -5 14905.2 665.835   9
  -1  -3   5 13766.9 651.296  23
  -1  -3   5 17001.3 748.149  10
   1  -3  -5 15032.1 500.277   1
   1  -3  -5 16969.0 758.030  20
  -1  -3   5 15487.2 698.288  12
  -1  -3   5 13487.6 670.478  19
  -1  -3   5 14633.9 639.203  16
  -1  -3   5 13204.5 612.559  15
   1  -3  -5 14979.5 522.187   4
  -1  -3   5 14527.0 776.021   3
  -1  -3   5 13643.2 632.121  17
   1  -3  -5 15196.8 715.802  21
   1  -3  -4 5872.04 377.128  20
  -1  -3   4 5490.42 338.932  12
  -1  -3   4 4650.54 384.172   3
  -1  -3   4 4905.39 301.003  17
   1  -3  -4 5161.98 287.557   4
   1  -3  -4 5028.46 349.633  21
   1  -3  -4 5811.62 339.380   9
  -1  -3   4 5710.35 253.130   6
  -1  -3   4 4656.12 301.804  23
  -1  -3   4 4836.43 319.014  19
  -1  -3   4 4778.32 293.575  16
   1  -3  -4 5226.13 251.511   1
  -1  -3   4 5031.31 297.346  15
   1  -3  -3 82053.2 2086.45   1
  -1  -3   3 89939.0 2021.27   6
  -1  -3   3 80172.7 2305.14   3
  -1  -3   3 82467.7 2077.71  16
  -1  -3   3 83049.6 2075.33  15
   1  -3  -3 88069.8 2227.79  20
  -1  -3   3 88435.6 2149.79  12
   1  -3  -3 92715.0 2171.82   9
  -1  -3   3 81895.7 2085.95  17
  -1  -3   3 82346.4 2121.16  19
   1  -3  -3 87174.5 2234.36  21
   1  -3  -3 91769.2 2289.69  22
  -1  -3   3 83694.3 2103.73  23
   1  -3  -2 49136.3 1245.98   9
  -1  -3   2 46618.7 1159.66  17
  -1  -3   2 45448.5 1155.19  16
   1  -3  -2 45785.3 1308.61  21
   1  -3  -2 47726.7 1281.20   1
  -1  -3   2 48118.1 1207.67  12
   1  -3  -2 47928.2 1333.83  22
  -1  -3   2 45939.7 1166.00  23
  -1  -3   2 46576.4 1378.52   3
   1  -3  -2 48014.3 1311.86  19
  -1  -3   2 46611.9 1180.25  19
  -1  -3   2 48490.1 1184.37   6
   1  -3  -2 46817.4 1309.12  20
   1  -3  -1 22771.5 742.420   1
  -1  -3   1 20991.2 738.147   3
   1  -3  -1 22759.9 656.771   9
   1  -3  -1 22665.0 711.730  23
  -1  -3   1 23373.5 599.499  12
   1  -3  -1 22276.9 714.784  20
   1  -3  -1 21190.8 712.292  21
   1  -3  -1 22157.1 708.767  19
   1  -3  -1 23594.9 608.222   3
   1  -3  -1 21444.6 719.328  22
   1  -3   0 55004.2 1505.53  19
   1  -3   0 56061.1 1438.62   9
   1  -3   0 55464.8 1538.18   1
   1  -3   0 56159.8 1477.03   3
  -1  -3   0 57234.6 1295.49   9
   1  -3   0 56264.5 1503.28  23
  -1  -3   0 54842.8 1502.91   1
   1  -3   0 57692.6 1520.29  20
  -1  -3   0 56698.7 1300.57  13
   1  -3   0 54521.6 1513.62  21
  -1  -3   0 62518.7 1299.57  21
   1  -3   0 55092.0 1492.70  17
   1  -3   1 4679.31 292.967  20
   1  -3   1 5112.33 298.435  19
   1  -3   1 5155.84 257.860   9
  -1  -3  -1 5292.44 278.284   4
   1  -3   1 5447.91 299.271  23
   1  -3   1 5028.72 285.407  17
  -1  -3  -1 5635.22 273.805   1
  -1  -3  -1 5657.53 216.739  21
   1  -3   1 4905.91 297.585   3
  -1  -3  -1 4944.12 200.213   9
  -1  -3  -1 4428.62 205.296  13
   1  -3   1 5459.07 317.056  21
   1  -3   2 23900.4 813.220  17
  -1  -3  -2 20505.3 697.724  13
  -1  -3  -2 22822.3 730.915   4
   1  -3   2 22532.8 842.314   3
   1  -3   2 24242.1 847.612  19
   1  -3   2 23037.6 793.820  16
  -1  -3  -2 23911.5 683.396   9
   1  -3   2 23370.1 765.506   9
  -1  -3  -2 24057.3 711.686  21
  -1  -3  -2 22252.1 665.632   1
   1  -3   2 23824.4 853.611  20
   1  -3   2 23164.8 819.803  23
   1  -3   3 59296.8 1711.92  17
   1  -3   3 59486.7 1774.78  20
   1  -3   3 60021.8 1737.07  23
  -1  -3  -3 57756.9 1420.45   1
   1  -3   3 59863.2 1772.28   3
  -1  -3  -3 57862.7 1543.76   9
  -1  -3  -3 61671.0 1597.67  21
   1  -3   3 59798.1 1760.45  19
  -1  -3  -3 57127.7 1510.30   4
  -1  -3  -3 54497.9 1592.19  13
   1  -3   3 58562.2 1691.39  16
   1  -3   4 38795.5 1396.68  20
  -1  -3  -4 35859.5 1149.79   9
   1  -3   4 36938.4 1325.20  23
  -1  -3  -4 35592.4 1212.28  13
  -1  -3  -4 38379.2 970.709   1
   1  -3   4 38057.3 1316.78  17
   1  -3   4 34893.1 1267.37  16
   1  -3   4 37966.6 1351.77   3
  -1  -3  -4 38395.5 1205.20  21
  -1  -3  -4 37424.2 1043.31   4
   1  -3   4 39449.5 1384.35  19
   1  -3   5 790.370 166.588  16
   1  -3   5 774.429 195.558  20
   1  -3   5 674.822 172.614  19
   1  -3   5 744.555 173.614  17
  -1  -3  -5 780.619 152.767  21
   1  -3   5 666.978 173.352   3
  -1  -3  -5 535.394 120.169   9
  -1  -3  -5 694.091 93.4023   4
  -1  -3  -5 553.496 134.774  13
   1  -3   5 1045.68 204.753  23
   1  -3   6 9121.49 660.407   3
   1  -3   6 9258.38 653.269  16
  -1  -3  -6 9208.73 586.810  21
  -1  -3  -6 8316.41 546.119   9
  -1  -3  -6 9386.07 398.896   4
   1  -3   6 8828.37 651.446  17
   1  -3   6 8754.03 663.840  23
  -1  -3  -6 9027.10 609.798  13
   1  -3   6 7769.39 663.245  20
   1  -3   6 9248.60 704.974  19
  -1  -2   7 687.319 172.728  15
  -1  -2   7 775.338 205.988  10
  -1  -2   7 857.678 205.378  19
  -1  -2   7 651.065 160.983  16
   1  -2  -7 517.153 151.228  21
   1  -2  -7 836.220 181.673   9
  -1  -2   7 732.667 187.969   3
   1  -2  -7 587.732 166.335  13
  -1  -2   7 1046.43 219.093  23
  -1  -2   7 760.841 184.098  17
  -1  -2   7 635.202 166.976  12
  -1  -2   6 9717.14 600.692  12
  -1  -2   6 9834.72 579.611  16
   1  -2  -6 10455.0 413.445   1
   1  -2  -6 9369.33 573.743  21
  -1  -2   6 9701.03 569.463  15
   1  -2  -6 9720.11 561.789   9
  -1  -2   6 10114.0 615.228  23
  -1  -2   6 8720.62 601.623  19
  -1  -2   6 9518.91 618.063  10
  -1  -2   6 9047.21 610.603   3
  -1  -2   6 9543.77 582.189  17
   1  -2  -5 313.732 97.6858  20
  -1  -2   5 296.069 70.9267   6
   1  -2  -5 532.355 116.587   9
   1  -2  -5 445.792 66.1510   1
  -1  -2   5 379.042 115.521   3
  -1  -2   5 338.409 96.3118  12
   1  -2  -5 287.031 98.7689  21
  -1  -2   5 336.903 104.427  19
   1  -2  -5 364.533 55.0618   4
  -1  -2   5 303.527 93.4198  17
  -1  -2   5 414.489 103.519  15
  -1  -2   5 391.026 99.1314  16
  -1  -2   5 339.957 111.805  23
  -1  -2   5 526.667 134.042  10
  -1  -2   4 13932.6 566.023  17
  -1  -2   4 13537.2 573.839  23
   1  -2  -4 13661.0 553.294   9
  -1  -2   4 12910.7 544.579  16
  -1  -2   4 13750.6 552.675  15
  -1  -2   4 12904.2 569.346  12
   1  -2  -4 13428.2 590.584  20
  -1  -2   4 13374.2 648.184   3
   1  -2  -4 12833.5 584.318  21
  -1  -2   4 13130.6 587.090  19
   1  -2  -4 13792.2 436.870   1
  -1  -2   4 14005.5 597.560  10
   1  -2  -4 13176.7 445.744   4
  -1  -2   4 13647.6 467.640   6
  -1  -2   3 6216.37 382.875   3
  -1  -2   3 6554.27 259.056   6
  -1  -2   3 7299.49 332.157  23
  -1  -2   3 7113.20 313.781  16
   1  -2  -3 6785.83 356.537  20
   1  -2  -3 6364.61 347.605  21
  -1  -2   3 6979.15 310.586  15
  -1  -2   3 7073.03 339.316  12
   1  -2  -3 6574.98 292.530   4
   1  -2  -3 6536.14 259.567   1
  -1  -2   3 6824.80 315.117  17
   1  -2  -3 6864.45 324.709   9
  -1  -2   3 7467.55 349.683  19
  -1  -2   2 71938.5 1663.39  19
   1  -2  -2 61667.1 1641.13   1
  -1  -2   2 69267.6 1627.72  16
  -1  -2   2 65534.5 1786.10   3
   1  -2  -2 69843.6 1679.26   9
   1  -2  -2 66430.6 1745.19  21
   1  -2  -2 68366.7 1765.37  22
  -1  -2   2 71527.1 1635.25  17
  -1  -2   2 71716.6 1647.73  23
   1  -2  -2 70546.4 1754.58  19
  -1  -2   2 66130.2 1620.44   6
  -1  -2   2 68934.7 1623.58  15
  -1  -2   2 67140.2 1674.69  12
   1  -2  -2 65339.4 1735.30  20
  -1  -2   1 80646.0 1772.26  16
   1  -2  -1 75958.2 1873.28   9
  -1  -2   1 68892.9 1869.85   6
  -1  -2   1 80952.2 1772.02  15
   1  -2  -1 72998.7 1921.98  23
  -1  -2   1 82175.8 1783.01  10
   1  -2  -1 73752.0 1911.18   1
  -1  -2   1 81914.5 1782.01  19
  -1  -2   1 81893.6 1774.53  17
   1  -2  -1 71471.6 1921.47  19
   1  -2  -1 72022.3 1932.67  22
  -1  -2   1 77237.7 1851.82  12
   1  -2  -1 71181.8 1926.16  21
  -1  -2   1 81963.0 1777.72  23
   1  -2  -1 71544.3 1924.14  20
   1  -2  -1 83039.7 1815.58   3
   1  -2   0 129267. 3047.00  17
   1  -2   0 127800. 3069.04  20
  -1  -2   0 139090. 2887.02   9
  -1  -2   0 139115. 2891.79  13
   1  -2   0 132935. 3028.59   3
  -1  -2   0 128955. 3019.91   1
   1  -2   0 127514. 3073.32  21
   1  -2   0 129438. 3063.32  19
   1  -2   0 135366. 3006.47   9
   1  -2   0 128924. 3054.43  23
   1  -2   0 128269. 3057.40   1
   1  -2   1 44158.3 1205.15  20
   1  -2   1 44354.9 1197.33  19
   1  -2   1 42942.5 1190.32   3
   1  -2   1 43314.3 1163.26  16
   1  -2   1 43370.1 1171.22  17
  -1  -2  -1 41454.8 1104.92   4
  -1  -2  -1 44367.8 1066.69  21
  -1  -2  -1 42643.2 1072.64   1
   1  -2   1 44746.9 1186.47  23
   1  -2   1 44470.3 1134.03   9
  -1  -2  -1 40478.4 1068.59  13
   1  -2   2 32225.3 971.770   9
  -1  -2  -2 31987.5 823.326   1
   1  -2   2 35596.6 1031.53  17
   1  -2   2 35423.4 1023.32  16
  -1  -2  -2 32888.4 890.843   4
   1  -2   2 35520.1 1065.57  19
   1  -2   2 34038.3 1068.39  20
   1  -2   2 35353.7 1044.02  23
  -1  -2  -2 31024.1 929.874  13
   1  -2   2 32738.0 1042.39   3
  -1  -2  -2 34067.1 929.815  21
   1  -2   3 2035.15 230.036  20
   1  -2   3 2270.36 229.910  23
   1  -2   3 1859.83 197.849  16
   1  -2   3 2042.34 211.605  17
   1  -2   3 1562.54 201.148  19
  -1  -2  -3 2148.22 140.998   4
   1  -2   3 1903.26 215.448   3
  -1  -2  -3 2045.70 178.634  21
  -1  -2  -3 2065.01 108.739   1
  -1  -2  -3 1975.90 184.862  13
  -1  -2  -4 12933.0 399.842   1
  -1  -2  -4 12455.6 554.464   9
   1  -2   4 12985.6 694.839  20
  -1  -2  -4 11804.8 575.932  13
   1  -2   4 11790.4 656.350  19
   1  -2   4 11560.1 629.770  23
   1  -2   4 12535.0 625.925  16
  -1  -2  -4 12711.2 572.274  21
   1  -2   4 12366.5 634.181  17
  -1  -2  -4 12378.5 427.139   4
   1  -2   4 12575.8 642.534   3
   1  -2   5 9129.01 628.708  19
   1  -2   5 8770.69 582.756  17
   1  -2   5 9129.21 606.587  23
  -1  -2  -5 8903.35 510.894   9
  -1  -2  -5 9701.09 370.086   4
   1  -2   5 9160.29 641.663  20
  -1  -2  -5 8945.18 519.422  21
   1  -2   5 8991.62 580.624  16
  -1  -2  -5 9178.80 549.168  13
   1  -2   5 8708.97 574.410   3
   1  -2   6 6332.86 512.476   3
   1  -2   6 7127.30 619.139  20
  -1  -2  -6 6608.28 484.070   9
  -1  -2  -6 7537.22 512.631  21
  -1  -2  -6 7088.17 330.372   4
   1  -2   6 6515.06 545.930  17
  -1  -2  -6 6847.99 517.990  13
   1  -2   6 6866.85 551.130  16
   1  -2   6 6520.92 578.029  19
   1  -2   6 7004.35 581.071  23
  -1  -1   7 4259.17 431.433  23
   1  -1  -7 3675.53 392.269  13
   1  -1  -7 4233.30 386.951   9
  -1  -1   7 4483.01 467.515  10
  -1  -1   7 3927.15 401.409  16
   1  -1  -7 3931.66 386.975  21
  -1  -1   7 3600.59 418.898  19
  -1  -1   7 3858.75 400.839  17
  -1  -1   7 4008.93 415.532  12
  -1  -1   7 3639.18 380.234  15
  -1  -1   6 3284.39 263.716   6
  -1  -1   6 3256.97 339.957  23
  -1  -1   6 2721.54 326.430  19
  -1  -1   6 2996.12 317.739   3
  -1  -1   6 3645.92 359.101  12
  -1  -1   6 3357.11 323.169  16
  -1  -1   6 3878.99 382.750  10
  -1  -1   6 3666.81 334.930  15
  -1  -1   6 3385.61 337.048  17
   1  -1  -6 3365.44 304.269   9
   1  -1  -6 2697.07 298.313  13
   1  -1  -6 3376.07 320.725  21
  -1  -1   5 6081.41 432.297  19
  -1  -1   5 6683.31 419.365  17
  -1  -1   5 6277.00 424.511  12
   1  -1  -5 7083.11 439.552  20
   1  -1  -5 6839.18 291.343   1
  -1  -1   5 6655.55 446.544  10
  -1  -1   5 7427.13 425.811  15
   1  -1  -5 7033.57 238.615   4
  -1  -1   5 6405.84 341.566   6
  -1  -1   5 6024.04 411.205  23
   1  -1  -5 6711.52 392.407   9
  -1  -1   5 6090.67 423.189   3
  -1  -1   5 6685.74 409.829  16
   1  -1  -5 6711.57 418.468  21
  -1  -1   4 8628.02 406.293  16
   1  -1  -4 7988.31 244.095   7
  -1  -1   4 7995.89 416.622  23
  -1  -1   4 7754.00 442.584   3
   1  -1  -4 7961.22 415.023  21
   1  -1  -4 8179.10 264.285   4
   1  -1  -4 8421.33 395.455   9
  -1  -1   4 8198.38 400.359  15
  -1  -1   4 7748.12 337.731   6
  -1  -1   4 8080.46 404.032  17
   1  -1  -4 8334.79 291.772   1
  -1  -1   4 7605.67 418.229  12
  -1  -1   4 8372.40 438.524  10
   1  -1  -4 7902.69 338.941   5
   1  -1  -4 8424.96 430.921  20
  -1  -1   3 102795. 2545.28  12
  -1  -1   3 101957. 2479.13  14
  -1  -1   3 106307. 2507.61  17
   1  -1  -3 102067. 2548.24  20
  -1  -1   3 105423. 2553.09  10
   1  -1  -3 108264. 2403.69   5
   1  -1  -3 100101. 2372.95   4
   1  -1  -3 100036. 2485.33   9
   1  -1  -3 108678. 2382.64   1
  -1  -1   3 98603.2 2420.26   6
  -1  -1   3 105603. 2498.60  15
  -1  -1   3 106027. 2496.55  16
   1  -1  -3 99922.8 2548.63  21
  -1  -1   3 99820.9 2594.32   3
  -1  -1   3 108427. 2531.62  23
  -1  -1   2 308870. 6918.11   6
  -1  -1   2 312473. 6938.38  15
  -1  -1   2 326983. 6965.40  23
  -1  -1   2 300440. 7057.23   3
  -1  -1   2 318242. 6941.04  16
  -1  -1   2 310769. 6933.12  14
   1  -1  -2 312561. 6964.56   9
  -1  -1   2 321134. 6949.10  17
   1  -1  -2 310218. 7024.24  20
   1  -1  -2 315084. 7047.08  22
   1  -1  -2 316466. 7030.44  19
   1  -1  -2 305698. 7024.11  21
  -1  -1   2 313050. 7000.14  12
  -1  -1   2 319317. 6981.28  10
  -1  -1   1 7809.77 219.113  17
   1  -1  -1 7204.03 286.687  19
  -1  -1   1 7818.74 240.450  10
   1  -1  -1 7133.67 283.166  23
   1  -1  -1 7150.47 289.849  21
   1  -1  -1 7055.59 242.944   1
   1  -1  -1 7324.20 293.720  22
  -1  -1   1 7643.64 213.623  13
  -1  -1   1 7759.20 217.066  16
   1  -1  -1 7458.11 256.096   9
  -1  -1   1 7827.78 215.910  14
  -1  -1   1 7474.20 260.666   6
  -1  -1   1 7702.57 216.166  15
  -1  -1   1 7583.83 267.266  12
   1  -1  -1 7121.15 287.977  20
  -1  -1   0 255515. 5570.19  14
   1  -1   0 247637. 5629.98   3
  -1  -1   0 267332. 5590.16  10
   1  -1   0 253396. 5677.25  19
   1  -1   0 252555. 5685.81  21
   1  -1   0 250943. 5627.54   1
   1  -1   0 262671. 5633.37   9
  -1  -1   0 268340. 5569.87  13
   1  -1   0 250311. 5661.73  17
   1  -1   0 250553. 5667.43  23
  -1  -1   0 238631. 5589.88   4
   1  -1   0 253513. 5681.61  20
  -1  -1  -1 8188.20 270.348  21
   1  -1   1 7564.71 306.874  16
   1  -1   1 7279.42 287.770   9
  -1  -1  -1 7096.83 202.582   1
   1  -1   1 7372.64 328.021  20
  -1  -1  -1 7264.13 269.880  13
   1  -1   1 7252.32 311.086   3
  -1  -1  -1 7403.30 243.369   4
   1  -1   1 7765.19 319.995  23
   1  -1   1 7480.91 311.627  17
   1  -1   1 7688.57 328.083  19
  -1  -1  -2 19579.6 649.650  13
   1  -1   2 20846.6 711.421  23
  -1  -1  -2 22269.5 521.192   1
   1  -1   2 19940.8 678.410  15
  -1  -1  -2 21080.1 564.083   4
   1  -1   2 19409.2 663.953   9
   1  -1   2 21460.1 698.571  16
   1  -1   2 19271.4 687.072   3
   1  -1   2 21473.5 733.760  19
   1  -1   2 20750.3 701.126  17
  -1  -1  -2 21114.4 641.713  21
  -1  -1  -3 88999.8 2016.07   4
   1  -1   3 84494.4 2241.62  16
   1  -1   3 85402.8 2258.97  17
   1  -1   3 82090.7 2237.38   3
   1  -1   3 84536.0 2274.13  23
  -1  -1  -3 89818.1 1986.93   1
   1  -1   3 82194.2 2225.57  15
  -1  -1  -3 84302.7 2164.81  21
   1  -1   3 86980.7 2317.33  19
  -1  -1  -3 80372.7 2184.88  13
   1  -1   4 106538. 2865.47  23
  -1  -1  -4 98650.7 2742.32  13
   1  -1   4 107292. 2840.37  17
   1  -1   4 105850. 2903.35  19
  -1  -1  -4 108918. 2743.04  21
   1  -1   4 105750. 2816.32  16
   1  -1   4 105512. 2802.81  15
   1  -1   4 102933. 2797.56   3
  -1  -1  -4 113553. 2512.12   4
  -1  -1  -5 194.810 82.7615   9
  -1  -1  -5 188.254 47.1212   4
   1  -1   5 167.059 89.6895   3
   1  -1   5 192.380 103.330  17
   1  -1   5 201.606 93.6333  19
   1  -1   5 420.429 128.861  15
  -1  -1  -5 138.725 73.3557  13
   1  -1   5 128.945 70.9642  23
   1  -1   5 144.037 93.2664  16
  -1  -1  -5 425.207 116.598  21
  -1  -1  -6 21066.0 971.638  13
  -1  -1  -6 23526.0 980.630  21
   1  -1   6 22742.6 1063.44  17
   1  -1   6 22253.3 1084.76  23
   1  -1   6 20271.1 935.019   3
   1  -1   6 21291.7 1099.52  19
   1  -1   6 22781.4 1053.01  16
  -1  -1  -6 22876.1 969.285   9
   1   0  -7 376.101 135.533  13
  -1   0   7 279.710 121.144  10
   1   0  -7 274.763 106.881  21
  -1   0   7 477.558 165.772  17
  -1   0   7 319.414 118.435  16
  -1   0   7 101.697 86.9849  15
   1   0  -7 154.668 87.2226   9
  -1   0   7 385.794 136.868  12
  -1   0   7 236.260 120.643  19
  -1   0   7 1.33724 61.6596  23
  -1   0   6 1896.69 243.268  16
  -1   0   6 1991.48 262.246  23
   1   0  -6 1852.36 219.320   9
  -1   0   6 1804.33 237.516  15
  -1   0   6 2138.81 259.541  17
   1   0  -6 2194.64 257.457  21
  -1   0   6 2264.28 293.952  10
  -1   0   6 1829.07 202.772   6
  -1   0   6 2230.05 287.384  19
  -1   0   6 2070.24 234.832   3
  -1   0   6 2335.43 283.468  12
   1   0  -6 1532.47 226.354  13
  -1   0   5 4352.67 285.064   6
   1   0  -5 4948.26 335.568  21
   1   0  -5 4264.07 297.821   9
  -1   0   5 4548.80 336.676  17
  -1   0   5 3915.40 344.242  10
   1   0  -5 4428.12 311.228   5
  -1   0   5 4542.85 348.321  23
  -1   0   5 4937.61 366.519  12
  -1   0   5 4456.19 326.415   3
  -1   0   5 4878.42 339.672  16
  -1   0   5 5179.51 349.898  15
  -1   0   4 30661.2 980.554  17
  -1   0   4 31890.1 1049.88  10
  -1   0   4 28793.2 899.200   6
   1   0  -4 29905.3 973.322  21
   1   0  -4 32277.1 961.060   5
  -1   0   4 30557.8 969.063  16
   1   0  -4 30889.7 941.588   9
   1   0  -4 31481.6 839.374   1
   1   0  -4 32634.0 761.620   4
  -1   0   4 31606.5 1011.31  23
  -1   0   4 30441.0 970.076  15
   1   0  -4 33125.3 1012.13  20
  -1   0   4 30430.8 993.174   3
  -1   0   4 30582.1 958.572  14
   1   0  -4 32892.7 823.480   7
  -1   0   4 30877.9 1028.10  12
  -1   0   3 2499.23 174.334  16
  -1   0   3 2757.95 187.006  17
  -1   0   3 2631.58 179.108  15
   1   0  -3 2593.29 119.914   7
  -1   0   3 2623.38 202.906  10
   1   0  -3 2750.18 192.650  21
  -1   0   3 2573.29 173.963  14
  -1   0   3 2707.67 195.791   3
   1   0  -3 2501.80 168.116   5
  -1   0   3 3158.55 217.756  12
   1   0  -3 3031.05 200.538  20
  -1   0   3 2723.35 193.073  23
  -1   0   3 2625.89 158.759   6
   1   0  -3 2901.74 94.8120   4
   1   0  -3 2660.27 170.579   9
   1   0  -3 2621.77 128.551   1
   1   0  -2 89943.4 2193.10  20
  -1   0   2 94132.0 2219.44  12
   1   0  -2 90979.3 2151.43   9
   1   0  -2 89611.7 2198.14  21
   1   0  -2 91845.8 2150.53   5
   1   0  -2 93638.1 2040.61   4
  -1   0   2 94284.3 2167.70  16
   1   0  -2 95655.4 2226.02  22
   1   0  -2 92085.4 2072.51   7
  -1   0   2 92749.3 2163.04  15
   1   0  -2 94825.3 2087.17   1
  -1   0   2 94364.4 2160.18  14
  -1   0   2 93554.1 2221.13  10
  -1   0   2 90265.0 2139.40   6
  -1   0   2 90159.2 2173.82  17
  -1   0   1 16103.9 419.872  14
   1   0  -1 15246.5 447.088  20
   1   0  -1 15013.9 451.401  22
  -1   0   1 15544.3 423.804   6
  -1   0   1 15939.7 418.146  13
   1   0  -1 15690.3 447.821  23
  -1   0   1 15355.2 453.540  10
   1   0  -1 15145.9 377.417   7
   1   0  -1 16428.3 415.412   5
  -1   0   1 15895.5 423.107  16
   1   0  -1 15822.6 418.230   9
   1   0  -1 15074.9 448.517  21
  -1   0   1 15919.1 420.820  15
   1   0  -1 15172.7 445.672  19
  -1   0   1 14942.9 452.293  12
   1   0  -1 15712.9 375.847   1
   1   0  -1 15832.3 380.112   2
   1   0  -1 16872.6 424.284  18
  -1   0   0 26014.5 698.810  10
  -1   0   0 28180.9 676.276  14
   1   0   0 26283.2 691.046  17
   1   0   0 26583.6 701.784  19
  -1   0   0 28662.3 673.260  13
   1   0   0 26279.4 686.765  16
   1   0   0 27993.2 682.170   3
   1   0   0 27195.6 697.796  23
   1   0   0 27133.3 672.062   9
  -1   0   0 27248.5 628.145   4
   1   0   0 26634.7 706.817  20
   1   0   1 198426. 4537.95   3
   1   0   1 198942. 4564.13  17
   1   0   1 200915. 4590.42  19
  -1   0  -1 206463. 4582.19  10
   1   0   1 200118. 4548.97  15
  -1   0  -1 209654. 4534.11  21
   1   0   1 202319. 4575.26  23
  -1   0  -1 204055. 4450.70   4
   1   0   1 197955. 4409.19   7
  -1   0  -1 199420. 4534.66  13
   1   0   1 204941. 4556.31  16
   1   0   1 193310. 4538.24   9
   1   0   2 70431.8 1812.69  23
   1   0   2 69795.8 1799.25  17
   1   0   2 68732.0 1779.30  15
   1   0   2 69662.3 1835.09  19
   1   0   2 68921.6 1765.65   3
  -1   0  -2 69850.6 1751.11  21
   1   0   2 70661.5 1788.62  16
  -1   0  -2 67627.3 1765.79  13
  -1   0  -2 74693.2 1636.91   4
   1   0   3 2550.27 216.076  17
   1   0   3 2538.21 202.605   3
   1   0   3 2763.27 231.993  23
   1   0   3 2705.13 216.292  15
   1   0   3 2823.70 222.846  16
  -1   0  -3 2544.08 132.191   4
   1   0   3 2371.16 223.697  19
  -1   0  -3 2339.19 200.442  13
  -1   0  -3 2781.68 203.980  21
   1   0   4 17450.1 731.844  17
   1   0   4 16814.0 764.224  19
   1   0   4 16081.0 696.097  15
  -1   0  -4 16984.3 670.798  21
   1   0   4 17026.0 676.236   3
  -1   0  -4 17471.6 524.072   4
   1   0   4 18087.2 760.581  23
   1   0   4 17202.4 717.733  16
  -1   0  -4 16676.8 693.418  13
   1   0   5 2277.59 238.321   3
   1   0   5 2373.99 268.309  15
   1   0   5 1971.76 248.326  17
  -1   0  -5 2030.65 155.850   4
   1   0   5 1805.85 246.899  23
   1   0   5 1826.67 238.984  16
  -1   0  -5 1862.92 218.015  21
   1   0   5 2267.90 289.160  19
  -1   0  -5 2329.48 256.634  13
  -1   0  -6 5237.64 436.670  13
  -1   0  -6 5953.83 439.342   9
   1   0   6 4890.52 452.290  17
   1   0   6 4987.20 447.277  16
   1   0   6 5749.91 501.118  23
  -1   0  -6 5540.70 431.169  21
   1   0   6 5376.36 462.341  15
   1   0   6 4799.23 478.975  19
   1   0   6 6168.26 334.041   2
   1   1  -7 3847.90 350.264   9
  -1   1   7 3316.01 364.314  15
  -1   1   7 3854.98 389.553  16
  -1   1   7 4008.84 448.927  10
   1   1  -7 4275.86 403.306  13
   1   1  -7 4168.78 379.186  21
  -1   1   7 3623.34 385.476  17
  -1   1   7 3330.82 380.086  12
   1   1  -7 4078.36 369.718  18
  -1   1   7 4449.05 464.844  19
  -1   1   7 3411.53 390.374  23
  -1   1   6 3516.83 349.197  12
  -1   1   6 3528.66 366.122  19
   1   1  -6 3324.54 319.552   5
  -1   1   6 3731.67 340.438  17
   1   1  -6 3196.73 283.119   9
  -1   1   6 3227.57 312.954  16
  -1   1   6 3079.95 307.561  15
  -1   1   6 3493.31 368.640  10
   1   1  -6 3078.16 288.369  18
   1   1  -6 2954.60 290.502  21
   1   1  -6 3265.83 318.753  13
  -1   1   6 3273.04 334.292  23
  -1   1   5 6734.25 402.842  15
  -1   1   5 6299.32 399.831  17
  -1   1   5 6544.59 449.376  10
   1   1  -5 6099.93 404.691   5
   1   1  -5 5704.94 379.640  13
   1   1  -5 6342.68 370.820  18
  -1   1   5 6177.52 342.352   3
  -1   1   5 6374.91 383.288  14
  -1   1   5 6472.98 398.966  16
   1   1  -5 5636.68 365.591  21
  -1   1   5 6944.66 432.371  23
   1   1  -5 6321.08 361.199   9
  -1   1   5 5818.06 347.849   6
  -1   1   5 6287.57 421.137  12
  -1   1   4 8350.47 426.127  23
   1   1  -4 8080.01 368.006   9
  -1   1   4 8694.12 269.181   2
  -1   1   4 9016.63 424.075  17
   1   1  -4 8016.47 387.741  21
   1   1  -4 7953.49 421.513   5
  -1   1   4 8112.01 399.207  16
  -1   1   4 8275.81 434.683  12
  -1   1   4 7903.83 395.113  15
  -1   1   4 8460.08 397.652  14
  -1   1   4 8636.01 348.956   8
   1   1  -4 8078.88 281.216   4
  -1   1   4 7923.58 370.466   6
   1   1  -4 7916.13 379.067  18
  -1   1   4 7753.29 360.754   3
  -1   1   4 8045.67 448.273  10
   1   1  -3 95048.0 2397.78   7
  -1   1   3 99940.7 2445.84   6
  -1   1   3 100804. 2432.95   3
  -1   1   3 102898. 2479.59  15
  -1   1   3 106285. 2537.01  12
  -1   1   3 102764. 2481.39  16
   1   1  -3 106003. 2332.38   4
   1   1  -3 109636. 2496.09  20
  -1   1   3 105483. 2314.14   2
  -1   1   3 103785. 2496.04  17
  -1   1   3 103422. 2472.38  14
   1   1  -3 99421.1 2528.10   5
   1   1  -3 99250.1 2425.32   9
   1   1  -3 102733. 2469.41  18
  -1   1   3 100232. 2558.88  10
   1   1  -3 98446.0 2459.76  21
  -1   1   3 105376. 2522.00  23
  -1   1   2 313605. 7053.68  12
  -1   1   2 317577. 7024.54  16
  -1   1   2 317081. 7033.04  17
   1   1  -2 300893. 6965.09   9
  -1   1   2 313402. 7011.96  13
  -1   1   2 315536. 7021.95  15
   1   1  -2 315177. 7072.89   5
  -1   1   2 306706. 6898.11   2
   1   1  -2 312659. 7001.27  20
  -1   1   2 305490. 6993.17   6
  -1   1   2 315412. 7015.69  14
  -1   1   2 306909. 7092.73  10
   1   1  -2 315156. 6989.73   7
   1   1  -2 321513. 7051.80  18
   1   1  -2 301372. 6997.80  21
  -1   1   1 7876.77 270.295  12
   1   1  -1 7847.06 283.805  18
  -1   1   1 7742.28 263.625  16
   1   1  -1 7324.07 260.472   2
  -1   1   1 7810.16 258.740  13
  -1   1   1 7499.33 256.656  14
   1   1  -1 7567.62 289.236   5
   1   1  -1 7071.91 225.769  21
  -1   1   1 7397.57 258.079  15
   1   1  -1 7528.56 231.617  22
   1   1  -1 7433.89 228.303  19
  -1   1   1 7794.39 239.092   6
   1   1  -1 7979.39 216.041   9
   1   1  -1 7921.36 260.071   7
  -1   1   1 7694.88 298.664  10
   1   1  -1 7116.14 225.842  20
   1   1   0 249757. 5571.32  20
  -1   1   0 245942. 5652.76  10
   1   1   0 249990. 5554.82  16
   1   1   0 270255. 5633.66  11
   1   1   0 250448. 5547.61   9
  -1   1   0 258559. 5612.62  15
   1   1   0 256594. 5562.46  23
  -1   1   0 253536. 5604.67   4
  -1   1   0 258058. 5548.60   6
  -1   1   0 266004. 5606.40  13
   1   1   0 250539. 5567.76  19
   1   1   0 252022. 5557.40  17
   1   1   0 249052. 5586.80   7
   1   1   0 260067. 5610.47   2
  -1   1   0 264460. 5611.39  14
   1   1   1 7582.69 279.167  17
   1   1   1 7312.49 278.805  11
   1   1   1 7725.43 254.420   2
   1   1   1 8008.08 261.137   3
   1   1   1 7392.45 292.427  19
   1   1   1 7559.01 273.647  15
   1   1   1 7724.59 287.460  23
  -1   1  -1 7162.05 248.264   4
  -1   1  -1 7254.53 285.380  14
  -1   1  -1 7672.91 287.136  13
  -1   1  -1 7006.81 308.963  10
   1   1   1 7353.23 274.023  16
   1   1   2 20843.8 602.304   3
   1   1   2 20729.2 639.922  11
   1   1   2 19968.2 675.659  19
   1   1   2 20995.7 563.741   2
  -1   1  -2 19270.7 557.003   4
  -1   1  -2 20707.7 514.077   8
  -1   1  -2 20390.8 688.738  10
   1   1   2 19467.0 637.098  16
  -1   1  -2 21853.8 645.674  21
   1   1   2 19388.1 655.530  23
   1   1   2 20741.0 654.451  17
   1   1   2 20119.9 640.127  15
  -1   1  -2 20527.7 647.522  13
   1   1   3 82935.7 2018.88   3
   1   1   3 83666.1 1941.82   2
   1   1   3 80056.9 2123.33  23
   1   1   3 78939.2 2084.98  16
  -1   1  -3 81595.2 2093.89  13
   1   1   3 82235.9 2095.12  15
  -1   1  -3 77581.6 1934.13   4
   1   1   3 80521.3 2103.73  17
  -1   1  -3 86934.7 2087.48  21
   1   1   3 80371.2 2153.74  19
   1   1   4 99494.3 2651.20  16
   1   1   4 105571. 2447.91   2
   1   1   4 101867. 2745.74  19
   1   1   4 99651.1 2663.11  17
   1   1   4 102310. 2546.31   3
   1   1   4 100676. 2651.63  15
  -1   1  -4 98486.2 2436.63   4
   1   1   4 103110. 2708.31  23
  -1   1  -4 106989. 2627.27  21
  -1   1  -4 100467. 2637.39  13
   1   1   5 554.885 134.499  15
   1   1   5 269.452 105.462  19
  -1   1  -5 309.140 72.4446   4
   1   1   5 266.829 107.988  17
   1   1   5 249.774 64.6483   2
   1   1   5 136.823 82.3735  10
   1   1   5 182.134 92.4139  16
   1   1   5 251.912 111.254  23
  -1   1  -5 107.254 67.7082  13
  -1   1  -5 233.497 92.2588  21
   1   1   6 20277.6 984.245  17
   1   1   6 21114.5 1059.96  19
   1   1   6 22216.4 1090.62  10
   1   1   6 21004.0 984.967  16
  -1   1  -6 19989.7 999.651   5
   1   1   6 21520.6 1032.46  23
   1   1   6 21242.1 980.773  15
   1   1   6 22371.4 970.143  11
  -1   1  -6 21169.1 945.868  13
   1   2  -7 538.851 135.625   9
  -1   2   7 562.518 151.938  17
  -1   2   7 765.300 198.488  19
   1   2  -7 851.208 180.535  18
  -1   2   7 1083.33 219.367  23
  -1   2   7 743.447 175.372  16
   1   2  -7 649.385 147.836  21
  -1   2   7 678.954 169.397  15
   1   2  -7 789.349 169.493  13
  -1   2   7 900.895 208.898  12
  -1   2   7 1028.26 243.675  10
   1   2  -6 8989.95 498.323   9
  -1   2   6 9598.23 579.341  17
  -1   2   6 9087.58 585.120  23
   1   2  -6 8194.53 519.279  13
   1   2  -6 10171.3 543.388  21
  -1   2   6 9865.76 573.682  16
   1   2  -6 8601.04 529.698  18
  -1   2   6 8908.27 548.487  15
  -1   2   6 8946.86 619.422  10
  -1   2   6 9823.20 598.862  12
   1   2  -6 9383.50 602.720   5
   1   2  -5 871.599 146.718  18
   1   2  -5 392.647 102.051  13
  -1   2   5 498.595 119.911  12
  -1   2   5 625.066 135.293  23
  -1   2   5 395.110 104.505  15
  -1   2   5 418.900 125.849  10
  -1   2   5 381.601 108.280  17
  -1   2   5 343.773 93.2672   6
   1   2  -5 289.578 103.516   5
  -1   2   5 412.822 107.030  16
   1   2  -5 380.124 90.0072   9
  -1   2   5 371.305 101.659  14
   1   2  -5 350.349 96.9830  21
  -1   2   4 13055.6 569.572  23
  -1   2   4 13371.3 427.834   2
   1   2  -4 12890.2 491.813   9
   1   2  -4 12347.5 594.726   5
  -1   2   4 12337.7 596.972  10
  -1   2   4 13682.4 550.131  16
  -1   2   4 13428.3 573.789  12
  -1   2   4 13761.6 542.633  14
  -1   2   4 12958.5 539.187  15
  -1   2   4 13650.8 562.287  17
   1   2  -4 11880.8 515.137  13
   1   2  -4 12702.2 551.798  18
  -1   2   4 12313.0 508.418   8
   1   2  -4 13260.9 516.189  21
  -1   2   4 12349.2 516.134   6
  -1   2   3 7361.62 352.747  23
  -1   2   3 6247.83 358.455  10
  -1   2   3 6404.47 222.913   3
  -1   2   3 6743.03 312.433   6
   1   2  -3 6858.66 380.583   5
  -1   2   3 6434.28 321.165  17
  -1   2   3 7113.63 328.883  15
  -1   2   3 6813.09 315.989  14
  -1   2   3 6718.28 334.021  12
  -1   2   3 6763.83 334.918   8
   1   2  -3 7091.43 352.697  18
  -1   2   3 6563.44 249.641   2
  -1   2   3 7185.96 329.771  16
   1   2  -3 7027.29 297.347  21
   1   2  -3 5659.31 286.913  13
   1   2  -2 73378.2 1752.56  18
  -1   2   2 65192.1 1647.02   6
  -1   2   2 70456.7 1677.54  16
  -1   2   2 69360.2 1685.23  17
   1   2  -2 65079.3 1759.53   5
  -1   2   2 66018.8 1724.15   8
  -1   2   2 70186.4 1673.87  15
  -1   2   2 66188.8 1748.29  10
  -1   2   2 69199.1 1673.23  12
  -1   2   2 69640.7 1668.34  14
  -1   2   2 63499.8 1592.59   2
  -1   2   2 69147.4 1663.37  13
  -1   2   2 74294.2 1706.89  11
   1   2  -2 62087.1 1603.67  13
   1   2  -2 70516.2 1613.35  21
  -1   2   1 75134.5 1823.58  12
   1   2  -1 79492.6 1740.14   9
   1   2  -1 68967.7 1889.85  18
   1   2  -1 74043.1 1934.61   5
  -1   2   1 78036.4 1850.86  14
  -1   2   1 75700.0 1923.32   8
  -1   2   1 75048.0 1920.04  10
  -1   2   1 77167.4 1815.76   6
  -1   2   1 74754.7 1805.40   5
  -1   2   1 76862.2 1863.81  11
  -1   2   1 75745.9 1853.81  16
  -1   2   1 78592.3 1855.67  15
   1   2  -1 84862.6 1745.39  21
   1   2  -1 72500.6 1899.09   2
  -1   2   1 77245.0 1846.96  13
   1   2  -1 78804.7 1746.19  13
  -1   2   0 133700. 3023.86  14
   1   2   0 134517. 2919.87  17
   1   2   0 137641. 3096.73   5
   1   2   0 132850. 2926.21  19
   1   2   0 140232. 2925.98  10
   1   2   0 132995. 2917.30  16
  -1   2   0 127292. 3056.39   5
   1   2   0 131757. 2915.72  15
   1   2   0 135971. 3107.57  11
  -1   2   0 130909. 3026.21  15
  -1   2   0 132677. 3096.95  10
  -1   2   0 133647. 3018.00  13
  -1   2   0 132487. 3082.22   8
   1   2   0 131862. 2922.00  23
   1   2   0 119388. 3053.04   2
  -1   2   0 131109. 2923.62   6
  -1   2  -1 43777.1 1141.53   4
   1   2   1 41461.3 1154.83  11
   1   2   1 44685.5 1078.01  17
  -1   2  -1 42822.1 1111.63  13
   1   2   1 43164.8 1099.80  19
   1   2   1 42753.1 1066.56  16
   1   2   1 43258.3 1131.29   2
  -1   2  -1 44494.5 1044.72  18
   1   2   1 43046.9 1067.53  15
  -1   2  -1 41837.1 1166.38  10
  -1   2  -1 42460.8 1116.46  14
   1   2   1 42935.3 1084.10  23
  -1   2  -1 43464.6 1120.20   8
   1   2   2 32820.3 929.969  15
  -1   2  -2 33719.9 1010.57  10
   1   2   2 34346.3 980.176  19
  -1   2  -2 32838.4 870.280  18
   1   2   2 33149.7 929.823  16
  -1   2  -2 33236.9 954.705  13
  -1   2  -2 34093.5 934.408   4
   1   2   2 33500.1 939.962  17
  -1   2  -2 34253.6 876.382   8
   1   2   2 32481.5 981.954  11
   1   2   2 33957.8 927.334   2
   1   2   2 33451.3 953.916  23
  -1   2  -2 31646.4 950.943  14
   1   2   3 1903.85 151.408   2
  -1   2  -3 1953.20 144.176  18
   1   2   3 2196.98 192.531  17
   1   2   3 1645.72 184.544  19
   1   2   3 1930.77 176.734  16
   1   2   3 1939.79 192.592  11
   1   2   3 1936.30 178.173  15
   1   2   3 2159.88 197.159  23
  -1   2  -3 1833.99 153.782   4
  -1   2  -3 1873.50 181.779  14
  -1   2  -3 2082.33 188.067  13
   1   2   3 2169.19 142.586   3
   1   2   4 10640.8 575.505  19
   1   2   4 11337.7 570.027  23
  -1   2  -4 11433.3 539.761  13
  -1   2  -4 11247.7 459.691  18
   1   2   4 11019.8 547.907  17
  -1   2  -4 11675.7 628.516   5
  -1   2  -4 9992.35 515.984  14
  -1   2  -4 10651.0 461.188   4
   1   2   4 11114.5 537.674  15
   1   2   4 12141.2 615.636  10
   1   2   4 12039.8 574.080  11
   1   2   4 11717.6 551.419  16
   1   2   4 10836.2 449.728   2
   1   2   5 9201.75 598.507  10
   1   2   5 8119.17 559.944  19
   1   2   5 8240.05 522.462  17
  -1   2  -5 7780.55 424.267  18
  -1   2  -5 7532.03 486.040  14
   1   2   5 8637.07 527.366  16
  -1   2  -5 8423.32 576.832   5
  -1   2  -5 8437.24 436.928   4
   1   2   5 8789.83 528.374  15
  -1   2  -5 8952.60 519.035  13
   1   2   5 9064.80 432.896   2
   1   2   5 8948.06 544.562  11
   1   2   5 9814.60 584.335  23
   1   2   6 6667.55 524.454  17
   1   2   6 6800.18 517.733  11
   1   2   6 6228.13 547.333  19
   1   2   6 6452.71 504.991  15
   1   2   6 6633.38 512.025  16
  -1   2  -6 6568.88 483.731  13
  -1   2  -6 6089.33 470.379  14
   1   2   6 6895.41 550.522  23
   1   2   6 7674.01 604.099  10
  -1   2  -6 6364.07 544.375   5
   1   3  -6 3603.53 300.819   9
  -1   3   6 4048.36 349.820  14
   1   3  -6 3431.33 337.760  18
  -1   3   6 3687.38 345.980  16
   1   3  -6 4013.44 324.825  21
  -1   3   6 3524.11 336.905  15
  -1   3   6 3499.58 345.597  12
  -1   3   6 2863.46 353.910  10
  -1   3   6 3608.75 362.646  23
  -1   3   6 3948.90 364.624  17
  -1   3   6 3650.92 364.064  11
   1   3  -6 3405.62 315.524  13
   1   3  -6 3761.34 391.441   5
  -1   3   5 15975.4 707.478  17
   1   3  -5 14394.6 761.062   5
   1   3  -5 15430.9 614.031   9
  -1   3   5 16112.6 695.525  16
  -1   3   5 15330.8 667.790  14
   1   3  -5 14455.2 637.530  13
  -1   3   5 15182.8 677.516  15
   1   3  -5 15665.4 633.351  21
  -1   3   5 14542.3 753.641  10
  -1   3   5 15587.3 720.102  23
  -1   3   5 14258.9 701.860  11
  -1   3   5 15991.3 710.695  12
   1   3  -5 14121.8 681.233  18
  -1   3   4 5208.45 324.919  15
  -1   3   4 5054.96 370.329  10
   1   3  -4 4905.34 341.134  18
  -1   3   4 5607.82 342.203  17
   1   3  -4 5032.72 385.638   5
  -1   3   4 5332.99 328.360  16
   1   3  -4 5818.17 308.890  21
  -1   3   4 6152.79 381.099  11
  -1   3   4 5872.24 334.721  14
  -1   3   4 5301.78 341.895   8
  -1   3   4 5327.61 349.456  23
   1   3  -4 5268.21 310.207  13
  -1   3   4 4837.83 256.677   2
  -1   3   4 5025.79 328.092  12
  -1   3   3 85203.5 2253.43   8
  -1   3   3 85961.2 2285.00  10
  -1   3   3 87004.7 2247.10  11
  -1   3   3 79454.2 2074.89   2
   1   3  -3 82149.1 2324.55   5
  -1   3   3 88535.8 2168.97  14
  -1   3   3 81742.2 2161.72   6
  -1   3   3 91271.9 2203.97  17
   1   3  -3 86344.8 2258.05  18
   1   3  -3 90169.0 2106.93  21
   1   3  -3 87052.9 2113.26  13
  -1   3   3 89469.5 2179.72  15
  -1   3   3 91283.9 2189.46  16
  -1   3   3 90492.4 2182.59  12
  -1   3   2 47092.5 1243.73  13
  -1   3   2 49198.7 1263.75  16
  -1   3   2 51447.4 1155.80   5
   1   3  -2 45214.7 1382.06   5
  -1   3   2 47988.5 1223.61  12
   1   3  -2 45494.2 1325.76  18
  -1   3   2 44878.5 1226.61   2
  -1   3   2 47929.7 1250.22  14
  -1   3   2 44293.7 1346.58   8
  -1   3   2 45515.8 1301.05  11
  -1   3   2 48748.5 1258.72  15
   1   3  -2 48401.9 1167.95  13
  -1   3   2 47110.2 1242.58   6
  -1   3   2 49342.9 1274.12  17
  -1   3   2 46428.5 1342.95  10
  -1   3   1 21335.4 648.879   5
  -1   3   1 21947.0 701.679  11
  -1   3   1 22653.1 657.653  16
  -1   3   1 22706.3 594.190  12
  -1   3   1 22303.8 727.003  10
   1   3  -1 22488.8 763.032   5
  -1   3   1 22845.6 623.032   6
  -1   3   1 21543.9 747.742   8
  -1   3   1 22302.5 651.257  15
   1   3  -1 21529.9 732.863   2
  -1   3   1 23247.0 651.819  14
  -1   3   1 22922.0 647.560  13
  -1   3   0 57573.2 1444.75  13
   1   3   0 59097.0 1321.35  15
   1   3   0 60195.9 1323.70  17
   1   3   0 56789.5 1555.69   5
  -1   3   0 56343.2 1533.69  10
  -1   3   0 53438.9 1512.81   5
   1   3   0 60306.3 1330.54  19
   1   3   0 58715.7 1320.82  16
  -1   3   0 56840.7 1454.67  15
  -1   3   0 55557.6 1550.51   8
  -1   3   0 57468.9 1449.45  14
   1   3   0 52757.0 1527.91   2
   1   3   0 60188.9 1594.46  11
   1   3   0 60591.1 1340.25  10
   1   3   0 58358.2 1325.34  23
   1   3   1 5007.18 218.143  23
   1   3   1 4775.05 295.139  11
  -1   3  -1 5265.64 288.776  10
   1   3   1 5216.79 210.200  16
   1   3   1 5356.22 212.516  15
  -1   3  -1 4915.47 304.769   5
  -1   3  -1 5083.17 250.876  14
  -1   3  -1 5192.54 255.160  15
  -1   3  -1 4914.06 273.435   8
   1   3   1 4951.16 210.261  17
   1   3   1 5440.45 232.412  19
   1   3   1 5072.17 282.612   2
  -1   3  -1 5348.72 250.062  13
   1   3   1 5485.42 237.138  10
   1   3   2 23156.9 738.307  19
  -1   3  -2 21816.9 677.605  18
  -1   3  -2 22783.2 726.950  13
   1   3   2 23617.1 709.158  17
  -1   3  -2 22626.7 713.105   8
  -1   3  -2 21452.0 771.992  10
   1   3   2 23640.0 701.159  16
  -1   3  -2 23823.1 865.912   5
  -1   3  -2 22253.4 755.584   4
   1   3   2 23624.1 720.708  23
   1   3   2 21843.6 748.398   2
   1   3   2 22215.9 791.937  11
  -1   3  -2 22859.6 735.161  14
   1   3   2 23763.3 748.558  10
   1   3   2 22200.4 689.728  15
  -1   3  -3 56995.2 1510.22  18
  -1   3  -3 58829.2 1591.64  13
   1   3   3 60328.1 1655.37  10
   1   3   3 58860.5 1635.84  19
   1   3   3 58951.7 1582.60  17
   1   3   3 54697.3 1553.88   2
   1   3   3 57827.9 1564.57  16
  -1   3  -3 56770.8 1751.98   5
  -1   3  -3 56531.7 1578.49   4
   1   3   3 57606.0 1596.73  23
   1   3   3 55611.6 1651.06  11
  -1   3  -3 55460.5 1579.99  14
   1   3   3 57217.0 1562.60  15
   1   3   4 39191.7 1290.41  10
   1   3   4 36845.7 1254.35  19
  -1   3  -4 34241.8 1157.62  14
   1   3   4 35771.5 1174.97  16
  -1   3  -4 36558.5 1339.47   5
   1   3   4 36658.9 1178.41  15
  -1   3  -4 35665.9 1134.41   4
   1   3   4 36473.7 1192.94  17
   1   3   4 35497.5 1207.06  23
  -1   3  -4 33048.5 1072.07  18
  -1   3  -4 35795.4 1164.41  13
   1   3   4 34762.8 1109.56   2
   1   3   4 36325.0 1251.02  11
   1   3   5 806.034 138.939   2
   1   3   5 733.259 172.116  10
   1   3   5 623.240 142.175  17
   1   3   5 1041.62 197.251  19
   1   3   5 764.049 157.946  16
  -1   3  -5 701.090 190.944   5
  -1   3  -5 630.700 125.871   4
   1   3   5 790.962 157.549  15
   1   3   5 653.731 152.369  23
  -1   3  -5 835.520 154.233  13
   1   3   5 673.502 161.283  11
  -1   3  -5 602.672 140.513  14
   1   3   6 7895.73 628.845  10
   1   3   6 8407.64 612.825  11
   1   3   6 8085.08 628.435  19
   1   3   6 9099.40 619.304  17
   1   3   6 8184.57 578.422  16
  -1   3  -6 8350.22 658.526   5
   1   3   6 8047.03 572.236  15
  -1   3  -6 8678.00 573.286  14
  -1   3  -6 8827.26 568.726  13
   1   3   6 8874.61 630.559  23
  -1   4   6 11324.0 710.054  11
  -1   4   6 14124.6 734.522  17
   1   4  -6 12139.4 786.399   5
  -1   4   6 13020.4 696.564  16
   1   4  -6 12801.0 608.257   9
  -1   4   6 12976.2 697.369  12
   1   4  -6 11875.2 681.561  18
  -1   4   6 11943.9 654.134  14
  -1   4   6 11245.2 747.637  10
  -1   4   6 13042.5 733.444  23
  -1   4   6 13391.1 701.913  15
   1   4  -6 13356.1 651.193  13
   1   4  -6 11449.9 615.442  14
  -1   4   5 2389.19 256.395  17
  -1   4   5 2351.38 283.683  11
  -1   4   5 2275.53 244.656  15
   1   4  -5 1989.14 243.114  18
  -1   4   5 2614.30 261.580  12
   1   4  -5 2191.41 297.933   5
   1   4  -5 2658.01 223.630   9
  -1   4   5 2761.56 270.044  16
  -1   4   5 2274.06 260.975  23
   1   4  -5 2099.50 216.621  14
  -1   4   5 2181.27 282.823  10
   1   4  -5 2210.70 219.616  13
  -1   4   5 2106.17 230.411  14
  -1   4   4 2916.08 297.078  10
   1   4  -4 3246.73 233.048  14
   1   4  -4 3336.29 339.204   5
   1   4  -4 2881.44 274.916  18
  -1   4   4 3508.88 277.184  17
  -1   4   4 3843.79 274.972  12
  -1   4   4 3448.49 267.312  16
  -1   4   4 3446.45 267.957  15
  -1   4   4 3265.49 302.198  11
   1   4  -4 3227.72 231.121  13
  -1   4   4 3509.56 291.199  23
  -1   4   4 3486.99 303.003   8
  -1   4   4 3548.70 265.961  14
   1   4  -3 3084.10 266.886  18
  -1   4   3 3532.99 236.911  14
  -1   4   3 3802.84 241.903  13
  -1   4   3 3288.53 284.166  10
  -1   4   3 3730.88 248.400  16
  -1   4   3 4063.95 265.876  17
  -1   4   3 3511.46 284.516  11
   1   4  -3 3987.54 212.401  13
  -1   4   3 3648.31 243.784  15
  -1   4   3 3317.47 223.823   2
  -1   4   3 3288.03 292.561   8
   1   4  -3 3801.58 211.841  14
  -1   4   3 3720.27 232.497  12
   1   4  -3 3227.88 307.353   5
  -1   4   2 19351.6 629.963  14
  -1   4   2 18574.4 716.824  10
  -1   4   2 20149.1 596.191   5
  -1   4   2 19058.2 633.935  15
   1   4  -2 18108.4 768.213   5
  -1   4   2 19427.6 578.240  12
  -1   4   2 20134.5 646.933  16
   1   4  -2 20424.3 541.594  14
   1   4  -2 20169.4 536.891  13
  -1   4   2 17934.2 648.887   2
  -1   4   2 19307.2 628.529  13
  -1   4   2 19139.5 770.248   8
  -1   4   2 18235.2 707.579  11
  -1   4   2 19798.6 653.711  17
  -1   4   1 43090.0 995.631  12
  -1   4   1 41664.5 1226.86  11
  -1   4   1 42023.8 1112.41  16
  -1   4   1 39704.2 1149.99   5
   1   4  -1 39973.2 1267.80   5
  -1   4   1 41297.0 1211.99  10
  -1   4   1 41749.8 1108.83  15
   1   4  -1 41262.9 1251.87   2
  -1   4   1 41691.8 1103.82  14
  -1   4   1 38724.1 1268.00   8
  -1   4   1 41086.7 1098.68  13
  -1   4   0 77449.9 1912.29  14
  -1   4   0 75489.6 1917.30  16
  -1   4   0 78874.6 2030.82  10
   1   4   0 78112.4 1763.76  23
  -1   4   0 73394.1 2027.04   5
   1   4   0 77224.0 2072.10   5
   1   4   0 79938.9 1759.88  16
   1   4   0 79538.4 1759.27  15
   1   4   0 80497.8 1762.20  17
  -1   4   0 74806.8 1913.22  15
   1   4   0 75090.5 2058.52   2
  -1   4   0 72501.7 1793.61  12
  -1   4   0 76265.4 2087.07   8
  -1   4   0 76946.8 1906.90  13
   1   4   0 83571.3 1784.91  10
   1   4   1 14098.3 427.548  14
   1   4   1 14072.9 590.899   2
   1   4   1 14227.9 446.730  17
  -1   4  -1 14655.3 576.356  10
   1   4   1 14086.5 452.628  23
  -1   4  -1 13696.3 620.769   5
   1   4   1 14629.7 440.713  16
   1   4   1 14909.9 441.454  15
  -1   4  -1 14996.6 521.466  15
  -1   4  -1 14355.7 508.070  14
  -1   4  -1 13739.6 583.349   8
   1   4   1 15647.6 594.161   5
  -1   4  -1 15440.3 514.138  13
   1   4   1 14516.2 481.692  10
   1   4   1 13085.1 607.449  11
   1   4   2 2635.64 253.474  11
   1   4   2 2843.65 208.479  19
   1   4   2 2887.15 216.460  10
   1   4   2 2765.81 196.081  23
   1   4   2 2859.09 193.606  17
  -1   4  -2 2789.07 224.742   8
  -1   4  -2 2896.99 241.413  10
  -1   4  -2 2802.25 276.455   5
   1   4   2 2852.06 189.026  16
   1   4   2 2961.55 191.059  15
  -1   4  -2 2816.15 208.291  14
   1   4   2 2709.39 232.059   2
  -1   4  -2 2924.99 205.825  13
  -1   4  -3 1971.35 254.862   5
   1   4   3 2376.50 226.388  19
   1   4   3 2078.03 197.241  17
  -1   4  -3 2251.45 231.907  10
   1   4   3 2125.91 192.531  16
   1   4   3 1749.03 221.047  11
   1   4   3 2142.19 191.560  15
   1   4   3 1817.59 193.405  23
  -1   4  -3 1811.61 191.542  14
   1   4   3 1989.33 212.416  10
  -1   4  -3 2337.29 206.924  13
   1   4   3 1759.66 198.363   2
   1   4   4 3488.15 346.081  11
   1   4   4 4213.54 352.743  19
   1   4   4 3847.31 312.741  17
   1   4   4 3969.67 327.480  23
  -1   4  -4 2985.27 354.744   5
   1   4   4 4352.63 326.180  16
   1   4   4 3644.20 299.300   2
   1   4   4 3648.04 300.069  15
  -1   4  -4 3857.02 308.940  14
  -1   4  -4 4134.01 313.713  13
   1   4   4 4010.14 349.345  10
  -1   4  -5 12370.4 642.090  13
   1   4   5 13798.7 758.052  19
   1   4   5 13446.7 756.188  10
   1   4   5 12682.6 683.851  17
  -1   4  -5 11847.9 787.885   5
   1   4   5 13604.1 692.872  16
   1   4   5 13056.4 679.360  15
   1   4   5 13635.8 726.678  23
  -1   4  -5 11335.9 630.716  14
   1   4   5 11907.8 729.414  11
  -1   5   6 2127.95 265.543  14
  -1   5   6 2122.55 309.772  11
  -1   5   6 2507.32 295.712  16
  -1   5   6 2385.67 333.736  10
  -1   5   6 2381.39 288.796  15
   1   5  -6 2877.30 383.483   5
  -1   5   6 2873.79 324.236  17
  -1   5   6 2215.64 296.879  23
  -1   5   5 10551.9 577.050  17
  -1   5   5 8625.24 604.121  10
   1   5  -5 9234.10 667.562   5
  -1   5   5 10844.9 573.451  16
  -1   5   5 9700.61 545.220  15
  -1   5   5 10041.9 582.212  23
  -1   5   5 10718.9 555.075  14
   1   5  -5 7896.24 531.765  18
  -1   5   5 9530.46 625.868  11
  -1   5   4 2341.41 278.584  10
  -1   5   4 2844.31 248.683  15
  -1   5   4 2593.99 292.347  11
   1   5  -4 2165.91 246.784  18
  -1   5   4 2725.68 249.711  17
   1   5  -4 2515.54 315.072   5
  -1   5   4 2642.09 236.174  14
  -1   5   4 2878.30 268.927  23
  -1   5   4 2750.84 298.790   8
  -1   5   4 2858.84 249.481  16
   1   5  -3 38151.5 1400.46   5
  -1   5   3 41103.0 1201.73  17
  -1   5   3 38354.0 1314.64  11
  -1   5   3 41433.0 1185.91  16
  -1   5   3 40952.3 1171.91  14
  -1   5   3 40678.0 1177.74  15
  -1   5   3 36216.4 1167.52   2
  -1   5   3 38562.4 1299.62  10
  -1   5   3 39386.5 1369.83   8
  -1   5   2 5541.80 299.113  17
  -1   5   2 5115.75 281.606  15
  -1   5   2 5246.69 285.567  16
  -1   5   2 4689.36 346.400  11
  -1   5   2 5021.95 315.061   2
  -1   5   2 5122.81 276.822  13
  -1   5   2 5148.22 279.400  14
  -1   5   2 4998.19 386.289   8
  -1   5   2 5315.99 348.587  10
   1   5  -2 5049.62 394.309   5
  -1   5   1 29829.0 881.241  13
   1   5  -1 29695.5 1077.48   5
  -1   5   1 30722.2 973.959   5
  -1   5   1 31382.7 896.682  15
   1   5  -1 31142.3 1077.30   2
  -1   5   1 31781.5 1065.02  11
  -1   5   1 30663.7 886.783  14
  -1   5   1 32104.5 906.052  16
  -1   5   1 29748.9 1097.26   8
  -1   5   1 30717.2 1002.80  10
  -1   5   0 8758.97 429.464  10
   1   5   0 8509.48 471.275   2
   1   5   0 8126.52 460.192   5
  -1   5   0 7723.18 466.084   8
  -1   5   0 8608.79 358.605  15
  -1   5   0 8200.22 354.676  16
  -1   5   0 8389.40 351.278  14
  -1   5   0 8156.15 448.487   5
  -1   5   0 7936.23 342.422  13
   1   5   1 4163.38 341.187  11
   1   5   1 4916.56 329.458   5
  -1   5  -1 4455.68 300.137  10
  -1   5  -1 3843.74 326.740   5
  -1   5  -1 4312.38 249.313  13
  -1   5  -1 4029.47 247.604  15
  -1   5  -1 4603.36 259.119  14
  -1   5  -1 3999.61 317.516   8
   1   5   1 4022.61 313.833   2
   1   5   2 9667.21 557.527  11
  -1   5  -2 10660.6 449.373  13
  -1   5  -2 10642.6 514.134  10
  -1   5  -2 9124.80 572.346   5
  -1   5  -2 9528.73 439.231  14
   1   5   2 9297.49 518.001   2
  -1   5  -2 10283.1 515.470   8
  -1   5  -2 10407.4 461.671  15
  -1   5  -3 28411.7 1207.30   5
   1   5   3 27427.6 1124.96  11
  -1   5  -3 29354.7 981.497  14
   1   5   3 27304.6 1040.33   2
  -1   5  -3 30299.1 976.309  13
  -1   5  -4 8086.10 628.499   5
   1   5   4 7751.05 571.352  11
  -1   5  -4 9151.45 499.323  14
   1   5   4 8050.16 507.784   2
  -1   5  -4 9267.31 493.215  13
   1   5   5 1780.19 288.175  11
  -1   5  -5 1577.50 289.860   5
  -1   5  -5 1663.51 226.840  14
  -1   5  -5 1841.74 233.219  13
  -1   6   5 6345.64 521.799  10
  -1   6   5 6475.18 468.783  23
   1   6  -5 6621.90 592.262   5
  -1   6   5 6586.88 455.326  17
  -1   6   5 6584.49 445.007  16
  -1   6   5 5777.31 418.045  15
  -1   6   5 5454.26 499.462  11
  -1   6   5 6133.59 421.621  14
  -1   6   4 4809.26 432.581  11
   1   6  -4 5864.98 513.719   5
  -1   6   4 5055.21 357.823  17
  -1   6   4 5507.09 389.622  23
  -1   6   4 5154.42 354.651  16
  -1   6   4 5203.33 432.869  10
  -1   6   4 4997.93 340.642  14
  -1   6   4 4964.69 442.723   8
  -1   6   4 4949.81 349.129  15
  -1   6   3 221.167 71.5535  16
   1   6  -3 146.527 88.5446   5
  -1   6   3 129.426 59.0728  15
  -1   6   3 286.555 83.5891   2
  -1   6   3 175.579 89.6120  10
  -1   6   3 209.698 70.4963  17
  -1   6   3 197.297 92.4844   8
  -1   6   3 224.078 70.9634  14
  -1   6   3 221.189 103.995  11
  -1   6   3 212.811 77.5057  23
  -1   6   2 2803.66 294.392  11
  -1   6   2 2770.49 260.603  10
  -1   6   2 3145.15 223.012  15
   1   6  -2 2684.41 304.477   5
  -1   6   2 2805.53 217.169  17
  -1   6   2 2645.46 208.302  16
  -1   6   2 2759.46 207.151  14
  -1   6   2 2385.58 292.321   8
  -1   6   2 2757.71 204.127  13
  -1   6   1 13839.7 609.573  10
  -1   6   1 14448.0 519.745  13
  -1   6   1 13358.9 605.045   5
  -1   6   1 14394.0 537.373  17
  -1   6   1 13897.5 522.999  16
  -1   6   1 14430.6 522.205  14
  -1   6   1 14144.6 524.139  15
  -1   6   1 13480.9 717.741   8
   1   6  -1 13594.3 699.159   5
  -1   6   0 26768.3 1008.70   5
  -1   6   0 25348.8 1049.80   8
  -1   6   0 27479.3 927.663  10
   1   6   0 26734.0 1016.55   5
  -1   6   0 27141.1 831.211  15
   1   6   0 25530.2 1021.91   2
  -1   6   0 27429.6 825.848  14
  -1   6   0 27450.1 822.253  13
  -1   6   0 27718.1 837.701  16
   1   6   1 27936.7 1108.08  11
   1   6   1 29994.4 1049.50   5
  -1   6  -1 26582.9 1083.04   5
   1   6   1 27583.9 1060.54   2
  -1   6  -1 27346.6 1070.09   8
   1   6   2 168.430 76.3640   2
  -1   6  -2 292.538 99.8247   8
  -1   6  -2 108.927 76.5168   5
   1   6   2 179.799 98.9161  11
   1   6   3 5181.24 458.535  11
  -1   6  -3 4859.23 472.893   5
   1   6   3 5433.53 421.056   2
   1   6   4 819.529 168.028   2
  -1   6  -4 677.611 197.418   5
   1   6   4 742.484 197.300  11
  -1   7   4 324.379 127.486   8
   1   7  -4 417.047 175.322   5
  -1   7   4 227.961 115.028  11
  -1   7   3 7331.39 575.440   8
  -1   7   3 6775.24 528.642  11
   1   7  -3 7265.71 585.418   5
  -1   7   2 6557.29 493.925  11
   1   7  -2 5923.54 499.117   5
  -1   7   2 6088.07 511.549   8
   1   7  -1 15489.1 798.109   5
  -1   7   1 16312.8 859.496   8
   1   7   0 3475.10 347.652   2
   1   7   0 3646.19 344.024   5
  -1   7   0 2716.40 297.923   5
  -1   7   0 2797.69 328.322   8
   1   7   1 2786.56 289.163   5
  -1   7  -1 2481.72 307.255   5
   1   7   1 2408.71 291.203   2
  -1   7  -1 2230.54 287.244   8
   1   7   2 1065.58 216.681  11
   1   7   2 910.623 185.508   2
  -1   7  -2 1332.03 251.119   5
  -1   7  -2 799.412 171.938   8
   1   7   3 8076.58 621.790  11
  -1   7  -3 8338.68 674.829   5
   1   7   3 7627.88 551.179   2
  -1   8   3 2960.34 370.042  11
   1   8  -3 3361.48 418.116   5
  -1   8   3 3403.23 414.797   8
   1   8  -2 1804.64 294.786   5
  -1   8   2 1869.85 305.134   8
   1   8  -1 3432.50 377.102   5
  -1   8   1 2992.33 383.956   8
   1   8   0 6655.26 512.416   5
  -1   8   0 6396.75 548.649   8
  -1   8  -1 22646.9 1079.51   5
   1   8   1 21106.3 1021.41   2
  -1   8  -1 22451.2 1070.42   8
   1   8   2 231.155 110.913   2
  -1   8  -2-138.496 107.640   5
  -2  -8   3 10138.2 685.054   1
  -2  -8   3 12742.4 823.623   3
   2  -8  -3 12024.4 682.617   1
   2  -8  -2 1087.76 204.416   1
  -2  -8   2 939.817 204.223   1
  -2  -8   1 3126.15 376.446   1
   2  -8  -1 2471.74 321.018   1
   2  -8   0 80.5599 88.6270   1
  -2  -8   0 74.1351 74.7159   1
  -2  -8   0 224.373 111.469   4
   2  -8   1 281.210 130.028   1
  -2  -8  -1 301.176 103.685   4
   2  -7  -4 3021.90 293.395   1
  -2  -7   4 2984.94 397.150   3
  -2  -7   3 1426.30 259.941   3
   2  -7  -3 1070.98 183.041   1
  -2  -7   2 3104.18 355.789   1
  -2  -7   2 3613.44 377.002   3
   2  -7  -2 3666.46 355.125   1
  -2  -7   1 5102.81 443.562   1
   2  -7  -1 4841.73 427.051   1
  -2  -7   0 6642.58 479.694   1
   2  -7   0 6586.34 507.138   1
  -2  -7   0 6369.49 443.083   4
   2  -7   1 601.940 160.120   1
   2  -7   1 594.644 149.794   3
  -2  -7  -1 721.300 142.171   1
  -2  -7  -1 825.332 159.148   4
   2  -7   2 345.384 134.564   3
   2  -7   2 444.620 152.805   1
  -2  -7  -2 474.651 129.771   4
  -2  -6   5 4300.28 483.077   3
   2  -6  -5 3709.87 326.702   9
   2  -6  -5 4177.77 308.495   1
   2  -6  -5 3804.60 345.351   4
   2  -6  -5 4125.13 391.822  20
   2  -6  -5 4523.02 408.533  21
   2  -6  -4 5111.63 412.779  20
   2  -6  -4 4749.42 422.948  22
   2  -6  -4 5032.81 355.121   1
  -2  -6   4 4579.88 468.205   3
   2  -6  -4 4719.29 347.950   9
   2  -6  -4 4954.92 414.721  21
   2  -6  -3 33282.4 1206.96  20
   2  -6  -3 34268.3 1252.52  22
  -2  -6   3 33145.5 1332.30   3
   2  -6  -3 30967.1 1067.64   9
   2  -6  -3 32916.3 1208.43  21
   2  -6  -3 33996.5 1218.95  19
   2  -6  -3 32342.5 1150.70   1
   2  -6  -2 1590.12 213.004  20
   2  -6  -2 1434.87 200.900  19
   2  -6  -2 1370.29 205.417  22
   2  -6  -2 1462.13 209.967   1
  -2  -6   2 1476.36 229.409   3
   2  -6  -2 1184.25 153.433   9
   2  -6  -2 1454.18 208.544  21
   2  -6  -1 22371.3 895.465  19
   2  -6  -1 20082.1 740.956   9
   2  -6  -1 20946.2 880.061  20
   2  -6  -1 21499.8 882.121  23
  -2  -6   1 20027.8 882.456   3
   2  -6  -1 20979.5 893.524  21
  -2  -6   1 20593.9 909.985   1
   2  -6  -1 19990.3 881.113   1
   2  -6  -1 21998.4 917.800  22
   2  -6   0 745.606 150.128  19
   2  -6   0 1085.19 176.181  23
   2  -6   0 981.407 145.177   3
   2  -6   0 1021.44 180.249  22
   2  -6   0 885.843 131.743   9
   2  -6   0 826.481 163.591  20
   2  -6   0 954.296 175.772  21
  -2  -6   0 895.975 153.491   1
   2  -6   0 813.847 160.733   1
  -2  -6   0 1042.32 161.053   4
   2  -6   1 14942.1 741.316  20
   2  -6   1 14551.2 720.859  23
   2  -6   1 15090.4 718.312  17
   2  -6   1 15141.7 738.356  19
   2  -6   1 15015.1 771.467   1
   2  -6   1 15686.3 656.577   9
   2  -6   1 15347.5 760.897  21
  -2  -6  -1 15459.5 681.948   1
   2  -6   1 15610.6 724.732   3
  -2  -6  -1 16590.0 714.497   4
  -2  -6  -2 6615.59 413.176   4
   2  -6   2 5426.09 416.130  23
   2  -6   2 5747.01 434.650  19
   2  -6   2 6544.42 478.435   3
   2  -6   2 5133.78 398.212  17
   2  -6   2 5600.67 435.425  20
   2  -6   2 5603.30 389.101   9
   2  -6   2 6114.14 493.345   1
   2  -6   2 5224.59 430.384  21
   2  -6   3 17354.8 843.745  17
   2  -6   3 21792.8 1018.22   3
   2  -6   3 18799.9 883.181  23
   2  -6   3 18853.5 896.119  19
   2  -6   3 19055.1 910.321  20
   2  -6   3 21339.0 896.493   9
  -2  -6  -3 22653.4 832.568   4
   2  -6   3 24292.3 1099.97   1
   2  -6   3 19561.0 927.886  21
   2  -5  -6 1514.72 247.167  21
   2  -5  -6 1582.88 253.955  20
  -2  -5   6 1642.41 302.969   3
   2  -5  -6 1743.99 239.422   9
   2  -5  -6 1884.39 181.861   1
   2  -5  -5 6142.30 424.497   9
   2  -5  -5 5946.22 460.652  20
  -2  -5   5 5958.58 536.960   3
   2  -5  -5 6089.41 343.024   1
   2  -5  -5 6501.64 413.056   4
   2  -5  -5 5890.15 455.713  21
   2  -5  -4 16220.8 656.122   1
   2  -5  -4 16835.1 791.246  19
   2  -5  -4 16987.3 788.813  20
   2  -5  -4 16134.7 697.269   9
   2  -5  -4 17090.5 822.009  22
  -2  -5   4 15700.8 859.768   3
   2  -5  -4 17266.9 795.036  21
   2  -5  -3 1797.70 224.153  19
   2  -5  -3 1654.98 184.262   9
   2  -5  -3 1719.98 228.811  22
  -2  -5   3 2176.44 276.688   3
   2  -5  -3 1578.01 208.970  20
   2  -5  -3 2256.59 249.871  21
   2  -5  -3 1583.73 186.076   1
   2  -5  -2 22942.7 888.988  19
   2  -5  -2 23194.9 899.655  21
   2  -5  -2 21586.8 867.413  20
  -2  -5   2 23250.7 961.936   3
   2  -5  -2 22356.0 781.763   9
   2  -5  -2 22908.5 870.177   1
  -2  -5   2 22766.5 806.951   6
   2  -5  -2 21851.0 894.474  22
   2  -5  -1 4754.27 366.877  22
  -2  -5   1 4734.49 355.970   1
   2  -5  -1 5138.98 372.059  21
  -2  -5   1 5420.43 383.009   3
   2  -5  -1 4853.47 357.057  19
   2  -5  -1 5173.04 369.339  20
   2  -5  -1 4640.62 291.881   9
   2  -5  -1 5411.11 285.910   3
   2  -5  -1 5218.14 365.524  23
   2  -5  -1 4771.04 350.068   1
   2  -5   0 11406.7 587.868  20
   2  -5   0 10994.0 500.240   3
   2  -5   0 11005.3 570.723  19
  -2  -5   0 10673.9 518.540   1
   2  -5   0 10111.7 467.297   9
   2  -5   0 10208.3 569.729  22
   2  -5   0 10252.0 547.821   1
  -2  -5   0 10097.7 494.378   4
   2  -5   0 10702.5 575.371  21
   2  -5   0 10903.2 563.940  23
   2  -5   1 1168.44 182.615  19
   2  -5   1 1149.28 176.741  17
   2  -5   1 1022.98 169.157  23
   2  -5   1 1223.96 180.087   3
  -2  -5  -1 1063.89 141.781   1
   2  -5   1 937.986 138.388   9
   2  -5   1 768.604 152.126  20
   2  -5   1 775.041 146.885   1
  -2  -5  -1 1122.14 154.521   4
   2  -5   1 893.205 167.576  21
   2  -5   2 4588.89 372.407  17
   2  -5   2 4691.58 401.235  20
   2  -5   2 5112.22 411.885   1
   2  -5   2 4906.16 401.710  19
  -2  -5  -2 5365.74 337.042   4
   2  -5   2 4779.03 386.823  23
   2  -5   2 4618.01 400.818  21
   2  -5   2 4832.22 350.803   9
   2  -5   2 4839.57 391.885   3
   2  -5   3 5193.66 414.860  17
   2  -5   3 4356.69 406.123   3
   2  -5   3 4497.76 421.691  21
   2  -5   3 4725.96 375.440   9
   2  -5   3 4148.24 397.575  20
  -2  -5  -3 4475.76 301.229   4
   2  -5   3 4444.38 395.116  23
   2  -5   3 4424.05 405.835  19
   2  -5   4 14827.0 843.937   3
   2  -5   4 14024.6 806.919  19
   2  -5   4 13212.7 757.302  17
   2  -5   4 13169.7 797.643  20
  -2  -5  -4 14506.1 586.184   4
   2  -5   4 12812.7 759.359  23
   2  -4  -6 224.065 107.601  21
   2  -4  -6 296.623 71.2819   1
  -2  -4   6 119.054 129.327   3
   2  -4  -6 312.247 128.557  20
   2  -4  -6 257.762 107.554   9
  -2  -4   6 87.5295 77.0336  12
   2  -4  -5 11698.0 659.626  21
  -2  -4   5 12093.6 748.532   3
   2  -4  -5 12583.7 672.519  20
   2  -4  -5 12546.9 616.083   9
   2  -4  -5 12379.2 541.553   4
  -2  -4   5 11655.0 605.404  12
   2  -4  -5 12152.8 487.116   1
  -2  -4   4 4724.76 419.363   3
  -2  -4   4 5622.35 283.421   6
   2  -4  -4 5451.04 400.827  19
   2  -4  -4 5730.56 362.918   9
   2  -4  -4 5006.74 380.823  21
   2  -4  -4 5401.42 414.876  22
   2  -4  -4 5216.72 295.402   1
   2  -4  -4 5396.90 395.119  20
  -2  -4   4 6046.02 361.981  12
  -2  -4   3 36251.2 1036.65  12
  -2  -4   3 37146.1 1013.38   6
  -2  -4   3 33030.6 1235.42   3
   2  -4  -3 33621.6 1061.03   9
   2  -4  -3 34051.7 1153.47  19
   2  -4  -3 31948.2 1033.81   1
   2  -4  -3 33606.5 1175.04  22
   2  -4  -3 33509.8 1155.89  21
   2  -4  -3 33321.5 1147.81  20
   2  -4  -2 5453.93 368.783  22
   2  -4  -2 6127.79 351.284   1
  -2  -4   2 5211.58 384.692   3
   2  -4  -2 5854.15 316.992   9
   2  -4  -2 5252.53 356.944  21
  -2  -4   2 6211.36 331.054   6
  -2  -4   2 5459.92 276.035  12
   2  -4  -2 5799.88 369.097  20
   2  -4  -2 5204.42 350.092  19
   2  -4  -1 48336.3 1515.49  22
   2  -4  -1 51594.2 1397.98   9
  -2  -4   1 50640.2 1320.18  12
   2  -4  -1 53456.9 1518.48  23
   2  -4  -1 49824.0 1503.70  20
   2  -4  -1 51121.1 1487.62   1
   2  -4  -1 54510.0 1364.87   3
   2  -4  -1 51269.2 1507.98  19
   2  -4  -1 49917.4 1512.90  21
   2  -4   0 5301.53 357.413  23
   2  -4   0 5278.61 337.047   1
   2  -4   0 5826.78 362.901  17
  -2  -4   0 5631.96 320.840   1
   2  -4   0 5578.83 317.080   3
   2  -4   0 5184.70 361.377  20
  -2  -4   0 5429.64 305.473   4
   2  -4   0 5436.89 365.666  19
   2  -4   0 5685.18 313.086   9
   2  -4   0 5553.46 377.141  21
   2  -4   1 58038.6 1733.35  20
  -2  -4  -1 54145.7 1532.68   4
   2  -4   1 57485.2 1651.23   3
   2  -4   1 55905.2 1726.89  21
   2  -4   1 56264.7 1670.98  17
   2  -4   1 59976.2 1730.02  19
   2  -4   1 52277.1 1623.14   1
   2  -4   1 59157.9 1594.43   9
   2  -4   1 57562.6 1695.27  23
  -2  -4  -1 58287.2 1512.47   1
   2  -4   2 1241.18 195.660  19
  -2  -4  -2 1421.04 121.892   1
   2  -4   2 1474.92 205.501  17
   2  -4   2 1569.35 191.071   9
  -2  -4  -2 1079.59 101.377   9
  -2  -4  -2 1641.63 149.497  13
   2  -4   2 1880.31 245.265  21
  -2  -4  -2 1908.66 155.108  21
   2  -4   2 1469.51 213.398  23
   2  -4   2 1612.99 215.107   3
   2  -4   2 1582.15 226.448  20
  -2  -4  -2 1643.36 161.331   4
   2  -4   3 27150.7 1123.93  19
  -2  -4  -3 26986.3 909.402  13
   2  -4   3 27085.7 1065.78  16
   2  -4   3 26581.5 1016.79   9
   2  -4   3 27851.2 1112.54  23
  -2  -4  -3 27227.7 850.347   4
   2  -4   3 29283.9 1173.57  20
  -2  -4  -3 29439.3 904.829  21
   2  -4   3 27392.1 1088.15  17
   2  -4   3 27676.3 1096.68   3
   2  -4   4 1571.89 259.836  23
  -2  -4  -4 1400.77 192.087  13
   2  -4   4 1330.82 251.442  19
  -2  -4  -4 1477.68 161.664   9
   2  -4   4 1977.91 281.060  17
   2  -4   4 1393.13 230.473  16
   2  -4   4 1684.82 282.235  20
  -2  -4  -4 2008.49 173.663   4
  -2  -4  -4 2023.22 217.547  21
   2  -4   4 1730.23 269.187   3
   2  -4   5 2600.61 373.654  20
   2  -4   5 2513.72 362.544  19
   2  -4   5 2743.87 362.546  17
   2  -4   5 2758.54 361.021   3
   2  -4   5 2439.63 335.042  16
  -2  -4  -5 2927.23 218.713   4
   2  -4   5 2713.46 365.808  23
  -2  -3   7 663.838 177.689  10
  -2  -3   7 711.398 188.935  12
  -2  -3   7 556.629 150.940  19
   2  -3  -7 598.484 102.497   1
  -2  -3   7 529.944 131.068  17
   2  -3  -7 1118.03 222.179  20
  -2  -3   7 290.784 106.421  16
  -2  -3   7 388.721 150.577   3
  -2  -3   7 473.864 121.811  15
   2  -3  -7 763.882 170.475   9
   2  -3  -7 604.436 165.125  21
  -2  -3   7 500.524 127.556  23
  -2  -3   6 4094.51 378.029  10
  -2  -3   6 3459.16 311.067  23
  -2  -3   6 3789.94 338.220  19
  -2  -3   6 4390.25 439.609   3
  -2  -3   6 3816.52 313.154  17
  -2  -3   6 3636.79 300.802  16
  -2  -3   6 3594.78 297.913  15
   2  -3  -6 4146.82 392.201  20
   2  -3  -6 4338.44 250.071   1
   2  -3  -6 4224.86 359.905   9
   2  -3  -6 4155.61 386.824  21
  -2  -3   6 3406.48 343.508  12
  -2  -3   5 4729.86 310.777  17
  -2  -3   5 4880.18 340.497  19
  -2  -3   5 5418.34 389.519  10
  -2  -3   5 5512.89 458.539   3
  -2  -3   5 5041.21 330.547  23
  -2  -3   5 5195.13 317.208  16
   2  -3  -5 6034.65 389.150   9
  -2  -3   5 5889.96 305.131   6
  -2  -3   5 5016.96 309.813  15
   2  -3  -5 5023.51 392.964  21
  -2  -3   5 5896.18 401.139  12
   2  -3  -5 5891.95 426.367  20
   2  -3  -5 6486.48 290.916   1
   2  -3  -4 25740.8 945.561  19
  -2  -3   4 22504.9 765.044  19
  -2  -3   4 26033.4 842.269  10
  -2  -3   4 21710.3 723.326  17
  -2  -3   4 23535.1 984.532   3
  -2  -3   4 21459.9 716.702  16
   2  -3  -4 25955.0 859.181   9
   2  -3  -4 24641.0 720.075   1
  -2  -3   4 21560.1 713.987  15
   2  -3  -4 24569.8 926.040  21
  -2  -3   4 26108.7 872.199  12
  -2  -3   4 22114.1 740.441  23
   2  -3  -4 25402.9 934.302  20
  -2  -3   4 23716.1 728.690   6
   2  -3  -4 25300.5 967.843  22
  -2  -3   3 919.984 90.0293  23
  -2  -3   3 936.790 95.6445  19
   2  -3  -3 1112.05 155.400  19
  -2  -3   3 923.005 106.048  10
   2  -3  -3 989.846 151.574  21
  -2  -3   3 1037.09 110.403   6
  -2  -3   3 860.715 82.7585  17
  -2  -3   3 1008.62 88.1216  16
   2  -3  -3 886.037 121.268   9
  -2  -3   3 992.787 87.6505  15
   2  -3  -3 1126.08 117.164   1
  -2  -3   3 972.533 168.707   3
  -2  -3   3 906.498 121.647  12
   2  -3  -3 1002.28 149.601  20
   2  -3  -3 1096.77 162.058  22
   2  -3  -2 60513.8 1606.30  23
  -2  -3   2 56238.0 1315.16  19
  -2  -3   2 62084.0 1353.34  10
  -2  -3   2 61290.9 1495.38  12
  -2  -3   2 60762.8 1520.43   6
  -2  -3   2 54044.3 1300.13  17
  -2  -3   2 54500.3 1297.65  16
   2  -3  -2 60834.0 1514.16   9
  -2  -3   2 53701.3 1295.51  15
   2  -3  -2 59935.9 1633.96  22
   2  -3  -2 57936.3 1598.04  20
   2  -3  -2 62465.7 1521.32   1
  -2  -3   2 54246.9 1304.96  23
   2  -3  -2 58291.6 1607.45  21
   2  -3  -2 60944.1 1610.42  19
   2  -3  -1 5016.51 266.841   9
   2  -3  -1 4644.98 314.021  22
   2  -3  -1 4898.68 309.262  19
   2  -3  -1 4886.97 315.993  21
  -2  -3   1 4462.87 239.514  12
   2  -3  -1 5087.59 241.838   3
   2  -3  -1 5155.22 293.335   1
   2  -3  -1 5179.80 315.201  23
  -2  -3   1 4709.06 235.517   4
   2  -3  -1 5072.88 318.076  20
   2  -3   0 22236.2 812.344  20
   2  -3   0 21919.0 779.411  17
   2  -3   0 22234.7 803.735  19
   2  -3   0 20248.6 733.684   1
  -2  -3   0 21507.4 684.739   1
   2  -3   0 22778.6 726.969   9
  -2  -3   0 23012.5 560.267  14
   2  -3   0 23259.6 740.117   3
   2  -3   0 21185.5 785.464  23
  -2  -3   0 21227.0 674.155   4
  -2  -3   0 23137.3 557.498  13
   2  -3   0 21037.2 804.705  21
   2  -3   1 4915.07 343.821  19
   2  -3   1 4976.74 303.094   1
   2  -3   1 4980.99 330.272  17
  -2  -3  -1 4920.91 228.819   1
   2  -3   1 4474.66 339.163  21
   2  -3   1 5242.09 302.547   9
  -2  -3  -1 4707.98 247.746   4
  -2  -3  -1 4426.90 220.312  14
   2  -3   1 4540.97 338.802  20
   2  -3   1 5037.80 339.225  23
  -2  -3  -1 5142.50 231.524  13
   2  -3   1 5016.43 319.249   3
   2  -3   2 21110.3 810.014   3
   2  -3   2 19015.2 784.575  16
   2  -3   2 19885.3 823.268  23
   2  -3   2 19785.9 805.805  17
  -2  -3  -2 19842.6 623.735   4
   2  -3   2 19441.1 744.449   9
  -2  -3  -2 18115.1 527.579   1
   2  -3   2 19704.7 836.203  19
  -2  -3  -2 20280.3 648.115  21
  -2  -3  -2 18785.4 655.432  13
   2  -3   2 19497.2 844.000  20
   2  -3   3 8603.86 567.436  20
   2  -3   3 7663.30 497.428   3
   2  -3   3 7375.32 488.946  16
   2  -3   3 7475.73 458.156   9
   2  -3   3 7462.92 524.037  19
  -2  -3  -3 7762.92 338.065   4
   2  -3   3 7771.05 519.880  23
   2  -3   3 7845.89 508.970  17
  -2  -3  -3 7942.40 402.157  21
  -2  -3  -3 7798.21 416.741  13
   2  -3   4 17071.3 927.691  20
   2  -3   4 17940.3 869.220   3
   2  -3   4 16538.9 903.015  19
   2  -3   4 18806.5 908.582  17
  -2  -3  -4 19077.3 759.497  21
   2  -3   4 17294.6 862.412  16
  -2  -3  -4 16332.8 679.415   9
   2  -3   4 17514.4 897.646  23
  -2  -3  -4 18837.9 611.340   4
  -2  -3  -4 18631.1 777.102  13
  -2  -3  -5 502.850 138.574  13
   2  -3   5 771.945 212.097  20
   2  -3   5 470.230 164.916  19
   2  -3   5 397.081 152.030  17
   2  -3   5 302.193 122.414   3
  -2  -3  -5 571.965 128.886   9
  -2  -3  -5 453.484 122.150  21
   2  -3   5 577.484 167.976  16
  -2  -3  -5 594.722 95.7435   4
   2  -3   5 447.627 156.590  23
   2  -2  -7 20817.5 996.113  20
  -2  -2   7 19499.0 996.382   3
  -2  -2   7 17912.3 946.761  19
  -2  -2   7 17338.3 871.403  17
  -2  -2   7 18663.3 981.431  10
  -2  -2   7 17175.6 853.152  16
   2  -2  -7 19482.3 694.226   1
   2  -2  -7 18453.4 878.862   9
  -2  -2   7 18898.8 883.326  15
  -2  -2   7 16273.9 876.909  23
  -2  -2   7 20186.3 979.707  12
   2  -2  -7 19830.9 957.318  21
  -2  -2   6 748.250 122.149   6
   2  -2  -6 979.016 190.388  20
  -2  -2   6 413.958 120.929  19
   2  -2  -6 612.341 88.2561   1
  -2  -2   6 740.958 163.327  10
  -2  -2   6 702.442 141.784  17
  -2  -2   6 720.879 141.655  16
  -2  -2   6 553.156 160.752   3
  -2  -2   6 618.606 131.233  15
   2  -2  -6 636.329 139.374   9
  -2  -2   6 575.581 136.117  12
  -2  -2   6 738.477 157.451  23
   2  -2  -6 554.746 141.097  21
  -2  -2   5 12917.3 605.738  19
  -2  -2   5 11836.1 602.311  10
   2  -2  -5 10347.9 577.426  21
  -2  -2   5 11566.9 539.824  17
  -2  -2   5 11879.7 662.750   3
  -2  -2   5 11483.8 530.409  16
   2  -2  -5 11986.4 558.153   9
  -2  -2   5 11349.5 524.685  15
   2  -2  -5 11675.9 609.519  20
   2  -2  -5 12864.7 430.849   1
   2  -2  -5 11563.0 359.719   7
  -2  -2   5 11968.0 482.762   6
  -2  -2   5 11267.4 549.390  23
  -2  -2   5 11218.2 589.569  12
  -2  -2   4 4251.36 238.216   6
  -2  -2   4 4261.82 262.553  17
   2  -2  -4 4372.37 338.457  20
   2  -2  -4 4888.52 364.524  19
   2  -2  -4 4662.81 217.982   1
  -2  -2   4 4494.03 301.783  10
  -2  -2   4 4566.46 266.193  16
   2  -2  -4 4841.23 368.986  22
   2  -2  -4 4454.07 296.816   9
  -2  -2   4 4474.28 262.548  15
  -2  -2   4 4381.16 253.119  14
  -2  -2   4 5011.27 326.807  12
   2  -2  -4 4828.65 357.581  21
  -2  -2   4 4251.08 273.190  23
   2  -2  -4 4301.55 225.332   4
  -2  -2   4 4546.91 362.183   3
   2  -2  -3 16722.9 589.585   9
  -2  -2   3 16329.0 526.789  17
   2  -2  -3 15967.4 647.062  20
  -2  -2   3 16975.2 619.096  12
   2  -2  -3 16660.6 681.322  22
  -2  -2   3 16351.9 521.088  15
  -2  -2   3 16908.1 544.072  23
  -2  -2   3 17055.8 586.747  10
   2  -2  -3 17272.8 667.488  19
  -2  -2   3 16824.5 525.924  16
   2  -2  -3 15945.8 656.265  21
  -2  -2   3 16857.6 517.456  14
   2  -2  -3 15802.5 505.730   1
  -2  -2   3 16318.4 544.564   6
   2  -2  -2 27110.1 867.266  19
  -2  -2   2 27678.3 703.358  23
   2  -2  -2 24534.1 731.070   1
  -2  -2   2 26392.5 736.500  10
   2  -2  -2 26352.3 859.726  23
  -2  -2   2 26621.4 686.895  17
   2  -2  -2 25472.6 855.406  20
  -2  -2   2 25748.0 683.672  16
   2  -2  -2 26448.7 785.206   9
  -2  -2   2 26482.7 785.598   6
  -2  -2   2 26793.0 683.149  15
  -2  -2   2 27408.6 676.893  14
  -2  -2   2 25687.1 661.898   4
   2  -2  -2 25526.6 872.880  22
   2  -2  -2 25778.3 862.661  21
  -2  -2   2 27554.3 812.848  12
  -2  -2   1 76938.6 1938.70   4
   2  -2  -1 79550.2 2121.78  20
   2  -2  -1 80922.1 2117.07  19
  -2  -2   1 74969.5 2058.17   6
  -2  -2   1 89666.4 1934.70  10
   2  -2  -1 79118.5 2127.89  21
  -2  -2   1 84439.9 1890.58  16
   2  -2  -1 85318.2 2044.45   9
  -2  -2   1 84817.9 1889.27  15
   2  -2  -1 78398.8 2128.92  22
   2  -2  -1 82964.0 2022.36   1
   2  -2  -1 92402.9 2011.96   3
  -2  -2   1 84400.6 1886.13  14
  -2  -2   1 83500.3 1885.59  13
   2  -2  -1 81201.3 2109.18  23
   2  -2   0 13149.5 478.383   9
   2  -2   0 13288.1 475.897   3
   2  -2   0 13318.9 542.065  19
   2  -2   0 13142.6 465.661   1
   2  -2   0 12836.8 521.964  17
  -2  -2   0 13654.2 413.271  10
   2  -2   0 13015.0 544.927  20
  -2  -2   0 13598.7 385.567  13
  -2  -2   0 13370.2 412.679   1
  -2  -2   0 12125.1 403.790   4
  -2  -2   0 13823.4 391.454  14
   2  -2   0 13315.1 532.656  23
   2  -2   0 12217.9 538.731  21
  -2  -2  -1 95207.5 2232.65   1
   2  -2   1 99567.3 2505.50  16
   2  -2   1 100444. 2572.49  20
   2  -2   1 101779. 2564.41  19
   2  -2   1 100458. 2521.81  17
   2  -2   1 101433. 2480.06   3
   2  -2   1 106398. 2467.79   9
  -2  -2  -1 95326.9 2346.62  14
  -2  -2  -1 97874.2 2319.97   4
   2  -2   1 101318. 2542.64  23
  -2  -2  -1 104407. 2358.62  13
   2  -2   2 6313.19 418.757  20
   2  -2   2 5700.20 362.638   3
   2  -2   2 6266.53 382.893  16
   2  -2   2 6010.00 400.638  19
   2  -2   2 5968.35 391.252  23
   2  -2   2 6142.99 386.357  17
   2  -2   2 5802.74 348.225   9
  -2  -2  -2 6040.99 186.887   1
  -2  -2  -2 6168.17 259.293   4
  -2  -2  -2 6428.75 308.540  21
  -2  -2  -2 5929.23 310.575  13
   2  -2   3 18433.2 788.598   3
   2  -2   3 18626.4 814.063  17
   2  -2   3 18339.0 848.764  19
  -2  -2  -3 19609.2 588.134   4
   2  -2   3 19679.4 821.337  16
   2  -2   3 17266.0 750.623   9
   2  -2   3 19325.8 842.366  23
  -2  -2  -3 18924.8 721.479  13
   2  -2   3 19139.6 878.481  20
  -2  -2  -3 20097.8 713.580  21
   2  -2   4 8014.47 570.924  19
   2  -2   4 7752.19 545.460  23
   2  -2   4 7430.52 513.448  16
  -2  -2  -4 8120.79 336.571   4
   2  -2   4 7693.80 534.773  17
   2  -2   4 7925.07 581.617  20
  -2  -2  -4 8690.63 470.636  21
  -2  -2  -4 8059.63 477.840  13
   2  -2   4 7638.39 500.857   3
   2  -2   5 1047.77 233.088  19
   2  -2   5 1344.01 244.481  17
   2  -2   5 1084.74 209.304   3
   2  -2   5 1286.18 265.460  20
   2  -2   5 885.341 197.115  16
  -2  -2  -5 1131.62 193.198  13
  -2  -2  -5 1115.32 183.004   9
  -2  -2  -5 1156.15 124.721   4
   2  -2   5 1174.03 239.651  23
  -2  -2  -5 1051.25 178.674  21
  -2  -1   7 1307.48 183.114   6
  -2  -1   7 1276.48 240.860  19
  -2  -1   7 843.745 188.060  17
  -2  -1   7 1264.12 246.254  10
  -2  -1   7 765.753 175.435  16
  -2  -1   7 835.135 183.751  15
  -2  -1   7 1052.65 208.437  23
   2  -1  -7 889.841 168.939   9
   2  -1  -7 1041.41 198.924  21
  -2  -1   7 1256.89 237.511  12
   2  -1  -6 17885.0 802.942  20
  -2  -1   6 15840.2 791.389  19
  -2  -1   6 15250.0 787.054  10
  -2  -1   6 13755.6 734.987   3
  -2  -1   6 14869.3 714.250  17
  -2  -1   6 15112.5 767.385  12
  -2  -1   6 14806.1 703.435  16
   2  -1  -6 14844.6 541.168   1
   2  -1  -6 14277.4 670.502   9
  -2  -1   6 14232.6 690.150  15
   2  -1  -6 14975.6 732.207  21
  -2  -1   6 15163.5 743.323  23
  -2  -1   6 13956.9 610.328   6
  -2  -1   5 5218.30 382.707  12
  -2  -1   5 4984.13 391.126   3
  -2  -1   5 5673.26 354.370  16
   2  -1  -5 5272.70 337.642   9
   2  -1  -5 5846.23 260.845   1
  -2  -1   5 5572.80 396.748  10
   2  -1  -5 5987.13 397.930  20
  -2  -1   5 5388.78 336.526  14
  -2  -1   5 5497.74 349.143  15
   2  -1  -5 5290.95 225.711   7
  -2  -1   5 5631.15 373.507  23
   2  -1  -5 5368.76 380.273  21
  -2  -1   5 5740.74 362.488  17
  -2  -1   5 5481.48 307.300   6
  -2  -1   4 14788.4 616.439  12
  -2  -1   4 13650.4 597.287  10
   2  -1  -4 13612.6 418.430   5
   2  -1  -4 14018.8 405.426   7
  -2  -1   4 14021.4 638.544   3
  -2  -1   4 14037.5 541.409  16
  -2  -1   4 14847.0 562.515  17
   2  -1  -4 13897.6 546.435   9
  -2  -1   4 14382.0 547.150  15
   2  -1  -4 15337.3 450.006   1
  -2  -1   4 14368.2 538.182  14
  -2  -1   4 15134.5 581.699  23
   2  -1  -4 13880.5 388.167   4
   2  -1  -4 13903.8 604.242  21
   2  -1  -4 14793.4 616.399  20
  -2  -1   4 14551.5 509.826   6
  -2  -1   3 736.792 114.359  12
  -2  -1   3 652.202 87.8279  23
   2  -1  -3 599.534 42.6183   5
  -2  -1   3 572.676 94.8417  10
  -2  -1   3 697.576 87.1008  17
  -2  -1   3 608.224 79.3763  16
   2  -1  -3 769.537 115.998  20
  -2  -1   3 544.424 75.9073  15
   2  -1  -3 602.744 109.495  22
   2  -1  -3 592.247 88.7909   9
  -2  -1   3 702.517 83.8588  14
   2  -1  -3 680.272 65.4422   1
  -2  -1   3 667.193 85.2204   6
   2  -1  -3 587.845 105.791  21
   2  -1  -3 561.090 104.234  19
  -2  -1   2 68219.5 1662.35   6
   2  -1  -2 66070.6 1752.05  22
  -2  -1   2 64046.2 1666.45  10
  -2  -1   2 69619.1 1615.49  17
   2  -1  -2 65284.4 1731.64  19
  -2  -1   2 69221.3 1607.61  16
   2  -1  -2 69920.2 1664.63   9
  -2  -1   2 70412.3 1606.42  15
  -2  -1   2 67104.8 1597.21  13
  -2  -1   2 73819.7 1482.75   4
   2  -1  -2 68989.2 1741.62  23
  -2  -1   2 67558.9 1599.34  14
   2  -1  -2 61818.1 1558.57   1
  -2  -1   2 65291.5 1710.75  12
   2  -1  -2 64665.8 1736.85  20
   2  -1  -2 63543.8 1735.32  21
   2  -1  -1 3856.42 164.396   1
   2  -1  -1 4136.02 246.812  20
   2  -1  -1 3950.68 238.216  19
  -2  -1   1 3993.74 220.892   6
   2  -1  -1 4424.89 166.203  18
  -2  -1   1 4169.07 204.050  10
  -2  -1   1 4149.76 173.627  16
   2  -1  -1 3989.29 246.222  22
   2  -1  -1 3955.44 203.393   9
  -2  -1   1 4356.24 174.519  15
  -2  -1   1 4186.51 168.684  14
  -2  -1   1 4323.00 137.228   4
   2  -1  -1 4116.01 239.982  23
  -2  -1   1 4328.03 169.857  13
   2  -1  -1 4259.60 249.908  21
   2  -1   0 115577. 2698.55   3
   2  -1   0 111670. 2754.58  17
  -2  -1   0 113171. 2688.01  10
   2  -1   0 116763. 2703.61   9
   2  -1   0 110736. 2772.28  19
   2  -1   0 110674. 2784.13  20
  -2  -1   0 115434. 2581.76   4
  -2  -1   0 117570. 2640.86  14
  -2  -1   0 118237. 2636.13  13
   2  -1   0 111616. 2760.65  23
   2  -1   0 113746. 2616.23   1
   2  -1   0 110810. 2789.27  21
   2  -1   1 7128.08 334.920   3
   2  -1   1 7146.84 377.456  19
  -2  -1  -1 7376.10 338.695  10
   2  -1   1 7471.30 339.958   9
   2  -1   1 6905.67 377.729  20
   2  -1   1 7221.38 369.165  23
   2  -1   1 7011.82 357.040  17
   2  -1   1 6603.02 343.085  16
  -2  -1  -1 7511.85 248.457   4
  -2  -1  -1 6642.52 295.438  14
  -2  -1  -1 7188.71 300.846  13
   2  -1   2 43578.3 1272.72   3
   2  -1   2 44696.1 1323.21  17
   2  -1   2 44196.3 1358.82  19
  -2  -1  -2 43947.8 1221.59  13
   2  -1   2 43444.1 1271.71   9
  -2  -1  -2 46071.2 1092.84   4
   2  -1   2 44726.5 1376.46  20
  -2  -1  -2 39074.7 1197.12  14
   2  -1   2 42001.4 1290.57  16
   2  -1   2 43316.8 1329.16  23
   2  -1   3 2793.59 249.692   3
   2  -1   3 2753.97 285.178  19
   2  -1   3 2564.68 254.298  16
  -2  -1  -3 2794.91 160.536   4
   2  -1   3 2472.45 259.935  23
   2  -1   3 2608.83 282.071  20
  -2  -1  -3 2777.23 225.786  21
  -2  -1  -3 2508.50 222.196  13
   2  -1   3 2816.06 269.357  17
   2  -1   4 4419.66 349.370   3
   2  -1   4 4582.71 408.543  19
   2  -1   4 4910.69 389.983  16
   2  -1   4 4199.30 402.334  20
  -2  -1  -4 4811.91 240.062   4
  -2  -1  -4 4889.34 343.563  21
   2  -1   4 4680.74 388.318  17
  -2  -1  -4 4349.23 336.527  13
   2  -1   4 4227.10 379.840  23
   2  -1   5 5593.88 424.950   3
   2  -1   5 4995.59 489.616  20
   2  -1   5 5117.10 485.809  19
   2  -1   5 5898.76 486.401  17
   2  -1   5 5481.63 467.091  16
  -2  -1  -5 5619.51 299.001   4
   2  -1   5 5646.91 491.243  23
  -2  -1  -5 5883.06 435.914  13
  -2   0   7 10717.9 709.965  19
  -2   0   7 9652.25 691.919  10
  -2   0   7 11136.5 701.995  12
  -2   0   7 11268.6 673.212  17
  -2   0   7 10271.1 634.843  16
   2   0  -7 10575.0 595.240   9
  -2   0   7 10149.2 628.170  15
   2   0  -7 9620.10 589.155  18
  -2   0   7 9421.59 540.652   6
  -2   0   7 10164.5 661.115  23
   2   0  -7 10920.3 642.552  21
   2   0  -7 9524.60 629.285  13
  -2   0   6 785.527 132.635   6
   2   0  -6 971.062 157.458  18
  -2   0   6 793.345 173.156  10
  -2   0   6 921.465 160.195  16
  -2   0   6 705.862 147.327   3
  -2   0   6 762.359 154.299  17
  -2   0   6 547.946 134.487  15
   2   0  -6 835.037 145.451   9
   2   0  -6 818.071 165.718  20
  -2   0   6 874.533 180.559  12
  -2   0   6 652.033 129.837  14
  -2   0   6 829.553 165.921  23
   2   0  -6 999.776 170.568  21
  -2   0   5 1934.39 234.161  10
  -2   0   5 2074.77 188.188   6
  -2   0   5 2080.19 214.996  17
  -2   0   5 1844.74 212.760   3
  -2   0   5 2434.99 225.522  16
   2   0  -5 1825.34 185.947   9
  -2   0   5 2232.66 216.821  15
  -2   0   5 2303.51 246.564  12
  -2   0   5 2255.66 211.921  14
   2   0  -5 2295.57 159.842   7
  -2   0   5 2408.66 239.058  23
   2   0  -5 2451.63 243.524  20
   2   0  -5 2171.65 226.264  21
  -2   0   4 1085.57 151.494  12
  -2   0   4 974.415 125.877  17
  -2   0   4 799.601 133.074  10
   2   0  -4 812.015 102.686   5
  -2   0   4 980.930 123.142  16
   2   0  -4 932.690 113.598   9
   2   0  -4 958.460 87.4672   1
   2   0  -4 951.264 132.272  21
  -2   0   4 822.224 112.403  15
   2   0  -4 991.577 135.166  20
  -2   0   4 1107.20 129.385  14
  -2   0   4 1010.80 146.631   3
   2   0  -4 1117.68 91.2214   7
  -2   0   4 894.235 107.113   6
  -2   0   4 1050.28 134.750  23
  -2   0   3 2702.49 169.171   6
  -2   0   3 2476.41 205.490  10
   2   0  -3 2346.47 189.216  21
   2   0  -3 2655.97 157.513   5
  -2   0   3 2588.16 180.622  17
  -2   0   3 2662.96 177.802  16
   2   0  -3 2542.82 170.482   9
   2   0  -3 2844.98 132.804   1
  -2   0   3 2754.67 181.167  15
  -2   0   3 2533.91 170.410  13
   2   0  -3 2386.25 190.083  20
  -2   0   3 2555.94 171.858  14
  -2   0   3 2641.16 209.319  12
   2   0  -3 2545.96 126.380   7
   2   0  -3 2723.55 204.708  19
   2   0  -3 2820.35 216.163  22
   2   0  -3 2998.36 186.310  18
  -2   0   2 36759.5 1056.00  12
   2   0  -2 37044.0 1038.42  20
   2   0  -2 39413.5 1005.15  18
   2   0  -2 39350.5 974.069   5
  -2   0   2 36660.5 1052.35  10
  -2   0   2 37416.4 996.127  17
  -2   0   2 37579.0 986.633  16
   2   0  -2 38412.5 983.129   9
   2   0  -2 38362.5 1060.40  22
  -2   0   2 38237.3 986.718  15
   2   0  -2 39078.1 893.862   1
  -2   0   2 37296.6 976.163  13
  -2   0   2 37861.5 981.065  14
   2   0  -2 36492.6 894.680   2
   2   0  -2 35694.6 901.853   7
   2   0  -2 38482.6 1043.97  19
  -2   0   2 37490.8 987.745   6
   2   0  -2 38016.0 1047.22  21
   2   0  -1 37743.9 900.069   7
   2   0  -1 38665.3 909.712   2
   2   0  -1 38260.2 1028.64  23
   2   0  -1 37524.4 972.975  18
  -2   0   1 36736.6 1032.02  10
   2   0  -1 37189.5 1042.07  22
  -2   0   1 37823.0 978.256  16
   2   0  -1 38928.2 975.690   9
  -2   0   1 38924.0 979.034  15
  -2   0   1 38746.1 899.110   4
   2   0  -1 36617.5 1027.57  19
   2   0  -1 38877.2 873.478   1
  -2   0   1 38974.3 973.442  14
  -2   0   1 38068.3 967.629  13
  -2   0   1 36921.8 997.034   6
   2   0  -1 37597.6 1033.77  20
   2   0  -1 37210.5 1038.33  21
   2   0   0 8282.02 353.795  19
   2   0   0 8307.06 342.318  17
  -2   0   0 7813.17 342.598  10
   2   0   0 8467.62 350.062  23
   2   0   0 8667.51 316.914   9
  -2   0   0 8317.68 315.707  15
   2   0   0 8200.84 236.435   7
  -2   0   0 8364.74 252.449   4
  -2   0   0 8460.37 314.811  14
  -2   0   0 9348.85 319.440  13
   2   0   0 9135.35 332.614   3
   2   0   0 8322.66 358.251  20
   2   0   0 8166.22 359.353  21
   2   0   1 74485.0 1824.24   3
  -2   0  -1 73496.5 1808.54  13
   2   0   1 73585.0 1903.85  20
   2   0   1 73396.7 1721.37  11
   2   0   1 73011.4 1889.59  19
   2   0   1 71852.2 1848.89  16
  -2   0  -1 76135.4 1704.85   4
   2   0   1 72336.1 1829.21   9
   2   0   1 71868.5 1856.28  17
  -2   0  -1 70757.8 1808.81  14
  -2   0  -1 73345.2 1881.06  10
   2   0   1 73379.5 1874.30  23
   2   0   1 72682.9 1655.36   7
   2   0   2 21989.0 647.365  11
   2   0   2 19409.1 764.752  19
   2   0   2 20728.4 750.877  17
  -2   0  -2 21885.3 775.262  10
   2   0   2 20563.3 739.844  16
   2   0   2 19636.0 778.581  20
   2   0   2 19443.2 714.382   9
  -2   0  -2 21844.6 595.267   4
  -2   0  -2 19533.9 693.343  13
  -2   0  -2 19340.3 699.031  14
   2   0   2 20992.5 766.946  23
   2   0   2 21153.3 711.576   3
   2   0   2 23562.9 535.320   7
   2   0   3 8410.13 504.343  20
   2   0   3 8564.52 500.178  19
   2   0   3 9229.08 489.132  17
   2   0   3 8947.66 473.924  16
   2   0   3 8941.98 440.006   3
  -2   0  -3 9634.18 459.401  13
  -2   0  -3 8987.00 333.109   4
  -2   0  -3 7760.44 424.360  14
   2   0   3 8293.79 479.136  23
   2   0   4 10375.3 638.445  20
   2   0   4 11400.1 653.521  19
   2   0   4 11552.0 620.502  17
   2   0   4 11087.9 601.722  16
  -2   0  -4 11639.3 436.554   4
  -2   0  -4 9932.82 547.201  14
   2   0   4 11468.5 631.704  23
  -2   0  -4 11160.2 569.776  13
   2   0   4 12027.5 563.629   3
   2   0   5-2.38025 87.2961  20
   2   0   5-6.29172 69.0709  23
  -2   0  -5-47.4147 37.4598   4
   2   0   5-10.5588 77.6672  17
   2   0   5 39.1275 44.6237   2
   2   0   5 48.5552 61.8585   3
   2   0   5 3.83885 78.7242  16
   2   0   5-149.883 101.836  19
  -2   0  -5 36.5914 70.9086  13
  -2   0  -5 77.4243 82.4135  14
  -2   1   7 938.223 205.366  12
  -2   1   7 682.053 146.782   6
  -2   1   7 954.464 204.482  23
   2   1  -7 789.516 171.882  18
  -2   1   7 763.790 173.912  17
  -2   1   7 970.616 192.339  16
  -2   1   7 795.979 176.165  15
   2   1  -7 984.974 173.135   9
  -2   1   7 1328.73 255.991  10
   2   1  -7 962.132 190.071  13
   2   1  -7 929.918 176.476  21
   2   1  -6 12669.4 666.550  13
  -2   1   6 14955.2 715.911  17
  -2   1   6 12941.9 749.192  10
   2   1  -6 14143.6 689.216  18
  -2   1   6 14771.2 738.243  23
  -2   1   6 14913.1 701.008  16
   2   1  -6 14469.6 645.473   9
  -2   1   6 14437.6 693.572  15
  -2   1   6 14765.5 683.959  14
  -2   1   6 14027.4 635.958   6
   2   1  -6 15316.7 691.756  21
  -2   1   6 14788.1 752.660  12
   2   1  -5 5930.15 370.842  20
   2   1  -5 5371.41 285.851   7
  -2   1   5 5300.61 370.581  23
  -2   1   5 4853.64 389.683  10
   2   1  -5 5267.73 354.910  18
  -2   1   5 5083.80 324.397   3
  -2   1   5 5401.77 361.400  17
   2   1  -5 5389.23 351.952   5
  -2   1   5 5247.41 346.123  16
  -2   1   5 6293.67 376.383  15
   2   1  -5 5277.71 319.434   9
  -2   1   5 5309.33 342.391  14
   2   1  -5 5494.89 350.316  21
  -2   1   5 5397.96 325.545   6
  -2   1   5 4760.52 362.659  12
  -2   1   4 14308.8 606.636  12
  -2   1   4 15185.7 606.566  23
  -2   1   4 13953.8 566.138  17
  -2   1   4 13300.8 623.901  10
   2   1  -4 14359.8 566.914  20
  -2   1   4 14817.1 563.062   3
   2   1  -4 13515.6 513.941   9
  -2   1   4 14624.0 566.071  15
  -2   1   4 14638.6 558.433  14
  -2   1   4 14628.1 565.446  16
   2   1  -4 15196.3 513.330   7
   2   1  -4 13994.4 571.774   5
   2   1  -4 14300.9 585.438  18
   2   1  -4 13760.4 553.350  21
  -2   1   4 14071.6 530.598   6
  -2   1   3 770.613 122.923  10
   2   1  -3 627.602 89.8041  20
  -2   1   3 560.541 80.2661   6
   2   1  -3 602.642 99.4314  18
  -2   1   3 614.448 92.9111  17
   2   1  -3 626.981 94.9664   5
  -2   1   3 463.899 79.8854  16
   2   1  -3 655.217 78.6294   7
  -2   1   3 559.018 86.2896  15
  -2   1   3 599.202 103.092  12
   2   1  -3 579.111 74.9804   9
  -2   1   3 534.234 83.9336  14
  -2   1   3 657.796 92.7407  13
   2   1  -3 570.433 88.9764  21
  -2   1   2 66113.8 1711.27  12
   2   1  -2 67702.5 1650.35  19
  -2   1   2 66706.3 1660.54  14
   2   1  -2 66696.4 1688.28   5
  -2   1   2 66834.6 1758.18  10
  -2   1   2 69417.0 1677.39  16
   2   1  -2 66825.9 1603.78   9
   2   1  -2 66047.9 1648.29  20
   2   1  -2 72641.7 1733.04  18
  -2   1   2 68033.3 1670.02  15
   2   1  -2 66845.0 1614.97   7
   2   1  -2 65415.3 1620.81   2
   2   1  -2 67358.3 1664.92  22
  -2   1   2 68114.1 1633.86   6
  -2   1   2 67786.1 1660.55  13
   2   1  -2 65803.8 1650.71  21
  -2   1   1 4192.80 191.084   6
   2   1  -1 5175.99 247.318   5
   2   1  -1 4341.65 200.839  23
  -2   1   1 3977.06 243.249  10
   2   1  -1 4064.08 179.790   7
  -2   1   1 4013.78 208.646  16
  -2   1   1 4208.96 192.156   4
   2   1  -1 4191.32 173.204   9
   2   1  -1 3892.85 196.502  19
  -2   1   1 4481.94 216.784  15
   2   1  -1 4125.52 202.978  22
  -2   1   1 4287.42 209.913  14
   2   1  -1 4362.38 203.662  20
  -2   1   1 4307.44 208.317  13
   2   1  -1 4105.36 198.238   2
   2   1  -1 4367.46 207.034  21
   2   1  -1 3470.60 205.787  18
   2   1   0 114264. 2665.56  19
   2   1   0 113925. 2647.01  17
   2   1   0 110770. 2634.43  16
  -2   1   0 110260. 2736.86  10
  -2   1   0 108619. 2607.89   4
   2   1   0 110145. 2603.70   9
  -2   1   0 111884. 2670.21  15
  -2   1   0 113387. 2666.77  14
   2   1   0 114034. 2673.30  20
   2   1   0 114869. 2655.50  23
  -2   1   0 109676. 2612.70   6
   2   1   0 117024. 2596.73   7
  -2   1   0 117837. 2664.41  13
   2   1   0 117699. 2625.56   2
   2   1   1 6916.73 318.592  17
   2   1   1 6723.75 334.857  20
   2   1   1 6670.29 329.138  19
  -2   1  -1 7289.26 365.370  10
   2   1   1 6954.28 325.309  23
   2   1   1 6770.46 311.913  16
   2   1   1 7759.55 312.048   3
  -2   1  -1 6427.18 263.182   4
   2   1   1 7731.90 285.881   2
   2   1   1 6724.61 301.032   9
  -2   1  -1 7388.10 331.177  14
   2   1   1 7072.61 299.484  11
   2   1   1 7865.45 265.314   7
  -2   1  -1 7019.69 317.601  13
   2   1   2 43069.9 1289.42  20
   2   1   2 41078.3 1175.95  11
   2   1   2 45650.3 1130.21   2
   2   1   2 42292.0 1270.65  19
   2   1   2 43015.2 1237.45  17
  -2   1  -2 45086.2 1314.68  10
   2   1   2 43199.2 1229.89  16
  -2   1  -2 41011.7 1106.60   4
  -2   1  -2 41049.6 1221.66  14
   2   1   2 42997.6 1252.06  23
  -2   1  -2 42458.9 1223.16  13
   2   1   2 46444.0 1193.39   3
   2   1   3 2422.56 247.747  19
   2   1   3 2672.52 216.867  11
   2   1   3 2769.60 185.390   2
   2   1   3 2643.72 240.805  17
   2   1   3 2609.02 234.066  16
   2   1   3 2022.48 204.639  15
   2   1   3 2657.22 207.967   3
  -2   1  -3 2501.11 174.302   4
  -2   1  -3 2538.24 228.703  14
  -2   1  -3 2630.07 229.695  13
   2   1   3 2523.10 241.592  23
   2   1   4 4710.44 331.929  11
   2   1   4 4501.03 267.373   2
   2   1   4 4109.10 356.232  23
   2   1   4 4083.83 346.317  17
  -2   1  -4 4486.47 336.223  13
   2   1   4 4432.25 351.890  16
   2   1   4 3651.57 320.674  15
  -2   1  -4 3980.79 252.985   4
   2   1   4 4146.98 371.175  19
  -2   1  -4 3621.64 311.478  14
   2   1   4 4375.45 302.023   3
   2   1   5 5961.35 421.758  11
   2   1   5 5691.02 491.841  19
   2   1   5 5969.20 469.110  17
   2   1   5 5185.43 437.218  16
   2   1   5 6066.34 355.981   2
  -2   1  -5 5472.22 342.033   4
  -2   1  -5 4786.09 399.359  14
   2   1   5 4697.08 434.319  23
  -2   1  -5 5186.84 409.102  13
  -2   2   7 18803.5 1027.89  10
  -2   2   7 19745.7 942.730  17
  -2   2   7 19740.3 925.369  16
   2   2  -7 18042.9 919.762  18
   2   2  -7 18811.5 823.098   9
  -2   2   7 18620.5 901.299  15
  -2   2   7 18234.6 873.362  14
  -2   2   7 17412.6 922.333  23
   2   2  -7 18338.9 838.432  21
   2   2  -7 17168.1 862.137  13
  -2   2   7 19887.5 970.503  12
  -2   2   6 636.782 150.800  12
  -2   2   6 739.695 169.054  23
  -2   2   6 647.752 128.354   6
   2   2  -6 701.308 153.297  18
  -2   2   6 681.120 153.837  17
  -2   2   6 622.788 162.232  10
   2   2  -6 661.121 152.947   5
  -2   2   6 696.298 146.622  16
  -2   2   6 490.593 129.934  15
   2   2  -6 614.621 122.504   9
  -2   2   6 635.773 143.836  14
   2   2  -6 669.597 142.143  13
   2   2  -6 673.298 138.206  21
  -2   2   5 10536.2 613.615  10
  -2   2   5 12539.9 583.282  17
   2   2  -5 11259.0 598.247   5
  -2   2   5 12444.6 574.466  16
   2   2  -5 11315.5 498.201   9
  -2   2   5 12022.4 598.836  23
  -2   2   5 11438.5 553.236  15
   2   2  -5 10368.3 520.351  13
  -2   2   5 11854.9 551.744  14
  -2   2   5 11042.4 519.030   8
   2   2  -5 12409.9 614.210  18
   2   2  -5 12251.8 540.873  21
  -2   2   5 11817.4 531.562   6
  -2   2   5 11277.7 580.822  12
   2   2  -4 5134.13 293.232  20
  -2   2   4 4504.71 287.412  13
  -2   2   4 4530.27 354.608  10
   2   2  -4 4643.24 327.319   5
  -2   2   4 4432.23 294.009  16
  -2   2   4 4286.98 235.329   3
   2   2  -4 4314.38 247.490   9
  -2   2   4 4931.43 306.860  15
  -2   2   4 4696.29 294.391  14
  -2   2   4 4799.95 307.005   8
  -2   2   4 5000.64 317.563  17
   2   2  -4 4636.13 328.125  18
   2   2  -4 4002.75 251.431   7
   2   2  -4 4646.42 273.354  21
  -2   2   4 4644.79 311.249  12
  -2   2   4 3953.34 263.320   6
   2   2  -3 17964.8 555.062  20
   2   2  -3 16670.7 657.202  18
   2   2  -3 16752.7 646.485   5
  -2   2   3 16571.1 607.679  17
   2   2  -3 16814.3 516.424   9
  -2   2   3 16564.0 596.871  16
  -2   2   3 16320.3 592.458  15
  -2   2   3 15910.4 602.024  12
  -2   2   3 17036.2 594.857  14
  -2   2   3 16105.3 579.240  13
  -2   2   3 15604.0 661.246  10
   2   2  -3 16671.7 577.651   7
   2   2  -3 16281.0 535.574  21
  -2   2   3 17425.5 570.403   6
  -2   2   2 28143.1 751.807   6
  -2   2   2 26447.2 801.563  12
   2   2  -2 26231.8 848.691  18
  -2   2   2 26775.9 883.473  10
   2   2  -2 26677.1 852.329   5
  -2   2   2 26094.5 635.520   5
  -2   2   2 27362.6 804.824  16
   2   2  -2 27163.8 686.209   9
   2   2  -2 25565.1 705.413  21
   2   2  -2 25754.3 787.514   7
  -2   2   2 27995.8 805.235  15
   2   2  -2 25735.1 795.289   2
  -2   2   2 27720.8 797.364  14
  -2   2   2 27624.8 793.732  13
   2   2  -2 26867.3 708.575  20
  -2   2   1 86930.1 1960.35   6
   2   2  -1 83940.5 1923.66  20
  -2   2   1 85423.7 1956.71  11
   2   2  -1 86697.9 2127.34   5
  -2   2   1 80158.0 2136.85  10
   2   2  -1 83349.7 1921.89  23
  -2   2   1 85853.3 2054.72  16
   2   2  -1 80591.6 1926.25  21
   2   2  -1 82637.1 1895.78   9
  -2   2   1 86032.6 2051.02  15
  -2   2   1 87035.6 2046.18  14
   2   2  -1 80233.7 2036.52   7
   2   2  -1 80779.6 2057.64   2
  -2   2   1 86729.9 2040.78  13
   2   2  -1 83335.1 1930.44  22
   2   2  -1 84093.6 1922.44  19
  -2   2   0 13897.1 385.654   6
   2   2   0 13078.3 408.432  16
   2   2   0 13474.6 428.138  19
   2   2   0 14067.2 421.233  17
  -2   2   0 13237.5 538.635  10
  -2   2   0 13444.9 483.997   4
  -2   2   0 14591.6 483.333  13
  -2   2   0 13606.1 486.175  15
   2   2   0 12439.6 391.535   9
  -2   2   0 13724.8 480.758  14
   2   2   0 13528.3 423.165  23
   2   2   0 12638.4 447.088   7
   2   2   0 13241.5 480.675   2
   2   2   0 13443.4 429.269  20
   2   2   1 101451. 2457.61   2
  -2   2  -1 99409.8 2313.08   6
  -2   2  -1 104964. 2261.57  18
   2   2   1 99025.2 2423.50  17
  -2   2  -1 103224. 2570.75  10
   2   2   1 96950.4 2412.55  16
   2   2   1 96621.5 2482.20  11
  -2   2  -1 98441.6 2444.79   4
   2   2   1 100470. 2461.74  20
  -2   2  -1 101119. 2479.98  14
   2   2   1 98986.2 2433.44  23
  -2   2  -1 103872. 2470.18  13
   2   2   1 100397. 2452.16  19
   2   2   2 5525.94 331.042  19
  -2   2  -2 5016.38 210.941  18
   2   2   2 5766.39 317.825  17
  -2   2  -2 6076.61 372.516  10
  -2   2  -2 5855.75 267.051   8
   2   2   2 5337.51 301.566  16
   2   2   2 5963.22 313.190  15
  -2   2  -2 5734.86 293.869   4
   2   2   2 5896.95 296.246   2
  -2   2  -2 5732.23 327.313  14
   2   2   2 5515.66 319.162  11
   2   2   2 5706.69 324.518  23
  -2   2  -2 5913.39 325.842  13
   2   2   3 16475.2 621.306   2
   2   2   3 17204.2 696.433  11
   2   2   3 17427.6 738.344  19
   2   2   3 18467.7 717.731  17
  -2   2  -3 20383.5 806.355  10
   2   2   3 16502.4 673.822  15
  -2   2  -3 16012.3 615.919   4
   2   2   3 17624.9 694.520  16
  -2   2  -3 17268.0 702.230  14
   2   2   3 17092.4 710.395  23
  -2   2  -3 17005.3 686.115  13
   2   2   3 20202.8 639.829   3
   2   2   4 7798.24 404.643   2
   2   2   4 7420.70 464.468  11
   2   2   4 7778.37 515.324  19
   2   2   4 7905.90 488.476  17
   2   2   4 7990.30 480.430  16
   2   2   4 7532.50 489.100  23
   2   2   4 7549.30 463.922  15
  -2   2  -4 7118.34 394.499   4
  -2   2  -4 7493.56 464.818  14
  -2   2  -4 7373.55 454.090  13
  -2   2  -5 1113.23 165.705   4
   2   2   5 1126.06 196.908  11
   2   2   5 792.538 191.541  19
   2   2   5 1406.73 245.521  10
   2   2   5 754.688 169.370  17
   2   2   5 946.679 147.400   2
   2   2   5 1110.09 202.908  16
   2   2   5 1112.22 198.604  15
  -2   2  -5 1238.00 203.908  14
   2   2   5 908.320 194.471  23
  -2   2  -5 1239.62 200.776  13
  -2   3   7 1007.89 203.418  12
  -2   3   7 678.485 178.523  11
  -2   3   7 646.439 160.030  17
  -2   3   7 488.232 168.568  10
  -2   3   7 642.191 153.349  16
  -2   3   7 541.974 151.021  15
   2   3  -7 468.663 120.400   9
  -2   3   7 507.258 140.639  14
   2   3  -7 724.298 177.483  18
  -2   3   7 886.210 198.760  23
   2   3  -7 694.325 161.105  13
   2   3  -7 832.327 163.948  21
  -2   3   6 4426.39 380.687  11
  -2   3   6 3584.73 392.052  10
   2   3  -6 3717.06 370.135  18
  -2   3   6 4287.92 374.005  17
  -2   3   6 4164.69 383.415  23
  -2   3   6 3999.36 354.064  16
   2   3  -6 3961.30 304.760   9
  -2   3   6 4391.80 371.303  15
  -2   3   6 4063.93 348.209  14
   2   3  -6 3745.76 384.138   5
   2   3  -6 4025.33 315.619  21
   2   3  -6 4248.64 337.601  13
  -2   3   6 3757.80 326.284   6
  -2   3   6 4028.46 363.996  12
  -2   3   5 6007.06 420.058  23
  -2   3   5 4987.55 420.558  10
   2   3  -5 5732.03 425.876  18
  -2   3   5 5894.93 397.249  17
   2   3  -5 5822.52 446.797   5
  -2   3   5 6613.25 407.511  16
   2   3  -5 5828.13 330.521   9
  -2   3   5 5734.97 384.829  15
  -2   3   5 6057.60 383.113  14
  -2   3   5 5509.78 381.709   8
   2   3  -5 6331.27 356.081  21
   2   3  -5 5174.63 341.636  13
  -2   3   5 5475.80 364.777   6
  -2   3   5 5353.49 381.170  12
  -2   3   4 23784.4 861.248  12
  -2   3   4 25459.2 844.230   6
  -2   3   4 23468.0 865.458  11
  -2   3   4 23430.1 955.469  10
   2   3  -4 27030.3 969.512  18
   2   3  -4 24718.1 963.312   5
  -2   3   4 24582.5 844.021  13
  -2   3   4 24326.5 860.405  16
   2   3  -4 25630.2 767.565   9
  -2   3   4 25240.9 856.707  14
  -2   3   4 24503.5 909.704   8
  -2   3   4 25524.9 871.510  15
  -2   3   4 24850.8 878.309  17
   2   3  -4 26547.1 788.835  21
   2   3  -4 24153.3 788.852  13
  -2   3   3 1036.95 131.774  11
   2   3  -3 945.851 146.759  18
  -2   3   3 1064.66 126.072  13
  -2   3   3 992.043 131.076  17
  -2   3   3 1010.65 154.979  10
   2   3  -3 1053.41 91.0353   9
  -2   3   3 1352.16 148.573  16
   2   3  -3 940.965 154.002   5
  -2   3   3 1074.94 130.212  15
  -2   3   3 1119.49 130.652  14
  -2   3   3 811.308 133.154   8
   2   3  -3 1020.30 94.6499  21
   2   3  -3 804.938 88.4831  13
  -2   3   3 1145.51 125.896   6
  -2   3   3 1066.13 127.704  12
  -2   3   2 59880.2 1562.11  12
  -2   3   2 57984.9 1569.23  11
   2   3  -2 54011.2 1649.49  18
  -2   3   2 58794.9 1701.69  10
  -2   3   2 63064.5 1536.25   6
   2   3  -2 61213.1 1708.70   5
  -2   3   2 59766.0 1437.47   5
  -2   3   2 62536.2 1604.40  16
   2   3  -2 60690.4 1401.36   9
  -2   3   2 62907.2 1599.56  15
  -2   3   2 63424.6 1589.01  13
   2   3  -2 59994.2 1652.78   2
  -2   3   2 62015.4 1709.23   8
  -2   3   2 63367.2 1592.96  14
   2   3  -2 63290.7 1409.75  21
   2   3  -2 60026.1 1411.21  13
  -2   3   1 4532.67 244.309  12
  -2   3   1 5370.33 330.356  10
  -2   3   1 4975.61 250.337  11
   2   3  -1 4756.65 307.611   5
  -2   3   1 4971.17 253.267   5
  -2   3   1 5218.01 275.737  16
  -2   3   1 5405.84 277.609  15
  -2   3   1 5168.79 267.701  14
   2   3  -1 4723.54 293.240   2
  -2   3   1 5462.96 271.216  13
  -2   3   1 5335.39 215.806   6
   2   3   0 22373.4 605.325  19
   2   3   0 23314.8 597.772  17
  -2   3   0 21956.6 803.099  10
  -2   3   0 22650.3 713.923  13
   2   3   0 22055.6 599.514  23
  -2   3   0 21990.8 723.713  15
  -2   3   0 22059.3 776.490   8
  -2   3   0 22597.9 719.891  14
   2   3   0 23054.3 609.311  20
   2   3   0 21070.5 755.105   2
   2   3   0 24284.2 809.756   5
  -2   3   0 24054.9 577.685   6
   2   3   1 4992.23 262.419  20
   2   3   1 4882.53 316.477  11
   2   3   1 5162.59 258.533  19
   2   3   1 5317.89 247.351  17
  -2   3  -1 5209.65 338.089  10
   2   3   1 5007.06 237.831  16
  -2   3  -1 4831.32 298.079   4
  -2   3  -1 4724.95 283.420  15
  -2   3  -1 4946.12 278.133  13
  -2   3  -1 4889.07 291.161   8
  -2   3  -1 4677.99 279.214  14
   2   3   1 5032.77 245.136  23
   2   3   1 4575.57 293.337   2
  -2   3  -2 20072.4 786.100  10
   2   3   2 17659.3 719.167  11
   2   3   2 19113.1 693.490  19
   2   3   2 18956.6 672.621  23
  -2   3  -2 19695.5 698.670  13
   2   3   2 18732.9 649.812  16
   2   3   2 18883.5 647.005  15
  -2   3  -2 18443.3 694.419   4
   2   3   2 18369.6 691.825   2
   2   3   2 19171.1 663.465  17
  -2   3  -2 17277.5 627.705   8
  -2   3  -2 18794.6 697.755  14
   2   3   3 6892.72 436.845  11
   2   3   3 7490.33 450.892  19
   2   3   3 7825.54 428.520  17
  -2   3  -3 8191.05 496.991  10
   2   3   3 7840.61 421.943  16
   2   3   3 7204.39 403.919  15
  -2   3  -3 6923.81 403.399   4
  -2   3  -3 7695.25 437.433  14
   2   3   3 8350.10 453.914  23
  -2   3  -3 7675.54 425.688  13
   2   3   3 7408.34 414.946   2
   2   3   4 17712.4 831.472  19
   2   3   4 19944.0 868.620  10
   2   3   4 18287.3 796.037  17
  -2   3  -4 17401.4 757.726  13
  -2   3  -4 16766.3 886.149   5
   2   3   4 18203.2 782.355  16
   2   3   4 16557.5 746.416  15
  -2   3  -4 17313.3 732.868   4
  -2   3  -4 17058.0 763.870  14
   2   3   4 16965.1 789.644  23
   2   3   4 16076.6 781.151  11
   2   3   4 16052.9 700.423   2
   2   3   5 548.207 151.137  11
   2   3   5 518.661 153.676  23
   2   3   5 441.584 144.209  19
   2   3   5 676.131 180.914  10
   2   3   5 804.432 178.721  17
   2   3   5 396.930 109.997   2
  -2   3  -5 693.191 154.421  13
   2   3   5 626.368 155.633  16
  -2   3  -5 498.580 150.968   5
   2   3   5 510.854 146.792  15
  -2   3  -5 563.405 140.363  14
  -2   3  -5 503.254 125.711   4
  -2   4   6 19.8686 59.0642  23
  -2   4   6 150.888 78.6521  12
  -2   4   6 145.297 95.4003  11
   2   4  -6 228.054 105.612  18
  -2   4   6 143.498 79.8720  16
  -2   4   6 169.181 111.974  10
   2   4  -6-17.5301 60.3769   5
  -2   4   6 327.909 114.276  17
  -2   4   6 250.673 103.227  15
  -2   4   6 238.129 92.0603  14
  -2   4   5 11099.2 617.304  11
  -2   4   5 10722.9 664.620  10
   2   4  -5 10524.1 626.388  18
   2   4  -5 11133.9 685.320   5
  -2   4   5 11857.4 606.938  17
  -2   4   5 12179.7 599.975  16
  -2   4   5 12719.6 609.273  15
  -2   4   5 11399.4 575.453  14
  -2   4   5 11922.7 632.026  23
  -2   4   5 11114.0 615.213   8
  -2   4   5 11131.7 570.579   6
  -2   4   5 12111.2 593.527  12
   2   4  -4 4907.25 384.246  18
   2   4  -4 4997.37 411.823   5
  -2   4   4 5326.85 353.344  17
  -2   4   4 5200.00 344.496  16
  -2   4   4 5527.16 352.510  15
  -2   4   4 5092.51 403.530  10
  -2   4   4 5151.03 335.181  14
  -2   4   4 5011.12 385.262   8
  -2   4   4 5599.21 343.443   6
  -2   4   4 5265.19 335.325  13
  -2   4   4 5531.23 339.647  12
  -2   4   4 5310.56 372.843  11
  -2   4   3 33023.6 992.015  12
  -2   4   3 31159.5 1061.51  11
   2   4  -3 31023.7 1114.53  18
  -2   4   3 33668.7 1169.49  10
   2   4  -3 33295.1 1184.48   5
  -2   4   3 33720.3 1055.88  17
  -2   4   3 34876.1 1053.82  16
  -2   4   3 33824.0 1040.95  15
  -2   4   3 33282.7 1028.08  14
  -2   4   3 33678.7 1172.30   8
  -2   4   3 34037.6 1030.77  13
  -2   4   3 33534.3 1010.36   6
  -2   4   2 5465.80 321.378  11
  -2   4   2 5156.81 359.398  10
   2   4  -2 5893.30 393.172   5
  -2   4   2 5404.97 245.823   5
  -2   4   2 5503.72 308.357  16
  -2   4   2 5451.71 305.029  15
  -2   4   2 5939.06 310.431  13
   2   4  -2 5858.33 365.344   2
  -2   4   2 5639.44 305.860  14
  -2   4   2 4852.59 360.697   8
  -2   4   2 5336.41 271.041   6
  -2   4   2 5480.27 269.641  12
  -2   4   1 50567.6 1270.77   6
  -2   4   1 53088.2 1410.13  11
   2   4  -1 50761.5 1515.01   5
  -2   4   1 51978.1 1520.83  10
  -2   4   1 49964.1 1383.06   5
  -2   4   1 50193.6 1383.38  16
  -2   4   1 50524.1 1380.37  15
   2   4  -1 49746.1 1489.59   2
  -2   4   1 50114.4 1369.70  14
  -2   4   1 52359.1 1544.64   8
  -2   4   1 50963.2 1309.53  12
  -2   4   1 50319.5 1367.67  13
   2   4   0 5778.00 364.255   5
  -2   4   0 5867.08 371.975  10
  -2   4   0 5410.58 341.390   5
  -2   4   0 5413.38 299.923  15
  -2   4   0 5498.74 358.283   8
  -2   4   0 5282.16 293.248  14
   2   4   0 5242.93 349.961   2
  -2   4   0 5483.05 294.259  13
   2   4   1 55207.5 1451.54  20
   2   4   1 55225.5 1673.64  11
   2   4   1 58493.0 1447.57  19
   2   4   1 57929.4 1422.49  17
  -2   4  -1 57815.9 1680.17  10
   2   4   1 57363.3 1414.29  16
  -2   4  -1 57042.8 1696.91   5
  -2   4  -1 56172.2 1561.99  15
  -2   4  -1 53550.1 1600.14   8
  -2   4  -1 58312.3 1562.92  14
   2   4   1 52399.0 1612.45   2
   2   4   1 58459.6 1432.68  23
  -2   4  -1 55722.3 1536.62  13
  -2   4  -2 1639.87 226.376   5
   2   4   2 1409.54 192.442  11
   2   4   2 1675.17 171.408  19
   2   4   2 1883.62 179.576  10
   2   4   2 1377.01 148.340  17
   2   4   2 1526.02 192.345   2
   2   4   2 1504.19 151.825  16
  -2   4  -2 1612.81 205.512  10
   2   4   2 1365.44 143.343  15
  -2   4  -2 1847.25 193.930  15
  -2   4  -2 1804.78 185.348   8
  -2   4  -2 1478.38 171.209  14
   2   4   2 1317.99 148.900  23
  -2   4  -2 1864.41 186.407  13
   2   4   3 26951.8 995.433  19
   2   4   3 28305.4 1001.43  10
  -2   4  -3 27903.1 971.224  13
   2   4   3 28402.7 961.538  17
  -2   4  -3 29817.7 1106.51  10
   2   4   3 27849.7 946.991  16
  -2   4  -3 27264.4 1159.32   5
   2   4   3 28593.5 946.810  15
  -2   4  -3 24741.4 974.637   4
   2   4   3 24916.6 1041.54  11
  -2   4  -3 26860.2 980.092  14
   2   4   3 27113.1 968.195  23
   2   4   3 26090.6 986.310   2
   2   4   4 1619.66 218.481   2
   2   4   4 1373.74 224.908  11
   2   4   4 1827.31 246.997  19
   2   4   4 1605.32 228.663  10
   2   4   4 1529.40 209.187  17
   2   4   4 1831.55 226.227  16
  -2   4  -4 1605.36 278.940   5
   2   4   4 1753.86 218.768  15
  -2   4  -4 1649.73 218.414   4
  -2   4  -4 1764.58 228.706  14
   2   4   4 2227.36 260.703  23
  -2   4  -4 1553.45 208.680  13
   2   4   5 2300.93 274.925   2
  -2   4  -5 2658.38 297.209  13
   2   4   5 2183.20 305.869  11
   2   4   5 3340.40 373.443  10
  -2   4  -5 2798.93 387.844   5
  -2   4  -5 2957.06 312.444   4
  -2   4  -5 2990.86 322.623  14
  -2   5   6 1348.41 236.406  11
   2   5  -6 1387.19 238.195  18
  -2   5   6 1326.49 216.773  17
  -2   5   6 1552.73 281.073  10
  -2   5   6 1751.97 257.158  23
   2   5  -6 1702.57 291.835   5
  -2   5   6 1886.95 251.165  16
  -2   5   6 1852.66 249.677  15
  -2   5   6 1582.90 223.532  14
   2   5  -5 5632.74 453.329  18
  -2   5   5 6038.61 502.684  10
   2   5  -5 5589.01 502.865   5
  -2   5   5 6754.96 450.248  17
  -2   5   5 6158.93 421.041  16
  -2   5   5 5429.60 444.868  11
  -2   5   5 5869.84 411.590  15
  -2   5   5 6387.46 421.254  14
  -2   5   5 5471.14 453.499   8
  -2   5   5 6422.90 459.654  23
   2   5  -4 14595.6 748.631  18
  -2   5   4 14836.5 776.213  10
  -2   5   4 14966.4 733.578  11
   2   5  -4 15043.6 811.068   5
  -2   5   4 16456.3 700.341  17
  -2   5   4 16702.6 689.742  16
  -2   5   4 17118.1 693.605  15
  -2   5   4 15416.8 652.531  13
  -2   5   4 16257.2 670.555  14
  -2   5   4 15662.6 793.567   8
  -2   5   3 1408.97 193.088  11
  -2   5   3 1662.06 183.370  17
  -2   5   3 1403.04 208.078  10
  -2   5   3 1702.28 182.496  16
   2   5  -3 1925.25 255.908   5
  -2   5   3 1720.76 183.924  15
  -2   5   3 1715.26 178.083  14
  -2   5   3 1373.97 219.133   8
  -2   5   3 1672.58 175.320  13
  -2   5   2 21164.0 868.100  10
   2   5  -2 22005.3 922.923   5
  -2   5   2 21547.5 742.244  13
  -2   5   2 21508.7 821.056  11
  -2   5   2 22650.0 783.987  17
  -2   5   2 21703.6 760.334  16
  -2   5   2 21627.6 753.580  15
   2   5  -2 20936.9 868.148   2
  -2   5   2 22012.5 751.620  14
  -2   5   2 21145.4 914.408   8
  -2   5   1 5167.03 332.680  11
   2   5  -1 5477.52 391.427   5
  -2   5   1 5069.78 367.122  10
  -2   5   1 4203.90 293.353   5
  -2   5   1 4796.58 295.556  16
  -2   5   1 5631.61 313.894  15
   2   5  -1 4608.48 358.901   2
  -2   5   1 5118.21 295.552  14
  -2   5   1 4960.22 387.495   8
  -2   5   1 5246.77 296.609  13
   2   5   0 11487.6 576.581   5
  -2   5   0 11406.7 568.947  10
  -2   5   0 9611.58 525.838   5
  -2   5   0 10615.1 471.580  16
  -2   5   0 10612.9 470.010  15
   2   5   0 10190.7 558.292   2
  -2   5   0 10628.8 463.622  14
  -2   5   0 8903.99 533.239   8
  -2   5   0 10043.6 449.271  13
   2   5   1 1036.16 181.643  11
   2   5   1 1004.72 172.737   2
  -2   5  -1 1017.05 169.456  10
  -2   5  -1 949.095 175.823   5
  -2   5  -1 939.988 135.599  15
  -2   5  -1 1066.85 139.400  14
  -2   5  -1 772.542 141.586   8
  -2   5  -1 1157.40 143.880  13
   2   5   2 4329.88 381.446  11
  -2   5  -2 5176.48 396.095  10
  -2   5  -2 4678.48 420.223   5
  -2   5  -2 4406.15 323.883  15
  -2   5  -2 5089.64 339.647  14
   2   5   2 4114.59 353.912   2
  -2   5  -2 5356.07 340.522  13
  -2   5  -3 4765.00 402.327  10
  -2   5  -3 4663.44 458.399   5
   2   5   3 4740.57 383.628   2
   2   5   3 4173.01 395.120  11
  -2   5  -3 4288.35 342.628  15
  -2   5  -3 4839.96 349.631  13
  -2   5  -3 4179.00 334.734  14
   2   5   4 12893.7 782.128  11
  -2   5  -4 14277.8 896.047   5
  -2   5  -4 13750.2 680.792  13
  -2   5  -4 15120.7 720.309  14
   2   5   4 12295.9 690.253   2
  -2   6   5 3671.81 386.823  11
   2   6  -5 2832.38 336.166  18
  -2   6   5 4291.03 433.361  10
   2   6  -5 2914.98 386.060   5
  -2   6   5 4405.98 368.989  17
  -2   6   5 3792.57 359.723  23
  -2   6   5 4228.27 351.963  16
  -2   6   5 3979.62 341.133  15
  -2   6   5 3892.91 329.831  14
  -2   6   5 3414.63 382.879   8
  -2   6   4 3999.55 384.841  11
  -2   6   4 4494.43 416.796  10
   2   6  -4 4184.88 435.809   5
  -2   6   4 5518.92 383.309  17
  -2   6   4 5512.68 372.347  16
  -2   6   4 5096.18 358.640  15
  -2   6   4 5331.08 359.453  14
  -2   6   4 4867.50 451.125   8
  -2   6   3 32354.2 1222.21  10
   2   6  -3 31650.7 1280.24   5
  -2   6   3 32039.7 1074.34  17
  -2   6   3 33168.0 1067.59  16
  -2   6   3 32190.7 1056.76  15
  -2   6   3 32222.6 1045.94  14
  -2   6   3 30782.2 1277.52   8
  -2   6   3 31615.7 1034.99  13
  -2   6   3 29819.2 1166.88  11
  -2   6   2 1310.18 196.558  11
  -2   6   2 1401.83 168.471  17
  -2   6   2 1404.20 206.277  10
  -2   6   2 1411.33 163.201  16
  -2   6   2 1371.69 162.284  15
  -2   6   2 1838.16 183.280  14
   2   6  -2 1630.06 239.207   5
  -2   6   2 1253.98 219.190   8
  -2   6   2 1441.76 162.341  13
   2   6  -1 20491.7 901.012   5
  -2   6   1 19588.5 832.565  10
  -2   6   1 19872.1 730.497  16
  -2   6   1 20408.3 730.268  15
   2   6  -1 18305.0 860.729   2
  -2   6   1 19698.5 713.353  14
  -2   6   1 17473.4 878.117   8
  -2   6   1 19756.8 710.958  13
  -2   6   0 873.906 156.686  10
   2   6   0 995.492 175.922   5
  -2   6   0 936.580 171.592   5
  -2   6   0 962.632 138.592  16
  -2   6   0 790.660 123.966  15
  -2   6   0 1041.16 138.876  14
  -2   6   0 761.651 163.717   8
   2   6   0 865.845 171.537   2
  -2   6   0 1157.32 144.936  13
  -2   6  -1 15391.5 728.935  10
  -2   6  -1 15421.9 796.371   5
  -2   6  -1 15247.7 642.237  15
   2   6   1 15141.8 763.479   2
  -2   6  -1 14887.6 625.705  14
  -2   6  -1 14122.2 730.251   8
  -2   6  -1 15046.1 621.058  13
  -2   6  -2 7075.73 479.898  10
  -2   6  -2 5415.34 489.345   5
  -2   6  -2 5416.29 376.595  15
   2   6   2 5984.83 483.257  11
  -2   6  -2 6350.08 397.802  14
   2   6   2 5840.59 458.872   2
  -2   6  -2 5803.98 373.502  13
   2   6   3 20783.6 1038.82  11
  -2   6  -3 21158.1 1112.08   5
  -2   6  -3 21676.5 893.797  15
  -2   6  -3 22849.0 901.834  14
   2   6   3 20841.1 980.890   2
  -2   6  -3 21953.6 874.702  13
  -2   7   4 3590.01 382.970  11
   2   7  -4 3089.55 392.622   5
  -2   7   4 2781.50 370.568   8
  -2   7   3 788.112 199.249   8
  -2   7   3 850.009 180.691  11
   2   7  -3 860.763 207.654   5
  -2   7   2 3303.25 337.114  11
   2   7  -2 3458.21 378.208   5
  -2   7   2 3354.13 389.863   8
   2   7  -1 4759.01 429.788   2
  -2   7   1 4159.68 422.822   8
   2   7  -1 4646.92 422.315   5
   2   7   0 6704.75 493.705   5
  -2   7   0 5555.08 449.185   5
   2   7   0 6023.33 490.698   2
  -2   7   0 5864.11 492.822   8
   2   7   1 875.829 194.426   2
  -2   7  -1 633.603 167.348   5
  -2   7  -1 779.201 175.855   8
   2   7   2 306.483 117.177   2
  -2   7  -2 604.158 183.519   5
   2   8  -3 10501.7 754.667   5
  -2   8   3 10761.7 706.171  11
  -2   8   3 12113.0 828.967   8
   2   8  -2 892.656 206.161   5
  -2   8   2 1262.53 254.921   8
   2   8  -1 2276.37 314.791   5
  -2   8   1 2888.18 371.655   8
   2   8   0 152.562 100.379   2
   2   8   0 29.3132 71.2312   5
  -2   8   0 156.920 96.6422   8
  -2   8  -1 289.600 123.173   8
  -2   8  -1 7.40132 78.9928   5
   2   8   1 250.790 115.331   2
   3  -8  -1 13983.8 804.838   1
  -3  -8   1 13908.6 697.822   4
   3  -7  -4 11954.4 736.736  20
   3  -7  -4 13386.1 786.555  19
   3  -7  -4 11551.6 619.708   1
  -3  -7   4 11520.0 820.147   3
   3  -7  -4 12211.2 755.317  21
   3  -7  -4 10676.0 602.359   9
   3  -7  -4 12867.2 797.164  22
   3  -7  -3 8093.07 586.802  20
   3  -7  -3 7612.83 568.360  19
   3  -7  -3 7169.87 491.721   1
   3  -7  -3 7237.62 461.290   9
   3  -7  -3 7780.88 594.550  22
  -3  -7   3 7221.60 599.470   3
   3  -7  -3 7316.60 561.050  21
   3  -7  -2 363.099 116.448   1
   3  -7  -2 504.713 156.249  19
  -3  -7   2 565.465 157.233   1
   3  -7  -2 611.019 165.591  21
  -3  -7   2 328.544 123.250   3
   3  -7  -2 500.004 149.200  20
   3  -7  -2 444.832 110.367   9
   3  -7  -2 458.034 138.897  22
   3  -7  -1 90.1671 83.4493  20
   3  -7  -1 408.541 136.176  19
  -3  -7   1 286.174 106.704   6
   3  -7  -1 302.385 117.053   1
   3  -7  -1 412.235 107.784   9
   3  -7  -1 406.285 130.814  23
   3  -7  -1 409.736 141.730  22
  -3  -7   1 326.987 99.5654   4
   3  -7  -1 332.101 130.194  21
   3  -7   0 4209.92 423.336  22
   3  -7   0 4597.85 430.343  20
   3  -7   0 3812.78 389.538  19
   3  -7   0 4057.93 400.726  23
  -3  -7   0 4267.45 343.724   4
   3  -7   0 4275.43 345.137   9
   3  -7   0 4221.79 402.154   1
   3  -7   0 4686.23 437.107  21
   3  -7   1 9631.61 643.925   1
   3  -7   1 10061.8 602.979   3
  -3  -7  -1 9459.73 529.515   4
   3  -6  -5 9802.39 657.898  20
  -3  -6   5 9086.43 730.005   3
   3  -6  -5 9015.90 640.102  21
   3  -6  -5 9468.94 577.442   9
   3  -6  -5 9406.29 496.105   1
   3  -6  -5 10085.1 702.253  22
   3  -6  -4 731.049 161.245  20
   3  -6  -4 610.171 164.343  19
   3  -6  -4 884.213 204.878  22
  -3  -6   4 708.212 197.013   3
   3  -6  -4 739.141 139.671   1
   3  -6  -4 1026.98 173.873   9
   3  -6  -4 861.419 191.343  21
   3  -6  -3 2390.81 299.426  19
   3  -6  -3 2459.56 261.081   1
   3  -6  -3 2264.70 290.380  20
   3  -6  -3 2083.13 235.297   9
  -3  -6   3 2531.76 334.488   3
   3  -6  -3 2919.00 343.563  22
   3  -6  -3 2519.40 313.217  21
   3  -6  -2 2830.84 320.307  19
  -3  -6   2 3075.26 292.856   6
  -3  -6   2 2913.88 329.362   3
   3  -6  -2 2756.99 284.010   1
   3  -6  -2 2482.28 247.876   9
   3  -6  -2 2837.05 322.740  20
   3  -6  -2 2960.42 325.838  23
   3  -6  -2 3096.95 351.168  22
  -3  -6   2 2865.58 246.520   4
   3  -6  -2 2899.04 332.432  21
   3  -6  -1 17801.3 869.267  19
   3  -6  -1 18863.4 897.049  20
  -3  -6   1 15647.5 771.290   3
   3  -6  -1 17551.9 727.161   9
  -3  -6   1 17746.5 799.959   1
   3  -6  -1 16336.0 790.141   1
   3  -6  -1 18579.1 901.550  21
   3  -6  -1 17424.1 856.815  23
  -3  -6   1 17204.2 698.962   4
   3  -6  -1 16429.9 868.756  22
   3  -6   0 11738.4 698.630  20
  -3  -6   0 11546.8 549.410   4
   3  -6   0 11240.9 684.883  19
   3  -6   0 11490.7 709.557  22
   3  -6   0 11461.9 577.140   9
   3  -6   0 12148.3 593.738   3
   3  -6   0 11201.8 674.204  23
   3  -6   0 10888.3 684.403  21
   3  -6   0 11189.6 634.519   1
   3  -6   1 8027.15 582.454  20
   3  -6   1 8454.46 526.190   3
   3  -6   1 8359.97 579.330  23
   3  -6   1 8024.64 539.591   1
  -3  -6  -1 8351.54 453.500   4
   3  -6   1 8743.07 614.643  21
   3  -6   1 8385.80 586.819  19
   3  -6   1 7677.88 488.158   9
   3  -6   1 7768.59 548.625  17
   3  -6   2 3062.50 363.576  20
   3  -6   2 3893.80 380.593   3
   3  -6   2 3279.05 372.487  19
   3  -6   2 3288.81 357.719  17
   3  -6   2 2867.78 331.074   1
   3  -6   2 3323.67 332.671   9
  -3  -6  -2 3774.12 286.330   4
   3  -6   2 3177.77 366.821  23
   3  -6   2 3064.30 369.504  21
   3  -6   3 424.345 139.572  20
   3  -6   3 511.409 169.719  19
   3  -6   3 295.070 132.807  17
   3  -6   3 539.482 148.766   9
   3  -6   3 478.657 152.839  23
  -3  -6  -3 701.383 121.877   4
   3  -6   3 453.535 154.325  21
   3  -5  -6 2898.13 351.007  20
   3  -5  -6 2077.27 295.683  21
   3  -5  -6 2956.67 322.169   9
  -3  -5   6 2595.03 390.798   3
   3  -5  -6 2676.42 223.437   1
   3  -5  -5 4716.17 432.688  20
   3  -5  -5 5655.67 476.403  19
   3  -5  -5 4456.00 443.248  22
  -3  -5   5 4444.56 480.647   3
   3  -5  -5 3929.34 354.685   9
   3  -5  -5 4779.30 305.008   1
   3  -5  -5 4578.91 429.339  21
   3  -5  -4 17714.4 851.501  20
   3  -5  -4 15702.7 652.898   1
   3  -5  -4 18031.1 863.670  19
   3  -5  -4 18199.8 895.544  22
  -3  -5   4 17027.5 933.035   3
   3  -5  -4 17030.8 753.367   9
   3  -5  -4 17374.4 850.170  21
   3  -5  -3 25653.5 1056.89  19
   3  -5  -3 25510.0 920.207   1
  -3  -5   3 24391.5 1110.09   3
   3  -5  -3 25384.7 944.069   9
   3  -5  -3 25310.5 1080.18  22
  -3  -5   3 27509.9 948.853   6
   3  -5  -3 25210.9 1052.15  20
   3  -5  -3 26981.3 1088.00  21
   3  -5  -2 371.274 103.703   1
   3  -5  -2 353.252 106.933  20
   3  -5  -2 343.764 113.415  21
   3  -5  -2 429.733 127.094  19
  -3  -5   2 328.918 97.2261   6
   3  -5  -2 376.364 121.769  23
   3  -5  -2 425.007 100.466   9
   3  -5  -2 273.019 108.418  22
  -3  -5   2 321.298 70.4299   4
   3  -5  -1 9582.66 586.946  20
   3  -5  -1 9150.46 567.112  23
   3  -5  -1 10020.5 594.656  19
  -3  -5   1 9772.09 520.152   1
   3  -5  -1 9806.28 494.530   9
   3  -5  -1 9773.64 529.986   1
  -3  -5   1 9537.99 443.536   4
   3  -5  -1 9264.48 594.485  22
   3  -5  -1 10060.2 605.933  21
   3  -5  -1 10774.3 471.147   3
   3  -5   0 8965.68 479.617   3
   3  -5   0 8429.82 560.971  20
   3  -5   0 8426.73 557.483  19
   3  -5   0 9920.47 592.764  23
   3  -5   0 8532.02 498.671   1
  -3  -5   0 8700.88 424.074   4
   3  -5   0 8641.85 471.896   9
   3  -5   0 9600.05 600.205  21
   3  -5   1 12234.6 632.189   3
   3  -5   1 12326.9 711.111  19
   3  -5   1 11929.0 677.387  17
   3  -5   1 12368.0 700.135  23
   3  -5   1 12321.6 720.655  20
   3  -5   1 13288.0 635.137   9
   3  -5   1 11208.3 605.815   1
  -3  -5  -1 12254.6 521.588   4
   3  -5   1 12623.2 738.274  21
   3  -5   2 5701.19 503.937  20
   3  -5   2 6108.06 467.985   3
   3  -5   2 5844.50 503.611  19
   3  -5   2 5702.45 477.537  17
   3  -5   2 5885.87 495.169  23
   3  -5   2 5429.69 419.423   1
   3  -5   2 5386.23 420.916   9
  -3  -5  -2 6248.24 344.256   4
   3  -5   2 6000.85 523.165  21
   3  -5   3 16267.5 944.498  20
   3  -5   3 16808.8 879.315   3
   3  -5   3 15342.6 909.277  19
   3  -5   3 15260.1 931.376  21
   3  -5   3 15273.8 875.657  17
   3  -5   3 16331.5 831.406   9
  -3  -5  -3 16626.2 632.044   4
   3  -5   3 15465.1 895.607  23
   3  -4  -6 9047.69 624.331  20
  -3  -4   6 9732.16 722.081   3
   3  -4  -6 10059.7 600.040   9
   3  -4  -6 9823.23 425.622   1
   3  -4  -6 9621.84 647.991  21
  -3  -4   6 8313.78 565.229  12
  -3  -4   5 6835.83 454.142  12
   3  -4  -5 7346.58 527.116  20
   3  -4  -5 6480.22 504.093  19
  -3  -4   5 7590.42 595.219   3
   3  -4  -5 7150.64 461.572   9
   3  -4  -5 6722.80 347.340   1
   3  -4  -5 7517.44 558.459  22
   3  -4  -5 7673.73 538.574  21
  -3  -4   4 6705.30 409.978  12
   3  -4  -4 6149.87 330.242   1
  -3  -4   4 6373.69 353.724   6
  -3  -4   4 6552.68 516.912   3
   3  -4  -4 5984.10 466.230  22
   3  -4  -4 6496.85 410.592   9
   3  -4  -4 6716.23 475.204  19
   3  -4  -4 6294.77 457.434  20
   3  -4  -4 5876.29 452.568  21
  -3  -4   3 8202.49 429.865  12
   3  -4  -3 7716.11 498.282  19
   3  -4  -3 8132.51 509.674  20
   3  -4  -3 8212.69 401.961   1
   3  -4  -3 7900.04 507.155  21
   3  -4  -3 8166.93 527.315  22
  -3  -4   3 9170.87 453.832   6
   3  -4  -3 8343.95 447.560   9
   3  -4  -2 4206.24 348.915  20
  -3  -4   2 4577.90 283.913  12
   3  -4  -2 3900.86 335.645  19
  -3  -4   2 4165.64 314.222   6
   3  -4  -2 4506.09 296.997   1
   3  -4  -2 4209.14 295.048   9
   3  -4  -2 4184.38 342.497  23
  -3  -4   2 4027.05 223.897   4
   3  -4  -2 4692.31 372.582  21
   3  -4  -2 3940.56 349.360  22
   3  -4  -1 10750.7 591.124  20
   3  -4  -1 11499.9 607.270  19
  -3  -4   1 9628.07 455.427  12
   3  -4  -1 11109.9 511.244   9
   3  -4  -1 10988.0 517.727   1
   3  -4  -1 11527.2 602.670  23
  -3  -4   1 11408.8 434.165   4
   3  -4  -1 11470.9 621.522  22
   3  -4  -1 10811.2 600.415  21
   3  -4  -1 12750.6 498.198   3
   3  -4   0 22326.4 802.900   3
   3  -4   0 20667.4 901.237  20
   3  -4   0 21095.2 793.521   1
   3  -4   0 21283.4 902.666  19
   3  -4   0 21276.6 883.592  17
   3  -4   0 20701.8 885.516  23
   3  -4   0 21770.3 796.781   9
  -3  -4   0 20155.3 677.542   4
   3  -4   0 22167.2 934.471  21
   3  -4   1 8712.25 489.499   3
   3  -4   1 8435.02 561.089  20
   3  -4   1 8074.01 544.153  19
   3  -4   1 8803.70 541.586  17
   3  -4   1 7826.97 525.658  23
   3  -4   1 7667.71 440.124   1
   3  -4   1 8833.35 579.633  21
   3  -4   1 9156.70 488.737   9
  -3  -4  -1 7441.81 357.633   4
   3  -4   2 15540.6 756.574   3
   3  -4   2 15810.5 840.221  19
   3  -4   2 15346.5 843.054  20
   3  -4   2 15741.8 806.659  17
   3  -4   2 15645.8 734.840   9
   3  -4   2 14498.4 794.006  23
   3  -4   2 14274.5 668.378   1
  -3  -4  -2 14689.7 547.016   4
   3  -4   2 15078.1 844.066  21
   3  -4   3 225.478 141.386  21
   3  -4   3 173.322 108.291  20
   3  -4   3 53.8634 88.9748  19
   3  -4   3-136.675 105.128  23
   3  -4   3 73.2760 99.9368  17
   3  -4   3 77.0976 86.6260   3
   3  -4   3-7.20627 68.1481   9
  -3  -4  -3 12.4524 28.1653   4
   3  -4   4 4920.17 460.765   3
   3  -4   4 4487.57 511.727  20
   3  -4   4 4333.34 485.155  19
   3  -4   4 4540.41 478.768  17
   3  -4   4 4061.81 445.240  16
  -3  -4  -4 4391.19 276.142   4
   3  -4   4 4698.61 498.074  23
  -3  -3   7 1179.56 221.258  12
   3  -3  -7 1134.44 229.315  20
  -3  -3   7 1145.18 245.410   3
   3  -3  -7 1121.91 135.938   1
   3  -3  -7 646.833 155.746   9
   3  -3  -7 1502.98 264.574  21
   3  -3  -6 10215.7 650.713  20
  -3  -3   6 11161.3 648.510  12
  -3  -3   6 11318.9 751.741   3
   3  -3  -6 10539.0 598.882   9
   3  -3  -6 10600.6 436.308   1
   3  -3  -6 10490.5 653.390  21
  -3  -3   6 9891.64 489.650   6
  -3  -3   5 4269.88 280.038   6
   3  -3  -5 4763.69 404.532  19
  -3  -3   5 4272.27 422.665   3
   3  -3  -5 4276.86 332.678   9
  -3  -3   5 4733.01 368.999  12
   3  -3  -5 3832.10 363.009  21
   3  -3  -5 4158.03 239.280   1
   3  -3  -5 4485.87 405.559  22
   3  -3  -5 4210.24 378.936  20
   3  -3  -4 60556.2 1825.16  20
  -3  -3   4 60858.9 1623.24   6
   3  -3  -4 64035.2 1854.57  19
  -3  -3   4 61041.0 1743.09  12
  -3  -3   4 58286.6 1906.30   3
   3  -3  -4 58452.4 1694.57   9
   3  -3  -4 57119.5 1525.10   1
   3  -3  -4 60069.6 1840.95  21
   3  -3  -4 60732.1 1871.71  22
  -3  -3   3 37727.3 1151.63  12
   3  -3  -3 36265.4 1024.97   1
  -3  -3   3 37538.4 1118.27   6
   3  -3  -3 35484.2 1222.89  19
   3  -3  -3 37235.5 1131.14   9
   3  -3  -3 35038.1 1248.85  22
   3  -3  -3 35348.8 1223.17  20
   3  -3  -3 35221.8 1234.66  21
   3  -3  -2 11660.5 585.434  20
  -3  -3   2 11651.8 511.453  12
   3  -3  -2 11779.1 604.405  22
   3  -3  -2 12989.2 608.034  19
  -3  -3   2 12842.2 552.246   6
   3  -3  -2 12049.1 469.304   1
   3  -3  -2 11723.1 596.489  21
   3  -3  -2 12356.0 519.211   9
  -3  -3   2 12030.4 381.896   4
   3  -3  -2 12426.5 594.711  23
   3  -3  -1 24880.8 938.055  20
   3  -3  -1 24133.2 921.010  19
   3  -3  -1 26558.6 846.855   9
   3  -3  -1 25623.5 803.387   1
  -3  -3   1 23337.9 685.758   4
   3  -3  -1 23579.4 909.239  23
   3  -3  -1 23520.0 937.808  22
   3  -3  -1 27751.5 818.633   3
   3  -3  -1 23976.6 936.537  21
   3  -3   0 19166.0 689.593   3
   3  -3   0 17626.2 780.245  20
  -3  -3   0 18924.5 560.688   1
   3  -3   0 18307.4 783.748  19
   3  -3   0 18070.3 756.724  17
   3  -3   0 19481.4 707.980   9
  -3  -3   0 17048.0 528.239  15
  -3  -3   0 17807.2 528.392  14
  -3  -3   0 17926.6 559.890   4
   3  -3   0 18543.2 779.320  23
  -3  -3   0 17968.8 524.868  13
   3  -3   0 18825.3 661.875   1
   3  -3   0 18649.5 808.384  21
   3  -3   1 4272.44 312.470   3
   3  -3   1 4256.62 369.231  20
   3  -3   1 3934.18 349.647  19
   3  -3   1 3821.84 334.112  17
   3  -3   1 3538.59 257.304   1
   3  -3   1 4206.53 307.793   9
   3  -3   1 3880.00 338.395  23
  -3  -3  -1 4040.58 215.416   4
  -3  -3  -1 4139.69 234.325  14
  -3  -3  -1 3868.39 222.010  13
   3  -3   1 3728.17 350.227  21
   3  -3   2 15941.2 719.838   3
   3  -3   2 16052.1 825.630  20
   3  -3   2 15270.5 798.547  19
   3  -3   2 15047.6 763.924  17
   3  -3   2 13498.3 599.183   1
   3  -3   2 15881.1 715.008   9
  -3  -3  -2 15158.1 587.441  13
   3  -3   2 14792.6 772.373  23
  -3  -3  -2 15747.0 521.639   4
  -3  -3  -2 14425.7 584.786  14
   3  -3   2 16329.1 843.055  21
   3  -3   3 16954.7 809.369   3
   3  -3   3 17694.7 942.346  20
   3  -3   3 17112.4 915.788  19
   3  -3   3 15942.8 855.403  17
   3  -3   3 16443.9 848.024  16
  -3  -3  -3 16368.2 684.235  13
   3  -3   3 16017.4 792.715   9
  -3  -3  -3 16993.1 572.716   4
  -3  -3  -3 15393.4 678.006  14
   3  -3   3 14607.5 841.877  23
   3  -3   4 2342.56 362.088  20
   3  -3   4 2633.08 374.382  19
   3  -3   4 2888.87 363.769  16
   3  -3   4 3034.01 344.999   3
   3  -3   4 3156.03 392.746  23
   3  -3   4 3389.76 394.058  17
  -3  -3  -4 2822.92 204.475   4
  -3  -3  -4 2071.42 248.791  14
  -3  -3  -4 2421.21 263.158  13
   3  -2  -7 14607.9 811.777  20
  -3  -2   7 11471.4 697.138  19
  -3  -2   7 12084.5 755.850  10
  -3  -2   7 11403.4 758.623   3
  -3  -2   7 11403.1 645.880  17
  -3  -2   7 10686.2 616.056  16
   3  -2  -7 13028.4 528.490   1
   3  -2  -7 12322.3 677.954   9
  -3  -2   7 12076.9 648.925  15
  -3  -2   7 11139.2 660.291  23
   3  -2  -7 12531.9 747.497  21
  -3  -2   7 12568.4 605.879   6
  -3  -2   7 12624.2 757.749  12
  -3  -2   6 6321.39 477.355  10
  -3  -2   6 6342.08 410.046  17
   3  -2  -6 6819.16 503.338  20
  -3  -2   6 6232.36 517.474   3
  -3  -2   6 6137.81 418.175  23
  -3  -2   6 6365.44 400.611  16
   3  -2  -6 6290.98 429.030   9
  -3  -2   6 6937.63 417.580  15
   3  -2  -6 6972.21 323.709   1
   3  -2  -6 6554.85 491.060  21
  -3  -2   6 6679.79 386.236   6
  -3  -2   6 6669.72 490.044  12
   3  -2  -5 2139.61 254.359  20
  -3  -2   5 2043.77 233.214  10
  -3  -2   5 2288.68 254.023  12
  -3  -2   5 2349.06 209.740  17
  -3  -2   5 2135.60 195.905  16
   3  -2  -5 2514.98 242.166   9
  -3  -2   5 2389.85 204.513  15
  -3  -2   5 2055.94 276.296   3
  -3  -2   5 1987.64 183.519  14
   3  -2  -5 2414.11 161.753   1
  -3  -2   5 2317.41 199.166   6
  -3  -2   5 2298.41 217.003  23
   3  -2  -5 2156.42 135.638   7
   3  -2  -5 2012.20 263.460  22
   3  -2  -5 2357.65 268.514  21
  -3  -2   4 12402.2 499.446   6
   3  -2  -4 13262.2 635.453  19
   3  -2  -4 12449.1 618.575  20
  -3  -2   4 12408.9 589.940  12
  -3  -2   4 11841.6 488.109  23
  -3  -2   4 12140.1 547.370  10
   3  -2  -4 11809.7 607.640  21
  -3  -2   4 11826.4 472.269  17
  -3  -2   4 11839.1 463.125  16
   3  -2  -4 12842.8 547.063   9
  -3  -2   4 12271.7 467.194  15
  -3  -2   4 12058.7 456.727  14
   3  -2  -4 12741.4 423.976   1
   3  -2  -4 13406.1 658.168  22
   3  -2  -3 12287.5 586.862  20
  -3  -2   3 12433.7 502.865   6
   3  -2  -3 11933.2 576.618  19
  -3  -2   3 12175.1 486.772  10
  -3  -2   3 12232.6 424.922  17
  -3  -2   3 12140.0 416.740  16
   3  -2  -3 13081.8 520.689   9
  -3  -2   3 12401.5 418.531  15
  -3  -2   3 11638.4 535.974  12
   3  -2  -3 12057.1 600.006  22
  -3  -2   3 11660.1 407.161  14
  -3  -2   3 11787.3 405.756  13
   3  -2  -3 11336.0 397.342   1
   3  -2  -3 13109.5 606.127  21
   3  -2  -2 53837.4 1595.24  20
  -3  -2   2 53924.6 1529.19  12
   3  -2  -2 51247.8 1363.97   1
  -3  -2   2 53471.5 1514.30   6
   3  -2  -2 53387.6 1584.95  19
   3  -2  -2 55466.7 1349.29  18
  -3  -2   2 55581.6 1427.20  10
  -3  -2   2 54944.1 1331.86  13
  -3  -2   2 55354.4 1348.39  17
  -3  -2   2 54968.7 1341.57  16
   3  -2  -2 56342.3 1496.17   9
   3  -2  -2 55566.9 1593.83  23
  -3  -2   2 53739.8 1338.81  15
  -3  -2   2 54485.1 1332.52  14
  -3  -2   2 57171.9 1271.34   4
   3  -2  -2 53477.3 1614.11  22
   3  -2  -2 54932.2 1614.89  21
   3  -2  -1 19086.0 741.681  19
  -3  -2   1 16515.5 675.568   6
   3  -2  -1 18789.5 487.153  18
  -3  -2   1 19829.2 609.857  10
   3  -2  -1 18618.7 577.532   1
  -3  -2   1 18717.6 541.392  16
   3  -2  -1 19185.1 756.951  21
   3  -2  -1 19047.6 734.758  23
   3  -2  -1 19263.3 667.079   9
  -3  -2   1 19123.2 543.293  15
  -3  -2   1 18725.4 536.976  14
  -3  -2   1 19529.7 515.038   4
  -3  -2   1 17893.7 531.156  13
   3  -2  -1 21881.0 664.636   3
   3  -2  -1 17246.3 723.254  20
   3  -2   0 20508.4 839.233  20
   3  -2   0 22001.5 850.219  19
   3  -2   0 21623.4 822.729  17
  -3  -2   0 23687.9 709.291  10
   3  -2   0 23337.8 774.370   9
  -3  -2   0 21599.5 659.921  15
  -3  -2   0 23067.2 555.768   1
  -3  -2   0 22693.2 615.716   4
  -3  -2   0 22301.9 657.037  14
   3  -2   0 21138.7 672.955   1
  -3  -2   0 22968.3 653.653  13
   3  -2   0 21249.5 828.518  23
   3  -2   0 21073.9 854.838  21
   3  -2   0 22188.6 749.783   3
   3  -2   1 5353.85 336.622   3
  -3  -2  -1 5786.91 288.225  13
   3  -2   1 5360.87 393.536  20
   3  -2   1 5380.55 391.228  19
   3  -2   1 5377.41 373.744  17
  -3  -2  -1 5668.53 311.275  10
   3  -2   1 4921.62 267.068   1
   3  -2   1 5452.27 345.564   9
  -3  -2  -1 5762.17 240.376   4
  -3  -2  -1 5424.53 288.085  14
   3  -2   1 5550.75 387.083  23
   3  -2   1 6025.22 420.917  21
   3  -2   2 17101.1 717.852   3
   3  -2   2 15524.8 789.947  20
   3  -2   2 16477.8 763.076  17
   3  -2   2 15712.0 736.050  16
   3  -2   2 15998.8 706.871   9
  -3  -2  -2 17126.3 525.344   4
   3  -2   2 15519.4 775.305  19
  -3  -2  -2 15348.3 623.127  14
   3  -2   2 15588.0 761.519  23
  -3  -2  -2 16574.3 628.597  13
   3  -2   3 1261.31 230.430  20
  -3  -2  -3 1072.27 156.651  13
   3  -2   3 1045.55 203.832  19
   3  -2   3 1196.43 211.295  17
   3  -2   3 1170.30 187.196   3
   3  -2   3 1159.46 199.804  16
  -3  -2  -3 1294.91 122.830   4
   3  -2   3 847.976 168.350   9
  -3  -2  -3 979.830 152.316  14
   3  -2   3 1170.64 214.238  23
   3  -2   4 4637.56 474.383  19
   3  -2   4 4361.60 464.333  20
   3  -2   4 4352.05 431.720  17
   3  -2   4 4483.07 450.783  23
   3  -2   4 4514.09 437.678  16
  -3  -2  -4 4769.52 376.806  13
  -3  -2  -4 4790.26 269.307   4
  -3  -2  -4 4043.98 354.782  14
   3  -2   4 4875.23 415.654   3
  -3  -1   7 417.149 139.868  12
   3  -1  -7 497.144 145.427  20
  -3  -1   7 446.442 110.506   6
   3  -1  -7 405.051 119.459  18
  -3  -1   7 452.718 137.930  17
  -3  -1   7 323.550 145.719  10
  -3  -1   7 471.909 129.193  16
  -3  -1   7 446.514 151.056   3
  -3  -1   7 302.803 111.842  15
   3  -1  -7 387.130 109.733   9
  -3  -1   7 607.205 155.493  23
   3  -1  -7 348.986 130.548  21
  -3  -1   6 11462.1 660.113  12
  -3  -1   6 10891.3 656.300  10
  -3  -1   6 11594.7 594.177  17
  -3  -1   6 12351.5 700.219   3
   3  -1  -6 10227.2 554.613  18
  -3  -1   6 11756.1 545.364   6
  -3  -1   6 11949.8 588.581  16
   3  -1  -6 12587.5 676.438  20
   3  -1  -6 12100.4 465.740   1
   3  -1  -6 12061.5 591.894   9
  -3  -1   6 11377.0 579.566  15
  -3  -1   6 11479.6 567.192  14
  -3  -1   6 11744.1 618.541  23
   3  -1  -6 11112.0 639.743  21
  -3  -1   5 19562.2 830.240  12
  -3  -1   5 19595.8 698.868   6
   3  -1  -5 19083.4 820.687  20
   3  -1  -5 17698.5 706.205  18
  -3  -1   5 19011.9 824.202  10
  -3  -1   5 19779.4 745.693  17
  -3  -1   5 17638.7 841.935   3
  -3  -1   5 18564.0 716.840  16
   3  -1  -5 19280.4 741.255   9
  -3  -1   5 18526.0 715.280  15
   3  -1  -5 19937.2 602.139   1
  -3  -1   5 20062.8 723.299  14
   3  -1  -5 19785.4 585.334   7
   3  -1  -5 19665.1 826.831  21
  -3  -1   5 19305.8 758.764  23
   3  -1  -4 147204. 3743.64  20
  -3  -1   4 151906. 3740.37  12
  -3  -1   4 150565. 3574.66   6
   3  -1  -4 150776. 3756.19  19
  -3  -1   4 158061. 3633.68  23
  -3  -1   4 144036. 3696.42  10
  -3  -1   4 150093. 3584.12  17
  -3  -1   4 150909. 3568.84  16
   3  -1  -4 146894. 3612.02   9
  -3  -1   4 151507. 3570.19  15
   3  -1  -4 142060. 3568.23  18
   3  -1  -4 157482. 3443.35   1
  -3  -1   4 147665. 3551.92  14
   3  -1  -4 149180. 3417.47   7
   3  -1  -4 148689. 3783.18  22
   3  -1  -4 144889. 3739.32  21
   3  -1  -3 27242.7 942.110  20
  -3  -1   3 27164.0 931.852  12
  -3  -1   3 27931.7 849.648   6
   3  -1  -3 28028.0 949.848  19
   3  -1  -3 26254.0 952.467  22
  -3  -1   3 25301.5 873.905  10
   3  -1  -3 27862.3 817.237  18
  -3  -1   3 25806.7 791.450  16
   3  -1  -3 27633.5 852.501   9
  -3  -1   3 26741.1 797.122  15
  -3  -1   3 25996.1 802.772  17
  -3  -1   3 26715.6 787.296  14
   3  -1  -3 28920.3 722.435   1
  -3  -1   3 27456.4 788.386  13
   3  -1  -3 27855.1 956.494  21
   3  -1  -2 58509.1 1658.16  20
  -3  -1   2 58992.5 1587.42   6
   3  -1  -2 58972.4 1653.59  19
   3  -1  -2 63637.1 1381.23   2
   3  -1  -2 62051.9 1505.70  18
  -3  -1   2 57488.0 1569.17  10
  -3  -1   2 59075.0 1473.60  13
  -3  -1   2 57579.4 1483.88  16
   3  -1  -2 59772.1 1560.89   9
  -3  -1   2 58004.9 1481.27  15
  -3  -1   2 57505.3 1633.45  12
   3  -1  -2 58446.3 1408.91   1
  -3  -1   2 60459.4 1363.27   4
  -3  -1   2 57724.2 1473.34  14
   3  -1  -2 60510.1 1655.87  23
   3  -1  -2 56883.7 1671.70  22
   3  -1  -2 59248.0 1671.82  21
   3  -1  -1 16381.9 656.450  20
   3  -1  -1 15918.2 449.567   1
   3  -1  -1 17426.3 664.505  19
   3  -1  -1 16629.8 488.184  18
   3  -1  -1 17127.5 644.527  17
  -3  -1   1 15554.2 603.098   6
  -3  -1   1 17125.8 598.925  10
   3  -1  -1 16669.1 581.955   9
  -3  -1   1 16848.7 530.564  15
  -3  -1   1 18250.1 452.073   4
  -3  -1   1 16498.0 524.736  14
   3  -1  -1 15958.6 637.568  23
  -3  -1   1 16439.2 520.782  13
   3  -1  -1 17371.0 678.323  21
  -3  -1   0 19753.7 618.003  13
   3  -1   0 19463.0 756.541  20
   3  -1   0 19889.0 752.713  19
   3  -1   0 19291.2 725.328  17
  -3  -1   0 19846.3 684.476  10
   3  -1   0 18992.9 518.178   1
   3  -1   0 19940.0 674.024   9
  -3  -1   0 18877.5 621.364  15
  -3  -1   0 20926.0 540.367   4
  -3  -1   0 19333.6 621.387  14
   3  -1   0 19667.5 740.516  23
   3  -1   0 20850.7 677.538   3
   3  -1   0 18080.6 746.914  21
   3  -1   1 2329.30 243.504  20
   3  -1   1 2629.53 138.686   1
   3  -1   1 2660.32 219.913   3
   3  -1   1 2463.40 235.700  17
  -3  -1  -1 2527.93 219.945  10
   3  -1   1 2334.50 224.798  16
   3  -1   1 2730.35 259.210  19
   3  -1   1 2791.83 225.697   9
  -3  -1  -1 2921.24 151.998   4
  -3  -1  -1 2598.48 198.148  14
   3  -1   1 2364.89 236.028  23
  -3  -1  -1 3004.90 206.122  13
   3  -1   2 27589.5 1090.50  20
   3  -1   2 27529.1 1075.46  19
   3  -1   2 26990.7 1030.45  17
   3  -1   2 27112.6 1021.08  16
   3  -1   2 30157.5 994.739   3
   3  -1   2 28313.7 1064.86  23
   3  -1   2 28810.3 1004.96   9
  -3  -1  -2 31345.3 809.532   4
  -3  -1  -2 26994.6 932.363  14
  -3  -1  -2 29027.9 940.756  13
   3  -1   3 6000.51 398.727   3
   3  -1   3 5918.29 476.363  20
   3  -1   3 5308.54 445.901  19
   3  -1   3 5685.67 435.388  17
   3  -1   3 5646.84 426.823  16
   3  -1   3 5156.46 394.215   9
  -3  -1  -3 6367.15 290.577   4
  -3  -1  -3 5533.94 376.577  14
  -3  -1  -3 6013.93 383.478  13
   3  -1   3 5401.86 439.659  23
   3  -1   4 4877.70 390.023   3
   3  -1   4 4322.13 452.376  20
   3  -1   4 5485.22 494.017  19
   3  -1   4 4246.36 420.449  17
  -3  -1  -4 4646.64 372.086  13
   3  -1   4 5186.85 447.226  16
  -3  -1  -4 5330.33 291.860   4
  -3  -1  -4 5052.12 394.320  14
   3  -1   4 4475.14 431.785  23
   3  -1   5 3406.81 346.427   3
   3  -1   5 3718.86 415.503  17
   3  -1   5 3654.98 419.999  23
   3  -1   5 2723.63 382.779  19
   3  -1   5 3168.91 379.921  16
  -3  -1  -5 2982.28 245.938   4
  -3  -1  -5 2862.99 324.242  14
   3  -1   5 2804.94 396.081  20
  -3  -1  -5 3184.47 340.792  13
   3   0  -7 24376.3 1051.25  20
  -3   0   7 20230.7 1051.96  10
   3   0  -7 21054.6 961.285  18
  -3   0   7 22339.1 981.069  17
  -3   0   7 21832.2 959.484  16
   3   0  -7 21082.3 901.099   9
  -3   0   7 21907.5 960.589  15
  -3   0   7 22473.7 945.120  14
   3   0  -7 21116.8 972.307  21
  -3   0   7 22602.8 1021.02  23
  -3   0   7 21469.8 882.696   6
  -3   0   7 22723.8 1059.83  12
  -3   0   6 1399.02 222.834  12
   3   0  -6 1308.32 206.211  20
  -3   0   6 1199.67 164.259   6
   3   0  -6 1229.70 190.758  18
  -3   0   6 1313.63 195.397  17
  -3   0   6 1467.25 239.566  10
   3   0  -6 1605.98 197.066   9
  -3   0   6 1398.22 195.975  16
  -3   0   6 1562.07 224.179   3
  -3   0   6 1283.66 191.415  15
  -3   0   6 1231.30 180.211  14
  -3   0   6 1315.91 204.628  23
   3   0  -6 1441.32 211.644  21
  -3   0   5 263.423 99.0046  12
   3   0  -5 233.182 90.2300  20
  -3   0   5 244.296 73.4548   6
  -3   0   5 327.241 102.952  23
   3   0  -5 254.487 58.5988   1
   3   0  -5 333.599 95.9701  18
  -3   0   5 149.912 67.7740  17
  -3   0   5 122.413 82.7625  10
  -3   0   5 304.237 88.1640  16
  -3   0   5 296.605 99.0484   3
  -3   0   5 252.359 80.1594  15
   3   0  -5 224.334 71.7951   9
  -3   0   5 290.792 82.5400  14
   3   0  -5 256.774 60.0268   7
   3   0  -5 321.455 102.801  21
   3   0  -4 8215.37 441.982  20
  -3   0   4 8172.27 380.655   6
  -3   0   4 8320.28 464.690  12
   3   0  -4 9056.62 464.579  19
  -3   0   4 7590.52 452.675  10
   3   0  -4 8529.43 421.845  18
   3   0  -4 8794.44 359.487   5
  -3   0   4 8350.24 405.605  17
  -3   0   4 8073.89 390.875  16
   3   0  -4 8228.75 389.469   9
   3   0  -4 8811.35 313.496   1
  -3   0   4 8249.46 394.450  15
  -3   0   4 7843.37 382.080  14
  -3   0   4 7784.26 377.038  13
   3   0  -4 8056.75 317.502   7
   3   0  -4 8485.17 466.574  22
   3   0  -4 7682.80 431.355  21
   3   0  -3 5667.60 339.518  20
  -3   0   3 6423.39 313.906   6
  -3   0   3 5999.96 366.049  12
   3   0  -3 6391.94 332.617  18
  -3   0   3 5613.20 352.527  10
   3   0  -3 5712.50 340.611  19
  -3   0   3 6044.45 310.473  17
   3   0  -3 5968.87 352.025  21
  -3   0   3 6724.80 317.049  16
   3   0  -3 6222.30 307.606   9
   3   0  -3 6464.94 228.647   1
   3   0  -3 5944.45 357.937  22
  -3   0   3 6464.03 308.331  15
   3   0  -3 6226.45 211.886   2
  -3   0   3 6151.70 300.880  14
  -3   0   3 5987.54 295.124  13
   3   0  -3 5922.78 240.538   7
   3   0  -2 126898. 3136.94  20
  -3   0   2 125781. 3166.84  12
  -3   0   2 133352. 3075.63   6
   3   0  -2 124863. 3131.88  19
   3   0  -2 126997. 3057.62  18
  -3   0   2 123935. 3137.23  10
  -3   0   2 126915. 3036.91  16
   3   0  -2 127490. 3033.24   9
  -3   0   2 131027. 2928.67   4
   3   0  -2 132412. 2887.08   1
  -3   0   2 127834. 3032.99  15
  -3   0   2 128794. 3028.75  14
   3   0  -2 126660. 2928.63   7
  -3   0   2 125096. 3018.47  13
   3   0  -2 125544. 3154.44  22
   3   0  -2 130302. 3137.47  23
   3   0  -2 131449. 2949.72   2
   3   0  -2 125434. 3142.48  21
   3   0  -1 43322.5 1309.47  21
   3   0  -1 45674.6 1130.04   2
  -3   0   1 44464.1 1246.74   6
   3   0  -1 45437.0 1304.82  19
   3   0  -1 43552.7 1299.80  20
   3   0  -1 44768.0 1283.86  17
  -3   0   1 43138.4 1287.96  10
   3   0  -1 44501.4 1203.70   9
   3   0  -1 49500.3 1044.20   1
  -3   0   1 45739.2 1220.03  15
  -3   0   1 42262.4 1101.95   4
  -3   0   1 47018.5 1215.35  14
   3   0  -1 44816.1 1292.71  23
   3   0  -1 43830.2 1101.65   7
  -3   0   1 45771.7 1205.90  13
   3   0   0 4089.67 289.470  20
  -3   0   0 3901.08 250.836   6
   3   0   0 4881.70 208.096   2
   3   0   0 4168.95 277.455  17
  -3   0   0 4741.58 297.618  10
   3   0   0 4025.92 276.267  23
   3   0   0 4729.63 257.302   9
  -3   0   0 4436.01 254.440  15
  -3   0   0 4348.40 189.666   4
  -3   0   0 4206.38 244.447  14
   3   0   0 4334.07 172.264   7
   3   0   0 3963.69 287.115  21
  -3   0   0 4908.21 255.236  13
   3   0   0 4652.12 299.480  19
   3   0   1 1848.62 203.824  20
   3   0   1 1868.42 120.884  11
   3   0   1 1920.94 203.902  19
   3   0   1 1619.86 180.293  17
  -3   0  -1 1882.62 196.917  10
   3   0   1 1787.14 183.974  16
  -3   0  -1 1692.25 161.209  13
   3   0   1 1875.83 176.700   9
  -3   0  -1 1922.65 125.169   4
  -3   0  -1 1673.27 163.672  14
   3   0   1 1641.43 186.145  23
   3   0   1 1739.29 100.258   7
   3   0   1 1912.65 175.326   3
   3   0   2 5352.38 397.046  20
   3   0   2 5428.29 392.487  19
   3   0   2 5454.05 374.108  17
  -3   0  -2 6124.85 398.462  10
   3   0   2 5321.85 363.180  16
   3   0   2 5221.72 347.178   9
  -3   0  -2 5891.77 262.974   4
  -3   0  -2 5095.15 329.206  14
   3   0   2 5683.05 389.252  23
   3   0   2 6258.68 356.463   3
  -3   0  -2 5841.78 344.551  13
   3   0   3 3201.78 341.712  20
  -3   0  -3 2833.85 262.751  13
   3   0   3 3110.40 327.477  19
   3   0   3 2826.84 295.275  17
   3   0   3 2785.36 287.326  16
  -3   0  -3 2753.81 198.098   4
  -3   0  -3 2709.99 263.798  14
   3   0   3 2952.51 309.359  23
   3   0   3 2752.54 256.407   3
   3   0   4 4812.38 459.507  20
  -3   0  -4 4763.12 378.064  13
   3   0   4 4666.37 441.835  19
   3   0   4 6004.33 346.848   2
   3   0   4 5307.84 445.388  17
   3   0   4 5698.43 451.476  16
  -3   0  -4 5199.31 307.210   4
  -3   0  -4 5197.97 401.802  14
   3   0   4 4911.49 438.738  23
   3   0   4 5525.05 392.187   3
   3   0   5 388.786 160.880  20
  -3   0  -5 736.318 130.630   4
   3   0   5 736.478 194.476  19
   3   0   5 450.543 139.939  17
   3   0   5 754.533 134.415   2
   3   0   5 224.979 106.438  16
  -3   0  -5 389.760 128.762  13
  -3   0  -5 525.003 146.009  14
   3   0   5 369.729 144.720  23
  -3   1   7 345.581 137.020  12
  -3   1   7 331.995 104.843   6
   3   1  -7 377.731 135.258  18
  -3   1   7 293.560 106.372  17
  -3   1   7 368.520 124.348  10
  -3   1   7 328.286 108.184  16
  -3   1   7 301.923 118.388  15
   3   1  -7 433.971 111.558   9
  -3   1   7 393.147 116.401  14
  -3   1   7 273.860 114.038  23
   3   1  -7 269.500 107.003  21
  -3   1   6 12676.2 686.987  12
   3   1  -6 11616.4 616.657  20
  -3   1   6 12594.1 662.657  23
  -3   1   6 10462.3 664.509  10
   3   1  -6 12675.9 673.263  18
  -3   1   6 11286.1 612.043  17
  -3   1   6 11690.3 605.505  16
   3   1  -6 10924.9 548.470   9
  -3   1   6 11914.0 608.979  15
  -3   1   6 11338.9 585.537  14
  -3   1   6 11195.6 558.658   6
   3   1  -6 11930.4 619.443  21
   3   1  -5 19492.2 764.484  20
  -3   1   5 18876.3 812.490  12
  -3   1   5 19638.3 716.460   6
  -3   1   5 18482.9 782.392  23
  -3   1   5 17146.2 825.582  10
   3   1  -5 20342.3 823.587  18
   3   1  -5 18076.2 696.257   5
  -3   1   5 19048.9 760.012  17
  -3   1   5 18048.9 750.358   3
  -3   1   5 19282.1 747.326  16
   3   1  -5 18245.4 692.035   9
  -3   1   5 19796.7 754.862  15
  -3   1   5 19904.7 745.390  14
   3   1  -5 19677.9 690.320   7
   3   1  -5 18900.6 757.987  21
  -3   1   4 150633. 3563.81   6
  -3   1   4 146509. 3699.61  12
   3   1  -4 156113. 3525.96   7
  -3   1   4 142887. 3752.88  10
   3   1  -4 155785. 3712.13  18
   3   1  -4 144524. 3564.72   5
  -3   1   4 148827. 3621.41  17
  -3   1   4 150791. 3611.18  16
   3   1  -4 146180. 3533.78   9
   3   1  -4 147370. 3613.76  20
  -3   1   4 151083. 3606.83  15
  -3   1   4 148652. 3587.47  14
  -3   1   4 148401. 3582.27  13
   3   1  -4 145522. 3610.80  21
  -3   1   3 27553.0 846.966  13
   3   1  -3 26687.0 857.368  20
  -3   1   3 28663.9 833.659   6
  -3   1   3 27468.9 928.315  12
   3   1  -3 27849.0 868.539  19
   3   1  -3 27179.7 789.385   7
   3   1  -3 27580.4 911.656  18
  -3   1   3 26513.1 956.281  10
   3   1  -3 27739.8 863.040   5
  -3   1   3 28170.4 879.719  17
  -3   1   3 27240.0 859.728  16
   3   1  -3 26247.5 796.901   9
  -3   1   3 27077.2 854.177  15
   3   1  -3 26194.9 771.013   2
  -3   1   3 28703.1 858.474  14
   3   1  -3 27178.5 881.458  22
   3   1  -3 27270.6 869.247  21
   3   1  -2 57525.4 1543.00  20
  -3   1   2 57174.7 1620.48  12
  -3   1   2 61279.2 1516.08   6
   3   1  -2 58151.8 1489.58   2
   3   1  -2 58392.8 1544.28  19
   3   1  -2 57293.0 1458.95   7
   3   1  -2 56567.8 1562.38  18
  -3   1   2 56411.6 1642.34  10
  -3   1   2 60333.3 1554.79  16
   3   1  -2 59013.9 1470.65   9
   3   1  -2 59238.7 1565.62  22
  -3   1   2 61681.5 1555.46  15
  -3   1   2 60810.1 1543.97  14
   3   1  -2 58854.8 1543.83  23
  -3   1   2 60384.4 1538.96  13
   3   1  -2 58642.2 1554.80  21
   3   1  -1 17545.4 608.098  20
  -3   1   1 16927.6 560.617   6
   3   1  -1 17726.9 606.235  19
   3   1  -1 16952.7 585.415  17
  -3   1   1 16253.7 653.763  10
  -3   1   1 16572.3 536.859   4
   3   1  -1 16800.5 528.470   9
  -3   1   1 16793.0 589.558  15
  -3   1   1 17474.7 588.453  14
   3   1  -1 17563.6 598.277  23
  -3   1   1 16316.4 572.257  13
   3   1  -1 16473.3 510.699   7
   3   1  -1 17892.1 617.278  21
   3   1  -1 16458.4 543.933   2
   3   1   0 19582.9 673.782  17
   3   1   0 18716.7 689.384  20
   3   1   0 20636.4 626.780   2
  -3   1   0 19031.2 632.652   6
   3   1   0 19590.4 695.829  19
  -3   1   0 19495.7 737.702  10
  -3   1   0 19162.7 597.959   4
   3   1   0 19554.4 623.523   9
  -3   1   0 19419.8 674.593  15
  -3   1   0 20479.3 677.907  14
   3   1   0 20503.7 691.529  23
   3   1   0 20139.3 584.196   7
  -3   1   0 20249.8 664.537  13
   3   1   0 19799.9 706.059  21
   3   1   1 2495.11 227.105  20
   3   1   1 2411.96 178.003  11
   3   1   1 2636.82 179.298   2
   3   1   1 2495.38 224.258  19
   3   1   1 2640.37 217.749  17
  -3   1  -1 2664.92 246.821  10
   3   1   1 2457.38 206.644  16
  -3   1  -1 2247.38 161.768   4
   3   1   1 2503.66 197.998   9
  -3   1  -1 2587.45 209.798  14
   3   1   1 2211.19 205.659  23
   3   1   1 2912.22 167.532   7
  -3   1  -1 2570.15 204.307  13
   3   1   2 28556.2 1041.12  20
   3   1   2 27877.6 883.521  11
   3   1   2 29941.7 874.845   2
   3   1   2 27556.7 1014.77  19
   3   1   2 26130.6 960.720  17
  -3   1  -2 30007.3 1059.59  10
   3   1   2 26470.1 957.901  16
  -3   1  -2 27302.6 840.544   4
  -3   1  -2 27463.2 950.232  14
   3   1   2 27585.3 993.265  23
  -3   1  -2 29057.7 952.209  13
   3   1   2 32626.6 967.928   3
   3   1   3 5768.83 423.178  23
   3   1   3 6030.78 455.857  20
   3   1   3 6037.03 334.198   2
   3   1   3 5319.18 419.913  19
   3   1   3 4604.95 370.086  17
  -3   1  -3 6466.25 458.667  10
   3   1   3 5153.96 387.238  16
  -3   1  -3 5603.48 316.879   4
  -3   1  -3 5125.58 371.605  14
  -3   1  -3 6177.19 395.539  13
   3   1   3 6447.86 378.552   3
   3   1   4 5324.16 470.665  20
   3   1   4 5029.51 336.031   2
   3   1   4 4304.59 420.176  19
   3   1   4 4762.64 415.394  17
   3   1   4 4525.66 399.328  16
  -3   1  -4 5281.44 335.969   4
  -3   1  -4 4377.58 373.312  14
   3   1   4 5243.91 445.582  23
  -3   1  -4 5112.73 393.254  13
   3   1   4 6035.59 390.491   3
   3   1   5 3259.09 405.465  20
   3   1   5 3288.91 302.731   2
   3   1   5 2646.96 365.163  19
   3   1   5 3293.26 375.636  17
   3   1   5 3029.78 358.223  16
  -3   1  -5 3150.74 290.732   4
  -3   1  -5 2829.46 323.282  14
   3   1   5 3039.02 371.164  23
  -3   1  -5 3201.44 337.543  13
  -3   2   7 11295.9 778.853  10
  -3   2   7 12928.1 728.922  17
  -3   2   7 13525.7 729.842  16
   3   2  -7 12305.8 629.700   9
   3   2  -7 12271.3 767.180  18
  -3   2   7 11822.9 689.028  15
  -3   2   7 12188.1 682.906  14
  -3   2   7 12566.9 747.022  23
   3   2  -7 13359.8 688.662  21
   3   2  -7 12827.0 699.266  13
  -3   2   7 11952.5 650.220   6
  -3   2   7 11740.4 727.257  12
   3   2  -6 7346.14 459.121  20
  -3   2   6 5809.76 495.952  10
   3   2  -6 6745.79 505.838  18
  -3   2   6 6856.70 470.431  17
  -3   2   6 6511.84 447.331  16
   3   2  -6 6232.02 387.860   9
  -3   2   6 6373.99 444.251  15
  -3   2   6 6593.35 439.438  14
  -3   2   6 6388.85 476.155  23
   3   2  -6 6493.02 425.041  21
  -3   2   6 6064.73 408.945   6
  -3   2   6 7025.27 492.949  12
   3   2  -5 2643.18 234.913  20
  -3   2   5 2345.37 252.846  12
   3   2  -5 2799.63 291.689  18
   3   2  -5 2274.26 239.486   5
  -3   2   5 2095.50 229.409  17
  -3   2   5 1863.70 253.759  10
  -3   2   5 2259.50 230.732  16
   3   2  -5 2051.51 192.242   9
   3   2  -5 1939.94 200.285   7
  -3   2   5 2279.18 231.340  15
  -3   2   5 2476.27 236.484  14
   3   2  -5 2352.75 220.909  21
  -3   2   5 2310.94 217.632   6
   3   2  -4 12919.9 514.953  20
  -3   2   4 12868.3 586.464  12
   3   2  -4 12015.8 521.085   7
  -3   2   4 12315.6 534.062  13
   3   2  -4 13080.4 626.041  18
  -3   2   4 11524.2 618.157  10
   3   2  -4 12026.7 561.651   5
  -3   2   4 12273.6 557.138  17
  -3   2   4 12557.9 550.780  16
   3   2  -4 12373.0 471.952   9
  -3   2   4 12519.0 548.485  15
  -3   2   4 12235.6 536.570  14
   3   2  -4 11708.3 495.952  21
  -3   2   4 12561.6 516.580   6
  -3   2   3 13261.2 481.748   6
   3   2  -3 12347.6 463.308  20
  -3   2   3 12029.0 539.270  12
   3   2  -3 12929.2 473.123  19
   3   2  -3 12354.8 569.905  18
  -3   2   3 11530.8 585.204  10
   3   2  -3 12414.7 542.582   5
  -3   2   3 12358.8 530.240  17
  -3   2   3 11642.2 509.259  16
   3   2  -3 12230.0 426.103   9
   3   2  -3 12633.8 499.497   7
  -3   2   3 12586.1 520.708  15
   3   2  -3 11319.1 474.513   2
  -3   2   3 12209.8 508.788  14
  -3   2   3 12658.8 511.796  13
   3   2  -3 12235.2 475.103  22
   3   2  -3 11727.7 454.371  21
   3   2  -2 53239.8 1398.18  20
  -3   2   2 58215.0 1424.69   6
  -3   2   2 55282.4 1541.20  12
   3   2  -2 53848.4 1397.58  19
  -3   2   2 57939.2 1381.78  11
   3   2  -2 49380.6 1515.74  18
   3   2  -2 59895.0 1570.12   5
  -3   2   2 52212.2 1601.93  10
   3   2  -2 55571.5 1417.54  22
  -3   2   2 56180.8 1511.31  16
   3   2  -2 54835.9 1349.52   9
  -3   2   2 56984.9 1508.79  15
  -3   2   2 56749.1 1497.21  14
   3   2  -2 53421.1 1401.54  21
   3   2  -2 54547.9 1486.04   2
  -3   2   2 57668.4 1496.36  13
   3   2  -2 54009.5 1462.38   7
   3   2  -1 19675.1 619.085  20
  -3   2   1 19764.4 589.707   6
   3   2  -1 18770.5 633.614   7
  -3   2   1 20197.3 498.905  11
   3   2  -1 18806.4 612.036  19
  -3   2   1 17679.8 737.847  10
   3   2  -1 19575.6 623.499  22
  -3   2   1 18427.2 649.325   4
   3   2  -1 19425.8 558.266   9
  -3   2   1 19087.1 671.809  15
  -3   2   1 20053.3 674.861  14
   3   2  -1 19553.3 612.509  23
  -3   2   1 19666.1 664.899  13
   3   2  -1 18232.3 654.656   2
   3   2  -1 18558.0 613.166  21
   3   2   0 22957.5 740.682  20
  -3   2   0 22609.6 744.794  13
  -3   2   0 21619.7 645.692   6
   3   2   0 21295.8 717.632  19
   3   2   0 22204.2 704.361  17
  -3   2   0 21566.6 831.401  10
  -3   2   0 21166.8 722.393   4
  -3   2   0 21581.5 753.486  15
   3   2   0 22108.7 659.945   9
  -3   2   0 22159.9 750.414  14
   3   2   0 21761.3 709.381  23
   3   2   0 22698.2 706.016   7
   3   2   0 22943.0 748.978   2
   3   2   0 22285.8 739.657  21
   3   2   1 5777.61 341.872  20
   3   2   1 5952.97 331.119  11
  -3   2  -1 5519.95 257.046   6
   3   2   1 5587.59 331.920  19
  -3   2  -1 5530.72 321.551  13
   3   2   1 5600.79 317.186  17
  -3   2  -1 5444.46 378.546  10
   3   2   1 5242.53 303.124  16
  -3   2  -1 5012.47 293.552   4
  -3   2  -1 5520.61 334.161  15
   3   2   1 5197.62 286.818   9
   3   2   1 5723.75 319.265   2
  -3   2  -1 5934.77 341.564  14
   3   2   1 5313.71 314.947  23
   3   2   1 5492.54 271.051   7
   3   2   2 15203.8 605.349   2
  -3   2  -2 16303.0 654.544  13
   3   2   2 15986.2 698.308  20
   3   2   2 14999.6 624.008  11
   3   2   2 15093.0 672.889  19
   3   2   2 15454.2 647.959  17
  -3   2  -2 16671.8 750.643  10
   3   2   2 15741.0 642.254  16
  -3   2  -2 14715.9 587.942   4
  -3   2  -2 15467.2 652.351  14
   3   2   2 14413.0 643.444  23
   3   2   3 1113.25 191.241  20
   3   2   3 980.760 153.877  11
   3   2   3 1192.04 196.532  19
   3   2   3 1184.60 181.508  17
   3   2   3 1324.10 164.195   2
  -3   2  -3 1216.97 201.741  10
   3   2   3 1041.94 168.647  16
  -3   2  -3 1150.71 173.488  13
  -3   2  -3 1375.26 191.399  14
   3   2   3 1185.81 189.591  23
  -3   2  -3 1070.22 150.221   4
   3   2   4 4703.99 348.057   2
   3   2   4 3928.37 402.926  20
   3   2   4 4287.96 413.696  19
   3   2   4 3850.39 367.538  17
   3   2   4 4197.09 377.448  16
  -3   2  -4 4225.74 330.068   4
  -3   2  -4 4290.53 373.232  14
   3   2   4 4497.09 408.293  23
  -3   2  -4 3851.58 343.180  13
  -3   3   7 887.094 198.946  12
  -3   3   7 1378.88 217.457   6
  -3   3   7 998.071 193.145  11
   3   3  -7 1336.22 261.414  18
  -3   3   7 944.390 193.718  17
  -3   3   7 1112.39 244.536  10
  -3   3   7 1224.04 218.427  16
  -3   3   7 1086.78 202.294  15
  -3   3   7 1207.60 204.061  14
  -3   3   7 1158.54 225.855  23
  -3   3   6 10096.5 689.324  10
   3   3  -6 10538.4 674.251  18
   3   3  -6 10841.6 650.311   5
  -3   3   6 11511.4 636.985  17
  -3   3   6 9920.66 581.882  16
  -3   3   6 10174.8 591.921  15
  -3   3   6 10396.5 585.333  14
  -3   3   6 10398.5 636.211  23
  -3   3   6 9931.67 560.968   6
  -3   3   6 10306.9 612.627  12
  -3   3   5 4329.99 346.613  12
  -3   3   5 4443.00 328.971  13
   3   3  -5 4187.07 380.148  18
  -3   3   5 4505.32 406.302  10
   3   3  -5 4264.45 369.858   5
  -3   3   5 4339.05 345.489  17
  -3   3   5 4830.84 352.072  16
   3   3  -5 4306.59 273.814   9
  -3   3   5 4502.25 341.506  15
  -3   3   5 4238.28 326.283  14
  -3   3   5 4247.77 358.673   8
   3   3  -5 3617.28 273.015  13
   3   3  -5 4480.11 288.772  21
  -3   3   5 4307.77 320.331   6
   3   3  -4 67320.0 1612.47  20
  -3   3   4 59063.6 1728.04  12
  -3   3   4 61337.5 1685.61  11
   3   3  -4 59704.5 1833.14  18
  -3   3   4 56267.8 1847.31  10
   3   3  -4 57959.5 1790.60   5
  -3   3   4 62123.8 1747.06  17
  -3   3   4 61399.6 1723.79  16
   3   3  -4 61466.7 1546.91   9
  -3   3   4 59568.9 1708.59  15
  -3   3   4 61711.7 1702.81  13
  -3   3   4 60765.7 1707.80  14
   3   3  -4 53659.6 1653.99   7
   3   3  -4 61402.5 1575.81  21
  -3   3   4 58102.0 1647.71   6
   3   3  -3 39109.8 983.832  20
  -3   3   3 35722.3 1069.82  11
   3   3  -3 33677.2 1197.52  18
  -3   3   3 37001.1 1272.55  10
   3   3  -3 35176.4 1203.79   5
  -3   3   3 38243.9 1170.72  17
  -3   3   3 37879.6 1151.00  16
   3   3  -3 36115.5 948.455   9
  -3   3   3 37916.4 1147.98  15
   3   3  -3 36974.4 1143.85   2
  -3   3   3 37123.6 1131.07  14
  -3   3   3 37485.5 1128.97  13
   3   3  -3 33941.7 1106.00   7
   3   3  -3 37013.4 971.866  21
  -3   3   3 36413.2 1140.31  12
  -3   3   3 38109.9 1075.27   6
  -3   3   2 12646.4 446.630   6
   3   3  -2 12340.0 366.727  20
  -3   3   2 12168.5 519.913  12
  -3   3   2 11875.0 442.010  11
   3   3  -2 12827.3 586.864   5
  -3   3   2 12317.9 607.530  10
  -3   3   2 11239.6 420.927   5
  -3   3   2 12362.0 523.974  16
   3   3  -2 12338.0 351.278   9
  -3   3   2 12672.8 525.887  15
   3   3  -2 11638.4 531.698   2
  -3   3   2 12654.3 518.433  14
  -3   3   2 12896.8 519.671  13
   3   3  -2 11008.2 492.854   7
   3   3  -2 12177.5 368.820  21
  -3   3   1 25771.6 693.253   6
   3   3  -1 24751.1 654.780  20
   3   3  -1 23428.3 650.339  19
  -3   3   1 23925.1 919.309  10
  -3   3   1 25047.3 832.316  16
  -3   3   1 26067.8 838.404  15
   3   3  -1 25003.0 625.013   9
  -3   3   1 25645.7 826.411  14
   3   3  -1 22526.8 648.675  23
  -3   3   1 25483.1 818.646  13
   3   3  -1 24928.6 660.632  22
   3   3  -1 21708.8 778.345   7
   3   3  -1 23774.8 651.942  21
   3   3  -1 24311.7 850.958   2
   3   3   0 18781.3 606.306  20
  -3   3   0 17664.4 510.117   6
   3   3   0 18342.0 599.902  19
   3   3   0 17940.3 583.090  17
  -3   3   0 20502.9 812.202  10
  -3   3   0 17869.1 698.552   4
  -3   3   0 18242.8 686.929  15
  -3   3   0 18793.2 684.328  14
   3   3   0 18476.9 594.571  23
  -3   3   0 18109.1 670.075  13
   3   3   0 17259.0 691.113   2
   3   3   0 18995.8 613.092  21
   3   3   1 3975.57 268.877  20
   3   3   1 3901.21 255.284  23
   3   3   1 4287.07 311.065  11
   3   3   1 4053.39 267.470  19
   3   3   1 4580.69 266.631  17
  -3   3  -1 3403.91 313.774  10
   3   3   1 3923.09 244.501  16
  -3   3  -1 3662.51 278.787   4
  -3   3  -1 3804.53 286.565  15
  -3   3  -1 4004.07 289.182  14
  -3   3  -1 3985.41 281.329  13
   3   3   1 3601.94 280.944   2
   3   3   2 13862.0 646.530  20
   3   3   2 13673.2 642.291  11
   3   3   2 14440.1 645.264  19
   3   3   2 14431.3 613.465  17
  -3   3  -2 15027.6 734.453  10
   3   3   2 14287.6 602.985  16
  -3   3  -2 13537.7 611.680   4
  -3   3  -2 14580.1 650.261  15
  -3   3  -2 14911.3 651.017  14
   3   3   2 14347.7 625.594  23
  -3   3  -2 14573.9 632.681  13
   3   3   2 14044.6 634.200   2
  -3   3  -3 15809.4 709.818  13
   3   3   3 15866.0 768.233  20
   3   3   3 15477.1 731.882  11
   3   3   3 16078.2 758.222  19
   3   3   3 15399.9 724.526  23
   3   3   3 15373.7 708.682  17
  -3   3  -3 17869.7 854.128  10
   3   3   3 15078.0 696.701  16
  -3   3  -3 14569.5 678.534   4
  -3   3  -3 16099.8 732.727  14
   3   3   3 14539.4 676.052   2
   3   3   4 2683.38 334.119  20
   3   3   4 2567.53 318.291  19
   3   3   4 2277.60 280.934  17
   3   3   4 2284.32 278.723  16
  -3   3  -4 2391.39 266.554   4
  -3   3  -4 2613.58 297.140  14
   3   3   4 2603.23 310.175  23
  -3   3  -4 2836.70 300.724  13
   3   3   4 2426.84 271.972   2
  -3   4   6 7972.36 544.514  11
  -3   4   6 9229.94 569.915  12
   3   4  -6 7824.28 596.482  18
  -3   4   6 8454.74 644.329  10
   3   4  -6 8586.57 623.092   5
  -3   4   6 9643.03 592.701  17
  -3   4   6 9973.11 586.984  16
  -3   4   6 9299.49 567.065  15
  -3   4   6 9442.97 562.940  14
  -3   4   6 10386.8 639.798  23
  -3   4   6 9560.50 562.109   6
  -3   4   5 7098.62 447.050  12
  -3   4   5 6767.02 451.981  11
   3   4  -5 6716.52 507.461  18
  -3   4   5 6403.70 515.056  10
   3   4  -5 6226.35 489.985   5
  -3   4   5 6873.01 456.337  17
  -3   4   5 6817.62 448.115  16
  -3   4   5 6953.45 447.445  15
  -3   4   5 6764.44 437.900  14
  -3   4   5 6652.64 492.894   8
  -3   4   5 7064.27 439.241  13
  -3   4   5 7159.86 439.024   6
  -3   4   4 5616.60 369.399  12
  -3   4   4 5841.33 384.705  11
  -3   4   4 6416.99 376.884   6
   3   4  -4 6021.24 450.825  18
  -3   4   4 6584.71 488.631  10
   3   4  -4 5734.04 445.999   5
  -3   4   4 6661.22 416.528  17
  -3   4   4 6405.72 399.400  16
  -3   4   4 6483.34 400.024  15
  -3   4   4 6757.81 402.242  14
  -3   4   4 6098.63 458.015   8
  -3   4   4 6480.33 392.534  13
  -3   4   3 7190.24 399.447  12
  -3   4   3 7705.61 413.956  11
   3   4  -3 7207.33 474.514  18
  -3   4   3 8215.68 525.801  10
   3   4  -3 8778.47 524.153   5
  -3   4   3 9248.58 475.832  17
  -3   4   3 8055.39 438.276  16
  -3   4   3 9190.95 460.264  15
   3   4  -3 8201.91 469.338   2
  -3   4   3 8835.80 447.813  14
  -3   4   3 8686.10 531.955   8
  -3   4   3 7884.71 423.822  13
  -3   4   3 8228.45 394.308   6
  -3   4   2 4581.04 283.510  12
  -3   4   2 3806.18 255.874  11
   3   4  -2 4500.96 353.520   5
  -3   4   2 3939.78 345.717  10
  -3   4   2 4068.01 290.114  16
  -3   4   2 4218.48 292.060  15
   3   4  -2 4163.12 323.177   2
  -3   4   2 4042.38 342.365   8
  -3   4   2 4102.74 282.958  14
  -3   4   2 4129.42 282.851  13
  -3   4   2 4684.35 250.736   6
  -3   4   1 10607.3 481.115  12
   3   4  -1 13003.3 617.508   5
  -3   4   1 10980.0 600.674  10
  -3   4   1 11459.0 509.346   5
  -3   4   1 11515.1 519.613  16
  -3   4   1 11377.7 512.946  15
  -3   4   1 12303.4 608.380   8
  -3   4   1 10835.5 496.826  14
   3   4  -1 10412.3 544.246   2
  -3   4   1 11147.7 499.366  13
  -3   4   1 11588.3 392.878   6
  -3   4   0 21967.8 908.183  10
  -3   4   0 21173.7 832.435   5
   3   4   0 20139.4 834.019   2
  -3   4   0 21167.9 787.397  15
  -3   4   0 21303.3 857.754   8
  -3   4   0 21802.9 786.445  14
  -3   4   0 22662.9 786.348  13
   3   4   1 7776.69 479.616  11
  -3   4  -1 7903.00 514.286  10
  -3   4  -1 8123.69 505.745   5
  -3   4  -1 7854.72 445.532  15
  -3   4  -1 7801.48 454.147   8
  -3   4  -1 7213.66 424.462  14
   3   4   1 7984.70 477.632   2
  -3   4  -1 7979.21 435.905  13
   3   4   2 13940.6 699.085  11
  -3   4  -2 14960.2 763.744  10
  -3   4  -2 14347.2 765.911   5
  -3   4  -2 12574.3 639.339   4
  -3   4  -2 14040.8 664.937  15
  -3   4  -2 14626.1 664.259  14
  -3   4  -2 14592.1 652.518  13
   3   4   2 14031.8 680.786   2
   3   4   3-5.22619 78.7649  11
   3   4   3 6.57856 50.4861   2
  -3   4  -3 53.0431 72.6897  10
  -3   4  -3 67.5771 85.2431   5
  -3   4  -3-26.0121 66.2245   4
  -3   4  -3 79.9936 64.7324  15
  -3   4  -3 85.7781 70.9319  14
  -3   4  -3 14.9936 52.1318  13
   3   4   4 3979.56 398.338  11
  -3   4  -4 3214.11 416.660   5
  -3   4  -4 3335.91 344.856   4
  -3   4  -4 4258.61 382.130  14
  -3   4  -4 3911.10 359.633  13
   3   4   4 4305.93 389.094   2
  -3   5   6 1854.87 278.932  11
   3   5  -6 3011.89 364.439  18
  -3   5   6 2754.69 319.621  17
  -3   5   6 2855.14 378.473  10
  -3   5   6 2998.41 321.292  16
   3   5  -6 2812.25 364.368   5
  -3   5   6 2692.43 304.890  15
  -3   5   6 2809.73 306.001  14
  -3   5   6 2855.89 338.861  23
  -3   5   5 4073.89 368.715  11
   3   5  -5 3444.04 371.382  18
  -3   5   5 4047.38 424.602  10
   3   5  -5 3332.14 382.590   5
  -3   5   5 5235.27 403.909  17
  -3   5   5 5117.31 387.882  16
  -3   5   5 4035.95 337.775  13
  -3   5   5 3811.09 338.370  15
  -3   5   5 4054.93 340.598  14
  -3   5   5 3797.99 399.184   8
  -3   5   5 4513.89 354.798   6
  -3   5   4 16932.1 764.746  11
   3   5  -4 15871.9 825.122  18
  -3   5   4 16448.8 865.779  10
   3   5  -4 16525.6 868.445   5
  -3   5   4 18176.7 773.072  17
  -3   5   4 17845.3 756.909  16
  -3   5   4 17449.7 747.452  15
  -3   5   4 16928.5 730.078  14
  -3   5   4 16079.4 857.115   8
  -3   5   4 17451.5 734.454  13
  -3   5   4 17993.8 721.695   6
  -3   5   3 24092.4 918.205  11
  -3   5   3 25396.0 1070.02  10
   3   5  -3 24995.8 1063.69   5
  -3   5   3 26293.7 954.219  17
  -3   5   3 25387.6 928.061  16
  -3   5   3 25045.3 918.552  15
   3   5  -3 24728.0 1002.74   2
  -3   5   3 25841.8 914.407  13
  -3   5   3 25991.8 920.034  14
  -3   5   3 25743.9 1097.63   8
  -3   5   3 25993.6 864.282   6
  -3   5   2 331.426 79.3024  11
  -3   5   2 265.548 65.9990   6
   3   5  -2 252.247 99.3843   2
  -3   5   2 467.923 144.154  10
   3   5  -2 359.860 128.423   5
  -3   5   2 312.790 89.0085  16
  -3   5   2 338.925 91.4108  15
  -3   5   2 355.915 95.2497  14
  -3   5   2 278.269 116.523   8
  -3   5   2 388.141 96.8034  13
   3   5  -1 10040.4 582.848   5
  -3   5   1 9610.25 577.363  10
  -3   5   1 9395.70 490.130   5
  -3   5   1 9045.24 477.894  16
  -3   5   1 10241.0 497.264  15
   3   5  -1 9278.45 552.774   2
  -3   5   1 9465.77 474.974  14
  -3   5   1 9262.36 578.674   8
  -3   5   1 9859.04 478.036  13
  -3   5   0 8434.65 544.640  10
  -3   5   0 8345.73 510.860   5
  -3   5   0 8971.03 473.127  15
  -3   5   0 8427.43 533.206   8
  -3   5   0 9017.71 466.350  14
   3   5   0 7787.52 507.939   2
  -3   5   0 8802.80 457.019  13
  -3   5  -1 12286.6 681.136  10
  -3   5  -1 10850.2 647.472   5
  -3   5  -1 11972.1 590.334  15
  -3   5  -1 12113.0 632.206   8
  -3   5  -1 12502.2 591.644  14
   3   5   1 11235.2 633.797   2
  -3   5  -1 11754.9 569.992  13
   3   5   2 4896.92 427.432  11
  -3   5  -2 5595.28 390.610  13
  -3   5  -2 6386.27 495.218  10
  -3   5  -2 4951.68 460.744   5
  -3   5  -2 6353.18 430.200  15
  -3   5  -2 6006.50 412.625  14
   3   5   2 4668.95 400.282   2
   3   5   3 14612.1 816.753  11
  -3   5  -3 17332.5 903.142  10
  -3   5  -3 15166.8 915.389   5
  -3   5  -3 15538.7 768.039  15
  -3   5  -3 16579.2 778.319  14
   3   5   3 14093.3 769.762   2
  -3   5  -3 15831.6 750.725  13
  -3   6   5 8325.24 583.522  11
  -3   6   5 8396.11 648.126  10
   3   6  -5 9049.86 680.169   5
  -3   6   5 8548.09 551.233  17
  -3   6   5 8803.47 544.820  16
  -3   6   5 9236.76 555.267  15
  -3   6   5 9357.47 550.933  14
  -3   6   5 8849.68 663.331   8
  -3   6   4 762.509 159.954  11
  -3   6   4 789.704 152.374  17
  -3   6   4 1040.32 210.329  10
   3   6  -4 582.360 165.777   5
  -3   6   4 925.911 164.847  16
  -3   6   4 721.391 141.489  15
  -3   6   4 997.081 160.426  14
  -3   6   4 637.694 175.610   8
  -3   6   4 663.445 132.765  13
  -3   6   3 1817.16 235.051  11
  -3   6   3 2294.53 249.741  17
  -3   6   3 2203.22 298.005  10
  -3   6   3 2399.94 245.576  16
   3   6  -3 2409.33 317.353   5
  -3   6   3 2639.39 256.517  15
  -3   6   3 2403.78 242.039  14
  -3   6   3 2552.90 338.068   8
  -3   6   3 2533.06 245.516  13
   3   6  -2 3161.98 346.242   5
  -3   6   2 2771.86 318.202  10
  -3   6   2 2931.62 268.220  16
  -3   6   2 2770.21 259.708  15
   3   6  -2 2476.08 299.511   2
  -3   6   2 2730.94 252.905  14
  -3   6   2 2669.20 334.159   8
  -3   6   2 2868.09 256.166  13
   3   6  -1 19214.5 886.790   5
  -3   6   1 15868.1 812.800  10
  -3   6   1 16871.6 716.597  16
  -3   6   1 16493.6 705.628  15
   3   6  -1 16613.3 834.431   2
  -3   6   1 16883.2 703.154  14
  -3   6   1 15861.7 854.142   8
  -3   6   1 16836.3 698.378  13
  -3   6   0 12462.8 691.599  10
  -3   6   0 11298.4 647.351   5
  -3   6   0 10857.8 561.481  16
  -3   6   0 10897.3 558.390  15
   3   6   0 10944.5 663.716   2
  -3   6   0 10716.6 546.465  14
  -3   6   0 10253.0 649.547   8
  -3   6   0 10805.0 543.326  13
  -3   6  -1 9216.91 600.065  10
  -3   6  -1 8330.88 594.607   5
  -3   6  -1 9115.99 514.976  15
  -3   6  -1 8521.36 493.239  14
  -3   6  -1 7545.24 531.356   8
   3   6   1 7761.74 558.546   2
  -3   6  -1 8307.08 482.601  13
  -3   6  -2 4215.55 412.732  10
  -3   6  -2 2873.47 370.734   5
  -3   6  -2 3819.20 329.502  13
  -3   6  -2 3560.79 332.132  15
  -3   6  -2 3838.73 336.647  14
   3   6   2 2795.19 330.311   2
   3   6   3 506.593 158.476  11
   3   6   3 589.513 166.377   2
  -3   6  -3 411.091 137.648  10
  -3   6  -3 449.337 181.582   5
  -3   6  -3 537.210 139.484  14
  -3   6  -3 559.867 143.066  13
  -3   7   4 11149.3 688.313  11
  -3   7   4 10747.8 726.582  10
   3   7  -4 11283.8 779.934   5
  -3   7   4 11171.1 623.863  17
  -3   7   4 10937.3 601.983  16
  -3   7   4 11598.4 612.480  15
  -3   7   4 11538.9 606.965  14
  -3   7   4 11176.9 789.811   8
  -3   7   4 10958.7 588.237  13
  -3   7   3 7462.76 456.250  13
   3   7  -3 6541.44 558.518   5
  -3   7   3 6826.66 547.525  10
  -3   7   3 7094.77 466.627  17
  -3   7   3 7366.13 465.104  16
  -3   7   3 7686.43 471.226  15
  -3   7   3 7611.88 463.070  14
  -3   7   3 7158.70 616.880   8
   3   7  -2 285.282 132.828   2
  -3   7   2 527.485 122.794  17
  -3   7   2 383.626 140.325  10
   3   7  -2 401.334 133.840   5
  -3   7   2 555.286 120.607  16
  -3   7   2 560.432 126.776  15
  -3   7   2 467.845 111.706  14
  -3   7   2 561.235 177.288   8
  -3   7   2 413.578 106.278  13
   3   7  -1 340.646 127.051   2
  -3   7   1 422.292 133.963  10
   3   7  -1 265.619 123.797   5
  -3   7   1 520.057 127.640  16
  -3   7   1 471.003 159.877   8
  -3   7   1 315.293 93.7392  15
  -3   7   1 294.612 92.0621  14
  -3   7   1 442.758 104.091  13
  -3   7   0 3636.54 375.497  10
  -3   7   0 4410.67 352.563  16
  -3   7   0 4642.15 359.802  15
   3   7   0 3957.26 415.295   2
  -3   7   0 4543.41 348.750  14
  -3   7   0 3725.54 405.865   8
  -3   7   0 4132.55 331.584  13
  -3   7  -1 10126.3 652.850  10
  -3   7  -1 9040.91 660.722   5
  -3   7  -1 9359.22 552.213  16
  -3   7  -1 10104.3 566.677  15
   3   7   1 9342.22 661.137   2
  -3   7  -1 9803.97 551.490  14
  -3   7  -1 10123.7 553.622  13
   3   8  -1 16805.9 922.186   5
   3   8  -1 14087.8 871.008   2
  -3   8   1 14447.3 922.863   8
   4  -7  -3 23261.5 1151.94  19
   4  -7  -3 20904.7 921.862   1
   4  -7  -3 22116.7 961.005   9
   4  -7  -3 23635.3 1164.40  20
   4  -7  -3 24249.4 1210.81  22
   4  -7  -3 23200.8 1165.71  21
   4  -7  -2 717.869 193.928  20
   4  -7  -2 467.286 148.119  19
  -4  -7   2 477.282 135.320   6
  -4  -7   2 222.200 103.984   3
   4  -7  -2 520.881 135.346   9
   4  -7  -2 742.875 194.342  23
   4  -7  -2 479.511 129.068   1
   4  -7  -2 508.017 164.587  22
   4  -7  -2 1012.00 227.620  21
   4  -7  -1 12511.0 811.128  20
   4  -7  -1 13479.6 833.289  19
  -4  -7   1 12426.3 737.062   6
   4  -7  -1 12989.5 717.355   1
   4  -7  -1 12305.9 672.466   9
  -4  -7   1 12188.9 560.776   4
   4  -7  -1 12107.9 789.522  23
   4  -7  -1 11965.0 820.995  22
   4  -7  -1 13823.9 862.533  21
   4  -7   0 443.116 155.910  20
   4  -7   0 46.3579 78.2926  19
   4  -7   0 178.059 95.4598   1
   4  -7   0 287.888 96.2250   9
   4  -7   0 155.378 95.2473  23
   4  -7   0 321.906 159.533  22
  -4  -7   0 477.770 104.770   4
   4  -7   0 104.639 100.161  21
   4  -6  -5 1153.67 240.865  20
   4  -6  -5 1038.23 231.994  19
   4  -6  -5 863.989 139.184   1
  -4  -6   5 872.974 239.816   3
   4  -6  -5 1287.87 223.158   9
   4  -6  -5 709.886 215.525  22
   4  -6  -5 897.647 225.428  21
   4  -6  -4 676.178 179.084  20
   4  -6  -4 976.901 215.051  19
  -4  -6   4 798.400 209.161   3
   4  -6  -4 608.452 118.620   1
   4  -6  -4 986.650 186.373   9
   4  -6  -4 790.216 199.770  22
   4  -6  -4 663.646 177.136  21
   4  -6  -3 1075.53 228.360  20
   4  -6  -3 1190.95 236.949  19
  -4  -6   3 1206.82 192.475   6
  -4  -6   3 1018.91 214.550   3
   4  -6  -3 1445.22 212.085   9
   4  -6  -3 1267.79 184.842   1
   4  -6  -3 1234.42 246.758  22
   4  -6  -3 1090.21 217.052  21
   4  -6  -2 4048.20 427.772  20
   4  -6  -2 4146.38 429.155  19
  -4  -6   2 3403.31 346.909   6
   4  -6  -2 4039.83 346.917   1
   4  -6  -2 4456.61 368.205   9
   4  -6  -2 4199.34 429.457  23
   4  -6  -2 4137.40 447.107  22
   4  -6  -2 4698.39 463.016  21
   4  -6  -1 11365.3 741.955  20
   4  -6  -1 11095.6 729.986  19
  -4  -6   1 9775.57 630.221   6
   4  -6  -1 11306.7 749.006  21
   4  -6  -1 11486.1 617.830   9
   4  -6  -1 10537.8 598.567   1
  -4  -6   1 10564.8 475.083   4
   4  -6  -1 9341.79 700.436  22
   4  -6  -1 10582.7 705.316  23
   4  -6   0 9219.06 671.198  23
   4  -6   0 9886.58 700.581  20
   4  -6   0 9041.67 671.445  19
   4  -6   0 9512.65 577.956   9
   4  -6   0 9883.58 588.353   1
  -4  -6   0 9211.66 449.421   4
   4  -6   0 10057.9 726.447  22
   4  -6   0 9980.14 714.220  21
   4  -6   0 10166.6 570.676   3
   4  -6   1 2725.79 309.404   3
   4  -6   1 2356.61 349.566  20
   4  -6   1 2432.29 350.751  19
   4  -6   1 2588.59 345.938  17
   4  -6   1 2707.16 312.194   9
   4  -6   1 2361.49 339.407  23
  -4  -6  -1 2865.94 233.534   4
   4  -6   1 2389.45 359.076  21
   4  -5  -6 1332.78 252.134  20
  -4  -5   6 1684.22 320.215   3
   4  -5  -6 1246.52 218.780   9
   4  -5  -6 1451.34 273.662  21
   4  -5  -5 18712.7 975.831  20
   4  -5  -5 18552.9 1006.43  22
   4  -5  -5 18002.0 963.351  19
  -4  -5   5 18009.5 1048.05   3
   4  -5  -5 18618.0 876.345   9
   4  -5  -5 18025.8 688.458   1
   4  -5  -5 19047.7 986.519  21
   4  -5  -4 17519.4 913.446  20
   4  -5  -4 16368.0 662.106   1
  -4  -5   4 18890.1 774.785   6
   4  -5  -4 17407.3 910.161  19
  -4  -5   4 17239.4 963.284   3
   4  -5  -4 16727.7 791.683   9
   4  -5  -4 15279.1 869.937  21
   4  -5  -4 16969.1 934.308  22
   4  -5  -3 12593.7 748.528  20
  -4  -5   3 13720.9 678.239   6
   4  -5  -3 11834.8 724.948  19
   4  -5  -3 12623.9 577.010   1
   4  -5  -3 13487.1 665.863   9
   4  -5  -3 13550.9 791.710  22
   4  -5  -3 12947.8 764.312  21
   4  -5  -2 1601.60 256.524  23
   4  -5  -2 1808.85 272.794  20
   4  -5  -2 1972.02 280.238  19
  -4  -5   2 1924.79 248.236   6
   4  -5  -2 2027.03 215.428   1
   4  -5  -2 1762.32 219.098   9
   4  -5  -2 1754.62 272.413  22
   4  -5  -2 2103.08 295.943  21
   4  -5  -1 8289.35 601.362  20
   4  -5  -1 9482.97 634.783  19
  -4  -5   1 7057.42 509.237   6
   4  -5  -1 8968.53 495.356   1
   4  -5  -1 8201.87 501.309   9
  -4  -5   1 8667.57 381.817   4
   4  -5  -1 8645.16 602.966  23
   4  -5  -1 8688.69 626.972  22
   4  -5  -1 9435.69 492.034   3
   4  -5  -1 8472.83 616.209  21
   4  -5   0 4903.39 467.108  20
   4  -5   0 4786.41 455.353  19
   4  -5   0 4893.77 386.384   9
   4  -5   0 4404.30 346.700   1
  -4  -5   0 4673.26 271.908   4
   4  -5   0 4738.46 451.322  23
   4  -5   0 5178.87 484.512  21
   4  -5   0 5305.55 386.055   3
   4  -5   1 10315.5 607.541   3
   4  -5   1 10366.8 726.195  20
   4  -5   1 10972.5 736.951  19
   4  -5   1 10097.8 700.945  23
   4  -5   1 10535.8 700.380  17
   4  -5   1 9989.34 610.618   9
  -4  -5  -1 10127.9 444.140   4
   4  -5   1 10077.7 728.763  21
   4  -5   2 2683.78 324.486   3
   4  -5   2 2710.66 390.508  20
   4  -5   2 2764.74 388.162  19
   4  -5   2 2877.87 377.853  17
   4  -5   2 2406.73 353.411  23
   4  -5   2 2875.81 337.293   9
  -4  -5  -2 3163.11 231.480   4
   4  -5   2 3125.32 419.178  21
  -4  -4   6 6047.15 478.510  12
   4  -4  -6 6618.35 548.075  20
  -4  -4   6 6275.74 598.035   3
   4  -4  -6 6357.83 482.990   9
   4  -4  -6 6698.75 345.738   1
   4  -4  -6 6830.99 589.426  22
   4  -4  -6 6884.94 565.383  21
  -4  -4   5 1486.21 185.639   6
  -4  -4   5 1693.33 228.663  12
   4  -4  -5 1205.17 229.200  20
   4  -4  -5 1561.02 253.579  19
  -4  -4   5 1299.45 260.930   3
   4  -4  -5 1659.97 227.725   9
   4  -4  -5 1266.66 144.716   1
   4  -4  -5 1238.24 248.242  22
   4  -4  -5 1012.47 211.338  21
  -4  -4   4 5839.49 409.743  12
   4  -4  -4 6017.56 484.758  20
  -4  -4   4 6245.91 400.937   6
   4  -4  -4 6679.19 508.682  19
   4  -4  -4 6337.92 500.449  21
   4  -4  -4 6055.99 421.039   9
   4  -4  -4 5723.22 490.873  22
   4  -4  -4 5733.37 319.408   1
   4  -4  -3 2395.96 298.268  20
  -4  -4   3 3163.42 278.006  12
  -4  -4   3 2691.32 267.367   6
   4  -4  -3 2523.28 208.855   1
   4  -4  -3 2674.06 310.512  19
   4  -4  -3 2765.38 267.154   9
   4  -4  -3 2796.24 315.629  23
   4  -4  -3 2515.00 315.127  22
   4  -4  -3 2408.57 300.921  21
   4  -4  -2 16134.2 815.194  20
  -4  -4   2 15377.3 676.863  12
   4  -4  -2 17455.9 833.400  19
  -4  -4   2 16019.3 752.075   6
   4  -4  -2 16273.2 634.432   1
   4  -4  -2 17552.1 732.008   9
  -4  -4   2 16262.4 506.743   4
   4  -4  -2 17002.2 820.790  23
   4  -4  -2 16819.7 848.459  22
   4  -4  -2 17210.7 848.087  21
   4  -4  -1 18197.6 883.890  20
   4  -4  -1 18295.7 880.472  19
  -4  -4   1 15683.2 776.575   6
   4  -4  -1 17720.0 688.239   1
   4  -4  -1 19085.5 776.337   9
  -4  -4   1 18295.5 575.567   4
   4  -4  -1 17308.4 853.185  23
   4  -4  -1 17630.0 891.242  22
   4  -4  -1 17133.6 874.807  21
   4  -4   0 21560.1 1033.21  20
   4  -4   0 22682.1 1043.10  19
   4  -4   0 22816.3 1011.91  17
   4  -4   0 24198.8 937.282   9
   4  -4   0 23462.2 843.531   1
  -4  -4   0 22952.5 709.610   4
   4  -4   0 21777.5 1011.77  23
   4  -4   0 23410.5 1076.37  21
   4  -4   0 25417.6 922.960   3
   4  -4   1 5408.59 406.812   3
   4  -4   1 5414.20 491.207  20
   4  -4   1 5039.80 472.793  19
   4  -4   1 4626.62 436.344  17
   4  -4   1 4953.00 402.585   9
   4  -4   1 5417.19 481.511  23
  -4  -4  -1 4944.52 267.023   4
   4  -4   1 5443.45 503.662  21
   4  -4   2 3874.63 374.319   3
   4  -4   2 3819.13 443.478  20
   4  -4   2 4173.46 457.632  19
   4  -4   2 3729.34 418.497  17
   4  -4   2 2904.60 381.073  23
   4  -4   2 3319.65 356.870   9
  -4  -4  -2 3747.97 238.409   4
   4  -4   2 3881.93 457.185  21
   4  -4   3 5583.48 488.568   3
   4  -4   3 5185.91 561.749  20
   4  -4   3 5671.68 581.658  19
   4  -4   3 6121.64 576.239  17
   4  -4   3 5565.05 499.156   9
  -4  -4  -3 6656.73 342.842   4
   4  -4   3 5499.08 557.174  23
   4  -4   3 6325.77 625.033  21
  -4  -3   7 941.899 215.877  12
   4  -3  -7 701.918 205.913  20
   4  -3  -7 1016.55 184.448  18
   4  -3  -7 1006.26 133.800   1
  -4  -3   7 538.115 191.022   3
   4  -3  -7 601.126 147.864   9
   4  -3  -7 1065.40 229.232  21
   4  -3  -6 2676.05 328.456  20
  -4  -3   6 2444.38 240.043   6
  -4  -3   6 2165.36 284.256  12
   4  -3  -6 2220.65 269.701   9
  -4  -3   6 2456.60 357.644   3
   4  -3  -6 2893.24 206.444   1
   4  -3  -6 2546.03 176.030   7
   4  -3  -6 2032.87 298.802  21
  -4  -3   5 23720.2 999.351  12
   4  -3  -5 23057.9 1052.01  20
  -4  -3   5 25174.3 894.593   6
   4  -3  -5 25659.9 1098.43  19
  -4  -3   5 22939.1 1119.39   3
   4  -3  -5 24168.4 957.702   9
   4  -3  -5 25177.5 764.656   1
   4  -3  -5 24971.1 1118.18  22
   4  -3  -5 23836.1 1072.99  21
   4  -3  -4 23009.8 996.322  20
  -4  -3   4 23444.0 927.442  12
  -4  -3   4 25102.1 878.451   6
   4  -3  -4 23179.5 1001.50  19
   4  -3  -4 22732.3 764.874  18
   4  -3  -4 22400.5 882.450   9
   4  -3  -4 22164.1 707.482   1
   4  -3  -4 23321.0 1035.15  22
   4  -3  -4 22859.1 1011.92  21
   4  -3  -3 4161.31 235.830   1
   4  -3  -3 4114.28 370.783  20
  -4  -3   3 4317.51 335.609  12
  -4  -3   3 4806.08 344.194   6
   4  -3  -3 4265.59 372.787  19
   4  -3  -3 4459.67 399.115  22
   4  -3  -3 4535.31 329.031   9
   4  -3  -3 4158.15 369.058  23
   4  -3  -3 4422.89 387.021  21
   4  -3  -2 3196.37 319.507  20
  -4  -3   2 3070.70 272.954  12
   4  -3  -2 2836.50 295.733  19
  -4  -3   2 3230.74 289.487   6
   4  -3  -2 3103.11 204.110   1
   4  -3  -2 3410.03 320.884  23
   4  -3  -2 2883.77 255.740   9
  -4  -3   2 3192.57 150.056   4
   4  -3  -2 3024.74 321.596  22
   4  -3  -2 2785.01 303.893  21
   4  -3  -1 1201.89 199.626  20
   4  -3  -1 1412.69 210.910  19
  -4  -3   1 1153.04 177.997   6
   4  -3  -1 1241.92 130.790   1
   4  -3  -1 989.663 151.543   9
  -4  -3   1 1312.20 101.659   4
   4  -3  -1 915.800 171.008  23
   4  -3  -1 1146.19 201.721  22
   4  -3  -1 1534.05 175.830   3
   4  -3  -1 1207.50 202.316  21
   4  -3   0 10073.5 617.484  20
   4  -3   0 8738.19 574.206  19
   4  -3   0 8932.13 560.390  17
   4  -3   0 10842.4 543.924   9
  -4  -3   0 9916.79 358.551   4
   4  -3   0 8340.71 554.285  23
   4  -3   0 8401.95 578.403  21
   4  -3   0 10420.5 515.827   3
   4  -3   1 16167.5 868.368  20
   4  -3   1 16365.6 861.135  19
   4  -3   1 16850.5 842.413  17
   4  -3   1 17399.3 782.921   9
  -4  -3  -1 17383.1 557.413   4
   4  -3   1 17182.6 867.450  23
   4  -3   1 14815.6 849.233  21
   4  -3   1 17634.2 768.354   3
   4  -3   2 5246.64 418.297   3
   4  -3   2 5076.63 492.491  20
   4  -3   2 4625.50 463.501  19
   4  -3   2 4704.32 453.300  17
   4  -3   2 4822.83 410.699   9
  -4  -3  -2 5391.51 276.225   4
   4  -3   2 5147.36 479.199  23
   4  -3   2 5623.02 522.102  21
   4  -3   3 2730.48 406.437  21
   4  -3   3 3226.14 349.443   3
   4  -3   3 3249.95 425.580  20
   4  -3   3 2517.55 371.383  19
   4  -3   3 3756.99 426.170  17
   4  -3   3 2981.67 353.434   9
  -4  -3  -3 3374.16 230.378   4
   4  -3   3 3077.74 402.999  23
   4  -2  -7 25589.5 1169.61  20
   4  -2  -7 23776.2 1015.88  18
  -4  -2   7 22064.6 1159.03   3
   4  -2  -7 26018.0 838.802   1
   4  -2  -7 21337.7 980.546   9
   4  -2  -7 26017.7 1169.63  21
  -4  -2   7 24319.0 948.703   6
  -4  -2   7 24449.0 1133.97  12
  -4  -2   6 37020.7 1366.09  12
   4  -2  -6 35491.6 1362.52  20
  -4  -2   6 35154.7 1155.76   6
  -4  -2   6 32793.4 1274.84  10
   4  -2  -6 35288.9 1205.44  18
  -4  -2   6 32548.7 1126.64  17
  -4  -2   6 33961.0 1424.89   3
  -4  -2   6 32708.3 1110.68  16
   4  -2  -6 35016.1 1229.75   9
  -4  -2   6 31519.5 1098.28  15
   4  -2  -6 38231.6 1024.80   1
  -4  -2   6 33191.4 1099.36  14
   4  -2  -6 35749.7 989.218   7
  -4  -2   6 32652.7 1151.85  23
   4  -2  -6 36351.3 1373.60  21
  -4  -2   5 2096.15 258.724  12
   4  -2  -5 1923.73 261.809  20
  -4  -2   5 1997.45 205.365   6
   4  -2  -5 1731.18 244.285  19
  -4  -2   5 1868.92 226.680  10
   4  -2  -5 1782.19 195.286  18
  -4  -2   5 1756.77 176.496  17
  -4  -2   5 2070.84 187.494  16
   4  -2  -5 1726.36 209.779   9
  -4  -2   5 1509.75 161.322  15
   4  -2  -5 1919.22 147.150   1
  -4  -2   5 1932.64 178.214  14
   4  -2  -5 1825.44 138.870   7
   4  -2  -5 2335.07 294.732  22
  -4  -2   5 1741.95 183.896  23
   4  -2  -5 2022.22 269.582  21
   4  -2  -4 30737.3 1173.67  20
  -4  -2   4 31659.4 1140.16  12
  -4  -2   4 32040.3 1032.97   6
   4  -2  -4 32431.4 1193.52  19
   4  -2  -4 31575.1 985.326  18
  -4  -2   4 30597.4 1045.91  10
  -4  -2   4 29654.2 927.913  17
  -4  -2   4 30242.1 919.028  16
   4  -2  -4 31844.0 1063.22   9
  -4  -2   4 29781.4 911.000  15
  -4  -2   4 30769.3 910.672  14
   4  -2  -4 33725.9 877.819   1
   4  -2  -4 32130.2 1223.24  22
   4  -2  -4 32345.6 1204.61  21
   4  -2  -3 2707.23 282.036  20
  -4  -2   3 2613.52 259.897  12
  -4  -2   3 2953.06 250.215   6
   4  -2  -3 2752.79 282.661  19
   4  -2  -3 2990.68 207.141  18
  -4  -2   3 2543.18 221.605  10
  -4  -2   3 2767.59 184.321  17
  -4  -2   3 2970.94 184.236  16
   4  -2  -3 2496.27 232.637   9
  -4  -2   3 2325.96 164.272  15
  -4  -2   3 2723.51 173.041  14
   4  -2  -3 2805.92 286.711  23
  -4  -2   3 2579.25 168.388  13
   4  -2  -3 2740.09 161.412   1
   4  -2  -3 2738.93 291.680  22
   4  -2  -3 2497.25 277.098  21
   4  -2  -2 14441.4 470.030   1
   4  -2  -2 14387.7 702.020  20
  -4  -2   2 15059.4 675.509  12
  -4  -2   2 15521.1 664.315   6
   4  -2  -2 14991.5 711.766  19
  -4  -2   2 16375.7 606.536  10
  -4  -2   2 14819.1 504.269  16
   4  -2  -2 16002.6 636.177   9
  -4  -2   2 14439.3 497.461  15
  -4  -2   2 16665.2 432.182   4
  -4  -2   2 14961.5 497.587  14
   4  -2  -2 15536.5 714.478  23
  -4  -2   2 14737.0 493.355  13
   4  -2  -2 15581.8 741.339  22
   4  -2  -2 15595.6 733.987  21
   4  -2  -1 45427.5 1496.39  20
   4  -2  -1 46131.0 1494.89  19
  -4  -2   1 43278.8 1416.72   6
   4  -2  -1 42389.8 1158.16   1
   4  -2  -1 45184.4 1458.25  17
  -4  -2   1 48288.1 1325.12  10
  -4  -2   1 44553.3 1220.33  16
   4  -2  -1 48779.2 1387.22   9
  -4  -2   1 46567.8 1223.91  15
  -4  -2   1 50325.0 1146.86   4
  -4  -2   1 46847.0 1219.40  14
   4  -2  -1 46283.1 1487.50  23
  -4  -2   1 45406.7 1210.05  13
   4  -2  -1 45876.8 1514.46  21
   4  -2   0 79372.7 2386.61  20
   4  -2   0 77929.3 2363.15  19
   4  -2   0 82022.5 2348.16  17
  -4  -2   0 85170.6 2177.87  10
   4  -2   0 86818.5 2267.94   9
  -4  -2   0 80696.4 2102.97  15
  -4  -2   0 88130.3 1997.33   4
  -4  -2   0 81683.9 2092.23  14
   4  -2   0 80370.6 2363.71  23
  -4  -2   0 84688.1 2088.83  13
   4  -2   0 88760.1 2253.73   3
   4  -2   0 79168.8 2400.70  21
   4  -2   1 2966.23 331.204  20
   4  -2   1 3296.23 338.097  19
  -4  -2  -1 2948.55 228.687  13
   4  -2   1 2710.72 300.073  17
  -4  -2  -1 2822.32 248.289  10
   4  -2   1 3367.21 304.156   9
  -4  -2  -1 2782.16 230.158  15
  -4  -2  -1 3419.42 192.336   4
  -4  -2  -1 3256.61 244.748  14
   4  -2   1 3598.94 351.218  23
   4  -2   1 3589.17 296.176   3
   4  -2   1 3155.80 343.892  21
   4  -2   2 21184.0 1018.19  20
   4  -2   2 19160.5 967.835  19
   4  -2   2 19048.5 929.415  17
   4  -2   2 19921.3 889.468   9
  -4  -2  -2 20615.9 649.275   4
  -4  -2  -2 20327.1 783.715  14
   4  -2   2 18845.6 942.757  23
  -4  -2  -2 18842.7 753.311  13
   4  -2   2 19770.9 1000.63  21
   4  -2   2 20727.5 864.363   3
  -4  -2  -3 4280.12 341.232  13
   4  -2   3 4070.47 457.499  20
   4  -2   3 3935.57 443.378  19
   4  -2   3 3961.60 423.673  17
   4  -2   3 4013.04 413.960  16
   4  -2   3 3483.91 371.210   9
  -4  -2  -3 4239.54 261.222   4
  -4  -2  -3 3758.44 334.674  14
   4  -2   3 4462.73 454.121  23
   4  -2   3 4236.02 381.395   3
  -4  -1   7 1899.61 288.311  12
   4  -1  -7 2196.69 305.503  20
   4  -1  -7 1903.59 265.164  18
  -4  -1   7 1969.38 253.022  17
  -4  -1   7 2249.42 320.020  10
   4  -1  -7 2393.99 277.047   9
  -4  -1   7 1862.66 239.962  16
  -4  -1   7 2054.21 300.007   3
  -4  -1   7 2026.93 250.849  15
  -4  -1   7 2383.17 263.707  14
  -4  -1   7 2390.14 289.566  23
  -4  -1   7 2098.57 242.941   6
   4  -1  -7 2423.88 317.118  21
  -4  -1   6 3297.41 280.448   6
  -4  -1   6 3272.74 350.928  12
   4  -1  -6 3300.71 349.824  20
  -4  -1   6 2977.47 335.139  10
   4  -1  -6 3708.00 333.044  18
  -4  -1   6 3450.86 301.318  17
  -4  -1   6 3663.39 386.763   3
  -4  -1   6 3740.80 304.622  16
   4  -1  -6 3825.93 236.577   1
   4  -1  -6 3223.77 297.133   9
  -4  -1   6 3340.33 288.144  15
  -4  -1   6 3380.83 285.118  14
   4  -1  -6 3606.29 236.002   7
  -4  -1   6 2994.47 290.767  23
   4  -1  -6 3374.01 352.099  21
   4  -1  -5 10289.8 602.876  20
  -4  -1   5 11284.0 631.264  12
  -4  -1   5 10304.8 503.698   6
   4  -1  -5 11500.2 636.922  19
  -4  -1   5 10746.1 607.265  10
   4  -1  -5 11754.1 569.143  18
  -4  -1   5 10595.5 510.980  17
  -4  -1   5 10984.6 509.261  16
   4  -1  -5 10921.1 542.023   9
   4  -1  -5 12412.2 428.046   1
  -4  -1   5 10925.0 506.403  15
  -4  -1   5 11198.4 501.773  14
   4  -1  -5 11328.4 423.908   7
  -4  -1   5 10965.0 540.211  23
   4  -1  -5 11475.1 657.316  22
   4  -1  -5 10727.9 623.522  21
   4  -1  -4 32441.2 1172.62  20
  -4  -1   4 34012.2 1189.18  12
  -4  -1   4 33113.9 1049.09   6
   4  -1  -4 33547.8 1185.71  19
   4  -1  -4 34568.6 1067.65  18
  -4  -1   4 31759.0 1119.94  10
  -4  -1   4 32366.0 1008.75  17
  -4  -1   4 32347.8 994.169  16
   4  -1  -4 32585.8 1058.96   9
  -4  -1   4 31611.6 983.485  15
   4  -1  -4 33444.5 874.427   1
  -4  -1   4 31652.2 975.656  14
   4  -1  -4 33603.4 898.673   7
  -4  -1   4 31976.6 974.505  13
   4  -1  -4 32338.1 1205.77  22
   4  -1  -4 32447.2 1180.81  21
   4  -1  -3 23663.8 931.499  20
  -4  -1   3 25242.8 945.016  12
  -4  -1   3 23802.2 839.302   6
   4  -1  -3 25537.1 953.492  19
   4  -1  -3 24942.9 816.478  18
  -4  -1   3 23415.5 875.073  10
  -4  -1   3 24103.3 783.078  17
  -4  -1   3 23101.0 764.445  16
   4  -1  -3 24822.3 842.496   9
  -4  -1   3 24721.0 771.591  15
   4  -1  -3 25682.3 662.587   1
  -4  -1   3 23745.8 758.216  14
   4  -1  -3 24547.3 939.973  23
   4  -1  -3 25468.3 694.803   7
  -4  -1   3 23759.6 754.756  13
   4  -1  -3 24096.6 960.633  22
   4  -1  -3 24687.0 954.953  21
   4  -1  -2 2405.52 249.754  20
  -4  -1   2 2246.76 240.622  12
   4  -1  -2 2581.71 141.501   2
  -4  -1   2 2333.90 217.589   6
   4  -1  -2 2932.17 271.938  19
   4  -1  -2 2198.82 169.862  18
  -4  -1   2 2419.29 221.517  10
   4  -1  -2 2433.73 141.630   7
  -4  -1   2 2373.22 178.842  16
   4  -1  -2 2585.19 211.428   9
  -4  -1   2 2387.00 177.848  15
  -4  -1   2 2419.20 126.950   4
  -4  -1   2 2228.58 171.467  14
   4  -1  -2 2761.14 126.435   1
   4  -1  -2 2537.77 251.394  23
  -4  -1   2 2233.47 170.059  13
   4  -1  -2 2246.09 252.290  22
   4  -1  -2 2437.05 255.906  21
   4  -1  -1 2816.52 274.237  20
   4  -1  -1 2409.34 251.685  19
  -4  -1   1 2223.80 221.479   6
   4  -1  -1 2762.83 154.322   2
   4  -1  -1 2466.62 246.324  17
  -4  -1   1 2694.01 234.715  10
   4  -1  -1 2409.43 210.771   9
   4  -1  -1 2501.65 253.578  23
  -4  -1   1 2498.25 189.755  15
  -4  -1   1 2657.52 141.848   4
  -4  -1   1 2686.59 193.643  14
   4  -1  -1 2642.29 143.778   7
   4  -1  -1 2741.80 114.196   1
  -4  -1   1 2513.79 185.691  13
   4  -1  -1 2813.03 279.569  21
   4  -1   0 4921.28 383.269  20
   4  -1   0 4787.12 375.656  19
  -4  -1   0 4508.08 330.767   6
   4  -1   0 5022.33 367.668  17
  -4  -1   0 5550.28 357.078  10
   4  -1   0 5612.76 347.489   9
  -4  -1   0 4953.84 300.194  15
  -4  -1   0 5832.77 241.358   4
  -4  -1   0 5199.58 299.240  14
   4  -1   0 5090.46 210.418   7
   4  -1   0 4788.81 370.117  23
  -4  -1   0 4946.30 286.363  13
   4  -1   0 5678.02 346.593   3
   4  -1   0 5485.58 409.467  21
   4  -1   1 9442.44 585.702  20
   4  -1   1 9792.73 585.953  19
   4  -1   1 10042.9 569.198  17
  -4  -1  -1 9777.18 532.611  10
   4  -1   1 9906.71 520.852   9
  -4  -1  -1 9209.60 466.267  15
  -4  -1  -1 10460.2 385.105   4
  -4  -1  -1 9991.22 475.031  14
   4  -1   1 9705.55 573.130  23
   4  -1   1 10553.2 338.321   7
  -4  -1  -1 10958.5 484.507  13
   4  -1   1 10479.8 519.267   3
   4  -1   1 9282.72 588.672  21
   4  -1   2 16708.5 881.849  20
   4  -1   2 17486.2 882.010  19
   4  -1   2 17835.0 857.675  17
  -4  -1  -2 19412.8 844.946  10
   4  -1   2 17687.7 837.512  16
   4  -1   2 20067.2 847.182   9
  -4  -1  -2 19279.6 623.530   4
  -4  -1  -2 18764.8 758.965  14
   4  -1   2 16596.6 847.147  23
  -4  -1  -2 18727.4 748.111  13
   4  -1   2 18892.4 796.852   3
   4  -1   3 7394.45 596.560  20
   4  -1   3 7779.74 599.245  19
   4  -1   3 7179.98 550.293  17
   4  -1   3 7265.77 546.137  16
  -4  -1  -3 8243.18 386.682   4
  -4  -1  -3 7070.79 469.180  14
   4  -1   3 7619.76 579.194  23
  -4  -1  -3 7845.81 482.140  13
   4  -1   3 8647.08 528.338   3
   4  -1   4 953.816 232.935  20
   4  -1   4 909.401 231.590  19
   4  -1   4 782.673 196.580  17
   4  -1   4 437.709 110.365   2
   4  -1   4 817.820 178.715   3
   4  -1   4 793.645 195.894  16
  -4  -1  -4 548.886 141.188  14
   4  -1   4 744.566 207.288  23
  -4  -1  -4 908.349 136.466   4
  -4  -1  -4 888.106 176.152  13
  -4   0   7 27822.5 1219.19  12
   4   0  -7 29203.9 1190.62  20
  -4   0   7 25532.5 1216.30  10
   4   0  -7 28094.6 1183.00  18
  -4   0   7 26598.9 1090.89  17
  -4   0   7 27187.0 1083.73  16
   4   0  -7 25870.8 1041.50   9
  -4   0   7 28108.9 1096.02  15
  -4   0   7 25826.7 1044.99  14
  -4   0   7 25909.3 1116.10  23
   4   0  -7 26902.0 1139.54  21
  -4   0   7 27701.1 1045.88   6
   4   0  -6 64590.0 1951.91  20
  -4   0   6 60757.1 1992.80  12
   4   0  -6 64615.3 1725.76   7
  -4   0   6 58900.0 2009.62  10
   4   0  -6 64502.8 1955.26  18
  -4   0   6 64823.1 1877.85  17
  -4   0   6 62617.0 1998.45   3
  -4   0   6 61878.6 1834.14  16
   4   0  -6 61249.0 1815.99   9
  -4   0   6 61147.3 1834.74  15
  -4   0   6 60569.6 1806.41  14
  -4   0   6 64735.6 1922.13  23
   4   0  -6 61371.4 1924.45  21
  -4   0   6 61468.5 1798.07   6
   4   0  -5 1880.58 230.963  20
  -4   0   5 1576.21 180.948   6
  -4   0   5 2091.54 255.591  12
   4   0  -5 1965.14 238.894  19
   4   0  -5 2015.58 234.658  18
  -4   0   5 1851.07 192.921  13
  -4   0   5 1601.24 191.501  17
  -4   0   5 1538.66 229.356  10
  -4   0   5 1759.87 195.924  16
   4   0  -5 1756.05 193.582   9
  -4   0   5 2104.12 210.992  15
  -4   0   5 1552.00 180.116  14
   4   0  -5 1725.58 235.000  22
   4   0  -5 1761.53 161.876   7
   4   0  -5 2086.45 244.392  21
   4   0  -4 57067.4 1727.39  20
  -4   0   4 59088.3 1791.06  12
  -4   0   4 61130.7 1637.09   6
   4   0  -4 58971.3 1745.46  19
   4   0  -4 60575.6 1709.22  18
  -4   0   4 56843.9 1769.96  10
  -4   0   4 59063.6 1641.16  17
  -4   0   4 58065.8 1620.37  16
   4   0  -4 60866.4 1465.10   1
   4   0  -4 58538.5 1628.26   9
  -4   0   4 57903.3 1614.52  15
  -4   0   4 58043.9 1608.46  14
  -4   0   4 58523.6 1606.94  13
   4   0  -4 57919.4 1507.87   7
   4   0  -4 58945.0 1776.12  22
   4   0  -4 59003.6 1755.41  21
   4   0  -3 166.625 70.2426  20
  -4   0   3 138.961 70.8920  12
   4   0  -3 216.937 87.3109  19
  -4   0   3 477.424 100.549   6
   4   0  -3 121.496 58.6389  18
   4   0  -3 142.491 32.3858   1
  -4   0   3 88.5214 64.6555  10
  -4   0   3 129.491 54.4341  16
  -4   0   3 229.463 71.9730  15
   4   0  -3 184.599 61.9302   9
  -4   0   3 225.983 61.7576  14
   4   0  -3 147.639 70.1037  22
   4   0  -3 182.159 46.4757   7
  -4   0   3 156.394 59.0187  13
   4   0  -3 131.074 70.3486  21
   4   0  -2 6893.72 417.841  20
  -4   0   2 6442.58 420.965  12
  -4   0   2 7061.33 370.926   6
   4   0  -2 7131.94 421.356  19
   4   0  -2 6114.16 331.934  18
  -4   0   2 6825.72 413.070  10
   4   0  -2 8046.45 237.549   1
  -4   0   2 6855.18 351.989  16
   4   0  -2 6842.95 347.358   9
  -4   0   2 7067.17 288.908   4
  -4   0   2 7176.44 355.847  15
  -4   0   2 6563.88 339.264  14
   4   0  -2 6961.57 412.274  23
   4   0  -2 6845.19 282.124   7
  -4   0   2 6886.80 346.359  13
   4   0  -2 7191.98 436.003  22
   4   0  -2 6649.64 414.763  21
   4   0  -2 7428.47 306.533   2
   4   0  -1 78047.2 2149.21  20
   4   0  -1 80528.9 1909.23   2
  -4   0   1 74536.7 2048.25   6
   4   0  -1 77854.5 2140.21  19
   4   0  -1 80348.4 2121.58  17
  -4   0   1 76788.2 2120.52  10
   4   0  -1 77718.4 2000.01   9
  -4   0   1 78917.2 2018.35  15
  -4   0   1 76136.7 1878.98   4
  -4   0   1 78956.6 2005.45  14
   4   0  -1 77293.0 2124.10  23
   4   0  -1 78117.7 1863.29   7
  -4   0   1 77070.9 1991.52  13
   4   0  -1 75303.6 2149.13  21
   4   0   0 141425. 3649.12  20
   4   0   0 139794. 3631.67  19
  -4   0   0 130994. 3498.30   6
   4   0   0 155569. 3398.26   2
   4   0   0 138886. 3589.04  17
  -4   0   0 147851. 3638.82  10
   4   0   0 146844. 3516.07   9
  -4   0   0 146099. 3510.65  15
  -4   0   0 139767. 3339.57   4
  -4   0   0 147272. 3496.43  14
   4   0   0 138750. 3610.57  23
   4   0   0 145200. 3312.04   7
  -4   0   0 148748. 3486.52  13
   4   0   0 139331. 3657.05  21
   4   0   1 306.534 111.969  21
   4   0   1 156.022 85.3630  20
   4   0   1 496.705 130.744  19
   4   0   1 337.509 99.7534  17
  -4   0  -1 291.854 99.4881  10
   4   0   1 438.793 78.8324   2
   4   0   1 527.454 111.836   3
  -4   0  -1 317.402 91.5011  15
   4   0   1 328.537 87.5290   9
  -4   0  -1 433.842 100.611  14
   4   0   1 508.105 125.554  23
  -4   0  -1 361.131 67.7103   4
   4   0   1 320.113 54.6188   7
  -4   0  -1 298.873 90.2295  13
   4   0   2 33167.3 1313.85  20
   4   0   2 33919.2 1305.19  19
   4   0   2 39236.5 1094.37   2
   4   0   2 33925.6 1264.42  17
  -4   0  -2 38447.8 1325.69  10
   4   0   2 31401.4 1218.40  16
  -4   0  -2 34564.6 1029.44   4
   4   0   2 34603.6 1217.85   9
  -4   0  -2 34049.9 1178.88  14
   4   0   2 33174.1 1274.76  23
  -4   0  -2 36410.2 1181.83  13
   4   0   2 39547.8 1231.06   3
   4   0   3 46.4073 96.1168  20
   4   0   3-27.7241 89.1057  19
   4   0   3 90.8336 98.1606  17
   4   0   3 77.3321 52.1643   2
   4   0   3-26.5609 71.2003   3
   4   0   3 9.35960 63.9779  16
  -4   0  -3 52.7637 51.3995  14
   4   0   3 20.9601 71.7875  23
  -4   0  -3-117.058 56.3512   4
  -4   0  -3 78.3128 78.1272  13
   4   0   4 5636.12 545.354  20
   4   0   4 6674.34 422.309   2
   4   0   4 5636.27 536.950  19
   4   0   4 6288.41 535.216  17
   4   0   4 5293.26 487.695  16
   4   0   4 5365.50 509.472  23
  -4   0  -4 5943.92 387.696   4
  -4   0  -4 5797.11 461.124  14
  -4   0  -4 5573.22 442.400  13
   4   0   4 6373.03 464.778   3
   4   1  -7 2412.80 292.708  20
  -4   1   7 2127.02 305.492  12
   4   1  -7 2375.88 326.037  18
  -4   1   7 2303.02 288.419  17
  -4   1   7 2273.61 331.797  10
   4   1  -7 2245.69 254.152   9
  -4   1   7 2093.33 265.799  16
  -4   1   7 2174.20 270.486  15
  -4   1   7 2212.01 268.571  14
  -4   1   7 1888.42 272.932  23
   4   1  -7 2188.05 269.898  21
  -4   1   7 1997.99 248.346   6
   4   1  -6 3399.54 316.277  20
  -4   1   6 3453.01 360.953  12
  -4   1   6 2990.63 355.855  10
   4   1  -6 4340.26 396.381  18
  -4   1   6 3286.10 313.443  17
  -4   1   6 3507.79 316.532  16
   4   1  -6 3388.91 289.080   9
  -4   1   6 3289.02 306.885  15
  -4   1   6 3305.15 298.196  14
  -4   1   6 3686.49 343.709  23
   4   1  -6 3645.21 292.065   7
   4   1  -6 3675.07 334.811  21
  -4   1   6 3292.95 290.002   6
  -4   1   5 11340.5 529.100   6
   4   1  -5 11428.3 570.897  20
  -4   1   5 10894.6 617.115  12
   4   1  -5 10841.6 609.343  18
  -4   1   5 10635.0 643.841  10
  -4   1   5 10972.6 559.105  17
  -4   1   5 11316.9 552.889  16
   4   1  -5 10485.9 500.870   9
  -4   1   5 10363.7 532.615  15
  -4   1   5 10697.9 532.610  14
  -4   1   5 10806.9 528.246  13
   4   1  -5 11315.2 505.903   7
   4   1  -5 10620.5 554.719  21
   4   1  -4 32921.2 1093.69  20
  -4   1   4 33821.5 1046.16   6
  -4   1   4 33991.1 1189.34  12
   4   1  -4 34164.5 1108.24  19
   4   1  -4 36598.1 1078.37   5
   4   1  -4 32841.5 1146.23  18
  -4   1   4 30853.6 1192.45  10
  -4   1   4 32779.6 1090.13  17
  -4   1   4 33026.8 1077.82  16
   4   1  -4 33506.5 1022.21   9
  -4   1   4 32611.0 1067.48  15
  -4   1   4 33444.1 1065.24  14
  -4   1   4 33828.5 1061.57  13
   4   1  -4 32670.8 999.314   7
   4   1  -4 33264.4 1129.63  22
   4   1  -4 31769.7 1087.96  21
   4   1  -3 24974.2 869.234  20
  -4   1   3 23708.8 927.366  12
  -4   1   3 24835.0 809.316   6
   4   1  -3 24925.4 868.407  19
   4   1  -3 23815.3 867.642  18
  -4   1   3 23596.8 947.133  10
  -4   1   3 23980.1 838.056  16
   4   1  -3 24972.7 777.995   9
  -4   1   3 25247.8 843.003  15
  -4   1   3 25166.1 836.356  14
   4   1  -3 24572.0 770.770   2
  -4   1   3 22497.7 806.233  13
   4   1  -3 24650.4 766.008   7
   4   1  -3 24049.6 873.617  22
   4   1  -3 24353.2 861.179  21
   4   1  -2 2489.04 225.199  20
  -4   1   2 2092.05 232.706  12
  -4   1   2 2685.08 206.260   6
   4   1  -2 2221.19 210.492  19
  -4   1   2 2384.99 245.252  10
  -4   1   2 2308.17 207.457  16
  -4   1   2 2674.88 189.078   4
   4   1  -2 2377.38 176.473   9
  -4   1   2 2182.19 200.805  15
  -4   1   2 2305.24 200.893  14
   4   1  -2 2379.07 215.126  23
  -4   1   2 2220.13 194.665  13
   4   1  -2 2382.86 173.508   7
   4   1  -2 2128.90 176.620   2
   4   1  -2 2371.24 226.778  22
   4   1  -2 2692.18 232.435  21
   4   1  -1 2607.29 196.816   2
   4   1  -1 2538.73 236.736  20
  -4   1   1 2759.38 212.144   6
   4   1  -1 2475.26 228.531  19
   4   1  -1 2601.27 228.819  17
  -4   1   1 2258.81 240.176  10
  -4   1   1 2478.55 184.932   4
   4   1  -1 2677.85 194.705   9
  -4   1   1 2843.74 227.937  15
  -4   1   1 2522.28 212.034  14
   4   1  -1 2571.15 228.952  23
  -4   1   1 2782.85 219.037  13
   4   1  -1 2607.82 176.809   7
   4   1  -1 2630.64 239.110  21
   4   1   0 5244.51 297.196   2
   4   1   0 4902.77 352.648  20
  -4   1   0 5075.08 305.693   6
   4   1   0 5279.50 359.762  19
   4   1   0 4517.24 322.581  17
  -4   1   0 4976.45 372.949  10
  -4   1   0 4812.69 275.092   4
   4   1   0 5649.99 315.746   9
  -4   1   0 4808.67 320.169  15
  -4   1   0 4889.78 318.103  14
  -4   1   0 5389.88 325.418  13
   4   1   0 5213.33 265.129   7
   4   1   0 5331.58 353.794  23
   4   1   0 4876.90 358.206  21
   4   1   1 9151.29 537.477  20
   4   1   1 10549.7 466.651   2
   4   1   1 9798.90 547.722  19
  -4   1  -1 8877.73 444.995   6
   4   1   1 9635.11 522.496  17
  -4   1  -1 9940.99 569.204  10
  -4   1  -1 9276.83 422.735   4
  -4   1  -1 9393.46 498.666  15
   4   1   1 10266.9 496.265   9
  -4   1  -1 9498.35 491.788  14
   4   1   1 8722.44 510.800  23
  -4   1  -1 9771.36 488.211  13
   4   1   1 11239.5 426.421   7
   4   1   1 9446.77 549.804  21
   4   1   2 16754.8 827.677  20
   4   1   2 18836.1 705.806   2
   4   1   2 18366.2 846.550  19
   4   1   2 17809.9 804.178  17
  -4   1  -2 18685.6 863.519  10
   4   1   2 16917.3 774.719  16
  -4   1  -2 16387.7 650.732   4
   4   1   2 17652.1 756.803   9
  -4   1  -2 17643.5 757.329  14
   4   1   2 17455.6 812.106  23
  -4   1  -2 17167.2 736.850  13
   4   1   3 7006.67 555.311  20
   4   1   3 8424.73 466.574   2
   4   1   3 7592.54 565.176  19
   4   1   3 6926.21 514.857  17
   4   1   3 7465.96 524.662  16
  -4   1  -3 7573.43 434.371   4
  -4   1  -3 7827.14 505.547  14
   4   1   3 7568.99 548.829  23
  -4   1  -3 7939.58 499.564  13
   4   1   4 886.276 216.651  20
   4   1   4 767.194 200.955  19
   4   1   4 416.681 137.647  17
   4   1   4 603.707 135.938   2
   4   1   4 805.601 194.770  16
  -4   1  -4 771.301 164.834  14
   4   1   4 672.247 184.882  23
  -4   1  -4 660.224 142.534   4
  -4   1  -4 946.349 181.480  13
   4   2  -7 25049.2 1176.67  18
  -4   2   7 23954.6 1056.49  17
  -4   2   7 23135.5 1027.47  16
  -4   2   7 23123.7 1024.23  15
  -4   2   7 24727.0 1026.79  14
  -4   2   7 25484.9 1122.45  23
  -4   2   7 24417.5 1000.57   6
  -4   2   7 23550.4 1100.57  12
   4   2  -6 37340.6 1252.39  20
  -4   2   6 35681.8 1351.46  12
   4   2  -6 37316.0 1429.89  18
  -4   2   6 33027.4 1407.28  10
  -4   2   6 35577.9 1295.16  17
  -4   2   6 35412.7 1269.05  16
   4   2  -6 36377.2 1179.40   9
  -4   2   6 36169.4 1279.14  15
  -4   2   6 37102.5 1271.43  14
  -4   2   6 38189.6 1370.45  23
   4   2  -6 35919.4 1227.88   7
   4   2  -6 36528.4 1237.12  21
  -4   2   6 35624.9 1229.39   6
   4   2  -5 1676.74 193.524  20
  -4   2   5 1766.11 235.720  12
   4   2  -5 1953.24 260.156  18
   4   2  -5 1506.39 192.526   5
  -4   2   5 1790.64 222.181  17
  -4   2   5 1786.77 261.006  10
  -4   2   5 1943.02 223.464  16
   4   2  -5 1850.10 184.807   9
  -4   2   5 1937.14 223.177  15
  -4   2   5 1578.12 198.305  14
  -4   2   5 2062.53 223.354  13
   4   2  -5 1963.94 214.688   7
   4   2  -5 1760.46 194.604  21
  -4   2   5 1884.52 205.566   6
  -4   2   4 33415.1 1033.68   6
   4   2  -4 30986.6 1001.69  20
  -4   2   4 31942.9 1142.51  12
   4   2  -4 31177.7 1148.40  18
   4   2  -4 31727.0 1081.30   5
  -4   2   4 29450.8 1192.05  10
  -4   2   4 32240.9 1103.21  17
  -4   2   4 33521.5 1098.23  16
   4   2  -4 31567.9 956.337   9
  -4   2   4 32473.4 1079.51  15
  -4   2   4 32677.3 1072.66  14
  -4   2   4 33323.1 1071.69  13
   4   2  -4 32627.6 1051.35  22
   4   2  -4 31806.4 1040.71   7
   4   2  -4 30886.8 1011.53  21
   4   2  -3 2621.96 209.825  20
  -4   2   3 2675.70 209.479   6
  -4   2   3 2956.81 277.944  12
   4   2  -3 3001.22 221.811  19
   4   2  -3 2446.34 245.555  18
   4   2  -3 3322.42 277.451   5
  -4   2   3 2315.62 273.611  10
  -4   2   3 3000.09 253.274  16
   4   2  -3 2763.63 184.791   9
  -4   2   3 3220.96 256.832  15
   4   2  -3 2977.62 232.285   2
  -4   2   3 3248.24 257.266  14
  -4   2   3 3039.71 246.855  13
   4   2  -3 2754.61 224.189   7
   4   2  -3 2556.39 215.854  22
   4   2  -3 2618.61 212.184  21
   4   2  -2 14666.5 570.976  20
  -4   2   2 15466.7 555.897   6
  -4   2   2 14696.7 671.157  12
   4   2  -2 15538.3 577.956  19
  -4   2   2 14800.8 716.779  10
  -4   2   2 15959.1 644.203  16
   4   2  -2 15179.0 508.953   9
  -4   2   2 15463.5 630.711  15
  -4   2   2 16203.9 633.168  14
   4   2  -2 15495.7 575.874  23
   4   2  -2 14698.3 596.926   2
  -4   2   2 15889.0 624.768  13
   4   2  -2 14539.5 579.666   7
   4   2  -2 15103.8 588.235  22
   4   2  -2 14932.8 579.214  21
   4   2  -1 47351.5 1349.67  20
  -4   2   1 46067.1 1256.62   6
   4   2  -1 45211.0 1331.78  19
  -4   2   1 45090.9 1485.83  10
  -4   2   1 46699.1 1343.33   4
   4   2  -1 46709.0 1240.77   9
  -4   2   1 48174.7 1385.45  15
  -4   2   1 47068.9 1368.17  14
   4   2  -1 46127.8 1327.68  23
  -4   2   1 46636.7 1357.89  13
   4   2  -1 44950.2 1300.38   7
   4   2  -1 46318.1 1351.26  22
   4   2  -1 44512.0 1344.63   2
   4   2  -1 46464.1 1347.44  21
   4   2   0 81461.8 2213.93  20
  -4   2   0 82734.4 2060.52   6
   4   2   0 83025.2 2204.55  19
   4   2   0 83459.6 2176.84  17
  -4   2   0 81217.4 2337.97  10
  -4   2   0 78017.7 2143.87   4
  -4   2   0 83441.2 2223.58  15
   4   2   0 82854.6 2096.57   9
  -4   2   0 84877.9 2217.94  14
   4   2   0 83449.0 2190.99  23
  -4   2   0 81462.3 2189.45  13
   4   2   0 83636.2 2121.56   7
   4   2   0 82843.4 2233.93  21
   4   2   0 83506.9 2194.83   2
   4   2   1 3217.92 269.514   2
   4   2   1 2937.87 281.958  20
   4   2   1 3123.08 284.321  19
   4   2   1 3063.39 268.231  17
  -4   2  -1 3233.88 325.414  10
  -4   2  -1 3016.14 249.143   4
  -4   2  -1 3228.39 282.381  15
   4   2   1 3024.82 247.320   9
  -4   2  -1 3148.81 275.238  14
   4   2   1 3009.27 274.628  23
  -4   2  -1 3030.69 264.069  13
   4   2   2 19644.6 796.848   2
   4   2   2 18695.4 867.238  20
   4   2   2 18800.0 855.031  19
   4   2   2 18488.5 819.540  17
  -4   2  -2 20416.4 928.268  10
   4   2   2 17811.4 793.920  16
  -4   2  -2 18126.5 748.496   4
  -4   2  -2 18693.2 815.138  15
  -4   2  -2 20040.8 832.386  14
   4   2   2 19713.8 850.038  23
  -4   2  -2 19913.2 815.328  13
   4   2   3 4692.93 369.116   2
   4   2   3 3333.62 373.725  20
   4   2   3 3904.58 394.065  19
   4   2   3 3363.74 347.097  17
  -4   2  -3 4899.60 447.809  10
   4   2   3 4066.75 369.521  16
  -4   2  -3 3673.73 318.553   4
  -4   2  -3 3601.74 343.873  14
   4   2   3 4046.09 387.124  23
  -4   2  -3 3392.19 325.592  13
  -4   3   7 1166.06 217.738  12
  -4   3   7 1001.25 191.102   6
   4   3  -7 974.468 221.875  18
  -4   3   7 702.349 182.106  17
  -4   3   7 963.966 225.660  10
  -4   3   7 946.712 197.670  16
  -4   3   7 1083.55 206.145  15
  -4   3   7 890.572 190.193  14
  -4   3   7 935.662 209.308  23
  -4   3   6 2252.52 284.079  12
   4   3  -6 2405.74 323.515  18
  -4   3   6 2840.00 312.405  17
  -4   3   6 2334.98 331.868  10
  -4   3   6 2350.42 277.628  16
  -4   3   6 2402.31 278.511  15
  -4   3   6 2350.24 271.179  14
  -4   3   6 2190.60 289.335   8
  -4   3   6 2950.61 331.551  23
  -4   3   6 2474.30 268.498   6
  -4   3   5 22652.8 961.783  12
   4   3  -5 23316.5 1044.87  18
  -4   3   5 22993.3 1080.68  10
   4   3  -5 23179.5 957.196   5
  -4   3   5 24671.0 981.883  17
  -4   3   5 24019.5 955.634  16
  -4   3   5 25265.5 966.164  15
  -4   3   5 24316.7 941.128  14
  -4   3   5 24039.4 932.697  13
   4   3  -5 22165.2 901.158   7
  -4   3   5 25135.5 910.549   6
  -4   3   4 21876.7 898.295  12
  -4   3   4 22943.4 808.951  11
   4   3  -4 21164.7 944.063  18
   4   3  -4 22618.5 920.109   5
  -4   3   4 21936.9 1006.14  10
  -4   3   4 24471.9 931.209  17
  -4   3   4 24116.9 907.249  16
  -4   3   4 24298.7 904.931  15
  -4   3   4 22906.8 879.516  14
  -4   3   4 23467.7 880.027  13
   4   3  -4 22064.2 861.650   7
  -4   3   4 24203.3 831.936   6
  -4   3   3 4533.52 279.433   6
  -4   3   3 3998.48 324.620  12
   4   3  -3 3702.67 331.109  18
   4   3  -3 4500.52 349.852   5
  -4   3   3 4501.86 396.355  10
  -4   3   3 4173.96 322.919  16
  -4   3   3 4814.11 337.232  15
   4   3  -3 4710.88 330.874   2
  -4   3   3 4595.66 325.747  14
  -4   3   3 4197.65 311.049  13
   4   3  -3 4123.50 303.058   7
  -4   3   2 2873.20 201.615   6
  -4   3   2 2912.65 269.530  12
  -4   3   2 2814.61 306.297  10
  -4   3   2 2980.42 261.390  16
  -4   3   2 3007.44 260.502  15
  -4   3   2 3189.05 260.771  14
   4   3  -2 2975.95 263.856   2
  -4   3   2 3272.78 261.995  13
   4   3  -2 2740.24 236.894   7
  -4   3   1 1167.80 112.423   6
   4   3  -1 1224.76 167.162   2
  -4   3   1 1375.68 212.287  10
  -4   3   1 1005.37 153.195  16
  -4   3   1 1361.06 175.302  15
  -4   3   1 1087.30 155.040  14
  -4   3   1 1385.13 169.443  13
   4   3  -1 1041.60 146.857   7
  -4   3   0 9478.93 581.626  10
  -4   3   0 8735.23 487.267   4
  -4   3   0 9854.15 513.738  15
  -4   3   0 9799.23 505.254  14
  -4   3   0 9841.29 499.382  13
   4   3   0 9126.00 505.251   2
  -4   3  -1 16597.8 818.471  10
  -4   3  -1 14471.6 677.860   4
  -4   3  -1 15905.1 720.040  15
  -4   3  -1 16378.0 716.043  14
  -4   3  -1 16595.0 709.016  13
   4   3   1 15690.1 714.095   2
  -4   3  -2 5602.36 470.052  10
  -4   3  -2 4567.26 363.437   4
  -4   3  -2 5353.51 406.081  15
  -4   3  -2 5121.81 392.690  14
  -4   3  -2 5009.27 380.317  13
   4   3   2 5300.02 402.587   2
  -4   3  -3 3103.51 369.499  10
  -4   3  -3 2435.40 278.955   4
  -4   3  -3 2299.62 290.040  15
  -4   3  -3 3072.46 327.215  14
  -4   3  -3 2721.31 296.678  13
   4   3   3 2900.31 310.064   2
  -4   4   6 6051.48 472.488  12
  -4   4   6 5975.44 451.325  11
   4   4  -6 5945.76 531.890  18
  -4   4   6 6096.08 557.120  10
   4   4  -6 6792.85 531.295   5
  -4   4   6 7182.81 518.839  17
  -4   4   6 6345.52 477.053  16
  -4   4   6 6232.39 469.402  15
  -4   4   6 6056.29 456.501  14
  -4   4   6 5725.20 503.323   8
  -4   4   6 6983.59 477.204   6
  -4   4   5 1519.03 214.952  12
  -4   4   5 1357.11 191.385  11
   4   4  -5 1278.22 230.923  18
  -4   4   5 1434.76 215.751  17
  -4   4   5 1183.23 234.591  10
  -4   4   5 1757.33 232.698  16
   4   4  -5 1889.59 264.763   5
  -4   4   5 1678.84 227.049  15
  -4   4   5 1582.17 214.765  14
  -4   4   5 1324.28 233.017   8
  -4   4   5 1417.42 202.068  13
  -4   4   5 1846.68 217.125   6
  -4   4   4 6326.73 420.147  12
  -4   4   4 5504.66 363.673  11
   4   4  -4 5720.39 464.341  18
   4   4  -4 6192.31 463.638   5
  -4   4   4 5964.12 498.713  10
  -4   4   4 6210.07 434.908  17
  -4   4   4 6688.78 440.675  16
  -4   4   4 5832.48 411.750  15
  -4   4   4 6218.46 419.788  14
  -4   4   4 5511.93 462.292   8
  -4   4   4 5662.56 398.664  13
  -4   4   4 5791.53 363.574   6
  -4   4   3 2817.79 264.969  12
   4   4  -3 2826.92 299.302   5
  -4   4   3 2732.35 320.959  10
  -4   4   3 3077.48 284.223  16
  -4   4   3 2914.46 274.625  15
   4   4  -3 2996.80 288.397   2
  -4   4   3 2858.84 267.532  14
  -4   4   3 2541.81 252.146  13
  -4   4   3 2958.89 225.471   6
  -4   4   2 16151.0 701.293  12
  -4   4   2 14723.7 796.237  10
  -4   4   2 16294.0 712.179  16
  -4   4   2 15904.9 702.627  15
  -4   4   2 16933.2 709.507  14
   4   4  -2 16315.3 748.135   2
  -4   4   2 16896.0 703.456  13
  -4   4   2 17117.7 586.225   6
  -4   4   1 19495.0 901.259  10
  -4   4   1 18809.4 776.235  16
  -4   4   1 17952.1 757.703  15
  -4   4   1 18997.6 763.375  14
   4   4  -1 16690.5 780.728   2
  -4   4   1 19127.8 758.615  13
  -4   4   0 24038.1 1037.83  10
  -4   4   0 22982.4 900.826  15
  -4   4   0 23388.3 894.528  14
   4   4   0 20918.8 905.630   2
  -4   4   0 21931.5 865.772  13
  -4   4  -1 5050.77 451.811  10
  -4   4  -1 4340.03 362.443   4
  -4   4  -1 5143.58 373.813  13
  -4   4  -1 4771.62 375.593  15
  -4   4  -1 4886.27 380.795   8
  -4   4  -1 5181.20 383.650  14
   4   4   1 4772.26 388.848   2
  -4   4  -2 3943.95 410.415  10
  -4   4  -2 3168.84 321.766   4
  -4   4  -2 3481.09 338.926  15
  -4   4  -2 3542.30 335.242  14
  -4   4  -2 4196.16 354.056  13
   4   4   2 3127.60 327.357   2
  -4   4  -3 6008.86 537.578  10
  -4   4  -3 5896.21 547.734   5
  -4   4  -3 5018.12 427.989   4
  -4   4  -3 4358.94 406.655  15
  -4   4  -3 5478.96 445.855  14
  -4   4  -3 5630.89 440.757  13
   4   4   3 5092.76 446.970   2
  -4   5   6 1225.49 215.581  11
  -4   5   6 1292.53 211.322   6
   4   5  -6 1053.36 233.849  18
  -4   5   6 1376.64 231.435  17
  -4   5   6 1249.19 255.878  10
   4   5  -6 1182.38 241.238   5
  -4   5   6 1182.37 204.956  16
  -4   5   6 956.718 191.622  15
  -4   5   6 1051.76 193.455  14
  -4   5   6 1130.13 237.381   8
  -4   5   6 1488.79 253.708  23
   4   5  -5 14707.1 878.441  18
  -4   5   5 17596.5 977.785  10
   4   5  -5 17669.3 943.230   5
  -4   5   5 18055.1 856.865  17
  -4   5   5 18901.5 852.423  16
  -4   5   5 18490.1 840.646  15
  -4   5   5 17705.7 815.152  14
  -4   5   5 17758.5 964.679   8
  -4   5   5 17198.9 800.948  13
  -4   5   5 17717.3 783.193   6
   4   5  -4 16441.0 874.604   5
  -4   5   4 15482.5 888.174  10
  -4   5   4 17224.2 808.281  17
  -4   5   4 17554.2 797.715  16
  -4   5   4 18269.5 804.995  15
  -4   5   4 16857.0 771.642  14
  -4   5   4 17013.4 915.810   8
  -4   5   4 17185.0 772.261  13
  -4   5   4 17277.6 712.701   6
   4   5  -3 13564.2 747.194   5
  -4   5   3 12681.9 755.382  10
  -4   5   3 12074.7 625.679  16
  -4   5   3 13977.7 659.125  15
   4   5  -3 12667.3 689.023   2
  -4   5   3 12520.1 623.258  14
  -4   5   3 11661.2 724.541   8
  -4   5   3 12597.4 621.236  13
  -4   5   3 12159.6 531.805   6
   4   5  -2 2169.25 283.942   5
   4   5  -2 1697.71 242.908   2
  -4   5   2 1283.53 230.322  10
  -4   5   2 1844.88 223.284  16
  -4   5   2 2042.84 234.410  15
  -4   5   2 1761.27 213.561  14
  -4   5   2 2426.59 306.082   8
  -4   5   2 2270.27 236.734  13
  -4   5   1 9219.82 615.012  10
  -4   5   1 8515.42 505.339  16
  -4   5   1 9074.70 516.599  15
  -4   5   1 8321.83 573.402   8
  -4   5   1 8918.89 502.945  14
   4   5  -1 7955.03 539.941   2
  -4   5   1 8832.93 498.597  13
  -4   5   0 4134.22 417.647  10
  -4   5   0 4502.98 388.536   5
  -4   5   0 4695.07 371.457  15
  -4   5   0 4455.76 401.559   8
  -4   5   0 5055.26 375.079  14
   4   5   0 5158.94 428.594   2
  -4   5   0 4759.25 362.624  13
  -4   5  -1 10106.5 676.812  10
  -4   5  -1 9484.94 628.554   5
  -4   5  -1 9437.62 571.320  15
  -4   5  -1 9723.84 568.205  14
   4   5   1 9925.85 630.997   2
  -4   5  -1 10293.9 573.789  13
   4   5   2 2150.99 292.766   2
  -4   5  -2 2828.30 362.311  10
  -4   5  -2 3524.92 405.038   5
  -4   5  -2 2397.13 288.759  15
  -4   5  -2 2432.80 287.237  14
  -4   5  -2 2988.24 309.260  13
  -4   6   5 631.256 140.446   6
  -4   6   5 751.953 170.389  17
  -4   6   5 1026.90 240.322  10
   4   6  -5 840.579 202.781   5
  -4   6   5 924.312 185.182  16
  -4   6   5 831.749 171.964  15
  -4   6   5 1177.70 198.484  14
  -4   6   5 843.930 221.821   8
  -4   6   5 998.387 181.766  13
  -4   6   4 743.695 163.548  17
  -4   6   4 1020.29 234.654  10
   4   6  -4 920.558 219.587   5
  -4   6   4 996.474 179.936  16
  -4   6   4 881.821 169.325  15
  -4   6   4 889.810 162.434  14
  -4   6   4 624.807 192.530   8
  -4   6   4 795.651 158.528  13
   4   6  -3 1177.73 219.820   2
  -4   6   3 1055.73 183.768  17
  -4   6   3 852.951 217.410  10
   4   6  -3 1452.67 253.517   5
  -4   6   3 1193.11 191.356  16
  -4   6   3 1455.98 208.070  15
  -4   6   3 1072.00 175.856  14
  -4   6   3 893.300 217.250   8
  -4   6   3 1250.58 188.768  13
   4   6  -2 4257.13 425.366   5
  -4   6   2 4224.59 425.455  10
  -4   6   2 4681.46 374.252  16
  -4   6   2 4632.42 371.433  15
   4   6  -2 3177.26 356.341   2
  -4   6   2 3546.93 322.193  14
  -4   6   2 3590.64 406.202   8
  -4   6   2 3983.08 337.630  13
  -4   6   1 10302.8 688.061  10
  -4   6   1 10553.4 592.759  16
  -4   6   1 11133.4 602.013  15
   4   6  -1 10426.9 670.794   2
  -4   6   1 10845.4 585.083  14
  -4   6   1 9701.30 674.983   8
  -4   6   1 10782.3 580.128  13
  -4   6   0 10161.3 679.698  10
  -4   6   0 9227.00 562.481  16
  -4   6   0 10126.9 581.538  15
  -4   6   0 9648.93 559.648  14
  -4   6   0 8839.99 628.646   8
   4   6   0 9039.69 630.315   2
  -4   6   0 9735.62 557.561  13
   4   6   1 2373.08 320.405   2
  -4   6  -1 2495.99 339.299  10
  -4   6  -1 2166.51 307.829   5
  -4   6  -1 3054.25 318.513  15
  -4   6  -1 2732.92 298.676  14
  -4   6  -1 2595.05 284.418  13
   4   7  -3 24285.3 1167.22   5
  -4   7   3 21263.8 1096.41  10
  -4   7   3 21939.7 973.238  17
  -4   7   3 22743.2 965.154  16
  -4   7   3 21797.8 944.581  15
  -4   7   3 21970.7 935.467  14
  -4   7   3 20423.3 1136.34   8
  -4   7   3 21319.6 920.674  13
   4   7  -2 438.550 145.717   2
  -4   7   2 558.405 173.749  10
   4   7  -2 436.586 158.384   5
  -4   7   2 582.414 138.948  16
  -4   7   2 665.090 153.170  15
  -4   7   2 555.805 131.081  14
  -4   7   2 487.066 165.136   8
  -4   7   2 735.958 149.847  13
  -4   7   1 12956.9 795.227  10
  -4   7   1 13232.5 698.662  16
  -4   7   1 12303.8 671.460  15
   4   7  -1 12455.0 796.614   2
  -4   7   1 12576.4 667.097  14
  -4   7   1 13094.9 842.877   8
  -4   7   1 13097.2 672.526  13
   4   7   0 438.561 153.191   2
  -4   7   0 506.058 156.674  10
  -4   7   0 235.652 109.863  16
  -4   7   0 195.194 76.5323  15
  -4   7   0 281.941 104.620  14
  -4   7   0 380.031 159.391   8
  -4   7   0 405.461 117.731  13
   5  -6  -3 2685.89 376.390  20
  -5  -6   3 2538.49 309.739   6
   5  -6  -3 2328.81 240.935   1
   5  -6  -3 2590.58 369.896  19
   5  -6  -3 2394.93 299.475   9
   5  -6  -3 3047.43 422.193  22
   5  -6  -3 2674.42 380.153  21
   5  -6  -2 979.874 243.530  20
   5  -6  -2 977.902 233.865  19
  -5  -6   2 851.294 191.635   6
   5  -6  -2 1006.83 190.138   9
   5  -6  -2 984.353 163.639   1
   5  -6  -2 791.200 226.098  23
   5  -6  -2 1037.19 251.866  22
   5  -6  -2 1309.64 280.562  21
   5  -6  -1 9242.96 719.613  20
   5  -6  -1 7730.63 660.224  19
  -5  -6   1 7774.69 599.582   6
   5  -6  -1 8326.40 572.820   9
   5  -6  -1 8652.10 688.196  23
   5  -6  -1 8991.72 732.275  22
   5  -6  -1 8194.61 688.408  21
   5  -5  -5 3668.63 434.817  20
  -5  -5   5 3795.99 343.049   6
   5  -5  -5 3400.09 419.222  19
   5  -5  -5 3729.83 380.645   9
  -5  -5   5 3069.82 423.043   3
   5  -5  -5 3949.41 280.728   1
   5  -5  -5 4785.15 516.196  22
   5  -5  -5 4191.40 469.400  21
   5  -5  -4 8400.57 661.793  20
  -5  -5   4 9759.95 590.995   6
   5  -5  -4 9783.91 704.246  19
   5  -5  -4 8998.06 589.709   9
   5  -5  -4 9555.07 720.990  22
   5  -5  -4 10030.4 719.225  21
   5  -5  -4 8640.31 443.414   1
   5  -5  -3 17688.7 973.076  20
   5  -5  -3 16504.5 675.777   1
  -5  -5   3 17756.6 869.489   6
   5  -5  -3 17730.9 972.655  19
   5  -5  -3 17271.4 842.053   9
   5  -5  -3 19354.8 1003.53  23
   5  -5  -3 16948.1 984.326  22
   5  -5  -3 17920.5 988.316  21
   5  -5  -2 1044.77 227.576  20
   5  -5  -2 1052.35 227.650  19
  -5  -5   2 1119.27 214.142   6
   5  -5  -2 1236.36 204.227   9
   5  -5  -2 913.886 139.434   1
   5  -5  -2 883.512 213.245  23
   5  -5  -2 1484.51 278.938  22
   5  -5  -2 1406.99 264.497  21
   5  -5  -1 10448.2 749.465  20
   5  -5  -1 10974.3 758.434  19
  -5  -5   1 10701.5 695.243   6
   5  -5  -1 11416.3 664.666   9
  -5  -5   1 12035.1 447.059   4
   5  -5  -1 10909.9 750.079  23
   5  -5  -1 11754.7 810.563  22
   5  -5  -1 12555.7 822.502  21
   5  -5   0 1473.79 279.990  20
   5  -5   0 1203.13 258.450  19
  -5  -5   0 680.031 183.262   6
   5  -5   0 1407.37 217.658   3
   5  -5   0 1466.42 239.204   9
  -5  -5   0 1337.29 138.991   4
   5  -5   0 1434.01 271.728  23
   5  -5   0 1513.64 298.970  22
   5  -5   0 1148.61 242.197  21
   5  -5   1 2802.27 406.908  20
   5  -5   1 2281.45 365.124  19
   5  -5   1 2554.26 373.692  17
   5  -5   1 2644.54 335.514   9
  -5  -5  -1 2716.52 209.413   4
   5  -5   1 2800.38 393.739  23
   5  -5   1 2892.16 333.820   3
   5  -5   1 2451.70 382.404  21
  -5  -4   6 12005.2 729.501  12
   5  -4  -6 12540.3 818.596  20
  -5  -4   6 13216.5 658.903   6
   5  -4  -6 13522.2 856.162  19
  -5  -4   6 11166.6 845.404   3
   5  -4  -6 12348.5 722.727   9
   5  -4  -6 13228.6 526.148   1
   5  -4  -6 11970.0 487.795   7
   5  -4  -6 13204.6 879.280  22
   5  -4  -6 12359.3 817.439  21
  -5  -4   5 3378.21 348.453  12
  -5  -4   5 4457.96 360.027   6
   5  -4  -5 2764.38 367.304  20
   5  -4  -5 3192.60 393.529  19
  -5  -4   5 3698.93 443.638   3
   5  -4  -5 4019.99 375.694   9
   5  -4  -5 3409.25 234.620   1
   5  -4  -5 3441.57 423.878  22
   5  -4  -5 3603.41 420.440  21
   5  -4  -4 4677.35 458.843  20
  -5  -4   4 4642.34 395.346  12
  -5  -4   4 4801.13 391.008   6
   5  -4  -4 4599.47 454.643  19
   5  -4  -4 4607.65 388.713   9
   5  -4  -4 5129.25 496.363  22
   5  -4  -4 4602.53 272.550   1
   5  -4  -4 3951.86 428.770  21
   5  -4  -3 68.3350 70.6463  20
  -5  -4   3 146.912 79.6015  12
   5  -4  -3 91.8274 90.3236  19
  -5  -4   3 94.8203 73.0364   6
   5  -4  -3 100.413 46.9565   1
   5  -4  -3 138.781 83.3866   9
   5  -4  -3-17.8326 65.1514  23
   5  -4  -3 123.938 94.0560  22
   5  -4  -3 257.851 131.028  21
   5  -4  -2 4049.09 423.101  20
  -5  -4   2 4410.57 366.576  12
   5  -4  -2 5564.62 491.090  19
  -5  -4   2 4438.21 398.492   6
   5  -4  -2 4903.84 390.421   9
   5  -4  -2 3871.13 409.553  23
   5  -4  -2 4431.60 455.339  22
   5  -4  -2 4433.85 445.724  21
   5  -4  -1 22982.7 1092.11  20
   5  -4  -1 18630.8 995.388  19
  -5  -4   1 19239.8 945.475   6
   5  -4  -1 20428.2 910.601   9
  -5  -4   1 22990.5 661.094   4
   5  -4  -1 21451.2 1043.61  23
   5  -4  -1 21267.8 1084.18  22
   5  -4  -1 21445.2 1072.27  21
   5  -4   0 14039.5 861.602  20
   5  -4   0 13266.4 828.646  19
  -5  -4   0 11796.3 726.444   6
   5  -4   0 12740.9 795.272  17
   5  -4   0 14462.3 749.380   9
  -5  -4   0 14036.6 494.704   4
   5  -4   0 12018.8 788.214  23
   5  -4   0 14628.3 726.878   3
   5  -4   0 12810.7 838.044  21
   5  -4   1 607.867 196.703  20
   5  -4   1 864.412 229.372  19
   5  -4   1 717.120 197.133  17
   5  -4   1 967.088 188.010   3
   5  -4   1 603.515 165.693   9
   5  -4   1 557.916 183.555  23
  -5  -4  -1 704.278 101.806   4
   5  -4   1 428.403 172.812  21
  -5  -3   6 2874.01 283.833   6
  -5  -3   6 2473.13 322.247  12
   5  -3  -6 2718.81 360.169  20
   5  -3  -6 3305.56 398.311  19
   5  -3  -6 2529.28 299.676   9
  -5  -3   6 2549.76 378.186   3
   5  -3  -6 3006.97 218.388   1
   5  -3  -6 2861.05 207.548   7
   5  -3  -6 2968.38 394.905  22
   5  -3  -6 2967.83 378.357  21
  -5  -3   5 2862.29 323.813  12
  -5  -3   5 2859.01 280.513   6
   5  -3  -5 2424.61 327.627  20
   5  -3  -5 2671.57 347.305  19
   5  -3  -5 2590.07 186.078   7
   5  -3  -5 3323.27 323.710   9
   5  -3  -5 2536.82 185.230   1
   5  -3  -5 3156.58 385.420  22
   5  -3  -5 2494.38 336.931  21
   5  -3  -4 12826.1 765.812  20
  -5  -3   4 13459.0 708.501  12
  -5  -3   4 13665.5 667.100   6
   5  -3  -4 13443.4 778.659  19
   5  -3  -4 14090.1 688.412   9
   5  -3  -4 12453.9 466.471   1
   5  -3  -4 12710.7 790.025  22
   5  -3  -4 13354.6 785.421  21
   5  -3  -3 32080.0 1303.63  20
  -5  -3   3 30978.6 1188.51  12
  -5  -3   3 33755.8 1202.22   6
   5  -3  -3 32856.2 1305.45  19
   5  -3  -3 33109.2 1167.63   9
   5  -3  -3 33098.4 1306.84  23
   5  -3  -3 32342.6 1338.33  22
   5  -3  -3 30987.6 900.136   1
   5  -3  -3 32373.2 1320.62  21
   5  -3  -2 2742.61 327.871  20
  -5  -3   2 1853.97 244.137  12
   5  -3  -2 2471.12 308.981  19
  -5  -3   2 2688.92 290.799   6
   5  -3  -2 2679.21 274.680   9
   5  -3  -2 2357.01 297.878  23
   5  -3  -2 2646.93 332.197  22
   5  -3  -2 2820.20 339.196  21
   5  -3  -1 15443.4 846.967  20
   5  -3  -1 15298.6 832.979  19
  -5  -3   1 14918.7 773.849   6
   5  -3  -1 16379.8 750.598   9
  -5  -3   1 16604.4 512.554   4
   5  -3  -1 15733.0 835.846  23
   5  -3  -1 14086.3 830.483  22
   5  -3  -1 15714.6 859.949  21
   5  -3   0 11021.0 728.150  20
   5  -3   0 11079.3 722.030  19
  -5  -3   0 9927.01 634.239   6
   5  -3   0 10392.8 681.060  17
   5  -3   0 11955.5 652.352   9
  -5  -3   0 12426.7 437.639   4
   5  -3   0 11500.0 725.683  23
   5  -3   0 12428.4 637.460   3
   5  -3   0 11014.9 739.083  21
   5  -3   1 1837.40 308.693  20
   5  -3   1 2195.25 329.396  19
   5  -3   1 1729.17 282.882  17
   5  -3   1 2382.70 295.085   9
  -5  -3  -1 1890.47 161.221   4
   5  -3   1 1661.29 281.860  23
   5  -3   1 1999.53 257.510   3
   5  -3   1 1723.74 305.247  21
   5  -3   2 8032.43 691.390  20
   5  -3   2 8700.47 710.358  19
   5  -3   2 9342.62 704.691  17
   5  -3   2 9244.43 646.668   9
  -5  -3  -2 9343.03 421.044   4
   5  -3   2 8218.25 680.789  23
   5  -3   2 9277.35 612.063   3
   5  -3   2 7982.31 702.492  21
  -5  -2   6 7841.51 579.266  12
   5  -2  -6 7427.38 583.902  20
  -5  -2   6 7279.08 465.430   6
   5  -2  -6 7880.64 606.423  19
   5  -2  -6 7224.76 499.601  18
  -5  -2   6 6826.42 597.838   3
   5  -2  -6 7490.55 504.497   9
   5  -2  -6 8001.08 367.484   1
   5  -2  -6 7802.19 376.492   7
   5  -2  -6 7912.18 631.223  22
   5  -2  -6 7524.84 590.344  21
  -5  -2   5 377.362 119.550  12
   5  -2  -5 465.952 141.124  20
  -5  -2   5 365.173 97.0859   6
   5  -2  -5 391.497 133.910  19
   5  -2  -5 454.472 115.530  18
   5  -2  -5 326.868 62.9209   1
   5  -2  -5 298.272 98.1978   9
   5  -2  -5 319.497 124.068  22
   5  -2  -5 424.695 80.1477   7
   5  -2  -5 335.628 131.537  21
   5  -2  -4 2632.69 318.900  20
  -5  -2   4 2785.30 310.193  12
  -5  -2   4 2399.59 249.129   6
   5  -2  -4 2611.14 313.999  19
   5  -2  -4 2410.07 258.185   9
   5  -2  -4 2719.33 165.971   1
   5  -2  -4 2594.96 177.620   7
   5  -2  -4 2589.26 324.886  22
   5  -2  -4 2436.69 305.360  21
   5  -2  -3 3809.26 381.334  20
  -5  -2   3 3632.21 344.873  12
  -5  -2   3 3941.09 326.524   6
   5  -2  -3 3645.54 366.665  19
   5  -2  -3 3311.66 293.875   9
   5  -2  -3 3969.45 193.604   1
   5  -2  -3 3598.69 364.900  23
   5  -2  -3 3551.97 374.154  22
   5  -2  -3 3712.29 384.164  21
   5  -2  -2 15649.8 796.618  20
  -5  -2   2 13161.3 706.328  12
  -5  -2   2 14820.8 712.363   6
   5  -2  -2 14478.7 766.069  19
   5  -2  -2 16234.7 698.476   9
   5  -2  -2 15062.7 770.854  23
   5  -2  -2 14656.2 794.746  22
   5  -2  -2 15365.2 800.730  21
   5  -2  -1 16805.9 864.952  20
   5  -2  -1 17279.4 863.111  19
  -5  -2   1 17321.3 806.655   6
   5  -2  -1 17321.0 759.873   9
  -5  -2   1 18725.4 561.029   4
   5  -2  -1 16866.8 844.996  23
   5  -2  -1 18838.4 908.159  21
   5  -2   0 9046.34 625.100  20
   5  -2   0 9426.04 629.126  19
  -5  -2   0 9215.13 570.527   6
   5  -2   0 8766.53 588.440  17
   5  -2   0 9478.39 553.383   9
  -5  -2   0 10215.5 391.566   4
   5  -2   0 8863.34 602.444  23
   5  -2   0 10329.8 365.995   7
   5  -2   0 9102.60 631.379  21
   5  -2   1 2945.06 364.364  20
   5  -2   1 2825.67 358.621  19
   5  -2   1 3208.34 361.586  17
   5  -2   1 3293.37 335.556   9
  -5  -2  -1 2679.98 196.064   4
   5  -2   1 2734.40 345.926  23
   5  -2   1 3104.59 312.567   3
   5  -2   1 2786.15 360.725  21
   5  -2   2 35.6672 70.0040  20
   5  -2   2 120.297 107.706  19
   5  -2   2 221.959 113.900  17
   5  -2   2 310.172 122.556   3
   5  -2   2 243.660 114.247   9
   5  -2   2 333.031 133.919  23
  -5  -2  -2 251.176 70.1667   4
   5  -2   2 151.719 86.8225  21
  -5  -1   7 5877.67 429.392   6
  -5  -1   7 5301.62 500.140  12
   5  -1  -7 5793.69 509.493  20
   5  -1  -7 5800.32 494.056  18
  -5  -1   7 4795.93 474.659  10
  -5  -1   7 5619.85 424.191  17
  -5  -1   7 5942.63 557.460   3
  -5  -1   7 5449.66 409.287  16
   5  -1  -7 5217.72 429.233   9
  -5  -1   7 5276.55 402.353  15
  -5  -1   7 5961.75 416.400  14
  -5  -1   7 5497.74 437.722  23
   5  -1  -7 5368.53 498.692  21
   5  -1  -6 5779.83 486.924  20
  -5  -1   6 6521.09 528.167  12
  -5  -1   6 5676.38 397.978   6
   5  -1  -6 6671.79 527.081  19
   5  -1  -6 5683.38 451.720  18
  -5  -1   6 5081.64 453.881  10
  -5  -1   6 5882.00 402.119  17
  -5  -1   6 5461.76 378.624  16
   5  -1  -6 6309.74 327.320   1
   5  -1  -6 6013.98 432.185   9
  -5  -1   6 5639.57 383.001  15
  -5  -1   6 5944.02 384.465  14
   5  -1  -6 5825.14 339.528   7
  -5  -1   6 5443.87 403.840  23
   5  -1  -6 6305.49 533.944  22
   5  -1  -6 5981.36 498.037  21
   5  -1  -5 913.707 188.427  20
  -5  -1   5 871.242 179.839  12
  -5  -1   5 925.517 152.446   6
   5  -1  -5 938.658 187.835  19
   5  -1  -5 801.866 155.732  18
  -5  -1   5 669.711 126.534  17
  -5  -1   5 1035.36 194.622  10
  -5  -1   5 950.609 140.789  16
   5  -1  -5 777.252 95.3937   1
  -5  -1   5 859.864 135.048  15
   5  -1  -5 851.749 155.243   9
  -5  -1   5 909.699 136.586  14
   5  -1  -5 935.210 203.907  22
   5  -1  -5 845.511 113.163   7
  -5  -1   5 737.591 120.947  13
   5  -1  -5 824.368 179.634  21
   5  -1  -4 3161.33 330.115  20
  -5  -1   4 2570.62 300.586  12
  -5  -1   4 2752.06 257.166   6
   5  -1  -4 2833.09 315.102  19
   5  -1  -4 2691.47 253.677  18
  -5  -1   4 2697.79 282.479  10
  -5  -1   4 2479.76 222.453  17
  -5  -1   4 2709.27 224.770  16
   5  -1  -4 3086.05 274.927   9
   5  -1  -4 3090.88 173.552   1
  -5  -1   4 2631.60 219.616  15
  -5  -1   4 2854.52 224.072  13
  -5  -1   4 2827.29 224.371  14
   5  -1  -4 2761.45 191.492   7
   5  -1  -4 2432.57 304.547  22
   5  -1  -4 3063.20 330.122  21
   5  -1  -3 37658.4 1371.21  20
  -5  -1   3 36120.5 1340.60  12
  -5  -1   3 39060.7 1248.69   6
   5  -1  -3 38084.0 1366.09  19
  -5  -1   3 36704.4 1269.14  10
  -5  -1   3 34191.0 1105.07  16
   5  -1  -3 36973.0 1208.52   9
  -5  -1   3 37382.6 1122.38  15
   5  -1  -3 40995.2 965.651   1
  -5  -1   3 35188.1 1099.36  14
   5  -1  -3 39474.0 1379.42  23
  -5  -1   3 36006.8 1102.84  13
   5  -1  -3 38215.2 1040.63   7
   5  -1  -3 37841.2 1400.82  22
   5  -1  -3 38328.5 1393.41  21
   5  -1  -2 21175.5 929.445  20
  -5  -1   2 20050.2 903.757  12
   5  -1  -2 22081.6 666.443   2
  -5  -1   2 20667.3 831.882   6
   5  -1  -2 21203.2 924.826  19
  -5  -1   2 21961.4 862.295  10
  -5  -1   2 19269.2 721.284  16
   5  -1  -2 21609.7 810.242   9
  -5  -1   2 19815.7 723.071  15
  -5  -1   2 20258.4 627.190   4
  -5  -1   2 20055.6 715.389  14
   5  -1  -2 20360.1 904.106  23
   5  -1  -2 21785.8 646.443   7
  -5  -1   2 19931.5 710.116  13
   5  -1  -2 20047.3 937.586  22
   5  -1  -2 20367.1 928.567  21
   5  -1  -1 17488.6 842.470  20
  -5  -1   1 17019.9 756.979   6
   5  -1  -1 17502.3 835.440  19
   5  -1  -1 17692.0 594.170   2
   5  -1  -1 16750.4 798.054  17
  -5  -1   1 18757.8 789.696  10
   5  -1  -1 17815.0 734.262   9
  -5  -1   1 16810.9 662.789  15
  -5  -1   1 17056.3 564.826   4
  -5  -1   1 16941.4 657.071  14
   5  -1  -1 17544.9 825.258  23
   5  -1  -1 18173.8 562.709   7
  -5  -1   1 17621.7 660.816  13
   5  -1  -1 17306.8 848.538  21
   5  -1   0 33709.0 1358.93  20
   5  -1   0 36152.9 1376.11  19
  -5  -1   0 33918.4 1254.18   6
   5  -1   0 40403.6 1094.83   2
   5  -1   0 35031.5 1330.72  17
  -5  -1   0 39271.6 1318.55  10
   5  -1   0 38702.8 1271.12   9
  -5  -1   0 36378.9 1184.44  15
  -5  -1   0 36587.4 1046.99   4
  -5  -1   0 37489.7 1183.16  14
   5  -1   0 35363.1 1351.30  23
   5  -1   0 39402.4 1015.18   7
  -5  -1   0 37234.7 1167.40  13
   5  -1   0 35877.2 1401.86  21
   5  -1   1 432.344 146.923  20
   5  -1   1 320.087 134.207  19
  -5  -1  -1 490.709 134.009   6
   5  -1   1 353.802 120.201  17
  -5  -1  -1 387.794 128.001  10
   5  -1   1 243.617 74.6257   2
  -5  -1  -1 458.565 112.527  15
   5  -1   1 369.535 117.495   9
  -5  -1  -1 328.993 98.8322  14
   5  -1   1 302.424 117.550  23
  -5  -1  -1 477.734 88.7640   4
  -5  -1  -1 382.337 103.996  13
   5  -1   1 229.718 120.487  21
   5  -1   2 1934.06 314.589  20
   5  -1   2 2219.74 319.663  19
   5  -1   2 2539.13 225.785   2
   5  -1   2 1796.27 281.025  17
  -5  -1  -2 1962.40 243.313  15
  -5  -1  -2 2005.39 192.070   4
   5  -1   2 2109.72 281.199   9
  -5  -1  -2 1897.63 236.338  14
   5  -1   2 1815.82 285.990  23
  -5  -1  -2 1786.60 227.457  13
   5  -1   2 2359.73 282.248   3
   5  -1   2 1694.86 292.549  21
  -5   0   7 919.619 213.523  12
   5   0  -7 460.616 143.641  20
  -5   0   7 638.971 144.170   6
   5   0  -7 779.346 198.710  18
  -5   0   7 507.988 132.217  17
  -5   0   7 865.762 214.182  10
  -5   0   7 381.393 109.196  16
  -5   0   7 576.554 148.199  15
   5   0  -7 659.494 150.492   9
  -5   0   7 513.684 134.716  14
  -5   0   7 520.946 141.656  23
   5   0  -7 363.379 128.009  21
  -5   0   6-30.4517 78.8017  12
   5   0  -6-2.20476 56.4875  20
  -5   0   6-65.9776 60.8582   6
   5   0  -6 36.9840 81.3196  18
  -5   0   6 73.0708 66.3477  17
  -5   0   6-128.316 92.0407  10
  -5   0   6 12.5044 64.5944  16
  -5   0   6 128.929 74.2743  15
   5   0  -6 27.8157 52.3014   9
  -5   0   6 58.5767 61.6676  14
  -5   0   6-30.3457 60.5295  23
   5   0  -6-16.2473 54.7525   7
   5   0  -6-10.7188 64.2435  21
   5   0  -5 2717.69 297.614  20
  -5   0   5 2382.81 305.414  12
  -5   0   5 2611.08 249.470   6
   5   0  -5 3192.27 325.654  19
   5   0  -5 2486.04 280.322  18
  -5   0   5 2489.36 249.798  17
  -5   0   5 2051.33 277.028  10
  -5   0   5 2766.87 258.104  16
   5   0  -5 2260.25 237.599   9
  -5   0   5 2265.52 231.608  15
  -5   0   5 2546.36 240.140  14
  -5   0   5 2624.25 240.827  13
   5   0  -5 2574.30 218.918   7
   5   0  -5 3057.63 329.744  22
   5   0  -5 2082.05 266.279  21
  -5   0   4 1438.18 182.561   6
   5   0  -4 1338.56 206.207  20
  -5   0   4 999.774 190.953  12
   5   0  -4 1293.98 198.073  19
   5   0  -4 916.959 160.089  18
  -5   0   4 1188.41 162.454  17
  -5   0   4 1272.72 208.487  10
  -5   0   4 1265.36 164.537  16
  -5   0   4 1096.33 151.884  15
   5   0  -4 1154.21 162.747   9
  -5   0   4 1349.06 166.148  14
  -5   0   4 1523.91 174.868  13
   5   0  -4 1328.31 143.410   7
   5   0  -4 1439.10 226.509  22
   5   0  -4 1088.60 188.561  21
   5   0  -3 9957.39 573.057  20
  -5   0   3 9332.86 582.142  12
  -5   0   3 9517.86 489.332   6
   5   0  -3 9761.15 564.664  19
   5   0  -3 8663.70 458.099  18
  -5   0   3 8573.46 533.525  10
  -5   0   3 9087.32 460.594  16
   5   0  -3 9221.97 461.980   9
  -5   0   3 9138.85 458.102  15
  -5   0   3 8585.59 441.373  14
   5   0  -3 9999.72 568.890  23
  -5   0   3 9836.44 463.311  13
   5   0  -3 9590.36 401.770   7
   5   0  -3 9651.90 580.864  22
   5   0  -3 9711.10 576.235  21
   5   0  -2 22086.2 913.992  20
  -5   0   2 18377.1 883.681  12
  -5   0   2 20757.5 802.482   6
   5   0  -2 21694.5 901.840  19
  -5   0   2 20390.3 875.364  10
  -5   0   2 21130.0 781.846  16
   5   0  -2 20894.0 765.636   9
  -5   0   2 21622.6 694.066   4
  -5   0   2 20908.7 773.271  15
  -5   0   2 21390.9 768.724  14
   5   0  -2 20970.3 883.097  23
  -5   0   2 20804.5 758.219  13
   5   0  -2 20889.7 671.674   7
   5   0  -2 20001.8 901.851  22
   5   0  -2 20464.8 899.160  21
   5   0  -2 20738.4 701.626   2
   5   0  -1 4746.47 391.420  20
   5   0  -1 4270.71 269.098   2
  -5   0   1 4003.94 314.515   6
   5   0  -1 3697.13 346.617  19
   5   0  -1 4232.97 353.918  17
  -5   0   1 4041.58 355.636  10
   5   0  -1 4075.38 297.462   9
  -5   0   1 4410.21 259.075   4
  -5   0   1 4644.00 319.881  15
  -5   0   1 4423.47 306.220  14
   5   0  -1 4454.13 369.229  23
   5   0  -1 4491.10 246.244   7
  -5   0   1 4536.14 306.313  13
   5   0  -1 3974.66 368.508  21
   5   0   0 6217.33 471.371  20
   5   0   0 6277.72 347.632   2
  -5   0   0 6051.71 407.221   6
   5   0   0 6401.98 470.528  19
   5   0   0 5587.00 427.471  17
  -5   0   0 6322.57 459.058  10
  -5   0   0 6127.67 328.925   4
   5   0   0 6414.78 404.668   9
  -5   0   0 6385.69 403.534  15
  -5   0   0 5933.79 385.364  14
   5   0   0 6031.83 449.972  23
   5   0   0 6159.37 303.478   7
  -5   0   0 6075.66 381.386  13
   5   0   0 5403.83 451.959  21
   5   0   1 9247.21 623.534  20
   5   0   1 10542.0 490.993   2
   5   0   1 8573.07 594.824  19
  -5   0  -1 7730.70 490.978   6
   5   0   1 9311.36 592.902  17
  -5   0  -1 10676.8 639.941  10
  -5   0  -1 9283.12 446.506   4
  -5   0  -1 9372.60 532.058  15
   5   0   1 9405.89 545.934   9
  -5   0  -1 9674.32 530.566  14
   5   0   1 9028.50 597.425  23
  -5   0  -1 10556.0 539.342  13
   5   0   1 10023.7 654.181  21
   5   0   2 19.2436 91.0321  20
   5   0   2 73.4195 112.601  19
   5   0   2 65.9017 78.4905  17
   5   0   2-9.35737 33.3143   2
  -5   0  -2 73.9272 79.9598  10
  -5   0  -2 44.5585 60.6369  15
   5   0   2 59.7979 60.7672   9
  -5   0  -2-53.9780 66.9169  14
   5   0   2-8.05903 83.7525  23
  -5   0  -2 71.1740 57.8870   4
  -5   0  -2 37.6473 75.9030  13
   5   0   2 112.401 101.451  21
   5   0   3 8836.74 693.582  20
   5   0   3 8094.98 656.677  19
   5   0   3 8247.64 635.087  17
  -5   0  -3 8824.02 503.275   4
   5   0   3 8419.93 653.283  23
  -5   0  -3 8158.64 548.390  13
   5   0   3 9506.75 726.496  21
   5   1  -7 6489.60 497.344  20
  -5   1   7 5304.84 505.547  12
   5   1  -7 5841.50 527.786  18
  -5   1   7 5745.80 550.738  10
  -5   1   7 6032.16 477.703  17
  -5   1   7 6062.94 469.088  16
   5   1  -7 5868.00 434.493   9
  -5   1   7 5873.66 458.408  15
  -5   1   7 6455.50 468.764  14
  -5   1   7 6259.85 507.602  23
   5   1  -7 5707.92 432.193   7
   5   1  -7 5529.27 454.506  21
  -5   1   7 6035.56 450.678   6
  -5   1   6 5577.02 401.261   6
   5   1  -6 6042.68 444.396  20
  -5   1   6 5925.08 501.397  12
   5   1  -6 5248.69 465.997  18
  -5   1   6 5542.51 507.485  10
  -5   1   6 6216.88 451.637  17
  -5   1   6 5695.11 420.769  16
   5   1  -6 5338.07 386.527   9
  -5   1   6 5640.48 417.430  15
  -5   1   6 5190.03 393.655  14
  -5   1   6 5857.21 411.178  13
   5   1  -6 6652.20 434.331   7
   5   1  -6 5720.43 439.167  21
   5   1  -5 962.056 169.025  20
  -5   1   5 712.323 167.051  12
  -5   1   5 761.823 137.094   6
   5   1  -5 668.576 148.964  19
   5   1  -5 1060.21 188.860  18
  -5   1   5 1021.02 168.200  17
  -5   1   5 610.161 165.120  10
  -5   1   5 893.224 156.711  16
  -5   1   5 756.502 144.014  15
   5   1  -5 877.136 140.446   9
  -5   1   5 794.726 145.239  14
   5   1  -5 662.650 149.847  22
   5   1  -5 730.164 129.098   7
  -5   1   5 870.097 151.856  13
   5   1  -5 860.476 160.426  21
   5   1  -4 2903.30 280.547  20
  -5   1   4 2926.45 252.066   6
  -5   1   4 2994.74 324.475  12
   5   1  -4 3131.83 289.929  19
   5   1  -4 2458.17 263.353  18
  -5   1   4 2566.70 308.882  10
  -5   1   4 3103.84 282.088  17
  -5   1   4 3071.51 273.893  16
   5   1  -4 2769.70 233.904   9
  -5   1   4 3185.39 274.959  15
  -5   1   4 2917.15 261.788  14
  -5   1   4 3102.65 267.803  13
   5   1  -4 3077.44 245.052   7
   5   1  -4 2637.13 276.370  22
   5   1  -4 2904.63 281.648  21
   5   1  -3 37078.7 1245.89  20
  -5   1   3 37712.3 1350.55  12
  -5   1   3 36613.9 1151.81   6
   5   1  -3 35064.8 1220.07  19
   5   1  -3 33020.0 1172.45  18
  -5   1   3 34844.6 1314.69  10
  -5   1   3 36374.9 1191.14  16
   5   1  -3 36128.9 1107.66   9
  -5   1   3 38658.4 1203.54  15
  -5   1   3 36857.9 1177.60  14
   5   1  -3 38436.2 1249.71  23
  -5   1   3 37448.5 1178.91  13
   5   1  -3 37092.3 1108.83   7
   5   1  -3 37260.2 1269.40  22
   5   1  -3 34845.2 1232.07  21
   5   1  -2 22007.4 873.066  20
  -5   1   2 20158.0 914.082  12
  -5   1   2 21205.6 776.679   6
   5   1  -2 21513.2 861.935  19
  -5   1   2 19165.5 885.626  10
  -5   1   2 20728.2 810.675  16
  -5   1   2 20408.4 737.153   4
   5   1  -2 20412.4 731.545   9
  -5   1   2 21972.2 821.730  15
  -5   1   2 21547.2 805.519  14
   5   1  -2 21796.4 855.186  23
  -5   1   2 20193.5 783.987  13
   5   1  -2 21486.3 729.908   7
   5   1  -2 19734.4 858.371  22
   5   1  -2 20048.0 751.026   2
   5   1  -2 21079.0 867.653  21
   5   1  -1 16924.1 782.198  20
  -5   1   1 17298.6 689.745   6
   5   1  -1 17361.7 781.272  19
  -5   1   1 16857.1 812.199  10
  -5   1   1 17526.8 668.154   4
   5   1  -1 17558.8 676.565   9
  -5   1   1 17897.1 735.911  15
  -5   1   1 17904.4 726.458  14
   5   1  -1 17132.4 767.781  23
  -5   1   1 17308.4 713.570  13
   5   1  -1 17619.5 643.169   7
   5   1  -1 17412.7 795.621  21
   5   1  -1 17941.8 689.378   2
   5   1   0 37706.1 1185.18   2
   5   1   0 37420.4 1331.92  20
  -5   1   0 36798.5 1192.84   6
   5   1   0 37518.8 1320.28  19
   5   1   0 34244.0 1255.56  17
  -5   1   0 37201.6 1362.65  10
  -5   1   0 35684.6 1140.23   4
  -5   1   0 37034.3 1244.26  15
   5   1   0 36009.4 1186.11   9
  -5   1   0 37878.2 1233.84  14
   5   1   0 36289.6 1292.42  23
  -5   1   0 36883.4 1212.63  13
   5   1   0 39892.9 1132.01   7
   5   1   0 34379.4 1312.41  21
   5   1   1 342.654 122.118  20
   5   1   1 438.080 125.634  19
   5   1   1 102.264 72.2172  17
   5   1   1 114.857 65.0053   2
  -5   1  -1 334.051 131.564  10
  -5   1  -1 185.689 83.4198  15
   5   1   1 326.787 103.809   9
  -5   1  -1 218.945 89.9462  14
   5   1   1 415.387 122.873  23
  -5   1  -1 342.299 91.2771   4
  -5   1  -1 356.837 104.721  13
   5   1   1 304.995 122.832  21
   5   1   2 1937.24 235.808   2
   5   1   2 1802.73 285.119  20
   5   1   2 2253.96 309.391  19
   5   1   2 2211.94 289.643  17
  -5   1  -2 2416.66 327.769  10
  -5   1  -2 2246.83 239.675   4
  -5   1  -2 2019.55 259.007  15
  -5   1  -2 1818.70 242.231  14
   5   1   2 2055.67 294.505  23
  -5   1  -2 1908.70 242.584  13
   5   1   2 1879.26 294.534  21
  -5   2   6 7317.61 555.778  12
   5   2  -6 7204.70 567.844  18
  -5   2   6 5685.29 538.118  10
  -5   2   6 6981.20 504.939  17
  -5   2   6 7665.48 511.561  16
  -5   2   6 6905.21 489.856  15
  -5   2   6 6726.06 472.592  14
  -5   2   6 7308.23 484.198  13
   5   2  -6 7832.25 503.568   7
  -5   2   6 7379.38 476.842   6
  -5   2   5 395.724 131.813  12
  -5   2   5 481.861 113.407   6
   5   2  -5 364.049 126.381  18
  -5   2   5 320.708 110.780  17
  -5   2   5 240.229 119.137  10
  -5   2   5 308.321 102.123  16
  -5   2   5 210.316 89.4083  15
  -5   2   5 207.747 79.9461  14
   5   2  -5 381.065 106.416   7
  -5   2   5 259.886 87.3698  13
  -5   2   4 2211.03 218.535   6
  -5   2   4 2804.12 309.773  12
   5   2  -4 2285.53 269.395  18
  -5   2   4 2572.04 273.983  17
  -5   2   4 1921.85 281.481  10
  -5   2   4 2580.75 263.575  16
  -5   2   4 2582.93 265.635  15
  -5   2   4 2170.80 238.636  14
  -5   2   4 2524.81 256.803  13
   5   2  -4 2567.71 248.291   7
  -5   2   3 3879.00 277.842   6
  -5   2   3 4059.00 366.847  12
  -5   2   3 3324.58 354.256  10
  -5   2   3 3506.84 306.714  16
  -5   2   3 3772.70 315.466  15
  -5   2   3 3385.14 295.009  14
   5   2  -3 3700.82 290.453   2
  -5   2   3 3754.82 306.636  13
   5   2  -3 3214.06 271.261   7
  -5   2   2 14810.0 593.804   6
  -5   2   2 15317.4 760.463  12
  -5   2   2 14424.2 764.891  10
  -5   2   2 14901.3 681.349  16
  -5   2   2 14545.9 626.287   4
  -5   2   2 15846.1 693.251  15
  -5   2   2 15998.7 687.518  14
  -5   2   2 14564.0 658.248  13
   5   2  -2 14346.9 644.388   2
   5   2  -2 15484.0 641.621   7
  -5   2   1 17096.3 650.044   6
  -5   2   1 17768.0 863.276  10
  -5   2   1 16935.4 716.490   4
  -5   2   1 18334.9 770.501  15
  -5   2   1 17123.8 740.043  14
  -5   2   1 18205.7 749.292  13
   5   2  -1 18131.3 708.357   7
   5   2  -1 17845.7 746.648   2
   5   2   0 8566.43 526.392  20
   5   2   0 9226.01 537.195  19
   5   2   0 9187.12 518.540  17
  -5   2   0 9411.51 612.904  10
  -5   2   0 8964.66 498.686   4
  -5   2   0 9598.36 541.495  15
   5   2   0 9059.53 469.250   9
  -5   2   0 9272.16 525.087  14
   5   2   0 9238.11 530.368  23
  -5   2   0 9181.89 514.858  13
   5   2   0 10011.3 487.366   7
   5   2   0 9707.34 535.055   2
   5   2   0 10424.0 579.316  21
   5   2   1 2857.53 289.570   2
   5   2   1 2721.31 307.519  20
   5   2   1 2860.93 305.339  19
   5   2   1 2452.31 277.176  17
  -5   2  -1 2701.49 329.320  10
  -5   2  -1 2479.10 258.728   4
  -5   2  -1 2761.50 291.239  15
   5   2   1 2349.86 246.372   9
  -5   2  -1 2919.84 291.849  14
   5   2   1 2711.40 292.988  23
  -5   2  -1 2490.96 266.744  13
   5   2   2 229.069 95.2281   2
  -5   2  -2 354.388 135.854  10
  -5   2  -2 245.089 98.7157  15
  -5   2  -2 185.180 86.7114  14
  -5   2  -2 239.879 91.7684   4
  -5   2  -2 328.086 112.180  13
  -5   3   6 2817.29 330.898  12
   5   3  -6 2752.10 357.288  18
  -5   3   6 2809.88 325.397  17
  -5   3   6 2983.97 397.546  10
  -5   3   6 2549.06 302.926  16
  -5   3   6 2805.00 315.936  15
  -5   3   6 3333.38 336.876  14
  -5   3   6 2882.07 308.894  13
   5   3  -6 2327.93 278.703   7
  -5   3   6 3089.53 309.413   6
  -5   3   5 2091.40 277.353  12
   5   3  -5 2339.96 309.692  18
   5   3  -5 2783.11 297.342   5
  -5   3   5 2885.85 311.820  17
  -5   3   5 2680.68 356.607  10
  -5   3   5 2368.96 276.830  16
  -5   3   5 2693.87 293.485  15
  -5   3   5 2969.90 299.653  14
  -5   3   5 3048.32 303.254  13
   5   3  -5 2525.85 278.298   7
  -5   3   5 2652.91 263.593   6
  -5   3   4 12899.0 583.676   6
  -5   3   4 13314.2 707.440  12
   5   3  -4 10881.1 668.035  18
  -5   3   4 12621.2 777.200  10
  -5   3   4 12974.0 685.903  17
  -5   3   4 14639.0 705.325  16
  -5   3   4 13548.4 678.051  15
  -5   3   4 14071.1 677.104  14
  -5   3   4 13278.6 655.803  13
   5   3  -4 12083.4 623.204   7
  -5   3   3 32193.9 1022.15   6
  -5   3   3 32210.5 1216.30  12
  -5   3   3 30967.0 1301.32  10
  -5   3   3 33622.4 1181.21  16
  -5   3   3 33426.1 1171.87  15
  -5   3   3 34630.1 1171.44  14
   5   3  -3 31079.8 1136.28   2
  -5   3   3 33641.6 1154.70  13
   5   3  -3 28321.7 1079.87   7
  -5   3   2 2125.58 185.630   6
  -5   3   2 2163.49 264.674  12
  -5   3   2 2211.49 290.961  10
  -5   3   2 2526.48 266.802  16
  -5   3   2 2321.00 251.488  15
  -5   3   2 2440.57 255.302  14
   5   3  -2 2077.88 236.763   2
  -5   3   2 2237.06 241.058  13
   5   3  -2 2213.64 231.818   7
  -5   3   1 15027.0 814.718  10
  -5   3   1 15493.4 726.871  16
  -5   3   1 14607.0 692.694   4
  -5   3   1 15881.2 729.510  15
  -5   3   1 15626.3 714.689  14
  -5   3   1 15187.8 699.728  13
   5   3  -1 15049.0 722.010   2
   5   3  -1 14168.2 652.844   7
  -5   3   0 10476.0 676.430  10
  -5   3   0 10097.0 578.261   4
  -5   3   0 11218.3 613.379  15
  -5   3   0 11287.5 605.053  14
  -5   3   0 10835.7 587.330  13
   5   3   0 10958.5 616.653   2
   5   3   1 1673.90 240.482   2
  -5   3  -1 2043.05 304.329  10
  -5   3  -1 1938.84 255.265  15
  -5   3  -1 1648.96 230.291  14
  -5   3  -1 2049.92 249.922  13
  -5   3  -1 1830.09 239.393   4
  -5   3  -2 8502.89 648.274  10
  -5   3  -2 7676.94 535.498   4
  -5   3  -2 8266.16 569.901  15
  -5   3  -2 8579.38 567.570  14
  -5   3  -2 8301.66 551.765  13
   5   3   2 8901.14 595.516   2
  -5   4   6 12438.8 738.717  12
   5   4  -6 10967.6 770.307  18
  -5   4   6 11470.5 823.178  10
  -5   4   6 12875.7 752.203  17
  -5   4   6 13436.6 748.319  16
  -5   4   6 12454.4 722.138  15
  -5   4   6 12329.7 707.504  14
  -5   4   6 12354.2 809.119   8
  -5   4   6 13507.8 726.710  13
  -5   4   6 13673.2 702.818   6
  -5   4   5 3419.62 348.973  12
   5   4  -5 3365.53 384.506  18
   5   4  -5 4119.16 396.108   5
  -5   4   5 3595.85 430.909  10
  -5   4   5 4041.32 387.381  17
  -5   4   5 3445.75 350.662  16
  -5   4   5 3372.68 343.805  15
  -5   4   5 3873.96 362.645  14
  -5   4   5 3222.56 329.843  13
  -5   4   5 3775.16 323.573   6
  -5   4   4 4242.56 381.804  12
   5   4  -4 4822.55 424.478   5
  -5   4   4 4629.53 471.235  10
  -5   4   4 4221.94 386.637  17
  -5   4   4 4669.97 395.041  16
  -5   4   4 5128.74 407.701  15
  -5   4   4 4925.67 395.979  14
  -5   4   4 5413.63 411.085  13
  -5   4   4 5150.05 346.827   6
  -5   4   3 111.574 92.4778  12
  -5   4   3 150.606 61.1931   6
   5   4  -3 100.383 78.8006   2
  -5   4   3 144.152 119.563  10
  -5   4   3 111.017 76.5911  16
  -5   4   3 82.9717 83.7431  15
  -5   4   3 119.212 74.7020  14
  -5   4   3 107.425 70.8308  13
  -5   4   2 4376.90 378.395  12
  -5   4   2 4822.93 456.454  10
  -5   4   2 5142.28 399.834  16
  -5   4   2 4933.92 389.583  15
  -5   4   2 4694.88 375.514  14
   5   4  -2 3965.70 366.174   2
  -5   4   2 4379.47 358.161  13
  -5   4   1 20926.3 1031.78  10
  -5   4   1 20885.7 903.418  16
  -5   4   1 20248.3 888.131  15
  -5   4   1 21648.5 898.481  14
   5   4  -1 20792.3 936.760   2
  -5   4   1 21859.5 894.492  13
  -5   4   0 13528.3 806.958  10
  -5   4   0 13382.0 701.454  15
  -5   4   0 12936.4 679.250  14
   5   4   0 12545.6 714.198   2
  -5   4   0 12494.1 660.437  13
   5   4   1 839.144 177.614   2
  -5   4  -1 694.229 186.918  10
  -5   4  -1 616.557 156.425  15
  -5   4  -1 483.790 143.699  14
  -5   4  -1 697.080 159.981   4
  -5   4  -1 573.419 148.980  13
   5   5  -5 4419.28 447.670   5
  -5   5   5 3614.40 380.971  17
  -5   5   5 2948.23 405.784  10
  -5   5   5 4315.78 402.055  16
  -5   5   5 4058.22 386.869  15
  -5   5   5 3943.39 376.338  14
  -5   5   5 4031.75 454.310   8
  -5   5   5 3582.68 357.084  13
  -5   5   5 3759.93 329.931   6
   5   5  -4 8936.55 633.201   5
  -5   5   4 8650.64 682.456  10
  -5   5   4 9565.85 614.143  17
  -5   5   4 8178.18 559.887  16
  -5   5   4 10161.8 609.466  15
  -5   5   4 8989.13 570.623  14
  -5   5   4 8176.86 639.650   8
  -5   5   4 9922.39 590.609  13
  -5   5   3 17212.6 971.149  10
  -5   5   3 17895.6 845.516  16
  -5   5   3 18000.3 838.907  15
   5   5  -3 16953.2 864.902   2
  -5   5   3 17433.4 819.516  14
  -5   5   3 16151.7 913.116   8
  -5   5   3 18569.2 835.296  13
   5   5  -2 973.685 188.432   2
  -5   5   2 740.419 186.323  10
  -5   5   2 1250.64 202.391  16
  -5   5   2 1345.16 209.748  15
  -5   5   2 1134.78 189.599  14
  -5   5   2 1338.19 242.475   8
  -5   5   2 1075.16 186.079  13
  -5   5   1 11038.5 745.057  10
  -5   5   1 10939.6 641.944  16
  -5   5   1 11568.1 652.457  15
  -5   5   1 11285.2 714.602   8
  -5   5   1 12323.4 658.226  14
   5   5  -1 11062.5 692.178   2
  -5   5   1 11699.9 639.013  13
   5   5   0 859.261 190.089   2
  -5   5   0 1523.68 270.858  10
  -5   5   0 1387.76 222.288  16
  -5   5   0 1456.68 223.693  15
  -5   5   0 1658.26 236.522  14
  -5   5   0 1255.68 227.051   8
  -5   5   0 1270.81 203.956  13
   5   5   1 2237.17 312.273   2
  -5   5  -1 2598.45 367.589  10
  -5   5  -1 2106.33 306.927   5
  -5   5  -1 2679.64 314.645  15
  -5   5  -1 2352.06 291.134  14
  -5   5  -1 2579.19 302.192  13
   5   6  -3 2665.26 337.248   2
  -5   6   3 2713.89 376.924  10
  -5   6   3 2609.36 308.782  16
  -5   6   3 2630.02 305.918  15
  -5   6   3 2989.85 319.868  14
  -5   6   3 2179.41 334.888   8
  -5   6   3 2618.71 297.840  13
   5   6  -2 871.855 201.812   2
  -5   6   2 1112.58 244.881  10
  -5   6   2 1025.30 195.281  16
  -5   6   2 1093.86 196.219  15
  -5   6   2 847.439 173.490  14
  -5   6   2 871.642 211.521   8
  -5   6   2 1004.65 185.196  13
  -5   6   1 8712.84 674.908  10
  -5   6   1 8781.45 582.767  16
  -5   6   1 8986.26 580.897  15
   5   6  -1 7957.52 621.235   2
  -5   6   1 8279.24 554.162  14
  -5   6   1 8505.46 655.647   8
  -5   6   1 9557.24 584.160  13
   6  -4  -4 5748.40 553.515  20
  -6  -4   4 5662.11 472.719  12
  -6  -4   4 6855.74 516.139   6
   6  -4  -4 6186.07 571.938  19
   6  -4  -4 6222.16 497.395   9
   6  -4  -4 5973.74 587.000  22
   6  -4  -4 6500.55 599.093  21
   6  -4  -3 11221.4 786.041  20
  -6  -4   3 10610.1 660.524  12
  -6  -4   3 11645.2 705.615   6
   6  -4  -3 12303.2 810.882  19
   6  -4  -3 11929.8 691.768   9
   6  -4  -3 11193.5 775.078  23
   6  -4  -3 9772.58 758.762  22
   6  -4  -3 10868.5 787.028  21
   6  -4  -2 2438.80 362.142  20
  -6  -4   2 1813.18 263.103  12
  -6  -4   2 2379.35 322.666   6
   6  -4  -2 2274.00 348.979  19
   6  -4  -2 2735.46 322.726   9
   6  -4  -2 2423.27 353.210  23
   6  -4  -2 2463.60 379.925  22
   6  -4  -2 2756.10 387.621  21
   6  -4  -1 6484.97 600.954  20
  -6  -4   1 5271.47 464.481  12
   6  -4  -1 6292.12 589.646  19
  -6  -4   1 5613.67 511.314   6
   6  -4  -1 6998.21 531.283   9
   6  -4  -1 6793.30 603.273  23
   6  -4  -1 6038.57 596.147  22
   6  -4  -1 5497.10 566.690  21
   6  -3  -5 3981.85 449.833  20
  -6  -3   5 2916.57 355.100  12
  -6  -3   5 3712.93 355.782   6
   6  -3  -5 4233.29 464.180  19
   6  -3  -5 3397.66 352.488   9
   6  -3  -5 3905.15 235.402   1
   6  -3  -5 3781.11 254.211   7
   6  -3  -5 3566.44 446.501  22
   6  -3  -5 3551.68 428.730  21
   6  -3  -4 4357.08 463.507  20
  -6  -3   4 4233.10 413.271  12
  -6  -3   4 4302.09 388.414   6
   6  -3  -4 3885.92 444.534  19
   6  -3  -4 3964.66 374.595   9
   6  -3  -4 4170.43 256.802   7
   6  -3  -4 4900.02 508.912  22
   6  -3  -4 3532.16 430.671  21
   6  -3  -3 5735.89 529.898  20
  -6  -3   3 5826.67 486.173  12
  -6  -3   3 6103.84 483.778   6
   6  -3  -3 5826.71 533.385  19
   6  -3  -3 5994.60 461.026   9
   6  -3  -3 7064.78 577.361  23
   6  -3  -3 6520.81 320.866   7
   6  -3  -3 6139.31 563.968  22
   6  -3  -3 6864.05 587.372  21
   6  -3  -2 12132.3 785.443  20
  -6  -3   2 10883.1 683.078  12
  -6  -3   2 12218.9 718.337   6
   6  -3  -2 11536.2 766.691  19
   6  -3  -2 11896.5 671.371   9
   6  -3  -2 12027.0 768.500  23
   6  -3  -2 9115.88 714.425  22
   6  -3  -2 11437.5 775.224  21
   6  -3  -1 1436.06 269.749  20
   6  -3  -1 1235.74 250.231  19
  -6  -3   1 1136.50 223.243   6
   6  -3  -1 1988.60 267.534   9
   6  -3  -1 1616.61 144.125   7
   6  -3  -1 1378.27 259.758  23
   6  -3  -1 1070.09 243.414  22
   6  -3  -1 1424.88 273.425  21
   6  -3   0 5437.61 553.743  20
   6  -3   0 5162.07 527.246  19
  -6  -3   0 5185.04 484.276   6
   6  -3   0 5412.73 525.347  17
   6  -3   0 5935.58 495.165   9
  -6  -3   0 6062.49 319.074   4
   6  -3   0 5527.20 536.833  23
   6  -3   0 5735.64 570.940  21
   6  -2  -6 3756.20 438.162  20
  -6  -2   6 3153.16 388.144  12
  -6  -2   6 3306.61 331.146   6
   6  -2  -6 4390.95 472.606  19
   6  -2  -6 3913.70 254.144   1
   6  -2  -6 3734.63 368.199   9
   6  -2  -6 3832.10 280.152   7
   6  -2  -6 4848.10 513.927  22
   6  -2  -6 4054.35 462.182  21
   6  -2  -5 7436.60 609.160  20
  -6  -2   5 6414.92 540.214  12
  -6  -2   5 7342.19 495.669   6
   6  -2  -5 7918.51 623.992  19
   6  -2  -5 8117.29 533.948   9
   6  -2  -5 7740.55 343.030   1
   6  -2  -5 7620.33 387.112   7
   6  -2  -5 6628.01 599.339  22
   6  -2  -5 7804.53 625.835  21
   6  -2  -4 2639.20 349.707  20
  -6  -2   4 2815.43 298.513   6
  -6  -2   4 2097.59 299.588  12
   6  -2  -4 2528.06 339.678  19
   6  -2  -4 2711.55 296.699   9
   6  -2  -4 2217.06 187.962   7
   6  -2  -4 2358.46 344.833  22
   6  -2  -4 2241.21 328.995  21
   6  -2  -3 5830.61 518.547  20
  -6  -2   3 6046.10 501.737  12
  -6  -2   3 6376.58 464.596   6
   6  -2  -3 5905.13 516.265  19
   6  -2  -3 5637.84 428.807   9
   6  -2  -3 5719.04 503.201  23
   6  -2  -3 5831.42 307.388   7
   6  -2  -3 5871.65 534.434  22
   6  -2  -3 5943.09 528.788  21
   6  -2  -2 1390.42 257.761  20
  -6  -2   2 1245.50 227.440  12
   6  -2  -2 1148.43 229.508  19
  -6  -2   2 1545.13 229.971   6
   6  -2  -2 1077.55 189.429   9
   6  -2  -2 1280.70 133.247   7
   6  -2  -2 1276.73 243.177  23
   6  -2  -2 1192.19 247.831  22
   6  -2  -2 1054.20 229.590  21
   6  -2  -1 2648.87 352.387  20
  -6  -2   1 2358.09 296.171   6
   6  -2  -1 2640.04 344.918  19
   6  -2  -1 2448.21 285.068   9
  -6  -2   1 2674.33 195.374   4
   6  -2  -1 2393.95 181.957   7
   6  -2  -1 1875.53 293.600  23
   6  -2  -1 2712.23 361.341  22
   6  -2  -1 1966.45 308.294  21
   6  -2   0 4814.64 501.430  20
   6  -2   0 5508.41 524.729  19
  -6  -2   0 4884.58 450.257   6
   6  -2   0 6606.32 362.376   2
   6  -2   0 5372.29 500.862  17
   6  -2   0 6431.13 490.943   9
  -6  -2   0 5990.81 329.473   4
   6  -2   0 5746.50 526.194  23
   6  -2   0 5818.65 553.408  21
   6  -2   1 8955.14 719.033  20
   6  -2   1 8568.29 694.802  19
  -6  -2  -1 8670.91 626.050   6
   6  -2   1 10306.9 503.530   2
   6  -2   1 8742.84 679.114  17
   6  -2   1 9858.27 658.633   9
  -6  -2  -1 9262.42 459.247   4
   6  -2   1 9577.72 719.064  23
   6  -2   1 9998.89 767.430  21
   6  -1  -6 11611.0 754.267  20
  -6  -1   6 10080.7 727.190  12
  -6  -1   6 11224.0 627.990   6
   6  -1  -6 11654.5 762.877  19
   6  -1  -6 11527.3 655.450   9
   6  -1  -6 11809.0 562.484   7
   6  -1  -6 11977.1 801.529  22
   6  -1  -6 11228.9 753.909  21
   6  -1  -5 828.620 183.002  20
  -6  -1   5 968.495 207.448  12
  -6  -1   5 830.877 158.783   6
   6  -1  -5 921.774 204.844  19
   6  -1  -5 826.580 162.008   9
   6  -1  -5 823.449 209.845  22
   6  -1  -5 530.520 110.122   7
   6  -1  -5 911.142 201.080  21
   6  -1  -4 5868.47 503.251  20
  -6  -1   4 5728.80 500.772  12
  -6  -1   4 5508.94 409.839   6
   6  -1  -4 5871.65 502.814  19
   6  -1  -4 5876.11 423.603   9
   6  -1  -4 6248.97 345.111   7
   6  -1  -4 6149.63 535.661  22
   6  -1  -4 6264.15 530.503  21
   6  -1  -3 1410.72 245.927  20
  -6  -1   3 1821.11 277.656  12
   6  -1  -3 1563.16 252.076  19
  -6  -1   3 1476.35 211.643   6
   6  -1  -3 1453.21 206.764   9
   6  -1  -3 1461.96 155.079   7
   6  -1  -3 1778.50 267.703  23
   6  -1  -3 1714.56 275.326  22
   6  -1  -3 1713.51 276.007  21
   6  -1  -2 4577.05 442.313  20
  -6  -1   2 4664.31 440.704  12
  -6  -1   2 4383.56 378.589   6
   6  -1  -2 4199.68 418.730  19
  -6  -1   2 4843.83 405.192  10
  -6  -1   2 4855.20 332.365  16
   6  -1  -2 4062.26 343.005   9
  -6  -1   2 4290.71 311.900  15
  -6  -1   2 4310.98 307.908  14
   6  -1  -2 5459.34 469.103  23
  -6  -1   2 4282.91 304.399  13
   6  -1  -2 4622.39 274.630   7
   6  -1  -2 4541.50 447.423  22
   6  -1  -2 5311.74 480.228  21
   6  -1  -1 1017.19 210.404  20
   6  -1  -1 723.241 169.461  19
  -6  -1   1 857.807 171.807   6
   6  -1  -1 931.291 134.570   2
  -6  -1   1 1016.03 195.279  10
  -6  -1   1 787.456 138.049  16
  -6  -1   1 809.706 142.696  15
   6  -1  -1 1254.10 200.294   9
  -6  -1   1 773.378 133.509  14
   6  -1  -1 902.378 199.522  23
  -6  -1   1 876.986 121.712   4
   6  -1  -1 547.332 175.374  22
   6  -1  -1 871.005 116.877   7
  -6  -1   1 825.277 135.468  13
   6  -1  -1 862.634 196.655  21
   6  -1   0 1416.63 263.361  20
   6  -1   0 1530.35 268.603  19
  -6  -1   0 1495.92 230.000   6
   6  -1   0 1267.65 240.537  17
   6  -1   0 1240.00 162.628   2
  -6  -1   0 1640.31 246.992  10
  -6  -1   0 1329.70 159.855   4
  -6  -1   0 1447.48 196.690  15
   6  -1   0 1006.79 183.352   9
  -6  -1   0 1288.40 187.692  14
   6  -1   0 1330.19 246.966  23
  -6  -1   0 1356.66 186.408  13
   6  -1   0 1027.33 231.112  21
   6  -1   1 6422.52 585.087  20
   6  -1   1 7398.76 442.401   2
   6  -1   1 6450.00 581.325  19
  -6  -1  -1 5831.49 477.229   6
   6  -1   1 7320.23 594.086  17
  -6  -1  -1 7358.53 420.190   4
   6  -1   1 6641.86 516.390   9
   6  -1   1 6657.00 577.254  23
   6  -1   1 6024.61 577.742  21
   6   0  -6 3216.59 362.984  20
  -6   0   6 2660.27 288.135   6
  -6   0   6 3293.20 398.259  12
   6   0  -6 3152.85 364.098  19
   6   0  -6 2454.71 316.053  18
  -6   0   6 3161.10 387.008  10
  -6   0   6 2645.91 289.205  17
  -6   0   6 2757.61 288.337  16
   6   0  -6 2927.74 305.002   9
  -6   0   6 3013.39 295.828  15
  -6   0   6 2941.27 285.962  14
  -6   0   6 2778.24 276.111  13
   6   0  -6 3193.94 296.895   7
   6   0  -6 3434.49 395.917  22
   6   0  -6 3374.74 372.207  21
   6   0  -5 1440.49 238.873  20
  -6   0   5 1464.95 259.454  12
  -6   0   5 1578.29 212.217   6
   6   0  -5 2002.21 279.033  19
   6   0  -5 1153.26 194.849  18
  -6   0   5 1368.18 198.667  17
  -6   0   5 1471.05 251.779  10
  -6   0   5 1103.14 172.469  16
  -6   0   5 1243.38 185.003  15
   6   0  -5 1611.40 217.128   9
  -6   0   5 1697.89 205.979  14
  -6   0   5 1474.50 193.864  13
   6   0  -5 1584.69 193.399   7
   6   0  -5 1450.47 249.949  22
   6   0  -5 1456.18 243.800  21
   6   0  -4 579.033 158.855  20
  -6   0   4 860.799 200.995  12
   6   0  -4 508.852 146.871  19
  -6   0   4 794.696 151.015   6
  -6   0   4 735.373 149.154  17
  -6   0   4 462.412 150.955  10
  -6   0   4 767.143 144.711  16
  -6   0   4 551.072 123.374  15
   6   0  -4 890.078 151.773   9
  -6   0   4 642.270 127.585  14
   6   0  -4 967.986 212.041  22
   6   0  -4 872.572 133.581   7
  -6   0   4 811.294 139.794  13
   6   0  -4 541.964 159.978  21
   6   0  -3 2680.87 323.017  20
  -6   0   3 2498.93 327.784  12
  -6   0   3 2202.16 245.823   6
   6   0  -3 2357.03 295.821  19
  -6   0   3 2457.35 300.349  10
  -6   0   3 2094.28 230.202  16
   6   0  -3 2135.02 228.510   9
  -6   0   3 2103.38 228.770  15
  -6   0   3 2196.97 227.055  14
   6   0  -3 2536.56 305.836  23
  -6   0   3 1880.43 211.604  13
   6   0  -3 2238.02 208.074   7
   6   0  -3 1846.53 272.123  22
   6   0  -3 1912.34 276.705  21
   6   0  -2 183.000 102.089  20
  -6   0   2 20.1070 68.7518  12
   6   0  -2-68.7187 91.5322  19
  -6   0   2-28.7308 65.2063   6
  -6   0   2-59.2375 70.8753  10
  -6   0   2 121.945 65.6125  16
  -6   0   2 36.9353 53.3751  15
   6   0  -2-0.56945 51.9385   9
  -6   0   2-108.402 65.1250  14
   6   0  -2 135.097 100.616  23
   6   0  -2 383.641 153.689  22
   6   0  -2-24.5743 38.7510   7
  -6   0   2 78.3909 60.2635  13
   6   0  -2 406.366 155.009  21
   6   0  -1 395.488 125.477  20
   6   0  -1 507.920 143.823  19
  -6   0   1 613.626 140.614   6
   6   0  -1 565.257 117.282   2
  -6   0   1 388.380 133.089  10
  -6   0   1 502.009 118.573  16
  -6   0   1 487.649 117.825  15
   6   0  -1 629.412 135.987   9
  -6   0   1 760.786 143.705  14
   6   0  -1 532.564 147.356  23
  -6   0   1 766.788 125.092   4
   6   0  -1 555.164 160.861  22
   6   0  -1 288.897 79.7854   7
  -6   0   1 418.624 106.262  13
   6   0  -1 411.817 144.359  21
   6   0   0 1191.53 224.178  20
   6   0   0 1356.49 248.692  19
  -6   0   0 1330.61 205.917   6
   6   0   0 1211.45 223.522  17
   6   0   0 1370.31 186.673   2
  -6   0   0 1314.62 235.014  10
  -6   0   0 1211.54 194.729  15
   6   0   0 1137.18 188.699   9
  -6   0   0 1184.75 186.542  14
   6   0   0 1070.29 212.343  23
  -6   0   0 1289.65 172.243   4
  -6   0   0 1256.75 188.586  13
   6   0   0 1313.57 249.795  21
   6   0   1 6293.79 567.137  20
   6   0   1 7198.03 467.739   2
   6   0   1 7131.69 594.074  19
   6   0   1 6957.04 564.119  17
  -6   0  -1 7643.36 590.838  10
  -6   0  -1 6809.27 436.234   4
  -6   0  -1 6959.19 497.874  15
   6   0   1 6543.99 497.398   9
  -6   0  -1 6994.60 486.901  14
   6   0   1 6665.30 563.241  23
  -6   0  -1 6993.65 478.703  13
   6   0   1 6988.69 603.279  21
  -6   1   6 11799.5 633.204   6
  -6   1   6 10571.1 732.883  12
   6   1  -6 9756.67 664.727  18
  -6   1   6 9239.02 710.199  10
  -6   1   6 10777.4 636.469  17
  -6   1   6 10513.4 612.709  16
  -6   1   6 10776.6 615.854  15
  -6   1   6 10546.5 604.430  14
  -6   1   6 9896.59 584.061  13
   6   1  -6 11234.8 631.193   7
  -6   1   5 906.739 199.461  12
  -6   1   5 938.611 168.428   6
   6   1  -5 802.054 176.456  18
  -6   1   5 815.012 162.854  17
  -6   1   5 948.417 211.070  10
  -6   1   5 847.355 163.764  16
  -6   1   5 942.271 169.818  15
  -6   1   5 777.639 154.659  14
   6   1  -5 866.382 159.293   7
  -6   1   5 649.900 134.554  13
  -6   1   4 6074.93 514.695  12
  -6   1   4 5341.09 383.908   6
   6   1  -4 4964.28 401.469  18
  -6   1   4 5688.47 495.354  10
  -6   1   4 5544.59 417.707  17
  -6   1   4 5210.22 396.362  16
  -6   1   4 5951.33 416.935  15
  -6   1   4 5829.73 407.589  14
  -6   1   4 6094.51 412.322  13
   6   1  -4 5849.92 395.012   7
   6   1  -3 1457.64 221.350  20
  -6   1   3 1519.36 253.697  12
   6   1  -3 1104.31 199.451  19
  -6   1   3 1318.49 182.068   6
  -6   1   3 1698.90 265.992  10
  -6   1   3 1114.18 181.018  16
   6   1  -3 1521.43 180.972   9
  -6   1   3 1366.83 198.235  15
  -6   1   3 1287.79 189.203  14
  -6   1   3 1715.78 214.881  13
   6   1  -3 1453.74 219.223  23
   6   1  -3 1333.49 217.236  22
   6   1  -3 1454.94 184.627   7
   6   1  -3 1661.56 236.970  21
   6   1  -2 5021.43 420.186  20
  -6   1   2 3954.93 416.765  12
  -6   1   2 4800.85 350.703   6
   6   1  -2 4967.36 413.970  19
  -6   1   2 4518.45 424.382  10
  -6   1   2 4639.98 370.047  16
   6   1  -2 4619.49 330.806   9
  -6   1   2 4927.53 377.852  15
  -6   1   2 4490.03 355.540  14
   6   1  -2 4478.47 390.512  23
  -6   1   2 4715.66 361.366  13
   6   1  -2 5308.20 352.039   7
   6   1  -2 4888.36 425.232  22
   6   1  -2 4838.12 415.734  21
   6   1  -1 1131.81 211.029  20
   6   1  -1 744.224 170.843  19
  -6   1   1 696.520 133.497   6
   6   1  -1 1088.45 170.436   2
  -6   1   1 653.320 172.000  10
  -6   1   1 846.356 162.915  16
  -6   1   1 1134.95 188.617  15
   6   1  -1 861.929 150.446   9
  -6   1   1 992.229 170.085  14
   6   1  -1 747.444 170.595  23
  -6   1   1 1048.20 162.843   4
   6   1  -1 1035.06 201.040  22
   6   1  -1 912.702 147.960   7
  -6   1   1 919.551 167.647  13
   6   1  -1 897.841 193.877  21
   6   1   0 1081.74 217.351  20
   6   1   0 1300.62 226.110  19
   6   1   0 945.130 188.039  17
   6   1   0 1473.84 209.056   2
  -6   1   0 1476.66 258.571  10
  -6   1   0 1378.91 213.652  15
   6   1   0 1258.97 192.411   9
  -6   1   0 1653.46 227.432  14
   6   1   0 1257.82 221.708  23
  -6   1   0 1054.63 174.405   4
  -6   1   0 1427.24 208.363  13
   6   1   0 1097.98 213.088  21
   6   1   1 7038.76 497.173   2
   6   1   1 6412.67 552.822  20
   6   1   1 6217.84 537.983  19
   6   1   1 7359.35 563.124  17
  -6   1  -1 7470.55 594.916  10
  -6   1  -1 6754.14 466.006   4
  -6   1  -1 6672.21 502.173  15
   6   1   1 6821.52 489.963   9
  -6   1  -1 6956.50 500.168  14
   6   1   1 5997.71 519.441  23
  -6   1  -1 7097.01 494.026  13
   6   1   1 5554.72 526.277  21
  -6   2   6 3547.45 411.087  12
   6   2  -6 3298.73 386.691  18
  -6   2   6 3658.42 450.389  10
  -6   2   6 3648.88 375.225  17
  -6   2   6 3982.29 382.317  16
  -6   2   6 4028.19 381.069  15
  -6   2   6 3759.02 360.615  14
  -6   2   6 3907.55 365.751  13
   6   2  -6 3671.35 368.666   7
  -6   2   6 4217.59 366.931   6
  -6   2   5 7503.85 473.518   6
  -6   2   5 6864.62 565.161  12
   6   2  -5 6616.84 523.647  18
  -6   2   5 6395.41 576.870  10
  -6   2   5 8079.79 546.074  17
  -6   2   5 7506.17 516.252  16
  -6   2   5 7430.99 510.880  15
  -6   2   5 7491.01 507.368  14
  -6   2   5 8268.76 523.611  13
   6   2  -5 7486.07 508.269   7
  -6   2   4 2278.57 238.739   6
  -6   2   4 2314.96 311.148  12
  -6   2   4 2164.91 273.219  17
  -6   2   4 2409.22 333.468  10
  -6   2   4 2218.00 269.094  16
  -6   2   4 2205.55 265.798  15
  -6   2   4 2637.35 286.672  14
  -6   2   4 2451.49 272.378  13
   6   2  -4 2203.91 260.795   7
  -6   2   3 5634.93 372.508   6
  -6   2   3 5475.44 489.345  12
  -6   2   3 5436.67 495.406  10
  -6   2   3 5569.60 427.048  16
  -6   2   3 6195.03 445.396  15
  -6   2   3 6138.47 435.389  14
  -6   2   3 5880.01 424.175  13
   6   2  -3 6215.71 426.683   7
  -6   2   2 1184.45 231.818  12
  -6   2   2 1389.05 172.659   6
   6   2  -2 1080.40 175.099   2
  -6   2   2 1313.94 242.140  10
  -6   2   2 1451.61 213.860  16
  -6   2   2 1297.23 202.100  15
  -6   2   2 1252.19 193.814  14
  -6   2   2 1213.30 183.634   4
   6   2  -2 1124.41 183.930   7
  -6   2   2 1250.84 191.435  13
  -6   2   1 2408.65 326.948  10
  -6   2   1 2232.06 268.735  16
  -6   2   1 2538.81 271.586   4
  -6   2   1 2208.01 267.535  15
  -6   2   1 2291.87 269.023  14
  -6   2   1 2476.40 272.106  13
   6   2  -1 2817.08 276.256   7
   6   2  -1 2300.95 268.742   2
  -6   2   0 5718.64 514.198  10
  -6   2   0 5036.98 409.837   4
  -6   2   0 5582.71 446.712  15
  -6   2   0 5405.82 432.818  14
  -6   2   0 5303.76 423.348  13
   6   2   0 6001.93 459.877   2
  -6   2  -1 10678.7 740.890  10
  -6   2  -1 8815.07 582.934   4
  -6   2  -1 9381.21 619.695  15
  -6   2  -1 10062.9 626.546  14
  -6   2  -1 8802.59 583.653  13
   6   2   1 10595.8 663.717   2
  -6   3   5 3271.75 380.625  12
  -6   3   5 3956.19 392.345  17
  -6   3   5 3053.59 404.591  10
  -6   3   5 3775.69 371.939  16
  -6   3   5 3678.46 365.218  15
  -6   3   5 3772.73 367.265  14
  -6   3   5 3551.69 353.993  13
   6   3  -5 3422.78 351.689   7
  -6   3   5 3520.34 318.761   6
  -6   3   4 3794.20 308.824   6
  -6   3   4 4554.70 437.580  12
  -6   3   4 3425.05 424.745  10
  -6   3   4 4373.70 408.212  17
  -6   3   4 3979.51 380.565  16
  -6   3   4 3910.85 371.582  15
  -6   3   4 4969.97 409.212  14
  -6   3   4 3862.29 362.002  13
   6   3  -4 3373.02 337.482   7
  -6   3   3 5854.28 367.719   6
  -6   3   3 5972.72 500.163  12
  -6   3   3 6160.69 549.400  10
  -6   3   3 6190.01 467.057  16
  -6   3   3 5887.19 457.211  15
  -6   3   3 6098.87 456.352  14
  -6   3   3 6231.76 456.601  13
   6   3  -3 5644.08 428.467   7
  -6   3   2 11826.5 729.901  12
  -6   3   2 11152.1 751.222  10
  -6   3   2 11811.4 671.100  16
  -6   3   2 11876.6 665.636  15
  -6   3   2 12082.5 659.685  14
   6   3  -2 11336.0 648.198   2
  -6   3   2 11706.9 646.620  13
   6   3  -2 11231.5 618.799   7
   6   3  -1 1751.84 251.926   2
  -6   3   1 1473.49 267.208  10
  -6   3   1 1554.15 235.639  16
  -6   3   1 1378.07 218.074  15
  -6   3   1 1231.27 204.983  14
  -6   3   1 1097.90 195.438   4
   6   3  -1 1383.31 199.958   7
  -6   3   1 1439.58 218.501  13
  -6   3   0 5387.97 518.222  10
  -6   3   0 4709.35 423.144   4
  -6   3   0 5730.81 465.687  15
  -6   3   0 5749.34 459.926  14
  -6   3   0 5567.01 446.143  13
   6   3   0 5491.65 469.511   2
  -6   4   4 5974.33 496.214  12
  -6   4   4 5545.59 557.223  10
  -6   4   4 5220.57 466.904  17
  -6   4   4 6216.03 492.940  16
  -6   4   4 5860.22 474.365  15
  -6   4   4 6213.27 479.022  14
  -6   4   4 6056.25 472.579  13
   6   4  -4 4670.21 410.456   7
  -6   4   3 10027.1 665.339  12
  -6   4   3 10798.7 771.942  10
  -6   4   3 12432.1 704.364  16
  -6   4   3 11162.7 666.584  15
  -6   4   3 11623.6 667.572  14
  -6   4   3 12321.2 678.922  13
   6   4  -3 9321.99 585.466   7
  -6   4   2 1930.55 287.763  12
   6   4  -2 1960.38 273.448   2
  -6   4   2 2290.96 340.624  10
  -6   4   2 2251.77 293.187  16
  -6   4   2 2337.57 288.935  15
  -6   4   2 2492.28 298.066  14
  -6   4   2 2215.60 277.215  13
  -6   4   1 5298.18 483.330  12
  -6   4   1 6332.96 575.840  10
  -6   4   1 6137.46 492.387  16
  -6   4   1 7026.97 518.437  15
  -6   4   1 6329.48 487.197  14
   6   4  -1 5986.20 501.432   2
  -6   4   1 6280.47 480.859  13
   7  -2  -3 3353.94 422.933  20
  -7  -2   3 2792.28 372.522  12
  -7  -2   3 3220.43 352.037   6
   7  -2  -3 2938.64 397.105  19
   7  -2  -3 2570.50 314.474   9
   7  -2  -3 3175.13 252.114   7
   7  -2  -3 2676.87 374.191  23
   7  -2  -3 2965.13 409.028  22
   7  -2  -3 2406.40 366.850  21
   7  -1  -4 24512.9 1212.47  20
  -7  -1   4 25642.6 1239.06  12
  -7  -1   4 24829.4 1052.79   6
   7  -1  -4 24565.4 1215.08  19
   7  -1  -4 24865.2 1052.51   9
   7  -1  -4 25037.9 928.691   7
   7  -1  -4 26379.1 1286.40  22
   7  -1  -4 26714.9 1273.88  21
   7  -1  -3 375.973 142.837  20
  -7  -1   3 572.820 178.668  12
   7  -1  -3 604.781 187.369  19
  -7  -1   3 804.414 181.530   6
   7  -1  -3 630.915 146.239   9
   7  -1  -3 794.648 204.260  23
   7  -1  -3 747.470 215.181  22
   7  -1  -3 664.425 124.070   7
   7  -1  -3 626.366 180.507  21
   7  -1  -2 10394.3 750.147  20
  -7  -1   2 10209.9 745.482  12
  -7  -1   2 10930.5 660.164   6
   7  -1  -2 12302.2 801.351  19
   7  -1  -2 11418.5 658.364   9
   7  -1  -2 10849.4 751.094  23
   7  -1  -2 11372.3 543.016   7
   7  -1  -2 10902.9 788.684  22
   7  -1  -2 11576.9 793.255  21
   7   0  -4 271.333 141.270  20
  -7   0   4 297.051 131.378  12
  -7   0   4 464.659 127.104   6
   7   0  -4 573.719 175.103  19
   7   0  -4 250.791 93.7008   9
   7   0  -4 580.698 183.421  22
   7   0  -4 363.295 107.651   7
   7   0  -4 354.553 142.741  21
   7   0  -3 3979.26 428.340  20
  -7   0   3 3804.71 353.930   6
  -7   0   3 3012.04 403.233  12
   7   0  -3 3803.07 414.677  19
  -7   0   3 3537.80 395.146  10
  -7   0   3 3840.27 342.246  16
   7   0  -3 3640.04 334.316   9
  -7   0   3 3355.33 318.587  15
  -7   0   3 3955.56 337.684  14
   7   0  -3 4015.26 424.495  23
  -7   0   3 3994.32 337.610  13
   7   0  -3 3796.42 322.657   7
   7   0  -3 3730.41 425.828  22
   7   0  -3 3944.19 433.960  21
   7   0  -2 13671.5 834.125  20
  -7   0   2 13639.0 873.028  12
  -7   0   2 14044.3 728.956   6
   7   0  -2 13285.6 815.923  19
  -7   0   2 13729.7 811.405  10
  -7   0   2 13338.0 693.946  16
  -7   0   2 12955.8 678.354  15
   7   0  -2 14133.5 713.592   9
  -7   0   2 13417.6 681.387  14
   7   0  -2 13535.0 815.857  23
  -7   0   2 12935.0 663.442  13
   7   0  -2 14619.7 671.454   7
   7   0  -2 14223.8 868.154  22
   7   0  -2 12665.2 814.262  21
  -7   1   4 25445.9 1248.02  12
  -7   1   4 24434.1 992.325   6
  -7   1   4 23511.0 1173.25  10
  -7   1   4 25553.4 1070.94  17
  -7   1   4 24572.3 1032.86  16
  -7   1   4 23904.0 1013.32  15
  -7   1   4 22333.5 980.546  14
  -7   1   4 24023.1 1002.10  13
   7   1  -4 26579.8 1056.59   7
  -7   1   3 760.368 214.524  12
  -7   1   3 721.822 144.804   6
  -7   1   3 439.052 153.880  10
  -7   1   3 440.595 122.595  16
  -7   1   3 470.039 133.968  15
  -7   1   3 625.108 142.883  14
   7   1  -3 524.180 132.315   7
  -7   1   3 477.170 124.148  13
  -7   1   2 10638.4 768.178  12
  -7   1   2 10811.4 600.475   6
  -7   1   2 11265.9 752.749  10
  -7   1   2 10808.6 644.539  16
  -7   1   2 11063.6 646.095  15
  -7   1   2 10589.0 622.243  14
  -7   1   2 11353.1 636.586  13
   7   1  -2 12569.2 659.130   7
  -7   2   3 3053.34 289.835   6
  -7   2   3 3013.31 390.705  12
  -7   2   3 3267.19 410.157  10
  -7   2   3 3056.43 337.610  16
  -7   2   3 3354.82 353.262  15
  -7   2   3 2973.99 326.887  14
  -7   2   3 2856.02 319.036  13
   7   2  -3 3288.75 342.359   7
   0   0   0    0.00    0.00   0

TITL 2016_09_29_DT_B-GLY_D in P2(1)
REM P2(1) (#4 in standard setting)
CELL 0.71073   5.075754   6.173795   5.388233  90.0000 113.4238  90.0000
ZERR    2.00   0.000175   0.000209   0.000183   0.0000   0.0040   0.0000
LATT -1
SYMM -x, y+1/2,-z
SFAC C H N O
UNIT 4.00 10.00 2.00 4.00
TREF
HKLF 4
END
;
_shelx_hkl_checksum              87126
_olex2_date_sample_data_collection 2016-09-29
_olex2_submission_special_instructions 'No special instructions were received'
_oxdiff_exptl_absorpt_empirical_details
;
Empirical correction (ABSPACK) includes:
- Absorption correction using spherical harmonics
- Frame scaling
;
_oxdiff_exptl_absorpt_empirical_full_max 1.444
_oxdiff_exptl_absorpt_empirical_full_min 0.351
loop_
_space_group_symop_operation_xyz
'x, y, z'
'-x, y+1/2, -z'
loop_
_atom_site_label
_atom_site_type_symbol
_atom_site_fract_x
_atom_site_fract_y
_atom_site_fract_z
_atom_site_U_iso_or_equiv
_atom_site_adp_type
_atom_site_occupancy
_atom_site_site_symmetry_order
_atom_site_calc_flag
_atom_site_refinement_flags_posn
_atom_site_refinement_flags_adp
_atom_site_refinement_flags_occupancy
_atom_site_disorder_assembly
_atom_site_disorder_group
C1 C 0.6365(2) 0.5374(2) 0.5601(2) 0.0086(2) Uani 1 1 d . . . . .
C2 C 0.6131(2) 0.5500(2) 0.2684(2) 0.0096(2) Uani 1 1 d . . . . .
H2A H 0.432586 0.486161 0.148573 0.012 Uiso 1 1 calc R . . . .
H2B H 0.613217 0.700680 0.217560 0.012 Uiso 1 1 calc R . . . .
N1 N 0.8531(2) 0.4355(2) 0.2350(2) 0.0091(2) Uani 1 1 d D . . . .
H1A H 1.019(3) 0.480(3) 0.349(3) 0.011 Uiso 1 1 d DR . . . .
H1B H 0.859(4) 0.454(3) 0.076(3) 0.011 Uiso 1 1 d DR . . . .
H1C H 0.837(4) 0.298(2) 0.257(4) 0.011 Uiso 1 1 d DR . . . .
O1 O 0.8829(2) 0.50817(18) 0.74215(18) 0.0120(2) Uani 1 1 d . . . . .
O2 O 0.40959(19) 0.56505(17) 0.59711(18) 0.0108(2) Uani 1 1 d . . . . .
loop_
_atom_site_aniso_label
_atom_site_aniso_U_11
_atom_site_aniso_U_22
_atom_site_aniso_U_33
_atom_site_aniso_U_23
_atom_site_aniso_U_13
_atom_site_aniso_U_12
C1 0.0115(5) 0.0075(6) 0.0081(4) -0.0003(4) 0.0052(4) -0.0011(5)
C2 0.0096(5) 0.0125(7) 0.0073(5) 0.0007(4) 0.0040(4) 0.0023(5)
N1 0.0091(4) 0.0114(5) 0.0074(5) -0.0004(4) 0.0038(4) 0.0005(4)
O1 0.0093(4) 0.0191(6) 0.0077(4) -0.0001(3) 0.0035(3) -0.0013(3)
O2 0.0102(4) 0.0130(5) 0.0113(4) -0.0013(4) 0.0064(3) 0.0001(4)
loop_
_atom_type_symbol
_atom_type_description
_atom_type_scat_dispersion_real
_atom_type_scat_dispersion_imag
_atom_type_scat_source
C C 0.0033 0.0016 'International Tables Vol C Tables 4.2.6.8 and 6.1.1.4'
H H 0.0000 0.0000 'International Tables Vol C Tables 4.2.6.8 and 6.1.1.4'
N N 0.0061 0.0033 'International Tables Vol C Tables 4.2.6.8 and 6.1.1.4'
O O 0.0106 0.0060 'International Tables Vol C Tables 4.2.6.8 and 6.1.1.4'
loop_
_geom_angle_atom_site_label_1
_geom_angle_atom_site_label_2
_geom_angle_atom_site_label_3
_geom_angle
_geom_angle_site_symmetry_1
_geom_angle_site_symmetry_3
_geom_angle_publ_flag
O1 C1 C2 117.10(10) . . ?
O2 C1 C2 117.01(10) . . ?
O2 C1 O1 125.83(11) . . ?
C1 C2 H2A 109.3 . . ?
C1 C2 H2B 109.3 . . ?
H2A C2 H2B 108.0 . . ?
N1 C2 C1 111.65(9) . . ?
N1 C2 H2A 109.3 . . ?
N1 C2 H2B 109.3 . . ?
C2 N1 H1A 112.0(13) . . ?
C2 N1 H1B 113.9(14) . . ?
C2 N1 H1C 108.8(13) . . ?
H1A N1 H1B 104.8(19) . . ?
H1A N1 H1C 109.4(19) . . ?
H1B N1 H1C 107.7(19) . . ?
loop_
_geom_bond_atom_site_label_1
_geom_bond_atom_site_label_2
_geom_bond_distance
_geom_bond_site_symmetry_2
_geom_bond_publ_flag
C1 C2 1.5303(16) . ?
C1 O1 1.2582(15) . ?
C1 O2 1.2565(14) . ?
C2 H2A 0.9700 . ?
C2 H2B 0.9700 . ?
C2 N1 1.4801(16) . ?
N1 H1A 0.866(12) . ?
N1 H1B 0.874(12) . ?
N1 H1C 0.866(12) . ?
loop_
_geom_torsion_atom_site_label_1
_geom_torsion_atom_site_label_2
_geom_torsion_atom_site_label_3
_geom_torsion_atom_site_label_4
_geom_torsion
_geom_torsion_site_symmetry_1
_geom_torsion_site_symmetry_2
_geom_torsion_site_symmetry_3
_geom_torsion_site_symmetry_4
_geom_torsion_publ_flag
O1 C1 C2 N1 24.55(16) . . . . ?
O2 C1 C2 N1 -158.00(11) . . . . ?
