#------------------------------------------------------------------------------
#$Date: 2021-07-05 19:17:55 +0300 (Mon, 05 Jul 2021) $
#$Revision: 267021 $
#$URL: file:///home/coder/svn-repositories/cod/cif/7/12/83/7128345.cif $
#------------------------------------------------------------------------------
#
# This file is available in the Crystallography Open Database (COD),
# http://www.crystallography.net/
#
# All data on this site have been placed in the public domain by the
# contributors.
#
data_7128345
loop_
_publ_author_name
'Liang, Qiuming'
'Hayashi, Kasumi'
'Zeng, Yimin'
'Jimenez-Santiago, Jose L'
'Song, Datong'
_publ_section_title
;
 Constructing fused N-heterocycles from unprotected mesoionic
 N-heterocyclic olefins and organic azides <i>via</i> diazo transfer.
;
_journal_issue                   50
_journal_name_full
'Chemical communications (Cambridge, England)'
_journal_page_first              6137
_journal_page_last               6140
_journal_paper_doi               10.1039/d1cc02245h
_journal_volume                  57
_journal_year                    2021
_chemical_formula_sum            'C16 H10 F3 N5'
_chemical_formula_weight         329.29
_space_group_crystal_system      triclinic
_space_group_IT_number           2
_space_group_name_Hall           '-P 1'
_space_group_name_H-M_alt        'P -1'
_atom_sites_solution_hydrogens   geom
_audit_creation_method           SHELXL-2016/6
_audit_update_record
;
2021-04-08 deposited with the CCDC.	2021-05-19 downloaded from the CCDC.
;
_cell_angle_alpha                100.422(10)
_cell_angle_beta                 93.394(11)
_cell_angle_gamma                101.959(11)
_cell_formula_units_Z            2
_cell_length_a                   7.229(2)
_cell_length_b                   7.692(2)
_cell_length_c                   13.893(4)
_cell_measurement_reflns_used    25281
_cell_measurement_temperature    150(2)
_cell_measurement_theta_max      27.562
_cell_measurement_theta_min      2.997
_cell_volume                     739.5(4)
_computing_structure_refinement  'SHELXL-2016/6 (Sheldrick, 2016)'
_computing_structure_solution    'SHELXT 2018/2 (Sheldrick, 2018)'
_diffrn_ambient_temperature      150(2)
_diffrn_measured_fraction_theta_full 0.996
_diffrn_measured_fraction_theta_max 0.991
_diffrn_measurement_device_type  'Bruker Kappa Photon II'
_diffrn_measurement_method       'omega and phi scans'
_diffrn_radiation_type           MoK\a
_diffrn_radiation_wavelength     0.71073
_diffrn_reflns_av_R_equivalents  0.0471
_diffrn_reflns_av_unetI/netI     0.0350
_diffrn_reflns_Laue_measured_fraction_full 0.996
_diffrn_reflns_Laue_measured_fraction_max 0.991
_diffrn_reflns_limit_h_max       9
_diffrn_reflns_limit_h_min       -9
_diffrn_reflns_limit_k_max       9
_diffrn_reflns_limit_k_min       -9
_diffrn_reflns_limit_l_max       18
_diffrn_reflns_limit_l_min       -16
_diffrn_reflns_number            25281
_diffrn_reflns_point_group_measured_fraction_full 0.996
_diffrn_reflns_point_group_measured_fraction_max 0.991
_diffrn_reflns_theta_full        25.242
_diffrn_reflns_theta_max         27.562
_diffrn_reflns_theta_min         2.997
_exptl_absorpt_coefficient_mu    0.120
_exptl_absorpt_correction_T_max  0.7456
_exptl_absorpt_correction_T_min  0.7120
_exptl_absorpt_correction_type   multi-scan
_exptl_absorpt_process_details
;
 SADABS 2016/2: Krause, L., Herbst-Irmer, R., Sheldrick G.M. & Stalke D.,
 J. Appl. Cryst. 48 (2015) 3-10
;
_exptl_crystal_colour            'light yellow'
_exptl_crystal_density_diffrn    1.479
_exptl_crystal_description       block
_exptl_crystal_F_000             336
_exptl_crystal_size_max          0.200
_exptl_crystal_size_mid          0.100
_exptl_crystal_size_min          0.100
_refine_diff_density_max         0.293
_refine_diff_density_min         -0.165
_refine_diff_density_rms         0.044
_refine_ls_extinction_coef       0.051(10)
_refine_ls_extinction_expression Fc^*^=kFc[1+0.001xFc^2^\l^3^/sin(2\q)]^-1/4^
_refine_ls_extinction_method     'SHELXL-2016/6 (Sheldrick 2016)'
_refine_ls_goodness_of_fit_ref   0.999
_refine_ls_hydrogen_treatment    constr
_refine_ls_matrix_type           full
_refine_ls_number_parameters     219
_refine_ls_number_reflns         3376
_refine_ls_number_restraints     0
_refine_ls_restrained_S_all      0.999
_refine_ls_R_factor_all          0.0566
_refine_ls_R_factor_gt           0.0371
_refine_ls_shift/su_max          0.000
_refine_ls_shift/su_mean         0.000
_refine_ls_structure_factor_coef Fsqd
_refine_ls_weighting_details
'w=1/[\s^2^(Fo^2^)+(0.0659P)^2^] where P=(Fo^2^+2Fc^2^)/3'
_refine_ls_weighting_scheme      calc
_refine_ls_wR_factor_gt          0.0991
_refine_ls_wR_factor_ref         0.1044
_reflns_Friedel_coverage         0.000
_reflns_number_gt                2403
_reflns_number_total             3376
_reflns_threshold_expression     'I > 2\s(I)'
_cod_data_source_file            d1cc02245h2.cif
_cod_data_source_block           wl476
_cod_depositor_comments
'Adding full bibliography for 7128333--7128355.cif.'
_cod_database_code               7128345
_shelx_shelxl_version_number     2016/6
_shelx_space_group_comment
;
The symmetry employed for this shelxl refinement is uniquely defined
by the following loop, which should always be used as a source of
symmetry information in preference to the above space-group names.
They are only intended as comments.
;
_shelx_estimated_absorpt_t_min   0.976
_shelx_estimated_absorpt_t_max   0.988
_shelx_res_file
;
TITL wl476_0m_a.res in P-1
    wl476.res
    created by SHELXL-2016/6 at 14:22:16 on 31-Dec-2020
CELL 0.71073 7.2293 7.6917 13.8926 100.422 93.394 101.959
ZERR 2.00 0.0023 0.0024 0.0036 0.010 0.011 0.011
LATT 1
SFAC C H N F
UNIT 32 20 10 6
LIST 6 ! automatically inserted. Change 6 to 4 for CHECKCIF!!
TEMP -123.160
SIZE 0.100 0.100 0.200
ACTA
L.S. 8
FMAP 2
PLAN -3 0 0.00
HTAB
BOND $H
CONF
OMIT     0  -1   1
OMIT     0   1   0
OMIT     1  -1   1
WGHT    0.065900
EXTI    0.050948
FVAR       1.14494
F1    4    0.441355    0.688611    0.146454    11.00000    0.05492    0.06723 =
         0.04294    0.03342    0.00241    0.02330
N1    3    0.731618    0.252797    0.498664    11.00000    0.02481    0.01732 =
         0.02263    0.00472   -0.00101    0.00411
C1    1    1.008664    0.794096    0.762582    11.00000    0.03023    0.03494 =
         0.02788   -0.00102   -0.00265    0.00565
AFIX  43
H1    2    0.996325    0.895684    0.734726    11.00000   -1.20000
AFIX   0
F2    4    0.309946    0.376010    0.013323    11.00000    0.04101    0.10563 =
         0.02157    0.01799   -0.00415    0.02150
N2    3    0.645164    0.206267    0.407629    11.00000    0.02675    0.01936 =
         0.02466    0.00333   -0.00172    0.00402
C2    1    1.088739    0.820626    0.858207    11.00000    0.03406    0.05109 =
         0.02817   -0.00689   -0.00685    0.00498
AFIX  43
H2    2    1.131436    0.940338    0.895529    11.00000   -1.20000
AFIX   0
N3    3    0.631039    0.362428    0.380605    11.00000    0.02396    0.02066 =
         0.01903    0.00407   -0.00114    0.00588
F3    4    0.331776    0.055382    0.061737    11.00000    0.05981    0.07017 =
         0.03196   -0.01745   -0.01571    0.01142
C3    1    1.107448    0.674247    0.900298    11.00000    0.02830    0.07363 =
         0.01901    0.00227   -0.00342    0.01203
AFIX  43
H3    2    1.161299    0.693187    0.966426    11.00000   -1.20000
AFIX   0
N4    3    0.831395    0.737751    0.567547    11.00000    0.03333    0.02016 =
         0.02206    0.00288   -0.00269    0.00609
C4    1    1.047312    0.500982    0.845469    11.00000    0.03305    0.05690 =
         0.02910    0.01763    0.00145    0.01655
AFIX  43
H4    2    1.060936    0.400092    0.873670    11.00000   -1.20000
AFIX   0
C5    1    0.966599    0.473250    0.748814    11.00000    0.03031    0.03707 =
         0.02512    0.00744   -0.00039    0.00987
AFIX  43
H5    2    0.925611    0.353228    0.711671    11.00000   -1.20000
AFIX   0
N5    3    0.740876    0.688718    0.472595    11.00000    0.03427    0.01811 =
         0.02170    0.00336   -0.00240    0.00555
C6    1    0.945258    0.618323    0.706079    11.00000    0.01974    0.03160 =
         0.02008    0.00250    0.00114    0.00672
C7    1    0.854654    0.593145    0.605336    11.00000    0.02188    0.01933 =
         0.02017    0.00272    0.00108    0.00491
C12   1    0.456063    0.529883    0.171061    11.00000    0.03018    0.05347 =
         0.02877    0.02102    0.00480    0.01572
C11   1    0.537020    0.528679    0.263048    11.00000    0.02659    0.03578 =
         0.02581    0.01034    0.00266    0.00943
AFIX  43
H11   2    0.584608    0.638198    0.309586    11.00000   -1.20000
AFIX   0
C10   1    0.546721    0.362439    0.285423    11.00000    0.01947    0.03382 =
         0.02009    0.00441    0.00077    0.00742
C9    1    0.709604    0.507708    0.454851    11.00000    0.02148    0.02049 =
         0.01762    0.00321    0.00093    0.00542
C8    1    0.774319    0.436619    0.531830    11.00000    0.02097    0.01696 =
         0.02025    0.00579    0.00264    0.00558
C13   1    0.387859    0.372139    0.102662    11.00000    0.02606    0.07335 =
         0.01894    0.01155   -0.00040    0.01440
C15   1    0.478242    0.200162    0.219509    11.00000    0.02900    0.03707 =
         0.02488   -0.00021   -0.00220    0.00731
AFIX  43
H15   2    0.484947    0.087257    0.236500    11.00000   -1.20000
AFIX   0
C16   1    0.769019    0.105939    0.545334    11.00000    0.04155    0.01866 =
         0.03451    0.00952   -0.00352    0.00778
AFIX 137
H16A  2    0.727346   -0.009839    0.498709    11.00000   -1.50000
H16B  2    0.699252    0.102347    0.603573    11.00000   -1.50000
H16C  2    0.905513    0.126934    0.564984    11.00000   -1.50000
AFIX   0
C14   1    0.400137    0.209520    0.128418    11.00000    0.02918    0.05646 =
         0.02370   -0.00638   -0.00288    0.00843
HKLF 4 1 1 0 0 0 1 0 0 0 1




REM  wl476_0m_a.res in P-1
REM R1 =  0.0371 for    2403 Fo > 4sig(Fo)  and  0.0566 for all    3376 data
REM    219 parameters refined using      0 restraints

END

WGHT      0.0660      0.0000

REM Instructions for potential hydrogen bonds
HTAB C11 N5
EQIV $1 x, y-1, z
HTAB C16 N4_$1
HTAB C16 N5_$1

REM Highest difference peak  0.293,  deepest hole -0.165,  1-sigma level  0.044
Q1    1   0.7250  0.4773  0.4974  11.00000  0.05    0.29
Q2    1   0.9140  0.6101  0.6559  11.00000  0.05    0.26
Q3    1   0.8132  0.4945  0.5770  11.00000  0.05    0.26
;
_shelx_res_checksum              1167
_shelx_hkl_file
;
  -2   0   0  108.09    5.00
  -2   0   0  108.59    5.60
  -2   0   0  105.29    4.80
  -2   0   0  110.39    5.90
  -2   0   0  110.19    4.80
  -2   0   0  106.89    4.60
   2   0   0   99.89    4.60
   2   0   0  118.39    5.70
   2   0   0  113.99    5.90
   2   0   0  115.29    4.80
   2   0   0   92.09    4.90
   2   0   0  116.89    4.70
  -3   0   0  507.45   18.70
  -3   0   0  512.15   17.30
  -3   0   0  536.95   18.70
  -3   0   0  514.45   17.00
  -3   0   0  506.15   17.60
   3   0   0  514.05   17.00
   3   0   0  516.05   17.30
   3   0   0  519.35   18.70
   3   0   0  514.75   17.80
  -4   0   0   50.89    4.90
  -4   0   0   76.29    5.40
  -4   0   0   62.09    5.20
  -4   0   0   75.39    7.50
  -4   0   0   39.00    5.00
   4   0   0   54.39    6.20
   4   0   0   49.40    4.20
   4   0   0   39.40    4.00
   4   0   0   56.79    4.80
   4   0   0   42.70    7.70
   4   0   0   55.89    4.70
  -5   0   0   30.30    5.70
  -5   0   0   36.70    5.20
  -5   0   0   36.00    4.60
  -5   0   0   45.80    8.10
  -5   0   0   43.90    5.60
   5   0   0   39.60    4.70
   5   0   0   48.70    7.80
   5   0   0   34.70    5.30
   5   0   0   46.30    5.60
   5   0   0   38.90    7.10
  -6   0   0    7.40    6.40
  -6   0   0    2.00    5.30
  -6   0   0    6.10    9.10
  -6   0   0    9.30    5.00
   6   0   0    2.40    5.70
   6   0   0   -0.50    8.00
   6   0   0    3.20    4.30
   6   0   0    5.60    5.00
  -7   0   0    0.70    6.10
  -7   0   0    3.50    8.10
  -7   0   0    3.70    7.50
   7   0   0    0.30   11.00
   7   0   0    3.40    5.60
   7   0   0    1.70    6.20
  -8   0   0    3.70    8.10
  -8   0   0    6.30   10.00
  -8   0   0    3.70    8.90
   8   0   0    0.00    9.20
   8   0   0   -2.90   12.30
   8   0   0    2.10    7.60
  -9   0   0    3.80   11.80
  -9   0   0   -9.70   12.90
  -9   0   0    7.40   11.40
   9   0   0    3.90   18.60
   9  -1   0    0.50   18.50
   9  -1   0    0.90    9.80
  -9   1   0   -0.20   10.80
  -9   1   0   -1.60   13.70
  -9   1   0  -15.50   10.30
   8  -1   0  196.18   18.30
   8  -1   0  208.98   14.10
  -8   1   0  215.98   15.50
  -8   1   0  186.78   17.70
  -8   1   0  199.18   13.50
   7  -1   0   -6.80    9.50
   7  -1   0    2.40    6.80
  -7   1   0   -0.20    6.40
  -7   1   0    1.20    5.80
  -7   1   0    3.50    6.80
   6  -1   0   22.30    7.50
   6  -1   0   25.00    6.50
   6  -1   0   31.00    8.50
   6  -1   0   34.20    6.00
   6  -1   0   28.30    5.70
   6  -1   0   24.40    4.70
  -6   1   0   44.50    6.70
  -6   1   0   46.60    7.00
  -6   1   0   28.70    4.90
  -6   1   0   36.40   10.20
  -6   1   0   28.60    6.90
  -6   1   0   29.70    5.30
   5  -1   0   68.49    7.00
   5  -1   0   82.59    6.30
   5  -1   0   84.69    6.40
   5  -1   0   91.79    6.80
   5  -1   0   74.19    8.10
   5  -1   0   77.19    6.70
  -5   1   0  107.39    9.50
  -5   1   0   73.89    5.90
  -5   1   0  105.19   10.10
  -5   1   0   84.89    6.90
  -5   1   0   64.79    5.70
  -5   1   0   79.49    6.90
   4  -1   0   94.69    7.70
   4  -1   0   87.89    7.40
   4  -1   0   87.19    5.70
   4  -1   0   79.69    5.80
   4  -1   0   73.59    5.20
   4  -1   0   77.19    6.10
  -4   1   0   81.29    5.90
  -4   1   0   83.29    5.90
  -4   1   0   89.19    5.90
  -4   1   0   87.69    7.40
  -4   1   0   78.79    7.10
  -4   1   0   83.19    6.20
   3  -1   0  107.49    7.10
   3  -1   0  105.19    5.80
   3  -1   0  109.69    5.60
   3  -1   0  116.39    5.90
   3  -1   0  104.69    7.30
   3  -1   0  115.09    5.60
  -3   1   0  112.69    6.30
  -3   1   0  115.19    6.70
  -3   1   0  112.89    5.50
  -3   1   0  110.59    5.80
  -3   1   0  107.09    5.90
  -3   1   0  102.19    6.90
   2  -1   0  576.84   19.60
   2  -1   0  578.44   19.60
   2  -1   0  598.84   18.90
   2  -1   0  590.24   18.80
   2  -1   0  581.24   18.80
   2  -1   0  602.54   19.00
  -2   1   0  586.64   18.80
  -2   1   0  597.44   18.80
  -2   1   0  597.24   19.70
  -2   1   0  587.94   19.00
  -2   1   0  605.14   18.90
  -2   1   0  578.14   19.60
   1  -1   0    0.70    0.80
   1  -1   0    0.60    0.80
   1  -1   0   -0.50    1.00
   1  -1   0   -0.60    0.60
   1  -1   0   -0.20    0.90
   1  -1   0    0.20    1.10
  -1   1   0    0.50    1.10
  -1   1   0   -0.10    0.80
  -1   1   0   -0.30    1.10
  -1   1   0    0.10    0.80
  -1   1   0    0.30    0.80
  -1   1   0    1.20    1.10
   0  -1   0    0.50    0.90
   0  -1   0    0.30    0.60
   0  -1   0   -0.50    0.80
   0  -1   0   -0.10    0.80
   0  -1   0    0.50    0.60
   0  -1   0    0.20    0.50
   0   1   0    0.30    0.80
   0   1   0    0.60    0.60
   0   1   0    0.70    0.90
   0   1   0   -0.30    0.60
  -1  -1   0   57.89    3.80
  -1  -1   0   64.09    3.20
  -1  -1   0   60.89    3.50
  -1  -1   0   60.79    4.40
   1   1   0   55.99    3.10
   1   1   0   61.89    3.80
   1   1   0   64.09    4.60
   1   1   0   58.09    3.80
  -2  -1   0  561.44   18.80
  -2  -1   0  559.04   18.60
  -2  -1   0  575.04   18.60
  -2  -1   0  585.24   19.70
  -2  -1   0  569.04   19.60
   2   1   0  566.04   18.50
   2   1   0  586.84   19.60
   2   1   0  575.84   18.60
   2   1   0  586.64   19.90
   2   1   0  567.24   18.80
  -3  -1   0  216.48   10.00
  -3  -1   0  252.17    9.80
  -3  -1   0  249.48    9.80
  -3  -1   0  245.08   11.10
   3   1   0  251.57   11.30
   3   1   0  233.88    9.60
   3   1   0  236.98    8.90
   3   1   0  246.18   10.10
   3   1   0  244.58    9.70
   3   1   0  252.97   11.80
  -4  -1   0   47.90    4.70
  -4  -1   0   71.99    7.00
  -4  -1   0   64.79    5.70
  -4  -1   0   62.39    7.70
  -4  -1   0   61.59    5.30
   4   1   0   71.59    6.10
   4   1   0   57.69    5.20
   4   1   0   64.99    4.70
   4   1   0   78.29    8.10
   4   1   0   58.89    5.00
   4   1   0   57.99    6.70
  -5  -1   0   82.49    6.90
  -5  -1   0   98.79    7.60
  -5  -1   0  120.49    8.50
  -5  -1   0   70.39    7.10
  -5  -1   0   78.19   10.10
   5   1   0   85.89    6.40
   5   1   0   95.29    9.90
   5   1   0   91.79    7.20
   5   1   0  103.19    8.00
   5   1   0  111.79    8.50
  -6  -1   0    6.80    5.60
  -6  -1   0    4.90   11.40
  -6  -1   0   11.00    5.80
  -6  -1   0    5.70    5.20
   6   1   0   18.00    8.90
   6   1   0   11.20    5.00
   6   1   0   17.90    5.50
  -7  -1   0   76.19   10.20
  -7  -1   0   97.79   11.60
  -7  -1   0   99.89   10.20
   7   1   0   95.39   14.50
   7   1   0   94.19    8.90
   7   1   0   97.29    9.80
  -8  -1   0   30.20    9.50
  -8  -1   0   22.50   10.50
  -8  -1   0   36.90   12.90
   8   1   0   25.10   14.90
   8   1   0   13.80   10.80
   8   1   0   11.60    8.60
   9  -2   0    4.20   16.60
  -9   2   0    5.30    9.80
  -9   2   0    0.30   13.00
  -9   2   0    5.90   10.10
   8  -2   0  203.68   18.70
   8  -2   0  215.68   14.90
  -8   2   0  216.88   18.90
  -8   2   0  243.08   15.90
  -8   2   0  225.58   16.20
   7  -2   0   -2.30    5.50
   7  -2   0    0.30    7.10
   7  -2   0    7.20    9.60
  -7   2   0   -3.00    6.30
  -7   2   0   -3.20    5.50
  -7   2   0   12.70   23.30
  -7   2   0    5.60    6.10
  -7   2   0    0.00    5.80
   6  -2   0    5.90    7.40
   6  -2   0    4.20    5.30
   6  -2   0    0.60    5.20
   6  -2   0   -4.80    6.40
   6  -2   0    0.40    3.90
   6  -2   0    1.70    5.60
  -6   2   0   -3.70    4.50
  -6   2   0    2.80    8.30
  -6   2   0    2.00    5.20
  -6   2   0    2.40    5.80
  -6   2   0    1.10    4.60
  -6   2   0    0.10    4.70
   5  -2   0    6.10    4.10
   5  -2   0    6.00    4.10
   5  -2   0    2.10    3.30
   5  -2   0    7.50    4.60
   5  -2   0   -1.60    5.40
   5  -2   0    4.90    4.10
  -5   2   0    5.30    3.50
  -5   2   0    0.70    3.70
  -5   2   0    4.40    4.70
  -5   2   0    3.70    5.80
  -5   2   0    3.00    3.80
  -5   2   0   -2.60    3.70
   4  -2   0  137.79   10.50
   4  -2   0  133.99    7.20
   4  -2   0  122.99    8.60
   4  -2   0  131.49    6.90
   4  -2   0  131.19    7.50
   4  -2   0  116.19    7.60
  -4   2   0  128.99    7.30
  -4   2   0  130.69    9.40
  -4   2   0  123.19    7.60
  -4   2   0  138.59    7.10
  -4   2   0  122.09    7.10
  -4   2   0  121.09    8.40
   3  -2   0  765.92   25.80
   3  -2   0  749.73   25.80
   3  -2   0  772.32   24.50
   3  -2   0  746.93   26.00
   3  -2   0  742.43   24.40
   3  -2   0  790.92   24.60
  -3   2   0  769.92   25.10
  -3   2   0  720.53   24.40
  -3   2   0  705.73   25.70
  -3   2   0  787.82   25.90
  -3   2   0  764.62   24.50
  -3   2   0  747.53   24.50
   2  -2   0  357.96   11.80
   2  -2   0  335.67   12.80
   2  -2   0  350.96   11.70
   2  -2   0  327.87   12.70
   2  -2   0  335.67   11.80
   2  -2   0  331.57   12.20
  -2   2   0  340.07   12.80
  -2   2   0  338.57   12.90
  -2   2   0  352.06   12.40
  -2   2   0  347.27   11.70
  -2   2   0  346.37   11.80
  -2   2   0  345.07   11.80
   1  -2   0  151.08    6.00
   1  -2   0  152.98    6.00
   1  -2   0  150.58    6.80
   1  -2   0  167.48    6.80
   1  -2   0  147.09    6.40
  -1   2   0  151.38    6.40
  -1   2   0  153.48    6.00
  -1   2   0  166.68    6.90
  -1   2   0  164.68    7.00
  -1   2   0  149.19    5.80
   0  -2   0  374.26   12.50
   0  -2   0  373.26   13.40
   0  -2   0  390.46   12.50
   0  -2   0  375.46   13.10
   0  -2   0  388.76   12.60
   0   2   0  382.96   13.30
   0   2   0  406.66   12.60
   0   2   0  368.26   12.40
   0   2   0  375.66   12.50
   0   2   0  349.67   13.10
   0   2   0  383.46   12.50
   0   2   0  362.46   13.40
  -1  -2   0  763.72   25.10
  -1  -2   0  749.03   24.00
  -1  -2   0  775.22   24.10
  -1  -2   0  746.73   23.60
  -1  -2   0  726.03   24.90
  -1  -2   0  784.82   24.70
   1   2   0  770.02   25.00
   1   2   0  726.53   24.60
   1   2   0  760.82   24.00
   1   2   0  728.73   23.50
   1   2   0  777.82   24.00
   1   2   0  755.42   24.00
  -2  -2   0  525.05   18.00
  -2  -2   0  509.05   19.50
  -2  -2   0  554.14   18.30
  -2  -2   0  551.64   18.10
  -2  -2   0  544.95   19.50
   2   2   0  540.65   18.00
   2   2   0  559.84   19.70
   2   2   0  512.45   20.30
   2   2   0  554.14   18.10
   2   2   0  527.35   17.30
   2   2   0  524.75   19.00
  -3  -2   0   65.49    6.60
  -3  -2   0   48.20    4.60
  -3  -2   0   52.59    6.70
  -3  -2   0   37.90    4.60
  -3  -2   0   59.59    4.90
   3   2   0   39.80    5.00
   3   2   0   53.69    4.70
   3   2   0   44.80    6.70
   3   2   0   41.30    6.10
   3   2   0   51.09    3.60
   3   2   0   34.20    3.90
  -4  -2   0  543.35   24.30
  -4  -2   0  581.94   21.50
  -4  -2   0  589.04   23.10
  -4  -2   0  566.74   20.90
  -4  -2   0  606.44   20.90
   4   2   0  586.64   19.60
   4   2   0  610.24   23.10
   4   2   0  556.24   23.10
   4   2   0  623.64   21.00
   4   2   0  556.14   20.90
   4   2   0  641.64   24.00
   4   2   0  583.84   21.60
  -5  -2   0   41.50    6.80
  -5  -2   0   33.50    5.90
  -5  -2   0   49.99   14.10
  -5  -2   0   36.90    6.10
  -5  -2   0   31.00    5.10
   5   2   0   42.50    9.40
   5   2   0   48.90    5.00
   5   2   0   36.10    6.40
   5   2   0   31.30    6.90
   5   2   0   39.70    5.50
   5   2   0   49.80    9.70
   5   2   0   28.30    6.20
  -6  -2   0   24.60    7.20
  -6  -2   0   22.40    8.20
  -6  -2   0   26.00    6.30
   6   2   0   37.10   10.70
   6   2   0   20.50    6.20
   6   2   0   28.80   12.00
   6   2   0   24.30    5.70
  -7  -2   0    3.40    9.50
  -7  -2   0    7.30    6.90
  -7  -2   0   -2.00    8.20
   7   2   0    3.50    6.90
   7   2   0    4.20   14.80
   7   2   0   13.00   12.30
   7   2   0   12.00    7.40
  -8  -2   0    1.60   12.40
  -8  -2   0   -5.90   13.60
  -8  -2   0   -0.10   12.60
   8   2   0    5.30    9.90
   8   2   0   10.10   21.60
   8   2   0  -10.40    9.20
   8   2   0    4.10   15.50
   9  -3   0    2.70   20.00
   9  -3   0   -2.30    8.40
  -9   3   0    1.20    9.70
  -9   3   0    4.10   12.70
  -9   3   0    3.40   10.80
  -9   3   0   -0.20   10.00
   8  -3   0   10.70    7.00
   8  -3   0   15.00   12.90
  -8   3   0   16.60    8.90
  -8   3   0   14.10    6.90
  -8   3   0   21.30    8.60
  -8   3   0   19.30    9.90
   7  -3   0   33.70   10.50
   7  -3   0   41.40    6.90
  -7   3   0   38.00    7.70
  -7   3   0   29.10    8.10
  -7   3   0   38.60    7.50
  -7   3   0   29.50    8.50
   6  -3   0  151.58    9.90
   6  -3   0  189.08   14.00
   6  -3   0  133.89    9.80
   6  -3   0  126.19    9.80
   6  -3   0  154.68   10.50
  -6   3   0  178.28   16.60
  -6   3   0  152.58   10.90
  -6   3   0  137.89   10.00
  -6   3   0  121.59   11.30
  -6   3   0  131.39    9.80
   5  -3   0  115.89    8.70
   5  -3   0   88.19    8.70
   5  -3   0   65.99    8.70
   5  -3   0   98.69    7.30
   5  -3   0   85.09    6.90
   5  -3   0  112.79    7.70
  -5   3   0  126.39   10.70
  -5   3   0   99.39    7.80
  -5   3   0   77.89    6.40
  -5   3   0  108.59    9.50
  -5   3   0   96.49    7.30
  -5   3   0   88.19    8.10
   4  -3   0   65.69    6.40
   4  -3   0   69.49    7.30
   4  -3   0   78.19    5.70
   4  -3   0   61.39    5.10
   4  -3   0   70.39    7.10
   4  -3   0   56.99    4.70
  -4   3   0   48.50    4.60
  -4   3   0   80.29    5.90
  -4   3   0   41.80    5.00
  -4   3   0   55.19    5.60
  -4   3   0   63.69    7.40
  -4   3   0   60.19    5.20
   3  -3   0   51.79    5.20
   3  -3   0   53.39    5.30
   3  -3   0   61.89    4.50
   3  -3   0   54.29    4.30
   3  -3   0   64.29    5.40
   3  -3   0   78.29    5.50
  -3   3   0   56.59    5.40
  -3   3   0   66.19    6.50
  -3   3   0   75.39    5.20
  -3   3   0   72.29    5.40
  -3   3   0   53.69    4.40
  -3   3   0   66.19    4.90
   2  -3   0 1470.55   46.00
   2  -3   0 1449.65   44.70
   2  -3   0 1406.56   45.20
   2  -3   0 1463.25   45.60
  -2   3   0 1411.66   46.00
  -2   3   0 1442.16   44.40
  -2   3   0 1446.66   44.70
  -2   3   0 1459.45   44.80
  -2   3   0 1447.16   45.30
  -2   3   0 1404.26   46.00
   1  -3   0   62.19    4.10
   1  -3   0   67.19    5.60
   1  -3   0   66.99    5.20
   1  -3   0   63.89    4.60
   1  -3   0   57.29    5.30
   1  -3   0   57.79    4.30
  -1   3   0   53.19    4.70
  -1   3   0   72.39    5.30
  -1   3   0   65.69    4.30
  -1   3   0   66.39    4.80
   0  -3   0    7.00    2.00
   0  -3   0   11.70    3.60
   0  -3   0   10.70    3.00
   0  -3   0    5.80    2.10
   0  -3   0    8.50    3.90
   0  -3   0    5.90    2.10
   0   3   0    3.60    4.00
   0   3   0    8.10    2.10
   0   3   0    6.20    2.40
   0   3   0    9.90    2.70
   0   3   0    8.60    2.40
   0   3   0   10.20    2.20
  -1  -3   0  569.84   19.00
  -1  -3   0  578.24   19.40
  -1  -3   0  592.14   19.40
  -1  -3   0  592.94   20.60
  -1  -3   0  605.44   20.90
  -1  -3   0  578.44   19.40
  -1  -3   0  563.24   20.90
   1   3   0  549.65   19.30
   1   3   0  578.44   19.00
   1   3   0  587.24   21.10
   1   3   0  599.34   19.50
   1   3   0  557.24   20.30
  -2  -3   0   27.80    3.50
  -2  -3   0   25.80    3.80
  -2  -3   0   29.10    4.60
  -2  -3   0   46.00    7.10
  -2  -3   0   17.80    5.10
  -2  -3   0   27.20    3.60
   2   3   0   37.90    5.60
   2   3   0   30.50    5.30
   2   3   0   50.19    4.80
   2   3   0   28.70    5.70
   2   3   0   34.60    3.10
   2   3   0   41.80    4.50
   2   3   0   38.10    4.20
  -3  -3   0   33.90    5.00
  -3  -3   0   34.40    4.30
  -3  -3   0   39.00    7.50
  -3  -3   0   41.50    4.30
  -3  -3   0   43.40    4.90
   3   3   0   56.19    7.70
   3   3   0   44.60    3.70
   3   3   0   33.30    4.20
   3   3   0   37.20    4.60
   3   3   0   41.20    6.20
   3   3   0   42.50    5.00
   3   3   0   37.60    6.90
  -4  -3   0  950.40   33.10
  -4  -3   0  989.60   35.50
  -4  -3   0  974.10   36.50
  -4  -3   0  985.80   33.00
  -4  -3   0 1003.90   33.60
   4   3   0  953.00   39.90
   4   3   0 1001.40   35.20
   4   3   0  947.71   32.90
   4   3   0  976.90   33.60
   4   3   0  972.40   35.90
   4   3   0 1014.90   31.50
   4   3   0  973.30   32.90
  -5  -3   0   25.40   13.20
  -5  -3   0   30.40    6.90
  -5  -3   0   32.40    7.70
  -5  -3   0   18.70    5.70
   5   3   0   28.80    5.90
   5   3   0   26.90    4.80
   5   3   0   33.20    4.60
   5   3   0   35.40    9.80
  -6  -3   0   11.70    7.40
  -6  -3   0    5.70    5.60
  -6  -3   0   -2.80    8.20
   6   3   0    3.50    6.40
   6   3   0    5.00    4.60
   6   3   0   -2.70    5.50
   6   3   0   10.60   11.00
   6   3   0   -1.70   12.70
  -7  -3   0   -3.00    9.30
  -7  -3   0    0.40    9.40
  -7  -3   0   -0.30    7.90
   7   3   0   19.60    7.80
   7   3   0    9.30   17.90
   7   3   0   -5.00   12.40
   7   3   0   -2.90    5.90
   7   3   0    3.10    8.10
  -8  -3   0   15.50   11.70
  -8  -3   0   10.90   10.40
  -8  -3   0    5.30   11.90
   8   3   0    4.20   24.80
   8   3   0   11.80    7.90
   8   3   0    7.00   10.70
   9  -4   0    3.40    9.20
   9  -4   0   -1.90   17.10
  -9   4   0   -6.80   10.00
  -9   4   0   13.30   11.60
  -9   4   0    0.90   13.30
  -9   4   0   -2.80   11.60
   8  -4   0    6.70    7.00
   8  -4   0   16.20   13.30
  -8   4   0   12.40    8.20
  -8   4   0    8.30    8.70
  -8   4   0    9.60    9.00
  -8   4   0    1.90   10.30
   7  -4   0   66.99   12.90
   7  -4   0   44.70    7.10
  -7   4   0   51.99    8.00
  -7   4   0   32.00    8.20
  -7   4   0   42.10    8.50
  -7   4   0   36.80    8.20
   6  -4   0  231.28   14.10
   6  -4   0  243.38   12.80
   6  -4   0  277.87   17.60
  -6   4   0  248.18   20.30
  -6   4   0  245.28   13.70
  -6   4   0  246.18   13.50
  -6   4   0  247.38   14.70
  -6   4   0  249.97   15.90
   5  -4   0   22.30    4.80
   5  -4   0   15.90    5.20
   5  -4   0   17.70    5.70
   5  -4   0   22.40    7.80
   5  -4   0   17.00    5.20
   5  -4   0   23.70    7.10
  -5   4   0   24.80    8.90
  -5   4   0   32.90    6.50
  -5   4   0   10.90    4.00
  -5   4   0   16.90    4.60
  -5   4   0   15.10    5.10
  -5   4   0   19.00    5.70
   4  -4   0 1240.78   39.70
   4  -4   0 1227.98   39.80
   4  -4   0 1222.98   42.00
   4  -4   0 1225.08   39.80
   4  -4   0 1188.68   41.90
   4  -4   0 1206.28   40.90
  -4   4   0 1264.17   42.00
  -4   4   0 1229.28   40.00
  -4   4   0 1270.97   41.00
  -4   4   0 1231.08   39.70
  -4   4   0 1290.17   40.10
  -4   4   0 1210.88   42.30
   3  -4   0  421.86   17.30
   3  -4   0  423.76   16.90
   3  -4   0  449.26   16.00
   3  -4   0  427.36   17.80
   3  -4   0  442.76   15.70
  -3   4   0  436.76   16.00
  -3   4   0  426.86   17.60
  -3   4   0  406.96   18.20
  -3   4   0  419.86   15.40
  -3   4   0  443.76   15.90
  -3   4   0  425.36   16.70
   2  -4   0   -1.50    3.40
   2  -4   0   -0.30    2.30
   2  -4   0   -0.10    3.20
   2  -4   0   -1.10    4.00
   2  -4   0    2.10    2.90
   2  -4   0    1.00    4.40
  -2   4   0   -0.80    3.40
  -2   4   0    1.40    3.10
  -2   4   0    0.70    2.20
  -2   4   0    0.60    2.70
  -2   4   0    0.30    3.10
  -2   4   0    0.00    2.70
   1  -4   0  187.58    9.90
   1  -4   0  181.98    8.90
   1  -4   0  194.68    8.70
   1  -4   0  170.88    9.90
   1  -4   0  201.28    8.50
  -1   4   0  201.08    8.70
  -1   4   0  182.08    8.40
  -1   4   0  194.18   10.10
  -1   4   0  193.08   10.40
   0  -4   0   20.70    3.00
   0  -4   0   30.50    6.50
   0  -4   0   32.00    6.20
   0  -4   0   20.90    3.30
   0  -4   0   17.40    3.40
   0   4   0   28.50    4.80
   0   4   0   25.30    3.90
   0   4   0   31.10    4.00
   0   4   0   30.40    3.70
   0   4   0   30.00    5.30
   0   4   0   26.90    5.20
   0   4   0   30.10    3.90
  -1  -4   0   68.59    6.30
  -1  -4   0   72.59    5.30
  -1  -4   0   77.29    8.40
  -1  -4   0   65.09    4.90
  -1  -4   0   88.89    7.80
   1   4   0   69.19    5.20
   1   4   0   89.69    7.60
   1   4   0   71.59    5.40
   1   4   0   52.89    6.40
   1   4   0   76.19    5.70
   1   4   0   83.79    6.10
   1   4   0   72.29    6.80
  -2  -4   0    6.10    7.80
  -2  -4   0    6.00    5.90
  -2  -4   0   -2.20    3.30
  -2  -4   0    3.70    4.00
  -2  -4   0    0.90    2.80
  -2  -4   0   -0.20    3.20
   2   4   0    1.70    3.60
   2   4   0    0.90    3.20
   2   4   0   -2.10    2.50
   2   4   0   -2.60    5.60
   2   4   0   -1.20    4.00
   2   4   0   -0.30    4.90
   2   4   0    0.00    5.30
  -3  -4   0  168.98   11.90
  -3  -4   0  183.18    9.80
  -3  -4   0  144.79    9.80
  -3  -4   0  159.78   13.00
  -3  -4   0  148.99   10.20
   3   4   0  150.58   10.50
   3   4   0  144.69   10.10
   3   4   0  114.79   10.70
   3   4   0  156.38    8.00
   3   4   0  151.68    9.40
   3   4   0  151.58   12.70
   3   4   0  168.88   12.30
  -4  -4   0   -3.50   11.20
  -4  -4   0    0.30    5.80
  -4  -4   0   -2.70    5.30
  -4  -4   0    0.50    4.50
   4   4   0   -1.80    8.10
   4   4   0   -4.90    6.80
   4   4   0   -2.40    8.50
   4   4   0    5.40    4.90
   4   4   0   -4.70    6.20
   4   4   0   -0.90    3.60
  -5  -4   0    6.60    6.60
  -5  -4   0    3.10    5.90
  -5  -4   0   -0.30    7.90
   5   4   0   -4.40   11.50
   5   4   0    1.50    4.90
   5   4   0   -1.40    5.80
   5   4   0    1.40   10.10
   5   4   0    0.30    5.80
  -6  -4   0   23.50   10.70
  -6  -4   0   29.40    9.30
  -6  -4   0   23.00    8.00
   6   4   0   10.00   12.60
   6   4   0   17.20   15.30
   6   4   0   17.20    8.20
   6   4   0   16.00    5.60
   6   4   0   14.30    6.40
  -7  -4   0   19.90   15.40
  -7  -4   0   13.20   20.30
  -7  -4   0   29.80   11.10
   7   4   0   28.50   15.80
   7   4   0   32.30    8.80
   7   4   0   36.50   10.50
   7   4   0   27.20    7.30
   7   4   0    8.00   21.50
   8  -5   0   -4.50   13.60
   8  -5   0    5.80    7.90
  -8   5   0   12.70    9.30
  -8   5   0   -6.00   10.60
  -8   5   0    2.90    7.70
  -8   5   0   -1.80    9.70
   7  -5   0    4.30    6.20
   7  -5   0   13.20   10.80
  -7   5   0    7.40    7.10
  -7   5   0    1.60    8.10
  -7   5   0   15.50    8.50
  -7   5   0    3.20    6.20
   6  -5   0    7.10    7.00
   6  -5   0    3.50    9.40
  -6   5   0   19.30   12.60
  -6   5   0    6.10    5.60
  -6   5   0    1.30    6.80
  -6   5   0    6.50    7.70
  -6   5   0   13.90    5.40
   5  -5   0   42.90    5.80
   5  -5   0   58.49    6.80
   5  -5   0   52.39    7.00
   5  -5   0   58.59    8.70
  -5   5   0   48.90    7.10
  -5   5   0   54.29    6.70
  -5   5   0   56.19    6.20
  -5   5   0   60.59    8.30
   4  -5   0  599.54   24.80
   4  -5   0  689.03   24.90
   4  -5   0  602.24   23.80
   4  -5   0  592.14   21.90
  -4   5   0  585.74   24.40
  -4   5   0  596.24   25.70
  -4   5   0  607.94   21.70
  -4   5   0  611.54   22.60
  -4   5   0  622.84   22.40
  -4   5   0  619.64   23.40
   3  -5   0  584.64   24.00
   3  -5   0  571.44   22.20
   3  -5   0  617.34   23.10
   3  -5   0  571.74   23.20
   3  -5   0  549.45   20.90
   3  -5   0  601.24   20.90
  -3   5   0  595.84   23.30
  -3   5   0  573.94   21.90
  -3   5   0  599.24   20.50
  -3   5   0  566.04   21.30
  -3   5   0  579.04   24.00
  -3   5   0  615.04   21.20
   2  -5   0   30.00    4.50
   2  -5   0   33.80    5.40
   2  -5   0   28.30    5.10
   2  -5   0   43.00    7.30
   2  -5   0   25.30    6.60
   2  -5   0   25.80    3.80
  -2   5   0   38.50    5.80
  -2   5   0   18.30    4.10
  -2   5   0   43.90    5.00
  -2   5   0   19.70    3.70
  -2   5   0   42.70    5.50
  -2   5   0   35.10    6.90
   1  -5   0    6.30    4.00
   1  -5   0    2.30    3.20
   1  -5   0    4.10    4.60
   1  -5   0    3.70    6.00
   1  -5   0    2.50    4.10
  -1   5   0    0.70    4.50
  -1   5   0   -0.30    3.10
  -1   5   0   -6.20    5.50
  -1   5   0    1.80    4.10
  -1   5   0    4.30    3.50
  -1   5   0    3.10    3.90
   0  -5   0   -0.40    3.70
   0  -5   0    2.00    3.70
   0  -5   0    1.60    3.00
   0  -5   0    5.10    4.00
   0  -5   0    2.50    7.50
   0  -5   0   -4.40    5.60
   0   5   0    1.00    3.30
   0   5   0    0.10    5.80
   0   5   0    0.70    4.30
   0   5   0   -0.70    3.20
   0   5   0    2.70    4.10
   0   5   0    2.00    3.60
   0   5   0   -4.60    5.10
  -1  -5   0    6.20    3.80
  -1  -5   0    3.90    5.00
  -1  -5   0    7.90    4.40
  -1  -5   0   -1.60    6.60
  -1  -5   0    4.40    8.00
  -1  -5   0    4.80    3.70
   1   5   0    1.10    4.80
   1   5   0   11.50    3.90
   1   5   0    3.10    3.70
   1   5   0   -1.10    6.00
   1   5   0    3.60    3.40
   1   5   0    6.10    6.40
   1   5   0    9.30    4.40
  -2  -5   0   87.79    6.60
  -2  -5   0   85.19   10.50
  -2  -5   0  114.19   13.30
  -2  -5   0  113.49    8.00
  -2  -5   0   97.59    8.40
  -2  -5   0   75.29    8.20
   2   5   0  100.99   10.00
   2   5   0   99.39    6.90
   2   5   0   93.29   10.20
   2   5   0   93.39    7.90
   2   5   0   98.19    7.40
   2   5   0   88.79    7.80
  -3  -5   0   44.60    6.40
  -3  -5   0   50.69    8.80
  -3  -5   0   45.10    6.60
  -3  -5   0   63.89   13.90
   3   5   0   41.30    9.20
   3   5   0   35.90    5.10
   3   5   0   39.60   10.30
   3   5   0   42.40    8.20
   3   5   0   41.00    6.60
   3   5   0   46.70   10.10
  -4  -5   0   27.50    7.50
  -4  -5   0   31.90    6.40
  -4  -5   0   39.20    9.10
   4   5   0   24.60    5.00
   4   5   0   33.60   12.60
   4   5   0   16.90    9.80
   4   5   0   21.60    6.60
  -5  -5   0  133.39   12.20
  -5  -5   0  113.79   10.90
  -5  -5   0  120.29   14.10
   5   5   0  109.09   10.90
   5   5   0   85.79   14.20
   5   5   0  119.49   17.30
   5   5   0  107.79    8.60
   5   5   0  119.79    8.20
  -6  -5   0   58.89   11.50
  -6  -5   0   61.39   10.60
  -6  -5   0   58.39   13.10
   6   5   0   65.39    8.70
   6   5   0   44.60   20.30
   6   5   0   61.79    7.30
   6   5   0   44.80   15.40
   6   5   0   60.69   10.70
   8  -6   0    2.30   16.40
   8  -6   0   -3.00    8.70
  -8   6   0    0.40    9.50
  -8   6   0    2.70   10.50
  -8   6   0   -2.00    9.80
  -8   6   0   -3.20   12.40
   7  -6   0    4.30   12.30
   7  -6   0    1.30    7.30
  -7   6   0    2.80   10.70
  -7   6   0   -5.70    7.40
  -7   6   0    2.00    6.90
  -7   6   0    3.20    9.30
   6  -6   0   14.90   12.50
   6  -6   0    8.30    5.90
  -6   6   0    9.40    8.20
  -6   6   0   16.10    7.10
  -6   6   0    6.90    6.20
  -6   6   0    4.20    7.70
   5  -6   0    2.00   10.50
   5  -6   0    6.90    8.30
   5  -6   0    6.10    6.30
  -5   6   0    5.80    6.50
  -5   6   0    2.60    5.50
  -5   6   0    3.50    7.50
  -5   6   0    2.20    5.30
  -5   6   0    6.70   11.20
   4  -6   0   -3.70    6.90
   4  -6   0    1.10    8.60
   4  -6   0    3.60    6.60
   4  -6   0    5.70    5.10
  -4   6   0    3.60    9.70
  -4   6   0   -2.20    4.00
  -4   6   0    1.30    6.10
  -4   6   0    0.50    4.20
  -4   6   0    0.10    5.20
   3  -6   0   76.39    7.50
   3  -6   0   90.69    9.80
   3  -6   0   67.79    8.40
   3  -6   0   80.69    6.90
   3  -6   0   92.19   11.80
   3  -6   0   96.59   11.00
  -3   6   0   65.19    6.60
  -3   6   0   72.59    8.20
  -3   6   0   93.59   10.60
  -3   6   0   72.69    7.50
  -3   6   0   87.89    6.50
  -3   6   0   77.29    7.50
   2  -6   0  365.96   17.70
   2  -6   0  338.47   14.90
   2  -6   0  351.56   14.50
   2  -6   0  348.77   16.30
   2  -6   0  344.07   17.10
  -2   6   0  343.27   15.60
  -2   6   0  330.77   16.80
  -2   6   0  321.27   13.70
  -2   6   0  345.47   18.90
  -2   6   0  315.97   15.10
  -2   6   0  313.67   14.50
   1  -6   0    1.10    3.90
   1  -6   0    6.90    9.00
   1  -6   0    5.20    7.50
   1  -6   0    4.20    4.90
   1  -6   0    5.50    4.90
   1  -6   0    4.10    5.40
  -1   6   0    5.90    5.50
  -1   6   0    5.10    4.10
  -1   6   0    4.60    7.80
  -1   6   0    8.40    4.90
  -1   6   0    2.00    6.90
  -1   6   0    4.00    4.50
  -1   6   0    6.50    5.90
   0  -6   0   26.10    6.40
   0  -6   0    2.00    7.80
   0  -6   0   29.80    6.40
   0  -6   0   19.40   11.30
   0  -6   0   13.90    5.50
   0  -6   0   19.70    5.10
   0   6   0   16.50    5.90
   0   6   0   21.50    5.20
   0   6   0   26.20    5.30
   0   6   0   12.20    5.00
   0   6   0   13.20    6.70
   0   6   0   20.00    8.50
  -1  -6   0   88.49   10.30
  -1  -6   0   75.19    7.40
  -1  -6   0   91.79    7.90
  -1  -6   0   81.89   13.20
  -1  -6   0   88.19   11.10
   1   6   0   67.29    6.90
   1   6   0   78.59    8.10
   1   6   0   53.29    8.50
   1   6   0   77.79   11.10
   1   6   0   76.09    7.30
   1   6   0   77.29    9.90
  -2  -6   0   77.19    7.50
  -2  -6   0   58.09    9.20
  -2  -6   0   56.49   12.20
   2   6   0   94.69   12.40
   2   6   0   73.19    8.20
   2   6   0  100.39   11.70
   2   6   0   83.79    9.40
   2   6   0   85.29    7.40
  -3  -6   0   22.70    6.80
  -3  -6   0   18.90    8.10
   3   6   0   17.80   12.40
   3   6   0   15.30    5.70
   3   6   0   21.40    9.40
   3   6   0   26.70    7.30
  -4  -6   0   -3.70    8.00
  -4  -6   0    0.20    6.70
  -4  -6   0    0.80    9.30
   4   6   0    2.20    5.50
   4   6   0    1.20   10.30
   4   6   0   -3.80   14.20
   4   6   0   -0.90    7.60
  -5  -6   0   69.59   11.40
  -5  -6   0   82.29   11.00
  -5  -6   0   61.49   13.80
   5   6   0   80.19   19.90
   5   6   0   38.40   14.30
   5   6   0   65.59    7.80
   5   6   0   60.19   10.70
   7  -7   0    6.80    8.50
   7  -7   0    8.90   14.80
   7  -7   0   13.60   18.40
  -7   7   0    4.30   11.60
  -7   7   0    7.90    9.00
  -7   7   0   16.90   11.00
  -7   7   0   15.70   11.20
   6  -7   0   51.39    8.70
   6  -7   0   22.90   16.00
   6  -7   0   58.79   14.20
  -6   7   0   56.89   11.80
  -6   7   0   51.89   11.90
  -6   7   0   50.09    9.60
  -6   7   0   47.00   11.00
   5  -7   0   47.70   10.40
   5  -7   0   33.10    6.80
   5  -7   0   48.50   14.40
  -5   7   0   41.70    9.70
  -5   7   0   58.89    8.40
  -5   7   0   56.29   10.20
  -5   7   0   39.90    7.40
   4  -7   0   17.30   12.20
   4  -7   0   18.00    9.00
   4  -7   0   12.50    6.10
  -4   7   0   20.40    6.50
  -4   7   0   10.80    7.00
  -4   7   0   11.30    5.60
  -4   7   0   10.80    8.10
   3  -7   0  949.80   37.60
   3  -7   0  924.61   37.50
  -3   7   0  937.51   39.60
  -3   7   0 1035.70   35.60
  -3   7   0  980.80   33.10
  -3   7   0  959.40   37.30
  -3   7   0  978.70   34.10
   2  -7   0  427.56   17.60
   2  -7   0  392.76   20.90
   2  -7   0  360.96   21.40
  -2   7   0  381.46   22.30
  -2   7   0  404.96   23.60
  -2   7   0  416.46   18.80
  -2   7   0  401.76   17.60
  -2   7   0  401.96   16.70
  -2   7   0  397.26   17.60
   1  -7   0   83.89   12.40
   1  -7   0  104.39   11.50
   1  -7   0   99.19   10.20
   1  -7   0  107.09    9.80
  -1   7   0   82.59    8.70
  -1   7   0   93.19   12.50
  -1   7   0  107.49   13.80
  -1   7   0  120.19    9.40
  -1   7   0   87.89    8.50
   0  -7   0  209.78   14.50
   0  -7   0  210.38   12.80
   0  -7   0  249.97   17.40
   0  -7   0  222.68   16.40
   0   7   0  223.08   13.00
   0   7   0  226.18   14.20
   0   7   0  195.68   15.80
   0   7   0  221.88   13.50
   0   7   0  208.18   16.90
  -1  -7   0   37.10   12.80
  -1  -7   0   47.30    7.70
  -1  -7   0   44.20    9.70
  -1  -7   0   41.20    8.20
   1   7   0   35.00    9.40
   1   7   0   38.90   12.60
   1   7   0   40.30    7.60
   1   7   0   41.60    8.70
   1   7   0   47.90    7.40
  -2  -7   0    1.10    6.10
  -2  -7   0    3.10   13.70
  -2  -7   0   -2.90    8.00
  -2  -7   0    2.50    8.20
   2   7   0   -0.80    5.90
   2   7   0    0.70    6.80
   2   7   0   -7.10   13.00
   2   7   0   -1.10    9.10
  -3  -7   0    0.90    9.50
  -3  -7   0    3.20    7.60
   3   7   0    2.20    7.60
   3   7   0    5.40    7.00
   3   7   0    1.60   10.50
   3   7   0    5.70   15.20
  -4  -7   0    1.30   11.60
  -4  -7   0    2.40    8.40
   4   7   0    2.60   12.80
   4   7   0   -1.80    7.40
   4   7   0    3.20    8.50
   4   7   0   -4.00   19.50
  -7   8   0   23.60   10.70
   6  -8   0   26.60   20.20
   6  -8   0   19.20   14.60
   6  -8   0   18.40    8.90
  -6   8   0   31.80    9.00
  -6   8   0   13.30   14.20
  -6   8   0   12.10   17.90
   5  -8   0   16.70   12.80
   5  -8   0    9.00    7.20
   5  -8   0   25.50   17.80
  -5   8   0   11.30   11.20
  -5   8   0   25.30    8.70
  -5   8   0   25.40    7.80
  -5   8   0   34.30   10.70
   4  -8   0    4.10    6.90
   4  -8   0    6.70   17.20
   4  -8   0    2.20   10.80
  -4   8   0   -5.80    6.40
  -4   8   0    4.20    6.40
  -4   8   0   12.10    9.20
  -4   8   0    4.80    9.80
   3  -8   0   27.20   14.60
   3  -8   0   44.50   12.00
   3  -8   0   45.30    8.70
  -3   8   0   30.60    7.00
  -3   8   0   29.40    7.20
  -3   8   0   24.20    8.60
  -3   8   0   33.80   10.70
   2  -8   0   16.70   14.00
   2  -8   0   -2.90    9.30
   2  -8   0   10.50    6.40
  -2   8   0    0.20    5.50
  -2   8   0   -3.70    7.30
  -2   8   0    3.00    6.40
  -2   8   0    3.80    8.40
  -2   8   0    3.00    7.60
   1  -8   0  111.19   14.90
   1  -8   0   95.49   16.70
  -1   8   0   91.19   10.50
  -1   8   0  100.39   10.60
  -1   8   0   77.59    8.90
  -1   8   0   99.09   15.90
   0  -8   0   12.20   16.30
   0  -8   0   13.70    9.70
   0  -8   0   14.00    7.10
   0   8   0   12.60   11.10
   0   8   0    5.40    7.20
  -1  -8   0   42.80   12.40
  -1  -8   0   34.20    8.00
   1   8   0   34.00   16.90
   1   8   0   43.60    9.40
   1   8   0   18.60    8.10
   1   8   0   46.70   11.70
  -2  -8   0    8.50   19.20
  -2  -8   0   22.60   12.80
  -2  -8   0    8.30    8.30
   2   8   0   15.50    9.20
   2   8   0    2.60   11.70
   2   8   0    9.20    8.10
   2   8   0    9.30   18.60
  -3  -8   0   -3.90    8.80
  -3  -8   0   -8.50   12.60
   3   8   0    9.90   22.20
   3   8   0    0.70    8.90
   3   8   0    3.40    9.90
   5  -9   0   -1.20   23.40
   5  -9   0    8.40   14.30
   5  -9   0   -6.80    9.00
  -5   9   0    0.40   12.80
  -5   9   0    3.00    9.00
  -5   9   0    6.50    9.30
  -5   9   0    2.60   13.20
   4  -9   0   -5.80   19.30
   4  -9   0    9.00    9.30
   4  -9   0   16.10   13.90
  -4   9   0   14.40   22.80
  -4   9   0   16.70    8.60
  -4   9   0   11.90   10.70
  -4   9   0    1.80    8.80
   3  -9   0   -5.90    8.80
   3  -9   0    9.40   19.20
   3  -9   0   -4.20   12.40
  -3   9   0   10.40   11.80
  -3   9   0    7.80   10.00
  -3   9   0   -3.10    7.40
   2  -9   0   -6.10   11.20
   2  -9   0   -4.40    8.60
   2  -9   0  -16.20   18.50
  -2   9   0   -4.40    7.70
  -2   9   0   -0.40    7.50
  -2   9   0    0.60    9.50
  -2   9   0    3.70   10.10
   1  -9   0   24.20    8.80
   1  -9   0   17.60   10.80
   1  -9   0   21.10   22.40
  -1   9   0   17.40    8.80
  -1   9   0   33.70   19.30
  -1   9   0   23.30    9.80
   0  -9   0    0.70   11.40
   0  -9   0  -21.40   20.20
   0  -9   0   -4.20    8.80
   0   9   0   -5.60   14.10
   0   9   0    0.20    9.80
   0   9   0   10.70   20.40
   0   9   0    6.50   13.90
  -1  -9   0    1.00    9.50
  -1  -9   0    9.90   22.50
  -1  -9   0    2.50   12.80
   1   9   0    1.10   14.30
   1   9   0  -10.30   10.60
   1   9   0    8.70   10.30
   1   9   0    2.20   22.30
   1   9  -1   17.10   16.80
   1   9  -1    7.90    9.80
   1   9  -1   16.00    9.90
   1   9  -1   -1.50   21.20
  -1  -9   1   -5.00   21.60
  -1  -9   1    3.10   13.30
  -1  -9   1    1.20    9.60
   0   9  -1    8.20    9.60
   0   9  -1   20.30   19.90
   0   9  -1   13.00   13.50
   0   9  -1   26.80    9.20
   0  -9   1   19.40   20.00
   0  -9   1   26.90    9.60
   0  -9   1   12.70    9.10
  -1   9  -1    3.80    8.70
  -1   9  -1   11.80   18.40
  -1   9  -1    7.20    9.40
   1  -9   1    0.50   10.30
   1  -9   1    0.60    8.70
   1  -9   1    7.20   19.10
  -2   9  -1    6.60   10.60
  -2   9  -1   -2.50    9.50
  -2   9  -1    8.40    7.00
  -2   9  -1    3.80    8.00
   2  -9   1   -0.80    7.40
   2  -9   1   18.60   12.90
   2  -9   1    3.80   18.40
  -3   9  -1    3.80   10.00
  -3   9  -1   -2.10    7.20
  -3   9  -1    1.40   11.20
  -3   9  -1    2.10    7.30
   3  -9   1    3.80   18.70
   3  -9   1   -2.10    8.90
   3  -9   1   -0.40   11.90
  -4   9  -1   -3.70    7.70
  -4   9  -1    8.50   11.70
  -4   9  -1   12.90   12.40
   4  -9   1    9.20    8.60
   4  -9   1  -18.30   19.60
   4  -9   1    7.60   13.80
  -5   9  -1   34.50   14.70
  -5   9  -1   -0.20   12.70
  -5   9  -1    1.30    9.10
   5  -9   1    3.20   23.00
   5  -9   1   12.30   15.90
   3   8  -1   -1.50    7.90
   3   8  -1   13.60   13.90
   3   8  -1   -6.70   20.40
  -3  -8   1   -2.00    9.30
  -3  -8   1   -4.80   12.90
   2   8  -1   29.20    8.30
   2   8  -1   23.00    9.00
   2   8  -1   32.90   12.80
   2   8  -1   60.79   20.20
  -2  -8   1   37.20   12.40
  -2  -8   1   29.10   10.20
  -2  -8   1   29.80   18.40
  -2  -8   1   27.20    8.50
   1   8  -1  104.69   10.20
   1   8  -1   99.49   13.40
   1   8  -1   89.69   10.20
   1   8  -1   99.69   17.50
  -1  -8   1   74.19    9.10
  -1  -8   1   70.59   11.40
  -1  -8   1  108.79   18.60
   0   8  -1   15.90   14.70
   0   8  -1   16.50    9.10
   0   8  -1   30.50   11.10
   0   8  -1   17.60    7.70
   0   8  -1   31.60    7.90
   0  -8   1   17.90    9.10
   0  -8   1   15.50    7.30
  -1   8  -1   -5.70   15.00
  -1   8  -1    0.90    6.50
  -1   8  -1    7.00    7.60
  -1   8  -1    5.40    7.70
   1  -8   1    9.50   13.80
   1  -8   1   -0.90    7.30
   1  -8   1    1.00    6.60
  -2   8  -1   51.39    9.20
  -2   8  -1   55.29   10.60
  -2   8  -1   44.30    6.70
  -2   8  -1   44.20    8.20
   2  -8   1   35.30    6.90
   2  -8   1   56.69   14.10
   2  -8   1   34.40   10.50
  -3   8  -1   17.70    9.40
  -3   8  -1   14.60    8.20
  -3   8  -1   14.00    6.10
  -3   8  -1   16.60    6.90
   3  -8   1   24.10   14.00
   3  -8   1   10.80    9.70
   3  -8   1   14.60    7.20
  -4   8  -1   -0.80    7.00
  -4   8  -1    1.50    6.20
  -4   8  -1    8.70    9.70
  -4   8  -1    7.00    9.50
   4  -8   1    7.20    7.30
   4  -8   1    3.40   10.40
   4  -8   1    1.90   15.40
  -5   8  -1   38.40    8.10
  -5   8  -1   47.50    8.30
  -5   8  -1   45.30   12.00
  -5   8  -1   46.60   11.50
   5  -8   1   68.99   20.40
   5  -8   1   45.10   11.90
   5  -8   1   42.50    8.70
  -6   8  -1   81.09   14.70
   6  -8   1   77.99   17.00
   6  -8   1   76.99   21.70
   6  -8   1   70.59   10.80
  -7   8  -1    6.50    9.90
  -7   8  -1    1.40    9.70
  -7   8  -1    3.60   15.30
  -7   8  -1    6.10   12.80
   7  -8   1  -27.10   23.90
   7  -8   1   -1.40   10.00
   5   7  -1    3.70   10.80
   5   7  -1    5.60   17.60
   5   7  -1   17.10   24.80
  -5  -7   1    6.90   14.70
  -5  -7   1    3.50    9.90
   4   7  -1   -2.60   18.60
   4   7  -1   -7.00   13.10
   4   7  -1    6.40    8.60
   4   7  -1    0.80    6.50
  -4  -7   1    1.50   11.30
  -4  -7   1    1.80    8.90
   3   7  -1   19.60    6.70
   3   7  -1   11.30    7.40
   3   7  -1   11.20   10.80
   3   7  -1   14.00   15.50
  -3  -7   1   19.70   10.80
  -3  -7   1   19.80    8.20
   2   7  -1   52.49   10.70
   2   7  -1   43.10    7.10
   2   7  -1   55.09    8.00
   2   7  -1   43.70   14.20
  -2  -7   1   49.40    7.80
  -2  -7   1   35.00   13.50
  -2  -7   1   55.09    8.30
  -2  -7   1   63.09   11.40
   1   7  -1   58.49    8.40
   1   7  -1   44.40    9.60
   1   7  -1   54.99    7.10
   1   7  -1   52.69    7.50
  -1  -7   1   49.80   12.80
  -1  -7   1   44.70    7.50
  -1  -7   1   54.69    7.70
  -1  -7   1   52.69   10.40
   0   7  -1  165.98   15.00
   0   7  -1  141.49    9.90
   0   7  -1  150.78   10.50
   0   7  -1  146.39   14.50
   0   7  -1  126.69    9.40
   0  -7   1  183.38   14.60
   0  -7   1  144.89   10.00
   0  -7   1  129.59   14.40
   0  -7   1  129.99   10.40
  -1   7  -1  228.78   13.50
  -1   7  -1  215.08   12.50
  -1   7  -1  219.88   13.80
  -1   7  -1  201.78   15.70
   1  -7   1  207.38   16.10
   1  -7   1  213.08   14.50
   1  -7   1  229.58   15.50
  -2   7  -1   28.30    7.10
  -2   7  -1   22.20    5.40
  -2   7  -1   30.80    7.70
  -2   7  -1   28.80    6.10
  -2   7  -1   35.00    5.30
   2  -7   1   27.90    9.80
   2  -7   1   34.50    7.00
   2  -7   1   22.40    7.90
  -3   7  -1  125.39   12.50
  -3   7  -1  127.59    9.30
  -3   7  -1  157.08   11.10
   3  -7   1  149.59   13.10
   3  -7   1  148.59   14.30
   3  -7   1  159.18   11.50
  -4   7  -1   44.20    9.60
  -4   7  -1   45.40    8.70
  -4   7  -1   42.00    7.30
  -4   7  -1   56.29    6.50
   4  -7   1   40.70    9.50
   4  -7   1   40.50   12.50
   4  -7   1   42.80    6.90
  -5   7  -1  202.78   12.60
  -5   7  -1  181.28   13.80
  -5   7  -1  215.08   17.40
   5  -7   1  209.78   13.60
   5  -7   1  235.58   18.70
   5  -7   1  168.08   18.70
  -6   7  -1   45.60    8.50
  -6   7  -1   27.90    9.60
  -6   7  -1   51.19   11.20
  -6   7  -1   40.60    7.90
   6  -7   1   39.00    8.10
   6  -7   1   53.59   16.90
   6  -7   1   36.10   13.60
  -7   7  -1   -2.80    8.40
  -7   7  -1    2.20   10.30
  -7   7  -1    4.70   10.00
  -7   7  -1   -0.30   11.60
   7  -7   1    0.30    9.10
   7  -7   1    3.40   14.40
   7  -7   1  -22.80   18.40
   6   6  -1  -11.20   23.20
   6   6  -1   -6.60   23.00
   6   6  -1   -7.10   10.90
  -6  -6   1   -3.40   11.30
  -6  -6   1   -2.60   11.00
  -6  -6   1   -4.90   13.40
   5   6  -1   74.09   19.20
   5   6  -1   59.19    6.80
   5   6  -1   35.10   14.40
   5   6  -1   64.49    7.40
   5   6  -1   74.19   10.60
  -5  -6   1   36.20    8.90
  -5  -6   1   67.29   11.50
  -5  -6   1   75.99   14.00
   4   6  -1   -0.90    5.20
   4   6  -1    1.90    7.40
   4   6  -1   10.80   14.50
   4   6  -1   -4.00    9.80
  -4  -6   1    2.20    7.50
  -4  -6   1   -1.20    8.50
  -4  -6   1    5.40    7.20
   3   6  -1  162.68   14.50
   3   6  -1  167.78   10.30
   3   6  -1  167.48   11.30
   3   6  -1  131.69   15.30
  -3  -6   1  142.99   10.60
  -3  -6   1  140.09   10.10
  -3  -6   1  165.58   14.80
   2   6  -1  399.16   16.20
   2   6  -1  411.66   21.30
   2   6  -1  417.56   21.30
   2   6  -1  392.06   17.30
   2   6  -1  377.86   18.60
  -2  -6   1  387.36   16.20
  -2  -6   1  439.36   21.10
  -2  -6   1  366.46   20.80
   1   6  -1  328.47   18.10
   1   6  -1  297.97   17.80
   1   6  -1  298.57   18.90
   1   6  -1  344.67   18.30
   1   6  -1  328.37   14.80
   1   6  -1  337.17   14.30
   1   6  -1  347.47   14.90
  -1  -6   1  319.07   14.60
  -1  -6   1  313.87   17.10
  -1  -6   1  335.87   18.30
  -1  -6   1  300.47   14.20
  -1  -6   1  294.07   20.70
   0   6  -1 1694.23   56.79
   0   6  -1 1750.22   54.89
   0   6  -1 1597.24   57.19
   0   6  -1 1737.43   54.99
   0   6  -1 1710.33   54.69
   0   6  -1 1704.83   57.89
   0   6  -1 1692.03   54.09
   0  -6   1 1785.02   57.79
   0  -6   1 1748.03   54.99
   0  -6   1 1710.83   54.99
   0  -6   1 1758.12   57.29
   0  -6   1 1675.83   54.69
  -1   6  -1  329.47   18.40
  -1   6  -1  360.86   14.60
  -1   6  -1  356.46   17.30
  -1   6  -1  338.87   15.10
  -1   6  -1  363.86   15.30
  -1   6  -1  322.07   13.90
   1  -6   1  339.47   15.40
   1  -6   1  354.26   17.10
   1  -6   1  310.57   14.30
   1  -6   1  345.77   15.20
   1  -6   1  300.17   17.10
   1  -6   1  327.17   19.40
  -2   6  -1   -3.30    4.70
  -2   6  -1    3.90    7.30
  -2   6  -1   -1.50    5.10
  -2   6  -1    3.90    4.10
  -2   6  -1    0.80    3.20
  -2   6  -1   -2.20    4.70
   2  -6   1    2.50    8.20
   2  -6   1   -0.10    6.40
   2  -6   1   -4.90    4.70
   2  -6   1    1.10    4.50
   2  -6   1    3.00    7.70
   2  -6   1    3.80    4.10
  -3   6  -1    0.70    5.70
  -3   6  -1    5.40    8.20
  -3   6  -1   -1.80    5.20
  -3   6  -1    0.00    3.30
  -3   6  -1    2.20    4.30
  -3   6  -1    3.40    5.50
   3  -6   1    2.50    5.80
   3  -6   1    4.60    7.90
   3  -6   1    0.00    6.40
   3  -6   1   -3.00    4.90
   3  -6   1    3.90    4.40
   3  -6   1   -4.80    7.90
  -4   6  -1  107.19   12.80
  -4   6  -1   96.79    9.50
  -4   6  -1   84.69    9.70
  -4   6  -1  113.29    9.00
  -4   6  -1   85.69    6.80
   4  -6   1   90.79    7.60
   4  -6   1   75.69   11.50
   4  -6   1   98.99   11.20
  -5   6  -1   -0.50    4.70
  -5   6  -1    4.90    6.90
  -5   6  -1   13.40    8.00
  -5   6  -1    5.20    5.90
   5  -6   1   10.00    8.10
   5  -6   1    5.80   10.80
  -6   6  -1   16.40    6.60
  -6   6  -1   18.30    6.10
  -6   6  -1   16.20    8.40
  -6   6  -1   11.50    9.40
   6  -6   1   31.20   13.30
   6  -6   1   23.40   10.60
   6  -6   1   13.90    6.40
  -7   6  -1   -2.80    9.10
  -7   6  -1   -5.90    7.20
  -7   6  -1   -1.00    8.30
  -7   6  -1    0.20    7.50
   7  -6   1   -0.60    7.10
   7  -6   1   -1.00   12.30
  -8   6  -1    1.60    9.70
  -8   6  -1   -3.80    9.70
  -8   6  -1    8.00   19.80
  -8   6  -1    1.90   12.30
   8  -6   1    8.00   16.50
   8  -6   1    3.80    8.80
   6   5  -1    5.20    5.70
   6   5  -1    2.40    4.90
   6   5  -1   10.80   20.50
   6   5  -1    9.40   14.80
   6   5  -1    4.90    8.80
  -6  -5   1    0.50   10.90
  -6  -5   1   12.60    9.00
  -6  -5   1   18.10   10.30
   5   5  -1   24.40   14.40
   5   5  -1   30.70    5.60
   5   5  -1   26.10    7.50
   5   5  -1   34.80    5.20
   5   5  -1   28.50   12.30
  -5  -5   1   28.20    8.20
  -5  -5   1   37.80   10.30
  -5  -5   1   33.80    7.70
   4   5  -1    6.40    9.30
   4   5  -1    9.30    4.10
   4   5  -1    8.30    5.80
   4   5  -1    8.80   11.10
  -4  -5   1    2.90    6.00
  -4  -5   1    3.40    9.20
  -4  -5   1    4.40    7.10
   3   5  -1   58.69    7.70
   3   5  -1   51.19    9.30
   3   5  -1   72.79    5.60
   3   5  -1   62.49   10.50
   3   5  -1   63.49    6.90
   3   5  -1   70.99   10.80
  -3  -5   1   95.69   14.10
  -3  -5   1   58.49    6.50
  -3  -5   1   68.99    9.50
  -3  -5   1   73.29    7.60
   2   5  -1  250.47   12.80
   2   5  -1  245.28   14.80
   2   5  -1  265.77   12.10
   2   5  -1  267.27   15.70
   2   5  -1  246.88   11.00
   2   5  -1  236.68   15.10
   2   5  -1  264.67   13.00
  -2  -5   1  241.38   12.60
  -2  -5   1  237.18   10.90
  -2  -5   1  289.07   15.30
  -2  -5   1  245.48   11.80
  -2  -5   1  246.28   12.10
  -2  -5   1  240.88   14.60
  -2  -5   1  254.17   18.50
   1   5  -1    0.40    3.80
   1   5  -1    0.00    5.10
   1   5  -1    6.20    6.30
   1   5  -1    3.10    3.60
   1   5  -1    2.30    4.20
   1   5  -1    8.40    4.00
   1   5  -1    4.40    4.80
  -1  -5   1    3.40    4.10
  -1  -5   1    2.80    4.00
  -1  -5   1   11.60    8.00
  -1  -5   1    6.10    6.70
  -1  -5   1    4.20    3.20
  -1  -5   1    1.60    3.30
   0   5  -1   74.59    5.80
   0   5  -1   52.39    4.80
   0   5  -1   59.99    5.10
   0   5  -1   57.49    6.90
   0   5  -1   62.19    7.50
   0   5  -1   72.29    6.20
   0   5  -1   34.30    5.30
   0  -5   1   50.69    5.10
   0  -5   1   58.19    5.70
   0  -5   1   54.19    8.30
   0  -5   1   73.69    5.90
   0  -5   1   59.69    7.70
   0  -5   1   47.10    5.80
  -1   5  -1  103.09    6.40
  -1   5  -1  107.99    9.30
  -1   5  -1  100.19    7.50
  -1   5  -1  109.09    8.90
  -1   5  -1   81.69    6.30
  -1   5  -1   71.29    7.40
  -1   5  -1   90.09    6.50
   1  -5   1  104.99    7.70
   1  -5   1  111.59    9.00
   1  -5   1   95.49    8.20
   1  -5   1  106.29    7.10
   1  -5   1   96.29    6.80
  -2   5  -1 1215.78   37.90
  -2   5  -1 1208.68   38.50
  -2   5  -1 1193.78   40.20
  -2   5  -1 1200.38   36.90
  -2   5  -1 1208.58   39.90
  -2   5  -1 1159.78   37.80
   2  -5   1 1113.39   38.20
   2  -5   1 1138.29   37.60
   2  -5   1 1040.50   39.40
   2  -5   1 1198.58   39.50
   2  -5   1 1169.78   39.90
   2  -5   1 1102.69   37.60
  -3   5  -1   16.20    6.40
  -3   5  -1   12.60    3.70
  -3   5  -1    5.80    4.60
  -3   5  -1   12.50    4.40
  -3   5  -1   11.40    4.80
  -3   5  -1    6.30    3.20
   3  -5   1   17.40    6.50
   3  -5   1   14.10    5.10
   3  -5   1    7.20    6.50
   3  -5   1   13.10    3.90
   3  -5   1   18.50    5.40
   3  -5   1   12.50    3.90
  -4   5  -1  148.29   10.90
  -4   5  -1  113.49    8.60
  -4   5  -1  134.09   10.90
  -4   5  -1  145.79    9.20
  -4   5  -1  150.88    8.40
  -4   5  -1  188.28   14.00
   4  -5   1  157.08   10.10
   4  -5   1  146.39   12.00
   4  -5   1  115.49    9.30
   4  -5   1  154.88    9.10
   4  -5   1  116.89   11.00
  -5   5  -1   45.40    7.30
  -5   5  -1   25.10    6.90
  -5   5  -1   29.40    5.40
  -5   5  -1   35.30    5.30
  -5   5  -1   47.20   11.40
   5  -5   1   46.20    8.60
   5  -5   1   38.90    7.40
   5  -5   1   37.30    6.00
   5  -5   1   30.00    5.50
  -6   5  -1   -0.60    4.80
  -6   5  -1    6.00    7.10
  -6   5  -1    1.50    7.90
  -6   5  -1   -0.40    5.40
   6  -5   1    3.00    5.60
   6  -5   1    1.20    6.40
   6  -5   1    3.50    8.60
  -7   5  -1    1.80    7.40
  -7   5  -1    2.80    6.00
  -7   5  -1   -1.90    8.30
   7  -5   1    3.00   10.50
   7  -5   1   -0.60    6.10
  -8   5  -1    7.70   11.20
  -8   5  -1   16.00    8.80
  -8   5  -1   11.40    7.80
  -8   5  -1    7.50   10.60
   8  -5   1   17.10    8.50
   8  -5   1   16.90   14.70
   7   4  -1   42.50   16.50
   7   4  -1   59.79   20.80
   7   4  -1   58.39    7.20
   7   4  -1   70.99   11.60
   7   4  -1   57.99    6.30
  -7  -4   1   69.79   15.20
  -7  -4   1   49.00   13.30
  -7  -4   1   54.69   17.10
   6   4  -1   -4.70    6.80
   6   4  -1    3.30    4.90
   6   4  -1    0.70   11.50
   6   4  -1    2.50   16.30
   6   4  -1    2.40    4.40
  -6  -4   1    1.00    9.20
  -6  -4   1   -0.70    8.10
  -6  -4   1    5.60    7.80
   5   4  -1   59.39    5.20
   5   4  -1   56.59    5.40
   5   4  -1   68.49   12.30
   5   4  -1   55.59   12.70
   5   4  -1   60.49    8.10
  -5  -4   1   53.59    9.20
  -5  -4   1   56.29    7.40
  -5  -4   1   51.29    7.60
   4   4  -1  169.48   11.60
   4   4  -1  194.08   13.10
   4   4  -1  123.29   11.70
   4   4  -1  175.38   10.90
   4   4  -1  184.38    8.30
   4   4  -1  175.48   14.00
  -4  -4   1  157.38   15.30
  -4  -4   1  188.88   11.10
  -4  -4   1  172.98   13.40
  -4  -4   1  195.68   11.80
   3   4  -1   28.50    7.60
   3   4  -1   42.10    7.20
   3   4  -1   41.70    5.10
   3   4  -1   42.70    5.90
   3   4  -1   28.30    7.40
   3   4  -1   47.20    8.40
   3   4  -1   42.40    3.90
  -3  -4   1   37.00    5.00
  -3  -4   1   39.80    9.80
  -3  -4   1   44.70    5.80
  -3  -4   1   44.80    6.80
  -3  -4   1   41.30    6.20
   2   4  -1   11.10    3.60
   2   4  -1    8.80    5.50
   2   4  -1    8.60    4.00
   2   4  -1    0.50    5.50
   2   4  -1    9.80    2.70
   2   4  -1   16.50    4.20
   2   4  -1    9.20    3.90
  -2  -4   1   13.90    6.30
  -2  -4   1    8.00    3.00
  -2  -4   1    6.20    3.60
  -2  -4   1    9.90    2.80
  -2  -4   1   11.30    4.60
  -2  -4   1   11.10    3.50
  -2  -4   1   23.90    8.70
   1   4  -1  122.59    6.90
   1   4  -1  129.19    7.00
   1   4  -1  112.89    8.40
   1   4  -1  126.89    9.10
   1   4  -1  128.19    6.50
   1   4  -1  124.89    7.20
   1   4  -1  109.99    8.60
  -1  -4   1  111.69    8.30
  -1  -4   1  110.59    7.20
  -1  -4   1  115.79    6.40
  -1  -4   1  142.89    9.20
  -1  -4   1  125.29    7.00
  -1  -4   1  148.09   10.50
   0   4  -1  401.66   16.80
   0   4  -1  457.65   17.40
   0   4  -1  438.06   17.30
   0   4  -1  445.86   15.20
   0   4  -1  428.36   15.60
   0   4  -1  441.66   15.60
   0   4  -1  443.06   15.60
   0  -4   1  433.06   17.20
   0  -4   1  426.26   15.60
   0  -4   1  439.96   15.70
   0  -4   1  426.96   15.50
   0  -4   1  444.26   17.00
  -1   4  -1   16.90    3.20
  -1   4  -1   12.90    4.00
  -1   4  -1    8.90    2.90
  -1   4  -1   11.00    2.90
  -1   4  -1    5.60    4.30
   1  -4   1    7.70    3.50
   1  -4   1   19.90    3.50
   1  -4   1   10.10    2.70
   1  -4   1    6.10    3.20
   1  -4   1    4.30    4.50
  -2   4  -1  632.04   20.80
  -2   4  -1  591.74   20.00
  -2   4  -1  589.54   20.80
  -2   4  -1  591.84   22.40
  -2   4  -1  625.24   21.50
  -2   4  -1  584.34   22.50
   2  -4   1  588.34   20.70
   2  -4   1  627.34   20.80
   2  -4   1  632.84   21.50
   2  -4   1  618.44   22.70
   2  -4   1  626.14   22.50
   2  -4   1  633.44   22.20
  -3   4  -1  106.49    7.10
  -3   4  -1  116.29   10.10
  -3   4  -1  105.79    6.70
  -3   4  -1   94.19    8.10
  -3   4  -1  108.69    7.60
  -3   4  -1   90.49    5.90
   3  -4   1   98.99    7.80
   3  -4   1  105.89    7.00
   3  -4   1  114.69    8.90
   3  -4   1  131.99    9.00
   3  -4   1  110.59    6.70
  -4   4  -1  333.97   14.20
  -4   4  -1  287.97   13.10
  -4   4  -1  316.47   16.10
  -4   4  -1  326.07   12.50
  -4   4  -1  314.47   13.00
  -4   4  -1  295.97   14.80
   4  -4   1  303.27   13.20
   4  -4   1  327.67   13.00
   4  -4   1  320.87   15.50
   4  -4   1  304.67   14.50
   4  -4   1  304.57   15.40
   4  -4   1  315.47   12.60
  -5   4  -1    1.80    4.50
  -5   4  -1    2.10    7.70
  -5   4  -1    1.00    3.80
  -5   4  -1    6.60    3.80
  -5   4  -1    7.30    5.00
  -5   4  -1    9.20    5.50
   5  -4   1    4.30    4.40
   5  -4   1    2.10    6.10
   5  -4   1    1.50    6.60
   5  -4   1    6.60    6.10
   5  -4   1    6.90    4.30
   5  -4   1   11.60    5.50
  -6   4  -1    1.40    5.90
  -6   4  -1   -2.10    5.20
  -6   4  -1    4.20    5.30
  -6   4  -1    1.20   10.30
   6  -4   1   -1.40    5.00
   6  -4   1    1.10    5.70
   6  -4   1    2.30    7.80
  -7   4  -1   12.50    5.90
  -7   4  -1   12.30    7.20
  -7   4  -1   21.50    8.80
  -7   4  -1   10.50    7.80
   7  -4   1   11.30   11.10
   7  -4   1   14.70    6.20
  -8   4  -1    8.60    8.90
  -8   4  -1    0.10   10.30
  -8   4  -1   19.00    9.10
  -8   4  -1   10.00    7.90
   8  -4   1   17.50   14.00
   8  -4   1    8.90    7.10
  -9   4  -1   15.30   14.70
  -9   4  -1    9.70   11.40
  -9   4  -1   15.00    9.40
  -9   4  -1    7.80   11.10
   9  -4   1   12.10   17.40
   8   3  -1    6.80   16.60
  -8  -3   1    7.00   10.70
  -8  -3   1    0.90   11.20
  -8  -3   1    5.90    9.60
   7   3  -1    0.60   12.50
   7   3  -1   -2.60   16.80
   7   3  -1   -0.30    6.00
   7   3  -1    0.60    5.10
   7   3  -1   -0.50    8.40
  -7  -3   1    2.40    9.20
  -7  -3   1   -0.90    7.90
  -7  -3   1    6.90    7.70
   6   3  -1    4.30    4.00
   6   3  -1    6.20    5.40
   6   3  -1   13.80   13.20
   6   3  -1    4.50    4.80
  -6  -3   1    4.50    8.40
  -6  -3   1    1.20    6.90
  -6  -3   1    7.00    5.80
   5   3  -1   32.60    4.20
   5   3  -1   29.80    9.60
   5   3  -1   28.10    4.00
   5   3  -1   25.60    9.70
   5   3  -1   30.90    5.60
  -5  -3   1   20.70   12.40
  -5  -3   1   22.50    5.80
  -5  -3   1   30.60    5.60
  -5  -3   1   21.70    5.90
   4   3  -1    0.30    6.10
   4   3  -1   -1.40    3.40
   4   3  -1   -1.30    2.50
   4   3  -1   -4.60    7.00
   4   3  -1   -0.50    2.60
   4   3  -1    2.30    5.10
   4   3  -1    5.00    6.70
   4   3  -1   -0.60    7.10
  -4  -3   1    1.90    4.70
  -4  -3   1    5.50    4.30
  -4  -3   1   -1.70    3.70
  -4  -3   1   -1.50    4.40
  -4  -3   1   -4.40    8.20
   3   3  -1  336.37   13.60
   3   3  -1  310.67   13.00
   3   3  -1  321.67   15.30
   3   3  -1  329.57   13.10
   3   3  -1  321.37   11.40
   3   3  -1  294.17   15.60
   3   3  -1  341.37   15.20
  -3  -3   1  343.87   13.10
  -3  -3   1  340.67   16.40
  -3  -3   1  312.97   13.20
  -3  -3   1  308.47   14.80
  -3  -3   1  338.47   13.50
   2   3  -1   78.29    6.50
   2   3  -1   72.89    5.20
   2   3  -1   65.09    4.80
   2   3  -1   81.79    5.90
   2   3  -1   80.79    7.00
   2   3  -1   70.59    4.20
   2   3  -1   74.89    7.40
  -2  -3   1   70.99    5.10
  -2  -3   1   69.49    6.50
  -2  -3   1   72.29    5.10
  -2  -3   1   75.19    5.40
  -2  -3   1   83.69    8.00
  -2  -3   1   67.29    6.80
   1   3  -1 1028.00   32.20
   1   3  -1 1014.70   33.10
   1   3  -1 1002.40   32.10
   1   3  -1  998.00   33.50
   1   3  -1 1035.20   31.60
   1   3  -1 1006.60   33.60
   1   3  -1 1010.00   31.90
  -1  -3   1 1032.00   32.20
  -1  -3   1  995.50   33.20
  -1  -3   1 1061.59   32.10
  -1  -3   1  964.60   33.50
  -1  -3   1 1000.20   33.50
  -1  -3   1 1014.40   31.60
  -1  -3   1 1009.50   32.20
   0   3  -1   49.10    3.50
   0   3  -1   56.59    5.10
   0   3  -1   48.70    4.80
   0   3  -1   43.40    3.40
   0   3  -1   55.89    4.00
   0   3  -1   57.49    5.00
   0   3  -1   57.09    4.00
   0  -3   1   37.00    3.30
   0  -3   1   57.99    5.10
   0  -3   1   41.60    3.30
   0  -3   1   55.09    5.00
   0  -3   1   42.60    3.50
  -1   3  -1   65.89    4.20
  -1   3  -1   67.59    4.60
  -1   3  -1   61.39    4.30
  -1   3  -1   66.39    5.60
  -1   3  -1   59.89    5.00
   1  -3   1   41.20    3.30
   1  -3   1   66.09    5.20
   1  -3   1   68.29    5.40
   1  -3   1   64.59    5.50
   1  -3   1   67.79    4.70
  -2   3  -1  796.72   25.70
  -2   3  -1  794.12   27.00
  -2   3  -1  824.72   26.30
  -2   3  -1  784.62   27.10
  -2   3  -1  802.42   25.80
  -2   3  -1  807.92   25.10
   2  -3   1  774.82   25.60
   2  -3   1  803.82   25.70
   2  -3   1  861.81   26.90
   2  -3   1  761.62   26.10
   2  -3   1  776.82   27.00
  -3   3  -1   -2.90    2.50
  -3   3  -1   -0.50    2.20
  -3   3  -1    0.60    2.00
  -3   3  -1    0.60    2.90
  -3   3  -1    6.50    3.70
  -3   3  -1   -1.70    3.20
   3  -3   1   -1.10    2.10
   3  -3   1   -2.00    2.80
   3  -3   1   -1.60    2.30
   3  -3   1   -0.80    2.10
   3  -3   1   -2.00    3.30
   3  -3   1    1.30    3.10
  -4   3  -1  574.24   20.50
  -4   3  -1  573.74   22.40
  -4   3  -1  592.94   22.80
  -4   3  -1  598.94   20.70
  -4   3  -1  603.64   20.40
  -4   3  -1  602.84   21.40
   4  -3   1  562.74   20.60
   4  -3   1  630.14   20.70
   4  -3   1  602.04   22.80
   4  -3   1  580.34   22.60
   4  -3   1  581.74   20.30
   4  -3   1  571.04   21.30
  -5   3  -1  169.38    9.30
  -5   3  -1  149.99   10.10
  -5   3  -1  162.38   11.10
  -5   3  -1  143.39    8.80
  -5   3  -1  159.38   13.50
   5  -3   1  160.78   12.90
   5  -3   1  154.68    9.60
   5  -3   1  135.49   10.50
   5  -3   1  153.38    9.00
   5  -3   1  135.19   11.80
   5  -3   1  148.09    9.60
  -6   3  -1   15.40    5.60
  -6   3  -1   18.80    5.40
  -6   3  -1   19.40   10.40
  -6   3  -1   22.80    5.90
  -6   3  -1   15.60    4.70
   6  -3   1   16.70    6.70
   6  -3   1   17.80    4.80
   6  -3   1   15.90    6.20
   6  -3   1   26.30    8.50
   6  -3   1   16.80    6.30
  -7   3  -1   -1.90    7.20
  -7   3  -1   10.50    7.80
  -7   3  -1   -0.10    5.10
  -7   3  -1    6.20    7.60
   7  -3   1    2.40    5.60
   7  -3   1    7.00    9.60
  -8   3  -1  110.79   11.30
  -8   3  -1  110.59   10.20
  -8   3  -1   97.09   11.30
  -8   3  -1  142.89   12.40
   8  -3   1  135.89   16.80
   8  -3   1  109.09   10.40
  -9   3  -1    0.10   11.00
  -9   3  -1   -1.60   12.10
  -9   3  -1   -5.90   10.10
   9  -3   1  -11.00   19.50
   9  -3   1    7.40    9.10
   8   2  -1    0.80    8.20
   8   2  -1    2.90   15.90
   8   2  -1    3.60   20.40
   8   2  -1    5.80    9.00
  -8  -2   1   -3.00   12.00
   7   2  -1   -2.60    5.80
   7   2  -1    3.40   12.20
   7   2  -1   -3.80   14.90
   7   2  -1   -0.80    6.50
  -7  -2   1    2.80    7.20
  -7  -2   1    2.00    7.60
  -7  -2   1   -0.90    8.60
   6   2  -1  224.18   17.10
   6   2  -1  219.48   12.80
   6   2  -1  204.08   18.20
   6   2  -1  226.38   11.00
  -6  -2   1  279.87   23.40
  -6  -2   1  222.98   14.40
  -6  -2   1  215.48   15.50
  -6  -2   1  213.28   13.40
   5   2  -1   49.80    6.50
   5   2  -1   40.10    8.00
   5   2  -1   59.69    7.50
   5   2  -1   68.79   10.00
   5   2  -1   36.70    5.30
   5   2  -1   60.29    4.80
   5   2  -1   33.70   13.80
  -5  -2   1   54.99    6.80
  -5  -2   1   66.29    6.80
  -5  -2   1   50.09    7.10
  -5  -2   1   61.99    7.00
  -5  -2   1   64.29   11.30
   4   2  -1  720.93   27.10
   4   2  -1  709.03   24.40
   4   2  -1  739.43   26.60
   4   2  -1  712.53   26.70
   4   2  -1  707.93   22.90
   4   2  -1  721.13   25.20
   4   2  -1  711.63   24.40
  -4  -2   1  722.93   24.70
  -4  -2   1  714.43   24.60
  -4  -2   1  720.03   26.60
  -4  -2   1  717.43   25.00
  -4  -2   1  678.63   27.20
   3   2  -1   54.09    4.60
   3   2  -1   38.90    4.70
   3   2  -1   59.79    6.50
   3   2  -1   66.19    7.70
   3   2  -1   59.69    4.50
   3   2  -1   60.59    3.60
   3   2  -1   45.70    4.00
   3   2  -1   55.09    3.50
  -3  -2   1   71.29    7.20
  -3  -2   1   65.49    5.00
  -3  -2   1   51.09    4.00
  -3  -2   1   35.50    4.70
   2   2  -1   47.20    5.00
   2   2  -1   48.10    2.90
   2   2  -1   53.89    4.10
   2   2  -1   57.49    4.10
   2   2  -1   47.20    5.40
   2   2  -1   52.69    3.90
  -2  -2   1   61.49    5.40
  -2  -2   1   52.79    3.90
  -2  -2   1   47.00    5.50
  -2  -2   1   53.19    4.20
   1   2  -1  327.47   10.80
   1   2  -1  308.67   11.70
   1   2  -1  315.67   10.20
   1   2  -1  324.87   12.30
   1   2  -1  312.47   10.80
   1   2  -1  305.97   10.80
   1   2  -1  294.77   11.60
  -1  -2   1  303.67   10.80
  -1  -2   1  308.87   10.80
  -1  -2   1  304.97   10.20
  -1  -2   1  301.57   10.80
  -1  -2   1  313.97   12.00
  -1  -2   1  332.47   12.00
  -1  -2   1  313.67   11.60
   0   2  -1  566.54   17.10
   0   2  -1  506.55   17.80
   0   2  -1  546.15   17.00
   0   2  -1  532.35   17.00
   0   2  -1  529.35   17.70
   0   2  -1  537.05   17.90
   0  -2   1  532.35   17.10
   0  -2   1  536.05   17.90
   0  -2   1  551.44   18.00
   0  -2   1  512.65   16.90
   0  -2   1  500.85   17.60
   0  -2   1  539.05   17.10
  -1   2  -1   11.00    1.30
  -1   2  -1    6.50    1.50
  -1   2  -1    8.90    2.20
  -1   2  -1   10.20    2.30
  -1   2  -1    6.50    1.40
   1  -2   1    8.30    2.00
   1  -2   1    5.40    1.60
   1  -2   1    7.30    1.70
   1  -2   1    7.50    1.60
   1  -2   1    6.10    2.40
  -2   2  -1   34.30    2.50
  -2   2  -1   27.70    3.00
  -2   2  -1   36.30    3.80
  -2   2  -1   22.50    2.90
  -2   2  -1   32.80    2.90
   2  -2   1   28.80    2.70
   2  -2   1   32.20    2.40
   2  -2   1   39.60    4.10
   2  -2   1   24.10    2.40
   2  -2   1   28.60    3.40
   2  -2   1   28.20    3.10
  -3   2  -1  370.16   13.30
  -3   2  -1  357.96   13.10
  -3   2  -1  386.96   14.80
  -3   2  -1  360.36   15.10
  -3   2  -1  390.36   13.90
  -3   2  -1  368.46   13.30
   3  -2   1  370.06   14.80
   3  -2   1  372.86   13.30
   3  -2   1  378.36   14.70
   3  -2   1  372.36   13.10
   3  -2   1  371.16   13.30
   3  -2   1  372.16   13.90
  -4   2  -1   87.49    6.30
  -4   2  -1   91.49    6.00
  -4   2  -1   97.99    7.60
  -4   2  -1   94.79    7.00
  -4   2  -1   89.69    6.60
  -4   2  -1   98.89    8.70
   4  -2   1   88.19    6.50
   4  -2   1  101.29    6.30
   4  -2   1   95.99    6.60
   4  -2   1   97.19    7.10
   4  -2   1   96.49    8.00
   4  -2   1  105.19    8.10
  -5   2  -1   52.89    6.90
  -5   2  -1   86.89    9.30
  -5   2  -1   59.49    5.60
  -5   2  -1   74.39    6.70
  -5   2  -1   54.09    5.40
  -5   2  -1   56.99    5.20
   5  -2   1   76.29    6.50
   5  -2   1   78.89    8.80
   5  -2   1   70.59    6.10
   5  -2   1   53.89    5.90
   5  -2   1   74.19    8.60
   5  -2   1   69.59    6.40
  -6   2  -1    6.30    9.10
  -6   2  -1   -2.60    4.70
  -6   2  -1    2.50    4.80
  -6   2  -1    1.30    4.20
  -6   2  -1   -1.00    5.10
   6  -2   1   -4.20    5.40
   6  -2   1    0.40    6.80
   6  -2   1    2.50    7.20
   6  -2   1    4.40    4.60
   6  -2   1    5.80    5.70
   6  -2   1   -3.40    5.60
  -7   2  -1    4.20    5.90
  -7   2  -1    4.20    5.20
  -7   2  -1    2.60    7.60
  -7   2  -1   -0.80    6.30
   7  -2   1   -2.60    9.30
   7  -2   1    7.00    8.00
   7  -2   1    8.80    5.70
  -8   2  -1    6.80    7.60
  -8   2  -1    8.50   10.60
  -8   2  -1    0.80    8.00
   8  -2   1    2.60   12.30
   8  -2   1    2.80    6.70
  -9   2  -1   -4.70   10.00
  -9   2  -1   -1.00   10.00
  -9   2  -1   -1.70   10.90
   9  -2   1   -0.20   16.50
   8   1  -1    0.80   13.80
   8   1  -1    3.80    8.50
   8   1  -1   -1.20    7.90
  -8  -1   1    2.60    9.00
  -8  -1   1    7.60    9.60
  -8  -1   1    1.00   10.00
   7   1  -1   -1.30    5.90
   7   1  -1    4.20    6.10
   7   1  -1   -0.90   11.00
  -7  -1   1   -8.30    7.10
  -7  -1   1   -0.90    7.80
  -7  -1   1   -1.10    6.40
   6   1  -1   33.30    6.80
   6   1  -1   32.80    6.20
   6   1  -1   56.09    9.70
   6   1  -1   33.30    5.40
  -6  -1   1   28.70    7.30
  -6  -1   1   35.60    6.30
  -6  -1   1   28.40   10.90
  -6  -1   1   33.40    6.60
   5   1  -1    7.30    3.30
   5   1  -1    5.60    5.80
   5   1  -1    4.20    4.00
   5   1  -1    7.50    7.90
   5   1  -1    4.70    6.90
   5   1  -1    9.80    4.10
  -5  -1   1   10.20    4.40
  -5  -1   1    6.80    3.90
  -5  -1   1   -0.30    8.20
  -5  -1   1    8.50    4.30
   4   1  -1  657.63   22.00
   4   1  -1  646.84   21.10
   4   1  -1  644.84   24.10
   4   1  -1  645.04   22.70
   4   1  -1  669.33   24.60
   4   1  -1  655.23   22.10
  -4  -1   1  665.93   22.80
  -4  -1   1  659.73   22.30
  -4  -1   1  648.54   24.10
  -4  -1   1  608.64   24.10
  -4  -1   1  636.64   22.30
   3   1  -1  208.68    9.10
   3   1  -1  221.68    8.60
   3   1  -1  209.98   10.80
   3   1  -1  220.78    8.60
   3   1  -1  204.28    7.60
   3   1  -1  203.08   10.10
  -3  -1   1  204.98    9.90
  -3  -1   1  204.08    8.50
  -3  -1   1  203.38    8.70
  -3  -1   1  207.78    9.10
   2   1  -1 1196.38   37.80
   2   1  -1 1190.08   36.70
   2   1  -1 1190.08   35.90
   2   1  -1 1179.48   37.70
   2   1  -1 1174.88   36.70
   2   1  -1 1216.78   37.00
  -2  -1   1 1189.28   36.80
  -2  -1   1 1141.39   37.60
  -2  -1   1 1207.28   36.80
  -2  -1   1 1209.88   37.80
  -2  -1   1 1182.18   37.00
   1   1  -1   50.99    3.30
   0   1  -1   -0.10    0.60
   0   1  -1    0.50    0.80
   0   1  -1   -0.30    0.30
   0   1  -1   -0.50    0.50
   0   1  -1    0.60    0.70
   0   1  -1   -0.40    0.50
   0  -1   1    0.00    0.60
   0  -1   1    0.60    0.90
   0  -1   1    0.90    0.90
   0  -1   1   -0.50    0.50
  -1   1  -1  375.76   12.60
  -2   1  -1 1571.24   47.00
  -2   1  -1 1542.45   46.70
  -2   1  -1 1527.55   46.70
  -2   1  -1 1478.15   46.70
  -2   1  -1 1474.85   47.50
  -2   1  -1 1524.65   47.60
   2  -1   1 1602.14   46.80
   2  -1   1 1501.05   47.50
   2  -1   1 1581.34   46.80
   2  -1   1 1515.95   46.60
   2  -1   1 1505.75   46.90
  -3   1  -1   19.30    2.60
  -3   1  -1   21.90    3.70
  -3   1  -1   21.50    3.20
  -3   1  -1   16.80    2.50
  -3   1  -1   27.90    3.30
  -3   1  -1   18.90    3.30
   3  -1   1   22.40    3.70
   3  -1   1   25.70    3.50
   3  -1   1   23.90    3.00
   3  -1   1   23.10    4.00
   3  -1   1   26.10    3.40
   3  -1   1   25.10    2.90
  -4   1  -1    4.30    3.00
  -4   1  -1    7.70    2.90
  -4   1  -1   11.90    3.20
  -4   1  -1    8.10    4.60
  -4   1  -1    7.10    3.70
  -4   1  -1    3.30    2.40
   4  -1   1   10.20    3.50
   4  -1   1    8.30    4.10
   4  -1   1    8.20    4.20
   4  -1   1    5.10    3.30
   4  -1   1    7.50    2.90
   4  -1   1    5.60    2.80
  -5   1  -1   17.20    4.20
  -5   1  -1   29.80    4.60
  -5   1  -1   19.40    4.10
  -5   1  -1   21.80    6.50
  -5   1  -1   31.10    5.00
  -5   1  -1   13.10    3.80
   5  -1   1   22.70    6.30
   5  -1   1   19.60    5.80
   5  -1   1   22.20    4.60
   5  -1   1   25.30    5.20
   5  -1   1   23.60    4.30
   5  -1   1   18.80    4.20
  -6   1  -1  427.26   17.40
  -6   1  -1  428.06   19.90
  -6   1  -1  407.56   22.50
  -6   1  -1  426.16   18.00
   6  -1   1  428.76   20.90
   6  -1   1  419.86   18.40
   6  -1   1  412.96   17.80
   6  -1   1  398.56   17.00
   6  -1   1  400.76   21.10
   6  -1   1  402.46   17.60
  -7   1  -1   32.80    7.90
  -7   1  -1   36.50    9.30
  -7   1  -1   43.50    7.40
   7  -1   1   24.30    6.10
   7  -1   1   30.80    7.90
   7  -1   1   38.90   11.80
  -8   1  -1   91.29   13.90
  -8   1  -1   54.99   10.90
  -8   1  -1   78.89   10.10
   8  -1   1   79.59   14.60
  -9   1  -1   -0.20   14.10
  -9   1  -1   -3.60   11.10
  -9   1  -1   -3.20   10.40
   9  -1   1   15.90   18.20
   9   0  -1   17.90   18.60
   9   0  -1    1.40   10.60
  -9   0   1    5.60   12.90
  -9   0   1    9.20   12.10
  -9   0   1    2.40   11.00
   8   0  -1   -4.40   12.40
   8   0  -1    2.30    8.60
   8   0  -1    4.20    7.40
  -8   0   1    2.40    9.10
  -8   0   1    5.20   10.10
  -8   0   1    2.10    8.20
   7   0  -1   15.50    6.50
   7   0  -1   10.30   11.10
   7   0  -1    7.70    6.30
  -7   0   1   10.00   16.70
  -7   0   1   16.40    8.20
  -7   0   1   15.60    7.10
  -7   0   1   15.30    6.90
   6   0  -1   17.00    5.60
   6   0  -1   20.90    5.10
   6   0  -1   28.60    8.70
   6   0  -1   12.90    4.70
  -6   0   1   21.90    5.40
  -6   0   1   13.60    5.40
  -6   0   1   13.60   10.50
  -6   0   1   23.20    9.60
  -6   0   1   20.80    6.00
   5   0  -1   11.50    3.50
   5   0  -1   15.90    5.80
   5   0  -1   13.90    4.60
   5   0  -1   12.70    6.40
   5   0  -1   17.00    4.10
   5   0  -1   19.00    3.70
  -5   0   1   12.40    4.40
  -5   0   1   14.90    6.30
  -5   0   1   10.00    3.70
  -5   0   1    7.90    4.10
  -5   0   1   14.30    3.70
   4   0  -1 1024.70   34.30
   4   0  -1 1021.00   34.30
   4   0  -1  984.10   32.30
   4   0  -1 1028.30   33.00
   4   0  -1  980.00   31.90
  -4   0   1  989.40   31.90
  -4   0   1 1048.00   34.30
  -4   0   1 1004.60   32.60
  -4   0   1  984.00   32.50
  -4   0   1  981.30   34.10
  -4   0   1 1055.09   33.10
   3   0  -1  386.96   12.70
   3   0  -1  346.57   12.80
   3   0  -1  371.46   15.50
   3   0  -1  377.86   14.40
   3   0  -1  371.16   14.60
   3   0  -1  353.26   12.80
  -3   0   1  367.16   12.60
  -3   0   1  377.66   14.20
  -3   0   1  377.56   13.00
  -3   0   1  381.66   13.10
  -3   0   1  372.46   14.30
   2   0  -1 3337.17   97.99
   2   0  -1 3166.18   98.69
   2   0  -1 3198.18   97.79
   2   0  -1 3270.07   97.99
   2   0  -1 3271.67   98.89
  -2   0   1 3338.67   98.89
  -2   0   1 3394.26   98.09
  -2   0   1 3272.37   97.99
  -2   0   1 3224.38   97.79
  -2   0   1 3380.76   98.39
  -2   0   1 3053.89   98.59
  -1   0  -1  476.65   15.40
  -1   0  -1  513.85   15.50
  -2   0  -1 4026.00  123.39
  -2   0  -1 4189.98  123.59
  -2   0  -1 4160.48  122.59
  -2   0  -1 4094.29  122.59
  -2   0  -1 4056.29  122.69
   2   0   1 4043.30  122.69
   2   0   1 4021.90  122.49
   2   0   1 4009.80  123.49
   2   0   1 4203.48  123.49
   2   0   1 4039.70  122.49
  -3   0  -1   97.29    6.70
  -3   0  -1  112.49    5.80
  -3   0  -1  113.29    7.60
  -3   0  -1  108.39    5.90
  -3   0  -1  120.29    6.30
   3   0   1  116.49    6.00
   3   0   1  115.09    5.80
   3   0   1  110.89    7.80
   3   0   1  112.99    7.60
  -4   0  -1   66.99    6.70
  -4   0  -1   55.89    4.60
  -4   0  -1   75.19    5.50
  -4   0  -1   56.49    4.90
  -4   0  -1   61.69    6.20
   4   0   1   50.09    4.50
   4   0   1   91.69    5.80
   4   0   1   70.19    5.20
   4   0   1   72.89    5.60
   4   0   1   78.29    7.30
   4   0   1   72.79    7.00
  -5   0  -1  165.68    9.10
  -5   0  -1  149.29   10.70
  -5   0  -1  160.78    9.80
  -5   0  -1  117.59   10.30
  -5   0  -1  141.09    9.30
   5   0   1  140.09   11.40
   5   0   1  149.99   12.40
   5   0   1  163.18    9.30
   5   0   1  146.09   10.10
   5   0   1  145.89    9.10
   5   0   1  162.28    8.90
  -6   0  -1    2.50   10.60
  -6   0  -1    1.40    4.70
  -6   0  -1    1.30    5.00
  -6   0  -1   -1.00    6.00
   6   0   1   -2.30    9.00
   6   0   1   -3.00    5.10
   6   0   1    6.70    8.00
  -7   0  -1   10.50    6.70
  -7   0  -1    4.30    6.20
  -7   0  -1   20.30    9.30
   7   0   1   19.30   11.00
   7   0   1    9.00    6.60
  -8   0  -1  141.49   12.30
  -8   0  -1  176.18   14.40
  -8   0  -1  154.88   15.60
   8   0   1  132.99   11.50
   8   0   1  157.18   18.00
  -9   0  -1   18.70   13.00
  -9   0  -1   15.10   11.30
  -9   0  -1   11.20   14.90
   9   0   1   22.40   10.40
   9  -1  -1    2.40   18.60
   9  -1  -1    3.20    9.20
  -9   1   1    6.50   10.70
  -9   1   1   -3.10   12.20
  -9   1   1   12.60   11.60
   8  -1  -1   53.69   10.50
   8  -1  -1   71.69    9.60
   8  -1  -1   54.99   13.70
  -8   1   1   52.39    9.20
  -8   1   1   70.79   10.80
  -8   1   1   55.79   11.20
   7  -1  -1    1.00    6.30
   7  -1  -1   -1.30    9.30
  -7   1   1   -3.50    5.60
  -7   1   1    2.00    6.30
  -7   1   1    4.00    5.50
  -7   1   1  -10.50   12.00
  -7   1   1    3.20    7.30
   6  -1  -1   -2.00    3.80
   6  -1  -1    1.40    5.10
   6  -1  -1    0.70    6.00
   6  -1  -1    1.30    7.00
   6  -1  -1    4.30    7.40
   6  -1  -1   -2.00    4.90
  -6   1   1    0.70    5.10
  -6   1   1    0.00    8.70
  -6   1   1    2.70    5.70
  -6   1   1   -0.40    4.10
  -6   1   1    1.80    5.90
  -6   1   1   -2.70    4.10
   5  -1  -1   35.40    5.10
   5  -1  -1   48.10    4.60
   5  -1  -1   72.39    5.80
   5  -1  -1   41.20    4.80
   5  -1  -1   39.90    6.80
   5  -1  -1   47.60    7.10
  -5   1   1   46.60    6.40
  -5   1   1   58.89    5.80
  -5   1   1   51.19    5.00
  -5   1   1   56.19    5.80
  -5   1   1   63.69    8.00
  -5   1   1   51.79    5.20
   4  -1  -1  562.74   19.40
   4  -1  -1  571.04   20.00
   4  -1  -1  574.34   19.40
   4  -1  -1  573.14   21.20
   4  -1  -1  585.84   21.40
  -4   1   1  562.84   19.60
  -4   1   1  550.94   19.50
  -4   1   1  577.44   21.20
  -4   1   1  580.04   19.60
  -4   1   1  559.74   20.00
   3  -1  -1  674.73   22.40
   3  -1  -1  627.24   21.20
   3  -1  -1  652.83   21.00
   3  -1  -1  642.04   21.00
   3  -1  -1  652.73   21.50
  -3   1   1  650.93   21.10
  -3   1   1  636.64   22.20
  -3   1   1  638.44   22.30
  -3   1   1  653.03   21.10
  -3   1   1  675.03   21.30
  -3   1   1  638.44   21.50
   1  -1  -1  203.88    7.10
   1  -1  -1  228.58    7.50
  -1  -1  -1 1013.80   32.50
  -1  -1  -1 1066.99   32.60
  -1  -1  -1 1035.40   31.80
  -1  -1  -1 1021.60   32.00
   1   1   1 1027.00   32.60
   1   1   1 1091.09   32.70
   1   1   1 1030.50   31.80
   1   1   1  962.60   32.00
   1   1   1 1035.40   32.40
   1   1   1 1038.90   31.80
   1   1   1 1085.29   31.90
  -2  -1  -1 1074.29   35.90
  -2  -1  -1 1129.89   34.90
  -2  -1  -1 1131.29   34.90
  -2  -1  -1 1124.29   35.10
  -2  -1  -1 1114.49   36.00
   2   1   1 1126.69   36.00
   2   1   1 1134.09   35.00
   2   1   1 1112.09   35.10
   2   1   1 1120.99   34.90
   2   1   1 1136.49   36.00
  -3  -1  -1   69.49    5.60
  -3  -1  -1   91.59    7.50
  -3  -1  -1   77.29    6.50
  -3  -1  -1   79.39    5.50
  -3  -1  -1   84.79    6.60
   3   1   1   73.99    4.90
   3   1   1   61.19    5.10
   3   1   1   78.79    5.70
   3   1   1   97.29    7.60
   3   1   1   86.09    7.00
   3   1   1   73.39    5.40
  -4  -1  -1    8.10    3.40
  -4  -1  -1    6.10    3.90
  -4  -1  -1   10.60    3.50
  -4  -1  -1   11.10    4.00
  -4  -1  -1   10.80    6.40
   4   1   1    3.70    4.00
   4   1   1    6.90    5.20
   4   1   1    2.60    2.80
   4   1   1    7.00    5.30
   4   1   1    5.90    3.20
  -5  -1  -1    7.10    4.60
  -5  -1  -1    4.20    5.10
  -5  -1  -1   -0.40    7.80
  -5  -1  -1    3.30    4.00
  -5  -1  -1    4.20    4.40
   5   1   1    1.70    4.80
   5   1   1    1.00    3.90
   5   1   1    5.40    7.10
   5   1   1   10.60    5.60
   5   1   1    6.80    4.20
  -6  -1  -1   28.90   12.60
  -6  -1  -1   53.09    8.90
  -6  -1  -1   27.40    7.60
   6   1   1   31.20    9.60
   6   1   1   33.10    5.90
   6   1   1   38.30    6.10
  -7  -1  -1   28.60    8.60
  -7  -1  -1   23.10    9.60
  -7  -1  -1   23.10    7.20
   7   1   1   28.80   12.10
   7   1   1   22.30    6.70
   7   1   1   19.60    7.70
  -8  -1  -1   -2.60   11.10
  -8  -1  -1   19.00    9.50
  -8  -1  -1    4.80    9.80
   8   1   1   14.70   10.50
   8   1   1    6.80   14.20
   8   1   1    4.10    8.30
   9  -2  -1   -1.90    9.30
   9  -2  -1   -2.10   16.80
  -9   2   1  -14.90   15.20
  -9   2   1    0.40    9.80
  -9   2   1    8.50   11.00
   8  -2  -1    8.70    6.70
   8  -2  -1    1.30   12.20
  -8   2   1   -2.70    9.10
  -8   2   1   -0.50    7.90
  -8   2   1   -4.10    8.70
  -8   2   1   -1.80    6.50
   7  -2  -1   32.10   10.30
   7  -2  -1   17.90    5.40
   7  -2  -1   36.70    8.40
  -7   2   1   36.60   13.40
  -7   2   1   34.40    7.70
  -7   2   1   29.90    6.60
  -7   2   1   33.40    8.40
  -7   2   1   39.00    7.00
   6  -2  -1   24.40    8.00
   6  -2  -1   21.60    5.00
   6  -2  -1   21.70    6.00
   6  -2  -1   17.20    6.60
   6  -2  -1   17.10    5.70
   6  -2  -1   16.30    6.40
  -6   2   1   22.60    6.40
  -6   2   1   14.10    5.20
  -6   2   1   23.00    6.40
  -6   2   1   21.40    4.80
  -6   2   1   20.30    8.70
  -6   2   1   10.80    4.90
   5  -2  -1    4.50    4.10
   5  -2  -1    2.40    3.60
   5  -2  -1    8.20    4.30
   5  -2  -1    4.50    5.80
   5  -2  -1   10.30    5.50
   5  -2  -1    6.60    3.40
  -5   2   1   10.00    4.50
  -5   2   1    2.50    3.90
  -5   2   1    6.70    3.80
  -5   2   1    0.30    3.10
  -5   2   1    5.50    5.80
  -5   2   1    3.10    3.70
   4  -2  -1   25.50    3.70
   4  -2  -1   30.70    4.40
   4  -2  -1   32.70    5.10
   4  -2  -1   35.80    5.50
   4  -2  -1   21.60    3.10
   4  -2  -1   21.90    3.40
  -4   2   1   20.20    3.80
  -4   2   1   22.50    3.20
  -4   2   1   27.70    3.80
  -4   2   1   23.50    3.70
  -4   2   1   28.80    5.20
  -4   2   1   29.90    4.10
   3  -2  -1  130.39    6.10
   3  -2  -1  115.29    7.40
   3  -2  -1  121.49    6.00
   3  -2  -1  125.89    7.50
   3  -2  -1  108.09    7.40
  -3   2   1  113.49    6.20
  -3   2   1  111.49    6.10
  -3   2   1  126.69    6.10
  -3   2   1  126.59    7.60
  -3   2   1  119.59    6.60
  -3   2   1  119.29    7.20
   2  -2  -1  108.69    5.20
   2  -2  -1  106.49    6.00
   2  -2  -1  117.29    5.90
   2  -2  -1  100.29    4.80
   2  -2  -1   88.99    4.70
   2  -2  -1   97.09    5.40
  -2   2   1  103.89    5.50
  -2   2   1  109.59    5.20
  -2   2   1   99.49    5.00
  -2   2   1  104.49    5.90
  -2   2   1   93.39    5.80
  -2   2   1  100.79    5.00
   1  -2  -1  650.43   20.80
   1  -2  -1  615.74   19.90
   1  -2  -1  615.34   19.90
   1  -2  -1  633.54   20.60
   1  -2  -1  644.34   20.40
   1  -2  -1  625.84   20.80
  -1   2   1  632.54   20.00
  -1   2   1  647.44   20.60
  -1   2   1  628.54   20.80
  -1   2   1  628.24   20.50
  -1   2   1  619.54   20.00
  -1   2   1  633.04   20.80
   0  -2  -1   79.19    4.90
   0  -2  -1   73.99    5.60
   0  -2  -1   74.69    4.30
   0  -2  -1   81.19    4.00
   0  -2  -1   85.49    4.10
   0  -2  -1   68.39    4.60
   0   2   1   82.49    4.10
   0   2   1   79.39    4.80
   0   2   1   86.89    4.40
   0   2   1   83.99    4.80
   0   2   1   85.39    4.10
   0   2   1   90.69    5.10
  -1  -2  -1  112.29    5.50
  -1  -2  -1  111.39    5.30
  -1  -2  -1  123.29    6.40
  -1  -2  -1  112.59    6.20
  -1  -2  -1  103.49    5.10
  -1  -2  -1  113.49    7.20
  -1  -2  -1  113.59    5.30
   1   2   1  117.19    5.70
   1   2   1  123.39    5.30
   1   2   1  107.69    5.30
   1   2   1  117.09    6.30
   1   2   1  108.59    7.10
   1   2   1  117.29    5.40
   1   2   1  101.59    6.20
  -2  -2  -1 1688.73   53.09
  -2  -2  -1 1690.33   51.89
  -2  -2  -1 1608.84   52.89
  -2  -2  -1 1676.73   51.59
  -2  -2  -1 1677.63   51.59
   2   2   1 1668.03   52.99
   2   2   1 1723.23   51.69
   2   2   1 1685.53   51.59
   2   2   1 1599.44   52.89
   2   2   1 1655.53   51.79
   2   2   1 1691.23   51.19
   2   2   1 1657.83   52.49
  -3  -2  -1  131.69    8.70
  -3  -2  -1  128.79    7.50
  -3  -2  -1  145.89    7.40
  -3  -2  -1  140.79   10.60
  -3  -2  -1  138.89    7.80
   3   2   1  142.49   10.10
   3   2   1  142.09    9.40
   3   2   1  130.49    7.90
   3   2   1  141.89    9.30
   3   2   1  136.29    7.60
   3   2   1  141.59    7.40
   3   2   1  145.69    6.70
  -4  -2  -1  248.28   11.90
  -4  -2  -1  229.78   11.50
  -4  -2  -1  228.68   16.10
  -4  -2  -1  263.97   13.60
  -4  -2  -1  224.18   11.00
   4   2   1  238.68   11.20
   4   2   1  223.38   11.90
   4   2   1  243.38   13.90
   4   2   1  257.27   14.70
   4   2   1  272.27   11.60
   4   2   1  230.78   13.50
   4   2   1  240.18   11.40
  -5  -2  -1    0.50    3.80
  -5  -2  -1    3.90    5.70
  -5  -2  -1    2.40    5.90
  -5  -2  -1   15.10    5.40
  -5  -2  -1   -0.60   10.10
   5   2   1    3.60    6.40
   5   2   1    3.50    8.00
   5   2   1    3.70    5.20
   5   2   1    5.70    4.50
   5   2   1    6.90    8.80
   5   2   1    8.10    4.40
   5   2   1    1.70    7.80
  -6  -2  -1    8.00    5.20
  -6  -2  -1    6.00    6.10
  -6  -2  -1    9.20    6.30
   6   2   1   15.30    5.90
   6   2   1   19.90    6.50
   6   2   1   37.70   14.70
  -7  -2  -1    3.50    7.40
  -7  -2  -1   -3.50    7.60
  -7  -2  -1   -0.70    8.40
   7   2   1   -4.70   15.30
   7   2   1    1.50    7.70
   7   2   1   -6.10   12.10
   7   2   1   -3.10    6.90
  -8  -2  -1   -5.50   10.90
  -8  -2  -1   -1.30    9.70
  -8  -2  -1   -4.50   17.20
   8   2   1   -7.50   15.70
   8   2   1   -4.90    9.80
   8   2   1   16.40   11.30
   9  -3  -1    2.50    8.70
   9  -3  -1  -12.40   20.00
  -9   3   1   -4.00    9.50
  -9   3   1   -0.70    9.60
  -9   3   1    3.20   10.40
  -9   3   1   -5.90   11.50
   8  -3  -1   13.20   12.70
   8  -3  -1    4.00    6.60
  -8   3   1    8.40    8.30
  -8   3   1    2.90    7.60
  -8   3   1    5.80    8.40
  -8   3   1    6.70    8.10
   7  -3  -1   40.00    7.60
   7  -3  -1   31.70   10.90
  -7   3   1   29.30    7.00
  -7   3   1   35.70    8.20
  -7   3   1   37.50   13.90
  -7   3   1   26.80    7.70
  -7   3   1   38.40    8.00
   6  -3  -1  194.58   15.50
   6  -3  -1  208.88   13.00
   6  -3  -1  208.38   13.70
   6  -3  -1  196.68   12.10
   6  -3  -1  206.58   11.20
  -6   3   1  194.28   12.40
  -6   3   1  210.38   13.90
  -6   3   1  204.48   11.50
  -6   3   1  203.38   12.40
  -6   3   1  203.98   17.60
   5  -3  -1   16.40    4.80
   5  -3  -1   15.30    5.20
   5  -3  -1   15.20    4.40
   5  -3  -1   23.20    6.90
   5  -3  -1   27.70    4.60
  -5   3   1   17.00    5.20
  -5   3   1   23.40    7.20
  -5   3   1   19.10    4.40
  -5   3   1   23.00    4.80
  -5   3   1   12.10    4.70
  -5   3   1   17.00    4.70
   4  -3  -1  161.58    8.70
   4  -3  -1  164.48   10.20
   4  -3  -1  173.38    8.20
   4  -3  -1  154.98   13.80
   4  -3  -1  157.98    9.40
   4  -3  -1  153.98    8.30
  -4   3   1  170.68   10.80
  -4   3   1  164.58    8.40
  -4   3   1  161.58    8.60
  -4   3   1  159.28    8.50
  -4   3   1  169.48    9.20
  -4   3   1  160.18    9.80
   3  -3  -1    7.90    3.70
   3  -3  -1    8.40    3.20
   3  -3  -1    4.50    2.70
   3  -3  -1    6.70    2.30
   3  -3  -1    8.80    3.50
   3  -3  -1    5.60    3.10
  -3   3   1    7.10    2.50
  -3   3   1   13.40    3.00
  -3   3   1    4.30    3.10
  -3   3   1    6.70    3.50
  -3   3   1    6.80    2.40
  -3   3   1    8.00    3.80
   2  -3  -1   82.09    4.90
   2  -3  -1   96.99    6.70
   2  -3  -1   86.99    5.90
   2  -3  -1   83.49    6.30
   2  -3  -1   82.59    4.90
  -2   3   1   90.99    5.10
  -2   3   1   79.99    6.10
  -2   3   1   75.89    5.10
  -2   3   1   79.59    6.40
  -2   3   1   76.79    5.80
  -2   3   1   79.09    5.00
   1  -3  -1  400.06   15.00
   1  -3  -1  432.76   15.00
   1  -3  -1  394.86   13.80
   1  -3  -1  409.16   13.80
   1  -3  -1  387.66   14.30
  -1   3   1  404.86   13.90
  -1   3   1  412.56   13.90
  -1   3   1  406.76   15.20
  -1   3   1  388.66   14.50
  -1   3   1  388.56   14.90
   0  -3  -1  369.86   12.80
   0  -3  -1  364.76   14.10
   0  -3  -1  378.16   15.90
   0  -3  -1  366.86   13.90
   0  -3  -1  360.36   12.80
   0  -3  -1  351.26   13.00
   0   3   1  346.27   13.70
   0   3   1  359.16   14.00
   0   3   1  352.76   14.10
   0   3   1  355.36   12.90
   0   3   1  373.86   12.80
   0   3   1  365.86   13.10
  -1  -3  -1 1162.28   35.40
  -1  -3  -1 1113.99   36.80
  -1  -3  -1 1156.88   36.50
  -1  -3  -1 1129.19   35.30
  -1  -3  -1 1068.99   36.60
  -1  -3  -1 1134.99   35.20
   1   3   1 1115.29   36.20
   1   3   1 1131.59   35.30
   1   3   1 1080.19   37.00
   1   3   1 1095.69   35.40
   1   3   1 1097.99   35.50
   1   3   1 1118.89   36.90
  -2  -3  -1   71.89    8.20
  -2  -3  -1   47.60    4.40
  -2  -3  -1   67.89    6.70
  -2  -3  -1   58.39    5.20
  -2  -3  -1   46.20    5.10
  -2  -3  -1   73.99    5.50
   2   3   1   55.99    4.30
   2   3   1   64.29    5.00
   2   3   1   49.50    4.80
   2   3   1   46.30    5.70
   2   3   1   49.30    6.30
   2   3   1   50.89    4.50
   2   3   1   58.19    6.90
  -3  -3  -1   59.59    7.30
  -3  -3  -1   56.89    8.60
  -3  -3  -1   53.19    5.20
  -3  -3  -1   63.69    6.00
   3   3   1   80.09    9.20
   3   3   1   63.69    4.80
   3   3   1   65.99    5.90
   3   3   1   52.39    7.20
   3   3   1   76.89    8.00
   3   3   1   57.39    6.00
   3   3   1   47.30    4.60
  -4  -3  -1    2.60    9.40
  -4  -3  -1    1.70    5.60
  -4  -3  -1    1.70    4.10
  -4  -3  -1    2.90    4.90
  -4  -3  -1    4.10    4.30
   4   3   1    1.60    3.70
   4   3   1    1.50    7.50
   4   3   1   -1.50    5.20
   4   3   1    1.00    3.30
   4   3   1   -0.80    4.90
   4   3   1    0.00    7.70
  -5  -3  -1    1.90    5.70
   5   3   1    1.40    9.90
   5   3   1   -2.30    4.60
   5   3   1    3.50    5.80
   5   3   1   -3.40    9.10
   5   3   1    2.80    4.20
  -6  -3  -1    4.50    5.70
  -6  -3  -1    9.40    7.40
  -6  -3  -1   -4.50    6.60
   6   3   1    0.60   13.10
   6   3   1    4.00    5.40
   6   3   1    2.50    6.10
   6   3   1    0.60    6.30
   6   3   1   -3.10   11.20
  -7  -3  -1   -3.20    8.10
  -7  -3  -1    0.50    9.10
  -7  -3  -1    3.20    9.60
   7   3   1    4.50    6.60
   7   3   1    2.80    8.60
   7   3   1   -2.20   12.90
   7   3   1    2.90   18.00
   7   3   1    1.00    7.60
   9  -4  -1    2.90   17.60
   9  -4  -1   11.60    9.40
   9  -4  -1    2.10   17.70
  -9   4   1   -0.20   10.10
  -9   4   1   -4.30   13.80
  -9   4   1   -0.60   12.50
  -9   4   1   11.30   11.50
   8  -4  -1    8.90   13.60
   8  -4  -1    0.20    6.90
  -8   4   1    7.40    9.10
  -8   4   1    6.50    7.70
  -8   4   1    2.40    8.90
  -8   4   1    5.20   10.70
   7  -4  -1   -0.90    5.60
   7  -4  -1    0.80   10.20
  -7   4   1    0.00    6.60
  -7   4   1    1.10    6.70
  -7   4   1    1.60    7.10
  -7   4   1    3.00    6.10
   6  -4  -1   87.39   11.10
   6  -4  -1   72.89    7.90
   6  -4  -1   82.59    8.70
   6  -4  -1   79.39    7.40
  -6   4   1   73.09    7.60
  -6   4   1   74.99    8.50
  -6   4   1   71.29    7.40
  -6   4   1   92.39   14.30
   5  -4  -1   14.60    5.80
   5  -4  -1    9.10    6.70
   5  -4  -1   13.30    5.00
   5  -4  -1   13.80    4.90
   5  -4  -1   13.90    4.40
   5  -4  -1   10.70    6.60
  -5   4   1   11.40    4.40
  -5   4   1    5.10    5.00
  -5   4   1   11.70    5.20
  -5   4   1   12.90    4.40
  -5   4   1   10.90    8.00
  -5   4   1   19.50    5.60
   4  -4  -1   44.10    6.60
   4  -4  -1   26.60    4.30
   4  -4  -1   22.50    4.20
   4  -4  -1   23.20    5.90
   4  -4  -1   37.70    6.30
   4  -4  -1   21.10    4.40
  -4   4   1   27.30    4.30
  -4   4   1   26.80    5.10
  -4   4   1   33.50    4.80
  -4   4   1   34.80    5.00
  -4   4   1   31.70    6.60
  -4   4   1   26.50    4.70
   3  -4  -1    1.60    2.60
   3  -4  -1   -0.20    2.90
   3  -4  -1    0.70    5.00
   3  -4  -1   -2.60    3.90
  -3   4   1    3.40    3.20
  -3   4   1    1.50    3.40
  -3   4   1   -0.10    2.70
  -3   4   1    3.00    3.90
  -3   4   1    5.70    3.00
  -3   4   1    1.60    4.20
   2  -4  -1  350.96   15.00
   2  -4  -1  341.27   14.80
   2  -4  -1  364.76   13.40
   2  -4  -1  365.16   13.20
   2  -4  -1  359.66   15.20
   2  -4  -1  367.36   14.40
  -2   4   1  353.46   13.30
  -2   4   1  370.26   13.50
  -2   4   1  344.17   13.50
  -2   4   1  344.17   15.20
  -2   4   1  356.06   14.30
  -2   4   1  361.66   14.90
   1  -4  -1   53.19    5.10
   1  -4  -1   47.30    5.90
   1  -4  -1   60.49    5.00
   1  -4  -1   39.20    5.40
   1  -4  -1   52.49    5.40
   1  -4  -1   70.09    5.00
  -1   4   1   60.79    6.20
  -1   4   1   69.09    6.60
  -1   4   1   54.49    6.10
  -1   4   1   57.29    4.80
  -1   4   1   68.19    5.10
  -1   4   1   65.79    5.40
   0  -4  -1   -0.20    3.00
   0  -4  -1    1.80    2.70
   0  -4  -1   -2.50    5.50
   0  -4  -1   -0.90    3.00
   0  -4  -1   -1.60    4.40
   0  -4  -1   -1.10    3.00
   0   4   1   -0.90    2.80
   0   4   1    2.50    2.70
   0   4   1   -3.10    2.40
   0   4   1   -1.00    3.20
   0   4   1   -1.20    3.70
   0   4   1    0.70    4.40
  -1  -4  -1  112.39    8.60
  -1  -4  -1   97.89    6.70
  -1  -4  -1  115.99    6.70
  -1  -4  -1  125.29    9.90
  -1  -4  -1   90.29    9.60
  -1  -4  -1   98.59    7.20
   1   4   1  108.19    9.00
   1   4   1  106.09    6.90
   1   4   1  113.99    6.80
   1   4   1  109.49    7.50
   1   4   1  104.89    8.70
   1   4   1  110.39    7.10
   1   4   1  114.79    8.50
  -2  -4  -1  624.64   23.50
  -2  -4  -1  571.14   24.40
  -2  -4  -1  621.54   21.30
  -2  -4  -1  558.24   23.10
  -2  -4  -1  616.44   21.70
  -2  -4  -1  630.44   21.50
   2   4   1  609.34   21.80
   2   4   1  598.74   23.10
   2   4   1  578.84   21.40
   2   4   1  632.54   20.90
   2   4   1  543.25   23.50
   2   4   1  591.44   21.30
  -3  -4  -1   85.19   12.00
  -3  -4  -1  100.89    7.60
  -3  -4  -1   92.59    7.60
  -3  -4  -1   77.99    7.10
  -3  -4  -1   68.49    8.20
   3   4   1   67.69    6.90
   3   4   1   84.79    6.80
   3   4   1   74.79    9.40
   3   4   1   88.09   10.10
   3   4   1   92.29    8.80
   3   4   1   81.39    9.80
   3   4   1   85.99    7.00
  -4  -4  -1    7.90    5.20
  -4  -4  -1   -2.70    5.40
  -4  -4  -1    0.10    6.40
   4   4   1    0.20    8.50
   4   4   1   -2.20    8.30
   4   4   1   -0.70    5.00
   4   4   1    6.30    4.20
   4   4   1    4.40    9.20
  -5  -4  -1  134.39   10.20
  -5  -4  -1  129.29   12.40
  -5  -4  -1   92.09    9.60
   5   4   1  177.78   16.50
   5   4   1  157.08   10.10
   5   4   1  106.49   15.10
   5   4   1  122.49   10.00
   5   4   1  152.48   11.10
  -6  -4  -1    9.80    9.00
  -6  -4  -1   10.70    7.80
  -6  -4  -1   13.30    9.40
   6   4   1   22.00    8.70
   6   4   1   -3.60   15.90
   6   4   1    9.00    6.30
   6   4   1    4.30   12.40
   6   4   1   10.70    7.60
  -7  -4  -1   52.49   12.20
  -7  -4  -1   51.79   11.60
  -7  -4  -1   54.59   26.50
   7   4   1   51.39   12.50
   7   4   1   33.10   16.50
   7   4   1   66.69   23.30
   7   4   1   55.19   12.90
   7   4   1   64.99    9.10
   8  -5  -1    2.80   14.50
   8  -5  -1    4.30    7.50
  -8   5   1    0.60    9.20
  -8   5   1   -4.70    8.50
  -8   5   1   -5.70   10.60
  -8   5   1   -3.80   10.30
   7  -5  -1   45.00   17.70
   7  -5  -1   20.80    7.00
  -7   5   1   28.00    8.30
  -7   5   1   13.80    8.10
  -7   5   1   26.30    8.90
  -7   5   1   22.60    7.00
   6  -5  -1   79.89    7.70
   6  -5  -1   94.29   12.40
  -6   5   1  127.69   16.60
  -6   5   1   98.79    9.10
  -6   5   1  101.69   10.60
  -6   5   1   81.09   10.30
  -6   5   1  110.49    9.60
   5  -5  -1   17.90    5.20
   5  -5  -1   14.60    6.00
   5  -5  -1   12.70    5.80
   5  -5  -1   20.50    8.60
   5  -5  -1   20.10    8.60
  -5   5   1   21.80    6.60
  -5   5   1   12.10    4.80
  -5   5   1   27.30    6.50
  -5   5   1   21.40   10.00
  -5   5   1   22.40    5.30
   4  -5  -1  466.65   18.00
   4  -5  -1  466.05   20.30
   4  -5  -1  484.35   22.80
   4  -5  -1  470.65   20.90
   4  -5  -1  442.96   19.60
   4  -5  -1  463.25   17.70
  -4   5   1  425.96   19.00
  -4   5   1  467.55   20.30
  -4   5   1  491.25   18.00
  -4   5   1  438.96   21.60
  -4   5   1  464.25   18.00
  -4   5   1  468.75   18.50
   3  -5  -1   26.80    4.50
   3  -5  -1   31.90    8.00
   3  -5  -1   30.20    7.30
   3  -5  -1   23.80    4.60
   3  -5  -1   23.60    5.90
   3  -5  -1   20.70    5.70
  -3   5   1   20.60    4.70
  -3   5   1   33.20    6.00
  -3   5   1   31.50    5.40
  -3   5   1   25.50    4.20
  -3   5   1   16.80    6.00
  -3   5   1   17.50    3.90
   2  -5  -1    7.10    3.90
   2  -5  -1    9.90    5.40
   2  -5  -1    4.10    5.90
   2  -5  -1    9.50    3.70
   2  -5  -1   14.10    5.30
   2  -5  -1    5.40    4.40
  -2   5   1    8.50    3.90
  -2   5   1    8.20    5.40
  -2   5   1    7.40    4.40
  -2   5   1    4.20    4.30
  -2   5   1   11.90    3.40
  -2   5   1    7.20    3.10
   1  -5  -1    2.60    6.50
   1  -5  -1    2.90    3.90
   1  -5  -1    5.00    4.50
   1  -5  -1    6.20    3.60
   1  -5  -1    4.10    5.90
   1  -5  -1    4.30    3.20
  -1   5   1    3.90    3.60
  -1   5   1   13.10    5.90
  -1   5   1    5.30    3.40
  -1   5   1    6.40    5.10
  -1   5   1    2.60    3.80
  -1   5   1    3.70    4.70
   0  -5  -1  251.57   11.90
   0  -5  -1  234.68   16.10
   0  -5  -1  269.67   13.80
   0  -5  -1  232.78   10.90
   0  -5  -1  242.58   11.40
   0  -5  -1  230.28   13.00
   0   5   1  259.67   11.70
   0   5   1  240.18   11.40
   0   5   1  256.97   13.40
   0   5   1  242.58   11.60
   0   5   1  234.48   13.80
   0   5   1  251.47   11.30
   0   5   1  256.97   13.40
  -1  -5  -1  123.79   12.70
  -1  -5  -1   83.89    8.90
  -1  -5  -1   70.89    9.30
  -1  -5  -1   96.19    7.50
  -1  -5  -1   89.09    6.90
  -1  -5  -1   77.99    6.50
   1   5   1   84.49    8.90
   1   5   1   84.89    6.80
   1   5   1  104.09    9.00
   1   5   1   67.59    8.80
   1   5   1   85.19    6.60
   1   5   1   93.09    7.40
   1   5   1   71.09    7.70
  -2  -5  -1   39.30    8.80
  -2  -5  -1   43.00   11.60
  -2  -5  -1   33.80    7.40
  -2  -5  -1   33.90    5.60
  -2  -5  -1   19.60    5.40
   2   5   1   35.30    6.30
   2   5   1   25.60    4.70
   2   5   1   28.80    7.20
   2   5   1   33.00    8.70
   2   5   1   21.10    7.00
   2   5   1   30.10    5.30
   2   5   1   22.00    8.50
  -3  -5  -1   61.39    6.80
  -3  -5  -1   43.20    6.90
  -3  -5  -1   55.89    9.30
   3   5   1   57.69    9.80
   3   5   1   36.20   10.00
   3   5   1   62.09    6.30
   3   5   1   48.60    6.50
   3   5   1   51.89   11.80
  -4  -5  -1   16.50    7.40
  -4  -5  -1   13.80    8.10
  -4  -5  -1   16.00    6.10
   4   5   1   10.00    6.30
   4   5   1   11.70    5.30
   4   5   1   22.40   10.40
   4   5   1   32.20   12.70
  -5  -5  -1   70.69   11.80
  -5  -5  -1  116.59   11.70
  -5  -5  -1   87.39    9.90
   5   5   1  100.49   10.30
   5   5   1   80.49    8.00
   5   5   1   73.49   17.00
   5   5   1   62.89   13.50
  -6  -5  -1   26.00    9.70
  -6  -5  -1    9.80   10.60
  -6  -5  -1   16.70   12.90
   6   5   1   36.50   20.40
   6   5   1    1.70   15.00
   6   5   1   17.30    9.30
   6   5   1    8.20    7.40
   6   5   1   14.90    9.50
   8  -6  -1    1.30   16.60
   8  -6  -1   -0.50    8.50
  -8   6   1    9.30   13.90
  -8   6   1    1.50   10.70
  -8   6   1    4.30   10.10
  -8   6   1   -1.70   10.10
   7  -6  -1   12.80   15.20
   7  -6  -1   10.20   13.00
   7  -6  -1    7.60    7.10
  -7   6   1   12.40    8.40
  -7   6   1   15.40   10.60
  -7   6   1   18.00   10.40
  -7   6   1   11.10    8.10
   6  -6  -1   27.20    6.60
   6  -6  -1   24.40   12.30
   6  -6  -1   30.80   11.40
  -6   6   1   26.20    9.40
  -6   6   1   18.80    7.10
  -6   6   1   21.60    7.00
  -6   6   1   24.80    8.80
   5  -6  -1   17.90    8.40
   5  -6  -1   17.60    5.60
   5  -6  -1    2.90   10.40
  -5   6   1   10.30    7.20
  -5   6   1   10.00    7.10
  -5   6   1   10.00    5.60
  -5   6   1    1.20   11.40
  -5   6   1    9.00    5.70
   4  -6  -1    8.70    7.10
   4  -6  -1   10.30    5.00
   4  -6  -1    8.10    6.00
   4  -6  -1   14.70   10.30
  -4   6   1    3.20    4.80
  -4   6   1   10.30    7.00
  -4   6   1    5.40    6.00
  -4   6   1   10.30    4.90
  -4   6   1   11.20   10.80
   3  -6  -1   92.19    9.90
   3  -6  -1  122.79   11.10
   3  -6  -1   99.89    8.40
   3  -6  -1   94.79    7.50
   3  -6  -1  104.49   11.10
  -3   6   1  102.79    9.90
  -3   6   1   91.09    8.70
  -3   6   1  119.39   12.20
  -3   6   1  110.89    7.80
  -3   6   1   93.79    9.10
  -3   6   1  108.29    8.40
   2  -6  -1 1397.86   46.30
   2  -6  -1 1312.47   44.60
   2  -6  -1 1307.47   43.40
   2  -6  -1 1259.07   46.80
   2  -6  -1 1338.87   45.60
   2  -6  -1 1398.36   43.40
  -2   6   1 1305.47   46.50
  -2   6   1 1324.27   45.90
  -2   6   1 1340.27   43.20
  -2   6   1 1346.97   44.60
  -2   6   1 1346.57   43.60
  -2   6   1 1268.87   43.60
   1  -6  -1  373.66   18.30
   1  -6  -1  397.86   19.00
   1  -6  -1  374.76   16.00
   1  -6  -1  349.07   15.20
   1  -6  -1  396.06   18.70
  -1   6   1  363.96   16.30
  -1   6   1  381.46   15.70
  -1   6   1  344.67   18.20
  -1   6   1  363.36   19.30
  -1   6   1  355.46   15.80
  -1   6   1  388.46   16.70
  -1   6   1  348.67   18.30
   0  -6  -1  345.27   15.30
   0  -6  -1  364.66   16.40
   0  -6  -1  351.86   18.60
   0  -6  -1  335.87   16.20
   0  -6  -1  367.86   23.00
   0  -6  -1  392.46   18.70
   0   6   1  361.96   15.60
   0   6   1  406.26   18.70
   0   6   1  373.46   16.10
   0   6   1  362.56   18.50
   0   6   1  357.76   16.20
   0   6   1  333.67   16.30
   0   6   1  368.06   19.90
  -1  -6  -1  189.78   14.10
  -1  -6  -1  159.08   11.40
  -1  -6  -1  164.98   13.70
  -1  -6  -1  153.68   10.40
   1   6   1  162.48   13.80
   1   6   1  192.58   14.20
   1   6   1  165.88   14.10
   1   6   1  152.98   10.70
   1   6   1  188.08   11.30
   1   6   1  143.29   10.60
  -2  -6  -1   18.70   10.60
  -2  -6  -1   22.50    7.50
  -2  -6  -1   24.60    6.90
   2   6   1    7.60    5.70
   2   6   1   15.80   10.40
   2   6   1   20.60    8.60
   2   6   1   16.30    5.40
  -3  -6  -1  141.59   13.30
  -3  -6  -1  193.98   13.00
   3   6   1  200.28   17.30
   3   6   1  186.38   13.40
   3   6   1  210.08   12.30
   3   6   1  167.98   16.80
  -4  -6  -1   18.40    7.60
  -4  -6  -1   14.70    9.70
   4   6   1    5.20   10.30
   4   6   1   11.50    6.60
   4   6   1    6.30   15.10
   4   6   1    5.70    7.80
  -5  -6  -1    7.10   11.00
  -5  -6  -1   16.50    8.80
  -5  -6  -1    8.40   10.20
   5   6   1    6.60    9.20
   5   6   1   14.60   13.40
   5   6   1    8.70   18.90
   5   6   1   15.70    7.70
   7  -7  -1   70.19   21.10
   7  -7  -1   83.39   17.30
   7  -7  -1   97.69   11.20
  -7   7   1   92.59   11.80
  -7   7   1  141.09   24.70
  -7   7   1   79.29   25.00
   6  -7  -1   37.10   13.90
   6  -7  -1   51.89   16.30
   6  -7  -1   24.80    7.80
  -6   7   1   32.60    8.60
  -6   7   1   26.00    8.10
  -6   7   1   19.90   10.60
  -6   7   1   31.70    9.90
   5  -7  -1  165.08   11.10
   5  -7  -1  160.58   17.40
   5  -7  -1  130.49   14.90
  -5   7   1  125.99   10.30
  -5   7   1  151.58   10.90
  -5   7   1  148.59   12.80
  -5   7   1  141.69   13.50
   4  -7  -1   35.10    9.90
   4  -7  -1   32.10    7.00
   4  -7  -1   52.99   13.10
  -4   7   1   28.10    6.30
  -4   7   1   43.70   10.00
  -4   7   1   35.30    8.70
  -4   7   1   39.30    6.90
  -4   7   1   37.70   21.80
   3  -7  -1  111.79    8.80
   3  -7  -1  103.49   11.30
   3  -7  -1  107.79   13.70
  -3   7   1  129.59   15.60
  -3   7   1  113.39   11.00
  -3   7   1   94.19    8.60
  -3   7   1  116.59    8.70
  -3   7   1  104.79   10.50
   2  -7  -1  108.49   11.70
   2  -7  -1   89.29   13.20
   2  -7  -1  131.29    9.40
  -2   7   1   84.49    9.50
  -2   7   1  132.09   14.90
  -2   7   1   95.99   10.90
  -2   7   1   90.79    8.10
  -2   7   1  111.29    8.70
   1  -7  -1   99.99   12.60
   1  -7  -1   64.99    7.30
   1  -7  -1   40.40    8.40
  -1   7   1   59.79   12.70
  -1   7   1   58.49   11.60
  -1   7   1   79.59    8.80
  -1   7   1   70.59    8.00
  -1   7   1   67.89    8.30
   0  -7  -1   20.10   11.80
   0  -7  -1    2.00    7.10
   0  -7  -1   20.60    6.10
   0  -7  -1   18.70    8.00
   0   7   1    6.00    7.40
   0   7   1   12.40    6.40
   0   7   1   16.80    6.10
   0   7   1   18.50   10.90
   0   7   1   18.00    8.50
  -1  -7  -1   14.00    7.80
  -1  -7  -1   18.20   11.10
  -1  -7  -1   -3.10   11.60
  -1  -7  -1   21.70    6.50
   1   7   1   22.10   12.20
   1   7   1   11.10    6.50
   1   7   1    3.00    8.60
   1   7   1   16.70    6.20
  -2  -7  -1   12.40    8.80
  -2  -7  -1   16.00   15.10
  -2  -7  -1   22.00    7.40
   2   7   1   20.10   14.30
   2   7   1   10.30    7.00
   2   7   1   23.80    7.80
   2   7   1   11.10   10.10
  -3  -7  -1    9.80    7.90
  -3  -7  -1    1.00   10.50
   3   7   1    1.90    7.40
   3   7   1    6.10   11.10
   3   7   1   10.20    7.90
   3   7   1    8.60   16.40
  -4  -7  -1    3.10   13.10
  -4  -7  -1    1.50    9.20
   4   7   1    5.60   16.20
   4   7   1   -2.70   21.20
   4   7   1    2.30    8.00
   4   7   1   -4.60   12.90
   6  -8  -1  -11.50   19.50
   6  -8  -1   -7.30    8.40
   6  -8  -1   -1.80   15.30
  -6   8   1    5.70   12.20
  -6   8   1    0.10    9.70
  -6   8   1    6.80    9.10
  -6   8   1   -4.90   10.70
   5  -8  -1   55.29   13.80
   5  -8  -1   31.60   20.00
   5  -8  -1   40.80    8.60
  -5   8   1   37.40    8.90
  -5   8   1   56.59   11.80
  -5   8   1   33.50    8.10
  -5   8   1   46.70   11.10
   4  -8  -1   49.00    8.60
   4  -8  -1   54.39   16.60
   4  -8  -1   52.59   12.40
  -4   8   1   47.10    9.00
  -4   8   1   41.50   10.20
  -4   8   1   41.10    8.20
  -4   8   1   63.59   12.00
   3  -8  -1    4.70   10.60
   3  -8  -1    2.30    6.80
   3  -8  -1   -2.30   13.60
  -3   8   1    2.80    8.40
  -3   8   1   -1.40    8.60
  -3   8   1    0.90    6.50
  -3   8   1   -3.80    6.80
   2  -8  -1   26.50    7.60
   2  -8  -1   40.40   11.80
   2  -8  -1   25.40   14.30
  -2   8   1   33.40    7.20
  -2   8   1   34.80    8.10
  -2   8   1   31.90    9.50
  -2   8   1   27.00    9.10
   1  -8  -1  109.29   16.80
   1  -8  -1   96.49   13.40
   1  -8  -1   97.59    9.80
  -1   8   1   95.99   15.60
  -1   8   1   89.99   10.30
  -1   8   1   81.79    9.40
   0  -8  -1   51.89   16.50
   0  -8  -1   57.99   12.90
   0  -8  -1   57.39    8.60
   0   8   1   55.99    9.20
   0   8   1   52.69    9.50
   0   8   1   59.79   16.40
   0   8   1   59.49   12.20
  -1  -8  -1   11.00   11.30
  -1  -8  -1    5.30    7.20
  -1  -8  -1   18.50   17.00
   1   8   1    9.00    7.80
   1   8   1    5.60   10.90
   1   8   1   -0.30    8.20
  -2  -8  -1    8.90   19.70
  -2  -8  -1   12.90   12.70
  -2  -8  -1   11.00    8.90
   2   8   1    1.90   18.80
   2   8   1    8.70   13.10
   2   8   1   13.80    9.10
   2   8   1   17.20    9.80
  -3  -8  -1   29.80   15.50
  -3  -8  -1   21.00   10.80
   3   8   1   25.10   11.20
   3   8   1   24.00   14.90
   3   8   1    3.00   21.70
   5  -9  -1  -11.10   23.40
   5  -9  -1   11.20    9.10
   5  -9  -1   -7.20   14.90
  -5   9   1    1.30    9.90
  -5   9   1   -4.40   11.40
  -5   9   1    2.40   10.40
  -5   9   1   -7.50   12.50
   4  -9  -1   -1.00   14.00
   4  -9  -1    0.10    8.60
   4  -9  -1  -11.20   20.10
  -4   9   1   -5.30    9.20
  -4   9   1    3.40    8.90
  -4   9   1    1.20   12.00
   3  -9  -1   32.80   19.90
   3  -9  -1    9.30   13.40
   3  -9  -1   14.50    9.30
  -3   9   1    8.80    8.50
  -3   9   1   19.30   13.60
  -3   9   1   21.40   11.30
   2  -9  -1    6.50   12.50
   2  -9  -1   18.40   19.10
   2  -9  -1   22.10    9.20
  -2   9   1   16.70    8.60
  -2   9   1   17.70   10.10
  -2   9   1   23.20   11.40
  -2   9   1    9.50    9.70
   1  -9  -1   21.30    9.20
   1  -9  -1   20.80   10.40
   1  -9  -1   17.10   20.30
  -1   9   1   12.30   13.70
  -1   9   1   31.40   11.10
   0  -9  -1   -2.00   10.00
   0  -9  -1   -4.20    8.60
   0   9   1   -4.40    9.80
   0   9   1    1.40   13.80
   0   9   1   -6.00   21.20
   0   9   1   -4.70   10.10
  -1  -9  -1    7.00   14.70
  -1  -9  -1    1.30    9.40
  -1  -9  -1  -21.80   23.30
   1   9   1   -5.70   10.20
   1   9   1  -12.40   22.60
   1   9   1  -10.30   10.50
   1   9   1    1.00   15.80
   2   9  -2   -9.20   23.80
   2   9  -2   -1.30   11.10
   2   9  -2   -4.90   10.10
   2   9  -2    4.00   14.70
  -2  -9   2   -1.00   14.30
  -2  -9   2    2.00   31.10
  -2  -9   2   -2.80    9.80
   1   9  -2   10.70   15.00
   1   9  -2   11.20    9.50
   1   9  -2   11.20   21.90
  -1  -9   2    4.40   21.10
  -1  -9   2    3.80    8.80
  -1  -9   2   16.50   12.20
   0   9  -2    9.20    7.90
   0   9  -2    2.40    9.40
   0   9  -2    3.70   13.40
   0   9  -2   18.50   18.80
   0  -9   2   -2.10    8.60
   0  -9   2   -1.80   11.30
   0  -9   2    7.50   19.60
  -1   9  -2    0.90    8.60
  -1   9  -2    2.50    7.00
  -1   9  -2    0.00    9.90
  -1   9  -2   -4.50    8.30
  -1   9  -2   -2.50    9.70
   1  -9   2   -1.10    7.70
   1  -9   2    0.20    9.60
   1  -9   2    2.10   19.30
  -2   9  -2    4.20   10.40
  -2   9  -2   22.50   10.00
  -2   9  -2   11.90    9.00
  -2   9  -2   12.20    9.30
  -2   9  -2   18.70    7.20
   2  -9   2   17.80    8.60
   2  -9   2    6.60   11.50
   2  -9   2   19.90   18.50
  -3   9  -2   10.80   10.10
  -3   9  -2    6.20    8.80
  -3   9  -2    0.40    9.40
  -3   9  -2    2.80    6.80
  -3   9  -2    6.60   11.50
   3  -9   2   22.20   19.00
   3  -9   2    0.00   11.40
   3  -9   2    9.90    9.40
  -4   9  -2    5.30    9.60
  -4   9  -2   13.90   10.50
  -4   9  -2    1.90   11.10
  -4   9  -2    9.90   12.00
  -4   9  -2    3.00    7.40
   4  -9   2  -11.10   19.60
   4  -9   2   14.40   13.30
   4  -9   2    6.00    8.80
  -5   9  -2    3.20    8.30
  -5   9  -2   -2.80   12.10
  -5   9  -2   -0.80    8.30
  -5   9  -2    3.00   13.10
   5  -9   2   -1.40   11.00
   5  -9   2   17.30   21.80
   5  -9   2   -0.10   12.70
   3   8  -2   35.20    8.30
   3   8  -2   39.60   10.40
   3   8  -2   32.10   14.20
  -3  -8   2   27.40   10.50
  -3  -8   2   40.30   12.20
   2   8  -2    5.60   11.30
   2   8  -2    3.90    8.30
   2   8  -2   25.70   17.70
   2   8  -2    4.40    7.10
  -2  -8   2    8.20   11.30
  -2  -8   2    4.30    9.50
  -2  -8   2    0.40    7.70
  -2  -8   2  -11.60   17.30
   1   8  -2   73.99   13.20
   1   8  -2   77.29   18.50
   1   8  -2   90.29    9.50
   1   8  -2   94.79   10.50
  -1  -8   2   83.49   10.60
  -1  -8   2   73.09   11.90
  -1  -8   2   96.99   17.80
  -1  -8   2   90.59   10.70
   0   8  -2   -0.60    7.90
   0   8  -2    2.90    7.00
   0   8  -2    2.60    9.60
   0   8  -2    6.90    6.40
   0   8  -2   -0.10   13.40
   0  -8   2   -2.80    5.90
   0  -8   2   -3.20    8.10
   0  -8   2   19.90   14.60
  -1   8  -2    9.10    7.30
  -1   8  -2   16.50    7.30
  -1   8  -2   -6.20   12.70
  -1   8  -2    6.60    7.00
   1  -8   2    2.40    8.10
   1  -8   2    5.10    6.00
   1  -8   2   -4.10   15.40
  -2   8  -2   -1.60    6.60
  -2   8  -2    1.10    6.90
  -2   8  -2   -0.50    7.80
  -2   8  -2    1.80    5.10
  -2   8  -2   -5.40    6.50
   2  -8   2   29.60   13.60
   2  -8   2    5.00    6.80
   2  -8   2   -1.70    9.30
  -3   8  -2   21.40    8.90
  -3   8  -2   21.60    9.40
  -3   8  -2   25.30    7.20
  -3   8  -2   27.70    6.10
  -3   8  -2   13.90    7.30
   3  -8   2   34.00   14.60
   3  -8   2   27.20   10.00
   3  -8   2   27.20    7.70
  -4   8  -2   26.90   10.90
  -4   8  -2   25.60    9.40
  -4   8  -2   29.00    6.50
  -4   8  -2   45.30    8.90
   4  -8   2   45.90   16.10
   4  -8   2   22.70   10.80
   4  -8   2   20.80    7.60
  -5   8  -2   19.50   10.50
  -5   8  -2   23.50   11.70
  -5   8  -2   21.60    7.10
  -5   8  -2    5.20    8.30
   5  -8   2    5.40    7.60
   5  -8   2    9.30   11.30
   5  -8   2   -5.10   17.40
  -6   8  -2   -0.60   14.90
  -6   8  -2    7.40    8.10
  -6   8  -2   26.30   15.60
  -6   8  -2    2.80   12.00
   6  -8   2   10.20   20.60
   6  -8   2   11.00    9.50
   6  -8   2    3.70   14.00
  -7   8  -2   10.00   12.80
  -7   8  -2   23.00   10.30
  -7   8  -2    3.70   14.40
  -7   8  -2   11.90   10.30
   7  -8   2   16.30   25.40
   7  -8   2   25.80   10.30
   5   7  -2   -4.40   15.90
   5   7  -2    5.40   11.00
   5   7  -2   39.30   23.70
  -5  -7   2  -14.20   13.30
  -5  -7   2   -1.40   10.50
   4   7  -2   -1.30   18.10
   4   7  -2  -11.30    8.50
   4   7  -2    0.20   12.80
   4   7  -2   -2.80    7.30
  -4  -7   2   -1.00    7.80
  -4  -7   2   -1.00   10.60
   3   7  -2   16.90    5.90
   3   7  -2   13.20   11.10
   3   7  -2   35.20   16.10
   3   7  -2   29.50    8.30
  -3  -7   2   28.80    9.90
  -3  -7   2   31.00    8.30
   2   7  -2  121.69    8.80
   2   7  -2   87.19   15.20
   2   7  -2  109.59   13.50
   2   7  -2   95.89    9.30
   2   7  -2  115.69   12.60
  -2  -7   2  135.49   13.70
  -2  -7   2   98.29    9.10
  -2  -7   2  115.99   15.60
  -2  -7   2  108.79    8.80
   1   7  -2   22.30    6.10
   1   7  -2   28.20    6.20
   1   7  -2   15.90   12.00
  -1  -7   2   34.10    9.10
  -1  -7   2   25.40    6.80
  -1  -7   2   26.10    6.40
   0   7  -2  205.08   16.30
   0   7  -2  213.88   12.90
   0   7  -2  208.38   12.30
   0   7  -2  222.48   12.40
   0  -7   2  213.48   12.60
   0  -7   2  227.38   16.70
   0  -7   2  194.18   15.00
   0  -7   2  216.68   15.90
  -1   7  -2  901.91   34.40
  -1   7  -2  890.01   31.70
  -1   7  -2  824.52   29.80
   1  -7   2  868.61   31.90
   1  -7   2  920.51   34.50
   1  -7   2  931.31   34.80
  -2   7  -2   24.20    5.40
  -2   7  -2   26.80    6.40
  -2   7  -2   28.90    7.70
  -2   7  -2   19.70    4.50
   2  -7   2   24.50    7.80
   2  -7   2   20.90    8.40
   2  -7   2   20.50   10.50
  -3   7  -2  165.78   20.20
  -3   7  -2  122.29   12.00
  -3   7  -2  121.59    8.80
   3  -7   2  181.28   15.30
   3  -7   2  157.98   13.60
   3  -7   2  124.19    9.60
  -4   7  -2   99.99    7.50
  -4   7  -2   97.29   10.10
  -4   7  -2   91.49   10.60
  -4   7  -2   71.69    7.90
   4  -7   2  127.29   13.60
   4  -7   2   99.09   14.60
   4  -7   2   98.29    9.20
  -5   7  -2    9.40    8.60
  -5   7  -2    2.70    5.80
  -5   7  -2    8.00    8.00
  -5   7  -2   10.90    5.90
   5  -7   2   14.80   10.10
   5  -7   2   -5.50   12.90
   5  -7   2    1.40    5.60
  -6   7  -2   45.20   11.10
  -6   7  -2   28.60   10.50
  -6   7  -2   24.30    8.50
  -6   7  -2   20.30    7.00
   6  -7   2   25.00   13.00
   6  -7   2   36.70   16.80
   6  -7   2   27.70    7.80
  -7   7  -2   33.70    9.70
  -7   7  -2   32.30   12.70
  -7   7  -2   37.60   14.00
  -7   7  -2   33.00    9.40
   7  -7   2   27.90   10.20
   7  -7   2   32.30   19.70
   7  -7   2   28.40   14.30
   6   6  -2    0.10   11.70
   6   6  -2    5.40   16.00
  -6  -6   2    2.70   10.90
  -6  -6   2    3.70   12.70
  -6  -6   2    1.70   11.80
   5   6  -2    6.20   13.40
   5   6  -2   19.20    9.40
   5   6  -2   12.90    4.30
  -5  -6   2    4.00   10.50
  -5  -6   2   12.80    9.50
  -5  -6   2    8.80    8.00
   4   6  -2   22.20    4.90
   4   6  -2   24.80    7.40
   4   6  -2   12.40   10.50
   4   6  -2   17.60   13.90
  -4  -6   2   31.40    8.50
  -4  -6   2   22.80    7.10
  -4  -6   2   26.00   10.10
   3   6  -2    5.40    4.40
   3   6  -2    0.80    5.50
   3   6  -2    0.30    8.60
   3   6  -2   -2.70   11.10
  -3  -6   2    1.20    7.60
  -3  -6   2   -2.60    5.20
  -3  -6   2    2.10    5.80
   2   6  -2   28.20   10.40
   2   6  -2   25.80    8.50
   2   6  -2   24.30    7.60
   2   6  -2   24.40    6.20
   2   6  -2   33.20    5.10
  -2  -6   2   44.10   10.40
  -2  -6   2   27.00    8.10
  -2  -6   2   24.10    5.00
  -2  -6   2   34.70   13.80
  -2  -6   2   25.70    6.60
   1   6  -2   14.20    5.40
   1   6  -2    9.80    7.80
   1   6  -2    7.00    4.30
   1   6  -2    5.90    6.20
   1   6  -2   10.30    8.40
   1   6  -2   15.00    5.40
  -1  -6   2    9.20   10.50
  -1  -6   2   20.90    5.30
  -1  -6   2   12.30    4.70
  -1  -6   2   14.70    6.60
  -1  -6   2   13.50    8.80
   0   6  -2  218.38   15.90
   0   6  -2  228.68   11.80
   0   6  -2  258.97   15.00
   0   6  -2  221.08   14.50
   0   6  -2  222.18   11.40
   0   6  -2  218.88   12.30
   0   6  -2  230.38   11.20
   0  -6   2  250.17   15.40
   0  -6   2  283.77   13.20
   0  -6   2  213.28   11.80
   0  -6   2  257.37   11.90
   0  -6   2  214.88   14.00
  -1   6  -2  128.59    8.90
  -1   6  -2  121.79   11.20
  -1   6  -2  129.59    9.40
  -1   6  -2  138.79    8.20
  -1   6  -2  159.38    9.20
  -1   6  -2  141.09   12.00
   1  -6   2  111.49    8.40
   1  -6   2  131.49   11.00
   1  -6   2  142.79   11.80
   1  -6   2  141.99    9.90
   1  -6   2  108.29   11.70
   1  -6   2  127.09    8.80
  -2   6  -2   61.79    6.90
  -2   6  -2   59.09    7.40
  -2   6  -2   65.39    5.10
  -2   6  -2   69.69    7.00
  -2   6  -2   70.99   10.40
  -2   6  -2   69.49    6.50
   2  -6   2   70.69    6.50
   2  -6   2   68.59    7.00
   2  -6   2   31.80    9.90
   2  -6   2   67.89    9.40
   2  -6   2   54.89    7.20
   2  -6   2   59.59    8.00
  -3   6  -2    3.40    5.80
  -3   6  -2    4.70    5.80
  -3   6  -2    4.50    5.50
  -3   6  -2    2.10    3.80
  -3   6  -2    8.00    8.80
   3  -6   2    1.30    6.10
   3  -6   2    3.40    4.30
   3  -6   2    7.00    8.70
   3  -6   2    1.40    5.60
   3  -6   2   -2.60    8.00
   3  -6   2    1.30    5.80
  -4   6  -2   15.50    6.20
  -4   6  -2   26.20    4.70
  -4   6  -2   24.00    7.40
  -4   6  -2   23.60    5.40
  -4   6  -2   22.40   10.70
   4  -6   2   29.90    6.10
   4  -6   2   20.50    9.10
   4  -6   2   31.30    7.40
  -5   6  -2   10.20    7.10
  -5   6  -2    6.60    7.40
  -5   6  -2    2.50    4.90
  -5   6  -2    7.30    5.10
   5  -6   2   12.60    5.10
   5  -6   2   12.30   10.60
   5  -6   2   16.60    9.30
  -6   6  -2    3.80    7.70
  -6   6  -2   -0.20    5.90
  -6   6  -2   -0.70    7.20
   6  -6   2   -6.60    6.70
   6  -6   2   -5.60    5.70
   6  -6   2    8.40    9.90
  -7   6  -2   13.50   10.30
  -7   6  -2   10.50    7.30
  -7   6  -2   14.50    8.90
  -7   6  -2   12.80    8.50
   7  -6   2   12.20    7.90
   7  -6   2    1.10   11.80
  -8   6  -2   45.90   12.40
  -8   6  -2   83.99   11.80
  -8   6  -2  107.59   13.10
  -8   6  -2   73.49   17.90
   8  -6   2   83.89   11.90
   8  -6   2   70.99   18.50
   6   5  -2    0.70   13.90
   6   5  -2   12.30    9.10
   6   5  -2    7.10   18.20
  -6  -5   2   19.60   11.30
  -6  -5   2   13.70    9.50
  -6  -5   2   17.30    9.90
   5   5  -2   28.70    3.80
   5   5  -2   31.90    4.00
   5   5  -2   48.50   16.60
   5   5  -2   45.60    8.30
   5   5  -2   21.30   11.90
  -5  -5   2   28.10    8.20
  -5  -5   2   37.40    7.80
  -5  -5   2   27.50   10.00
   4   5  -2   65.99   11.40
   4   5  -2   86.79   13.20
   4   5  -2   93.69   10.20
   4   5  -2   79.29    6.20
  -4  -5   2   66.59    9.40
  -4  -5   2   94.59    9.40
  -4  -5   2   89.49    9.10
   3   5  -2    5.10    8.30
   3   5  -2    5.30    5.80
   3   5  -2    1.50    5.90
   3   5  -2    5.70    4.90
   3   5  -2    8.20    7.40
   3   5  -2    8.00    3.40
  -3  -5   2    3.30   11.20
  -3  -5   2    5.30    5.00
  -3  -5   2    3.40    4.30
  -3  -5   2    6.00    6.00
   2   5  -2   62.99    9.30
   2   5  -2   69.99    6.60
   2   5  -2   67.19    8.40
   2   5  -2   78.99    6.80
   2   5  -2   75.89    5.20
   2   5  -2   73.09    6.60
   2   5  -2   49.99    6.80
  -2  -5   2   74.59    5.30
  -2  -5   2   68.29    6.20
  -2  -5   2   46.30    5.40
  -2  -5   2   59.69    6.40
  -2  -5   2   98.29   12.60
  -2  -5   2   55.49    8.60
  -2  -5   2   58.09    7.40
   1   5  -2   22.40    4.50
   1   5  -2   25.80    3.90
   1   5  -2   19.40    4.20
   1   5  -2   27.70    5.10
   1   5  -2   10.90    6.60
   1   5  -2   25.90    6.70
   1   5  -2   23.50    6.00
  -1  -5   2   24.50    4.20
  -1  -5   2   25.90    6.00
  -1  -5   2   22.00    3.90
  -1  -5   2   31.70    8.40
  -1  -5   2   31.00    7.10
  -1  -5   2   19.40    4.70
   0   5  -2   61.79    5.80
   0   5  -2   60.99    5.40
   0   5  -2   58.89    7.30
   0   5  -2   45.60    7.20
   0   5  -2   60.79    5.60
   0   5  -2   61.19    7.10
   0   5  -2   55.39    5.40
   0  -5   2   30.00    7.70
   0  -5   2   76.49    5.80
   0  -5   2   43.00    5.70
   0  -5   2   46.50    4.90
   0  -5   2   55.19    7.50
   0  -5   2   47.50    4.80
  -1   5  -2  649.43   21.30
  -1   5  -2  662.63   24.80
  -1   5  -2  615.04   22.50
  -1   5  -2  634.74   22.40
  -1   5  -2  672.23   24.10
  -1   5  -2  658.03   22.40
   1  -5   2  625.64   22.60
   1  -5   2  633.44   24.00
   1  -5   2  667.03   25.10
   1  -5   2  645.14   22.60
   1  -5   2  647.14   24.40
   1  -5   2  639.94   22.40
  -2   5  -2  542.05   19.70
  -2   5  -2  577.74   20.20
  -2   5  -2  564.04   19.60
  -2   5  -2  549.15   18.20
  -2   5  -2  519.75   22.00
  -2   5  -2  549.65   21.60
   2  -5   2  570.94   21.70
   2  -5   2  498.55   20.20
   2  -5   2  546.35   21.90
   2  -5   2  502.95   19.50
   2  -5   2  562.94   21.80
   2  -5   2  548.65   19.50
  -3   5  -2  335.87   15.20
  -3   5  -2  358.06   14.10
  -3   5  -2  339.57   17.30
  -3   5  -2  350.56   14.40
  -3   5  -2  325.77   15.90
  -3   5  -2  337.87   12.60
   3  -5   2  340.27   15.40
   3  -5   2  351.36   16.50
   3  -5   2  338.87   14.00
   3  -5   2  357.06   14.50
   3  -5   2  322.17   16.20
   3  -5   2  308.87   17.50
  -4   5  -2   49.40    6.20
  -4   5  -2   67.29   10.20
  -4   5  -2   60.19    8.30
  -4   5  -2   44.60    4.70
  -4   5  -2   46.60    6.50
  -4   5  -2   43.60    5.20
   4  -5   2   49.60    7.70
   4  -5   2   63.79    9.20
   4  -5   2   36.40    5.80
   4  -5   2   37.40    6.30
   4  -5   2   55.09    6.10
  -5   5  -2    6.40    4.10
  -5   5  -2    0.80    6.10
  -5   5  -2    5.60    5.20
  -5   5  -2   15.30   10.30
  -5   5  -2    9.20    4.50
   5  -5   2   20.10    9.10
   5  -5   2   14.80    5.00
   5  -5   2   16.50    5.00
   5  -5   2    6.40    7.10
  -6   5  -2    0.20    5.30
  -6   5  -2    4.70    6.40
  -6   5  -2    1.00    7.00
  -6   5  -2    1.40    5.50
   6  -5   2    2.70    6.20
   6  -5   2   -2.20    8.50
   6  -5   2   -1.90    5.90
  -7   5  -2    7.90    6.60
  -7   5  -2    8.20    7.10
  -7   5  -2   11.40    8.50
  -7   5  -2    5.80    8.20
   7  -5   2    8.10   12.00
   7  -5   2    4.30    6.50
  -8   5  -2    4.40    7.90
  -8   5  -2    0.30   12.00
  -8   5  -2    6.30    9.10
  -8   5  -2    4.50    9.90
   8  -5   2    3.30    8.60
   8  -5   2   -0.30   13.60
   7   4  -2    3.50    9.00
   7   4  -2   -2.00   14.70
   7   4  -2    9.80   19.60
  -7  -4   2   15.80   10.90
  -7  -4   2   11.50   18.90
   6   4  -2    4.10   14.30
   6   4  -2   14.10   11.70
   6   4  -2    5.20    7.00
  -6  -4   2   18.20    7.80
  -6  -4   2    7.90    7.90
  -6  -4   2   15.50    9.00
   5   4  -2   58.49   13.50
   5   4  -2   48.90    3.90
   5   4  -2   50.59    4.00
   5   4  -2   43.10    8.20
   5   4  -2   73.19   12.50
  -5  -4   2   61.19    9.90
  -5  -4   2   51.69    8.40
  -5  -4   2   46.60    7.40
  -5  -4   2   56.69   20.10
   4   4  -2    3.30    2.60
   4   4  -2    5.80    4.70
   4   4  -2    4.00    7.70
   4   4  -2    3.60    8.80
   4   4  -2    7.70    6.30
   4   4  -2    6.30    2.50
   4   4  -2   -2.50    4.90
  -4  -4   2    2.00    5.70
  -4  -4   2    5.20    4.50
  -4  -4   2    6.30   12.10
  -4  -4   2    4.50    5.00
   3   4  -2   26.20    5.20
   3   4  -2   23.30    7.10
   3   4  -2   22.10    2.90
   3   4  -2   29.00    5.30
   3   4  -2   22.20    7.30
   3   4  -2   21.20    4.10
  -3  -4   2   26.30    5.60
  -3  -4   2   31.30    7.50
  -3  -4   2   20.70    4.40
  -3  -4   2   30.10    5.00
  -3  -4   2   30.00    8.90
   2   4  -2   22.10    3.60
   2   4  -2   41.20    6.80
   2   4  -2   24.60    5.40
   2   4  -2   32.10    6.20
   2   4  -2   39.70    4.70
   2   4  -2   32.60    4.40
   2   4  -2   27.60    3.10
  -2  -4   2   32.20    4.20
  -2  -4   2   31.10    4.90
  -2  -4   2   29.30    4.10
  -2  -4   2   51.49    9.00
  -2  -4   2   31.90    3.20
  -2  -4   2   34.40    6.60
  -2  -4   2   25.00    5.00
   1   4  -2   19.70    5.20
   1   4  -2   28.50    3.70
   1   4  -2   26.50    3.80
   1   4  -2   24.20    3.00
   1   4  -2   24.70    4.30
   1   4  -2    7.50    3.90
   1   4  -2   18.50    5.10
  -1  -4   2   23.20    3.90
  -1  -4   2   26.80    6.70
  -1  -4   2   23.00    5.40
  -1  -4   2   22.30    4.60
  -1  -4   2   23.10    3.50
  -1  -4   2   28.90    3.40
  -1  -4   2   24.20    3.00
   0   4  -2    0.50    2.50
   0   4  -2   -2.80    4.10
   0   4  -2    0.00    2.60
   0   4  -2    2.20    2.10
   0   4  -2    1.00    2.20
   0   4  -2    0.30    3.10
   0   4  -2    1.20    3.10
   0  -4   2    0.10    3.30
   0  -4   2    0.40    2.60
   0  -4   2    0.50    2.50
   0  -4   2   -4.90    4.00
   0  -4   2    3.80    2.60
   0  -4   2   -0.60    4.80
  -1   4  -2  511.35   20.00
  -1   4  -2  509.05   19.50
  -1   4  -2  558.14   18.40
  -1   4  -2  556.94   18.70
  -1   4  -2  521.85   18.30
   1  -4   2  537.05   18.40
   1  -4   2  512.55   18.40
   1  -4   2  523.15   20.10
   1  -4   2  555.54   19.90
   1  -4   2  555.54   18.80
   1  -4   2  516.45   19.80
  -2   4  -2 2200.98   65.09
  -2   4  -2 2182.88   66.29
  -2   4  -2 2154.38   67.89
  -2   4  -2 2137.49   66.69
  -2   4  -2 2084.69   66.09
  -2   4  -2 2090.79   67.89
   2  -4   2 2086.09   66.09
   2  -4   2 2102.49   66.09
   2  -4   2 2156.08   66.69
   2  -4   2 2246.28   67.99
   2  -4   2 2168.78   67.49
   2  -4   2 2119.29   67.89
  -3   4  -2   13.70    3.40
  -3   4  -2   23.50    4.80
  -3   4  -2   13.10    4.20
  -3   4  -2   17.90    3.40
  -3   4  -2   21.30    5.10
  -3   4  -2   19.60    2.80
   3  -4   2   17.30    3.90
   3  -4   2   15.50    2.80
   3  -4   2   14.90    4.70
   3  -4   2   15.70    3.20
   3  -4   2   16.80    4.20
   3  -4   2   28.90    5.00
  -4   4  -2  209.88   10.90
  -4   4  -2  242.08   10.90
  -4   4  -2  234.08   12.70
  -4   4  -2  227.98   11.80
  -4   4  -2  236.48   11.30
  -4   4  -2  236.28   14.20
   4  -4   2  244.78   10.80
   4  -4   2  206.18   13.50
   4  -4   2  247.68   12.50
   4  -4   2  225.48   11.30
   4  -4   2  237.68   10.20
   4  -4   2  239.18   13.50
  -5   4  -2  128.99    9.50
  -5   4  -2   77.79    7.00
  -5   4  -2  120.49    8.20
  -5   4  -2   74.99    7.30
  -5   4  -2  115.49    8.30
   5  -4   2   90.59    8.70
   5  -4   2  139.39   12.00
   5  -4   2  112.49   10.70
   5  -4   2   87.59    7.50
   5  -4   2   98.79    7.00
   5  -4   2  104.29    8.00
  -6   4  -2   66.89    8.20
  -6   4  -2   57.89    9.10
  -6   4  -2   64.49   13.60
  -6   4  -2   66.99    7.00
   6  -4   2   83.59   10.50
   6  -4   2   55.09    7.10
   6  -4   2   58.59    8.20
  -7   4  -2    7.90    7.50
  -7   4  -2   12.90    8.70
  -7   4  -2    6.00    5.70
  -7   4  -2    6.30    6.80
   7  -4   2   10.70    6.20
   7  -4   2   12.30   10.60
  -8   4  -2   11.00    8.80
  -8   4  -2    1.10    8.00
  -8   4  -2   -4.20    8.60
  -8   4  -2   11.00   11.50
   8  -4   2   19.10   13.20
   8  -4   2    8.40    7.40
  -9   4  -2   -6.00   10.80
  -9   4  -2   -6.10   11.10
  -9   4  -2    0.40    9.20
  -9   4  -2   -2.60   10.70
   9  -4   2   -0.40    9.80
   8   3  -2   -3.40   15.20
   8   3  -2    4.20   10.60
  -8  -3   2   -1.60   11.50
  -8  -3   2   -6.80   12.20
  -8  -3   2   -0.70   10.10
   7   3  -2   16.90    8.10
   7   3  -2   17.70    4.90
   7   3  -2   14.80    4.30
   7   3  -2    3.00   16.30
   7   3  -2   12.60   12.70
  -7  -3   2   20.00   10.90
  -7  -3   2   23.00    8.70
  -7  -3   2   14.80    9.40
   6   3  -2  343.67   22.20
   6   3  -2  317.77   20.60
   6   3  -2  335.07   12.30
   6   3  -2  316.77   12.20
   6   3  -2  345.27   16.50
  -6  -3   2  309.87   17.70
  -6  -3   2  329.77   19.70
  -6  -3   2  342.17   16.70
   5   3  -2   65.49    6.90
   5   3  -2   76.59    7.90
   5   3  -2   68.89   10.80
   5   3  -2   68.49    4.90
   5   3  -2   70.79    5.30
   5   3  -2   76.69   10.90
  -5  -3   2   66.79    7.40
  -5  -3   2   71.79    7.40
  -5  -3   2   54.19    7.60
   4   3  -2    4.30    6.80
   4   3  -2    6.40    4.10
   4   3  -2    3.40    2.20
   4   3  -2    6.30    4.70
   4   3  -2    4.30    3.60
   4   3  -2    4.00    2.00
   4   3  -2   -0.50    6.70
   4   3  -2    2.20    6.20
  -4  -3   2    4.30    5.00
  -4  -3   2    1.80    4.40
  -4  -3   2   -2.20    8.30
  -4  -3   2    3.10    3.80
   3   3  -2  138.19    7.70
   3   3  -2  143.89   10.90
   3   3  -2  133.59    8.50
   3   3  -2  125.59    7.90
   3   3  -2  143.29    9.90
   3   3  -2  135.39    5.40
   3   3  -2  143.49   10.10
  -3  -3   2  142.59   11.60
  -3  -3   2  134.89    8.10
  -3  -3   2  147.79    9.50
  -3  -3   2  131.59    7.80
  -3  -3   2  137.49    8.10
   2   3  -2   20.20    4.50
   2   3  -2   22.70    2.10
   2   3  -2   20.70    5.20
   2   3  -2   15.30    3.40
   2   3  -2   17.00    2.90
   2   3  -2   16.00    3.00
   2   3  -2   12.30    4.80
  -2  -3   2   16.70    3.30
  -2  -3   2   14.90    4.90
  -2  -3   2   23.80    4.40
  -2  -3   2   23.10    6.50
  -2  -3   2   19.60    3.20
  -2  -3   2   22.10    3.40
   1   3  -2    8.70    3.60
   1   3  -2    7.80    2.30
   1   3  -2    3.10    3.80
   1   3  -2    6.30    3.10
   1   3  -2    3.30    2.10
   1   3  -2    6.80    2.60
   1   3  -2    3.50    1.70
  -1  -3   2    3.80    2.00
  -1  -3   2    5.10    4.10
  -1  -3   2    5.70    1.70
  -1  -3   2    2.90    2.10
  -1  -3   2    0.10    2.50
  -1  -3   2    6.30    3.80
  -1  -3   2    4.80    2.50
   0   3  -2 1517.45   44.90
   0   3  -2 1434.56   44.40
   0   3  -2 1387.16   46.20
   0   3  -2 1498.95   46.30
   0   3  -2 1446.06   45.00
   0   3  -2 1468.25   45.90
   0   3  -2 1442.06   45.00
   0  -3   2 1448.26   46.30
   0  -3   2 1490.95   44.90
   0  -3   2 1454.05   45.10
   0  -3   2 1513.05   46.00
   0  -3   2 1409.56   46.20
   0  -3   2 1450.45   45.10
  -1   3  -2  100.19    5.30
  -1   3  -2   97.89    5.50
  -1   3  -2  102.59    5.20
  -1   3  -2   98.99    6.50
  -1   3  -2  103.39    6.30
  -1   3  -2  101.19    4.20
   1  -3   2   95.79    6.40
   1  -3   2  108.19    5.60
   1  -3   2   91.69    6.10
   1  -3   2  102.39    6.60
   1  -3   2  104.69    5.40
   1  -3   2  111.59    5.30
  -2   3  -2  542.45   19.50
  -2   3  -2  532.15   18.10
  -2   3  -2  541.25   18.10
  -2   3  -2  560.84   17.30
  -2   3  -2  550.64   19.60
  -2   3  -2  558.64   18.80
   2  -3   2  513.65   18.60
   2  -3   2  509.75   19.40
   2  -3   2  526.15   18.10
   2  -3   2  535.95   18.10
   2  -3   2  551.74   17.30
   2  -3   2  547.25   19.60
  -3   3  -2   35.60    4.90
  -3   3  -2   45.10    4.50
  -3   3  -2   53.39    4.60
  -3   3  -2   49.99    3.70
  -3   3  -2   60.49    4.70
   3  -3   2   48.80    4.30
   3  -3   2   52.19    4.50
   3  -3   2   61.79    5.40
   3  -3   2   52.29    3.70
   3  -3   2   54.99    5.90
   3  -3   2   53.89    6.20
  -4   3  -2  557.44   19.90
  -4   3  -2  578.94   19.90
  -4   3  -2  571.44   21.90
  -4   3  -2  571.34   22.40
  -4   3  -2  575.14   19.40
  -4   3  -2  570.24   20.80
   4  -3   2  560.74   20.70
   4  -3   2  538.15   19.40
   4  -3   2  567.94   22.10
   4  -3   2  573.44   22.10
   4  -3   2  562.44   19.90
   4  -3   2  529.55   19.80
  -5   3  -2  207.18   10.30
  -5   3  -2  196.38   11.30
  -5   3  -2  197.28   12.30
  -5   3  -2  214.38   10.20
  -5   3  -2  192.88   14.70
  -5   3  -2  199.78   10.80
   5  -3   2  184.68   11.80
   5  -3   2  187.18   13.10
   5  -3   2  179.28   12.50
   5  -3   2  186.28   10.10
   5  -3   2  194.08   13.40
   5  -3   2  181.88   10.30
  -6   3  -2   50.49    6.60
  -6   3  -2   60.39   12.30
  -6   3  -2   45.60    6.20
  -6   3  -2   43.60    6.90
  -6   3  -2   32.70    7.60
   6  -3   2   37.10    7.40
   6  -3   2   41.30    6.80
   6  -3   2   55.29    9.10
   6  -3   2   38.90   10.10
   6  -3   2   57.29    7.00
  -7   3  -2    6.60    7.20
  -7   3  -2    8.60    6.60
  -7   3  -2   10.30    7.20
  -7   3  -2    3.90    5.30
   7  -3   2    9.70   10.00
   7  -3   2    5.00    5.70
  -8   3  -2   13.70    7.10
  -8   3  -2   15.30   10.80
  -8   3  -2   16.90    8.60
   8  -3   2   11.70    8.10
   8  -3   2   20.40   13.30
  -9   3  -2   -2.00   12.10
  -9   3  -2    3.20   11.00
  -9   3  -2   22.70   11.50
   9  -3   2   -3.70   17.20
   9  -3   2    6.60   10.00
   8   2  -2   23.60   30.40
   8   2  -2   -0.30    8.70
   8   2  -2    3.10   15.20
   8   2  -2    3.40    7.40
  -8  -2   2   15.20   14.10
  -8  -2   2    5.80   10.30
  -8  -2   2   12.50   20.80
   7   2  -2   12.10    7.30
   7   2  -2   18.00   14.70
   7   2  -2   10.30   12.30
  -7  -2   2    6.90    7.60
  -7  -2   2   12.40    7.20
  -7  -2   2    5.90    8.80
   6   2  -2  120.39    7.60
   6   2  -2  122.79    9.20
   6   2  -2  123.89   13.50
   6   2  -2  136.99   15.00
  -6  -2   2  113.79    9.40
  -6  -2   2  105.39    9.90
  -6  -2   2  123.29   10.20
  -6  -2   2   96.59   14.00
   5   2  -2   -0.70    5.90
   5   2  -2   -1.50    4.00
   5   2  -2   -1.40    2.70
   5   2  -2   -5.90    8.60
   5   2  -2   -3.00    7.20
   5   2  -2    3.90    5.70
  -5  -2   2    1.20    5.40
  -5  -2   2    2.10    8.80
  -5  -2   2   -1.50    4.20
  -5  -2   2   -3.80    4.30
  -5  -2   2   -1.10    4.80
   4   2  -2   27.00    2.60
   4   2  -2   24.20    6.70
   4   2  -2   26.60    4.30
   4   2  -2   20.40    5.40
   4   2  -2   28.10    3.80
   4   2  -2   32.30    7.10
   4   2  -2   17.50    4.40
  -4  -2   2   24.80    5.00
  -4  -2   2   26.90    5.00
  -4  -2   2   15.60    7.30
  -4  -2   2   27.40    4.40
  -4  -2   2   20.40    4.40
   3   2  -2  186.78   10.10
   3   2  -2  211.08   10.20
   3   2  -2  187.28    6.50
   3   2  -2  180.68    6.40
   3   2  -2  190.98   11.30
   3   2  -2  180.68    8.90
   3   2  -2  173.98    8.30
   3   2  -2  185.58    9.10
  -3  -2   2  186.68    8.60
  -3  -2   2  190.78    9.90
  -3  -2   2  216.38   13.30
  -3  -2   2  182.68    9.00
  -3  -2   2  190.88    8.50
   2   2  -2  165.68    5.60
   2   2  -2  180.28    7.60
   2   2  -2  162.18    7.20
   2   2  -2  175.68    9.10
   2   2  -2  182.78    7.30
   2   2  -2  178.88    8.70
   2   2  -2  171.98    8.40
  -2  -2   2  186.38    9.40
  -2  -2   2  176.08    7.50
  -2  -2   2  168.88    7.30
  -2  -2   2  178.28    8.50
  -2  -2   2  173.08    7.60
   1   2  -2   18.50    2.00
   1   2  -2   23.70    2.30
   1   2  -2   15.50    1.90
   1   2  -2   17.10    2.70
   1   2  -2   19.30    3.20
   1   2  -2   18.10    1.50
   1   2  -2   21.10    3.50
  -1  -2   2   14.00    2.00
  -1  -2   2   24.30    2.50
  -1  -2   2   13.70    2.20
  -1  -2   2   19.90    3.20
  -1  -2   2   24.50    3.50
  -1  -2   2   20.40    1.50
  -1  -2   2   20.20    2.10
   0   2  -2  866.21   26.50
   0   2  -2  832.62   26.30
   0   2  -2  839.12   25.60
   0   2  -2  808.42   26.40
   0   2  -2  824.02   25.60
   0   2  -2  782.82   25.00
   0   2  -2  838.62   25.60
   0  -2   2  839.32   25.70
   0  -2   2  804.72   25.70
   0  -2   2  813.22   25.10
   0  -2   2  820.52   25.50
   0  -2   2  816.52   26.50
   0  -2   2  847.02   26.30
  -1   2  -2 1133.59   35.00
  -1   2  -2 1121.09   35.70
  -1   2  -2 1186.58   36.70
  -1   2  -2 1148.09   36.60
  -1   2  -2 1198.08   36.10
  -1   2  -2 1179.28   35.80
   1  -2   2 1179.38   36.70
   1  -2   2 1169.48   36.30
   1  -2   2 1135.39   35.80
   1  -2   2 1176.48   35.80
   1  -2   2 1166.68   36.10
  -2   2  -2  186.08    8.60
  -2   2  -2  192.98    7.50
  -2   2  -2  198.68    7.00
  -2   2  -2  199.18    8.60
  -2   2  -2  192.28    8.20
  -2   2  -2  185.18    7.50
   2  -2   2  195.48    8.70
   2  -2   2  200.08    7.60
   2  -2   2  187.08    6.90
   2  -2   2  188.68    7.60
   2  -2   2  199.48    8.10
   2  -2   2  181.58    8.50
  -3   2  -2  272.07   11.10
  -3   2  -2  276.17   10.20
  -3   2  -2  268.17   11.80
  -3   2  -2  277.97   10.50
  -3   2  -2  266.67   10.40
  -3   2  -2  248.18   12.00
   3  -2   2  286.27   12.30
   3  -2   2  272.67   10.10
   3  -2   2  275.87   11.20
   3  -2   2  287.77   10.60
   3  -2   2  281.27   13.50
   3  -2   2  273.47   10.60
  -4   2  -2   39.60    4.50
  -4   2  -2   27.50    5.20
  -4   2  -2   53.49    6.20
  -4   2  -2   37.00    3.70
  -4   2  -2   36.90    4.40
   4  -2   2   53.09    5.00
   4  -2   2   31.60    4.30
   4  -2   2   54.29    6.40
   4  -2   2   40.20    4.00
   4  -2   2   46.10    5.70
   4  -2   2   34.90    4.00
  -5   2  -2    4.20    3.70
  -5   2  -2    6.70    3.70
  -5   2  -2    6.90    6.00
  -5   2  -2    1.30    3.90
  -5   2  -2    4.80    4.80
  -5   2  -2    3.20    4.60
   5  -2   2    5.20    4.60
   5  -2   2    5.30    3.90
   5  -2   2    3.50    4.30
   5  -2   2    3.10    4.00
   5  -2   2    3.40    5.40
   5  -2   2    6.90    6.00
  -6   2  -2  590.84   21.90
  -6   2  -2  588.84   24.40
  -6   2  -2  554.54   21.90
  -6   2  -2  545.25   26.50
  -6   2  -2  550.94   21.30
   6  -2   2  559.54   21.30
   6  -2   2  541.45   24.60
   6  -2   2  533.05   22.40
   6  -2   2  565.74   25.20
   6  -2   2  555.54   21.90
  -7   2  -2   27.70    8.40
  -7   2  -2   22.80    7.50
  -7   2  -2   30.60    7.40
   7  -2   2   25.20   10.30
   7  -2   2   30.60    6.40
  -8   2  -2    3.10    8.00
  -8   2  -2   -2.40    8.60
  -8   2  -2    3.10    7.60
   8  -2   2    1.90   12.20
   8  -2   2   -2.30    7.00
  -9   2  -2   26.30   13.30
  -9   2  -2   17.30   12.20
  -9   2  -2   26.60   10.80
   9  -2   2   30.60   17.50
   8   1  -2   -3.60    7.80
   8   1  -2    0.80    7.90
   8   1  -2   -1.90   14.30
  -8  -1   2    1.90   10.10
  -8  -1   2    1.70    8.40
  -8  -1   2    3.30    9.40
   7   1  -2   31.20   12.00
   7   1  -2   39.90    7.10
   7   1  -2   38.00    6.40
  -7  -1   2   39.10    8.40
  -7  -1   2   43.90    8.00
  -7  -1   2   47.30    9.50
   6   1  -2   -1.60    8.40
   6   1  -2   -2.40    5.30
   6   1  -2   -1.70    3.90
   6   1  -2    1.20    4.70
  -6  -1   2    2.60    5.90
  -6  -1   2    8.40   10.00
  -6  -1   2    2.50    5.80
  -6  -1   2   -0.90    5.00
   5   1  -2   23.80    4.60
   5   1  -2   19.50    3.30
   5   1  -2   18.80    5.50
   5   1  -2   26.70    4.70
   5   1  -2    8.60    6.80
   5   1  -2   24.60    6.70
  -5  -1   2   23.60    4.60
  -5  -1   2   12.70    5.10
  -5  -1   2   17.00    7.90
  -5  -1   2   10.40    4.60
  -5  -1   2   23.80    6.00
   4   1  -2  246.18   12.60
   4   1  -2  252.07    9.30
   4   1  -2  247.68   10.50
   4   1  -2  251.47   13.30
   4   1  -2  265.27   10.60
   4   1  -2  252.07   11.60
  -4  -1   2  243.78   10.90
  -4  -1   2  267.87   10.80
  -4  -1   2  277.67   12.60
  -4  -1   2  236.98   11.30
  -4  -1   2  266.67   13.50
   3   1  -2    0.70    2.30
   3   1  -2   -0.60    3.90
   3   1  -2    1.40    1.30
   3   1  -2    4.10    2.60
   3   1  -2    0.30    2.80
   3   1  -2    2.70    2.10
  -3  -1   2   -2.10    2.20
  -3  -1   2    0.90    2.00
  -3  -1   2   -0.70    2.60
  -3  -1   2    3.10    3.70
  -3  -1   2    2.00    2.30
   2   1  -2 4178.48  125.09
   2   1  -2 4316.97  124.79
   2   1  -2 4262.47  125.39
   2   1  -2 4111.69  124.39
   2   1  -2 4017.00  123.49
   2   1  -2 4135.59  125.39
   2   1  -2 4240.38  124.39
  -2  -1   2 4055.89  124.39
  -2  -1   2 4078.59  125.19
  -2  -1   2 4149.69  125.39
  -2  -1   2 4064.19  124.69
  -2  -1   2 4159.68  124.49
   1   1  -2    6.90    1.70
   1   1  -2    3.60    2.00
   1   1  -2    5.20    2.20
   1   1  -2    9.40    1.30
  -1  -1   2   11.30    1.50
  -1  -1   2    4.00    1.70
  -1  -1   2   11.90    1.80
  -1  -1   2    9.90    2.50
  -1  -1   2   12.00    1.60
  -1  -1   2    8.50    1.40
  -1   1  -2  575.74   17.40
  -1   1  -2  582.14   17.70
  -1   1  -2  525.35   17.80
   1  -1   2  505.35   17.60
   1  -1   2  546.25   17.90
   1  -1   2  572.74   17.30
   1  -1   2  565.04   17.90
   1  -1   2  545.75   16.90
   1  -1   2  546.25   17.30
  -2   1  -2    1.70    2.20
  -2   1  -2    3.40    1.60
  -2   1  -2    0.80    1.30
  -2   1  -2    4.20    1.50
  -2   1  -2    3.80    2.20
  -2   1  -2    2.00    1.80
   2  -1   2    1.50    1.80
   2  -1   2    2.20    1.90
   2  -1   2    2.10    2.20
   2  -1   2    3.90    1.50
   2  -1   2    5.70    1.80
   2  -1   2    1.20    2.20
  -3   1  -2   62.39    4.60
  -3   1  -2   61.09    4.40
  -3   1  -2   61.99    5.40
  -3   1  -2   44.30    3.70
  -3   1  -2   45.60    3.80
  -3   1  -2   60.29    5.40
   3  -1   2   62.19    4.60
   3  -1   2   52.79    5.10
   3  -1   2   40.20    3.50
   3  -1   2   71.69    5.80
   3  -1   2   69.19    5.00
  -4   1  -2  100.39    8.80
  -4   1  -2   91.29    6.30
  -4   1  -2   83.99    7.40
  -4   1  -2   89.49    6.00
  -4   1  -2   85.09    6.30
  -4   1  -2   95.39    6.50
   4  -1   2   90.29    6.30
   4  -1   2  114.09    8.90
   4  -1   2   86.89    6.40
   4  -1   2   57.39    4.90
   4  -1   2   91.69    6.60
   4  -1   2  109.49    8.80
  -5   1  -2   -1.30    6.30
  -5   1  -2    1.80    4.10
  -5   1  -2    4.90    4.10
  -5   1  -2    4.50    3.50
  -5   1  -2    1.30    3.10
   5  -1   2    2.10    3.10
   5  -1   2    1.70    5.30
   5  -1   2   -2.70    5.10
   5  -1   2   -3.30    3.80
   5  -1   2   -1.40    4.20
   5  -1   2   -0.70    4.00
  -6   1  -2  381.66   17.50
  -6   1  -2  409.26   22.70
  -6   1  -2  427.56   20.00
  -6   1  -2  417.86   17.10
   6  -1   2  409.66   16.90
   6  -1   2  401.36   18.10
   6  -1   2  395.96   20.80
   6  -1   2  412.56   18.10
   6  -1   2  373.96   21.10
  -7   1  -2    6.30    6.70
  -7   1  -2    3.70    6.10
  -7   1  -2    9.20    5.80
   7  -1   2    9.40    7.90
   7  -1   2    8.80    5.90
   7  -1   2    9.40    9.90
  -8   1  -2    3.10    8.10
  -8   1  -2   -1.90    9.50
  -8   1  -2    3.10    8.10
   8  -1   2   -5.20   12.40
  -9   1  -2    6.20   11.60
  -9   1  -2    3.20   11.30
  -9   1  -2    9.10   13.80
   9  -1   2   34.60   27.80
   9  -1   2    4.40   10.10
   9   0  -2    5.50   17.60
   9   0  -2   -4.40    9.80
  -9   0   2    4.20   11.90
  -9   0   2   -7.40   10.80
  -9   0   2    6.00   12.40
   8   0  -2    2.00    7.50
   8   0  -2   -1.60    8.20
   8   0  -2    2.60   13.10
  -8   0   2    6.20    8.20
  -8   0   2    6.80    8.90
  -8   0   2    7.50    9.90
   7   0  -2    5.00    5.80
   7   0  -2   -0.20    5.30
   7   0  -2    7.00   10.60
  -7   0   2    6.80    7.50
  -7   0   2    5.70    6.20
  -7   0   2   11.00    7.10
  -7   0   2   -2.70   12.90
   6   0  -2   28.60    8.90
   6   0  -2   21.50    5.90
   6   0  -2   23.60    5.00
   6   0  -2   26.20    4.90
  -6   0   2   22.80    5.30
  -6   0   2   31.80    9.70
  -6   0   2   20.30    5.70
  -6   0   2   18.10    6.40
  -6   0   2   32.60    7.00
   5   0  -2   91.59    6.60
   5   0  -2   93.09    8.50
   5   0  -2  121.19    8.20
   5   0  -2  135.79   10.40
   5   0  -2  109.69    7.30
  -5   0   2   95.09    7.30
  -5   0   2   98.09    8.80
  -5   0   2  125.59    8.00
  -5   0   2  106.19    7.40
  -5   0   2  118.09   10.40
  -5   0   2   89.99    6.40
   4   0  -2  455.25   16.10
   4   0  -2  473.85   18.00
   4   0  -2  423.06   15.50
   4   0  -2  455.15   16.90
   4   0  -2  472.85   18.20
  -4   0   2  458.45   16.90
  -4   0   2  457.05   16.40
  -4   0   2  478.55   18.30
  -4   0   2  467.75   16.30
  -4   0   2  448.86   15.60
  -4   0   2  459.85   17.80
   3   0  -2 1141.49   35.00
   3   0  -2 1098.19   35.00
   3   0  -2 1119.39   35.60
   3   0  -2 1108.19   36.30
   3   0  -2 1133.79   34.70
   3   0  -2 1150.88   36.40
  -3   0   2 1117.39   35.70
  -3   0   2 1144.79   36.30
  -3   0   2 1125.99   34.70
  -3   0   2 1057.59   36.00
  -3   0   2 1126.09   35.10
  -3   0   2 1162.48   35.20
   0   0   2  841.12   23.50
   0   0   2  722.43   23.50
  -1   0  -2  601.64   19.20
  -1   0  -2  621.34   19.00
   1   0   2  604.64   19.00
   1   0   2  629.44   19.70
   1   0   2  623.24   19.30
   1   0   2  608.34   19.10
   1   0   2  613.24   19.60
  -2   0  -2  119.89    6.60
  -2   0  -2  118.99    5.30
  -2   0  -2  118.99    6.20
  -2   0  -2  113.29    5.20
  -2   0  -2  122.49    5.50
   2   0   2  120.49    5.30
   2   0   2  120.99    5.50
   2   0   2  117.89    6.30
   2   0   2  116.09    5.50
   2   0   2  126.39    6.70
   2   0   2  112.49    5.30
  -3   0  -2   45.90    3.70
  -3   0  -2   47.80    3.90
  -3   0  -2   66.19    4.70
  -3   0  -2   57.39    5.50
  -3   0  -2   69.69    6.10
   3   0   2   48.30    3.90
   3   0   2   71.69    4.80
   3   0   2   61.89    4.60
   3   0   2   75.79    6.50
   3   0   2   66.89    4.80
   3   0   2   44.80    4.70
  -4   0  -2    7.70    3.30
  -4   0  -2    3.80    3.00
  -4   0  -2    5.50    3.50
  -4   0  -2    4.00    4.20
  -4   0  -2    6.60    2.90
   4   0   2    2.50    3.10
   4   0   2    9.70    4.70
   4   0   2    7.00    3.60
   4   0   2    5.30    2.70
   4   0   2    6.70    3.70
   4   0   2    5.20    4.50
  -5   0  -2   38.00    5.70
  -5   0  -2   58.69    6.20
  -5   0  -2   43.40    7.90
  -5   0  -2   38.60    4.90
   5   0   2   44.00    5.80
   5   0   2   59.49    6.30
   5   0   2   64.39    8.70
   5   0   2   61.59    8.00
   5   0   2   54.29    5.30
  -6   0  -2    2.60    5.00
  -6   0  -2    0.60    6.00
  -6   0  -2    5.50    5.00
  -6   0  -2    2.30   11.10
   6   0   2    8.60    5.90
   6   0   2    6.40    8.60
   6   0   2    6.70    8.50
  -7   0  -2   -7.00    6.50
  -7   0  -2   -2.10    7.60
  -7   0  -2   -2.80    5.90
   7   0   2    0.60    6.00
   7   0   2    6.10   10.90
   7   0   2   -1.60    7.80
  -8   0  -2   31.70    9.40
  -8   0  -2   30.10   12.00
  -8   0  -2   59.79   11.50
   8   0   2   45.60   10.00
   8   0   2   40.30   14.60
  -9   0  -2   18.30   12.20
   9  -1  -2   -6.20    8.90
   9  -1  -2    3.40   18.50
  -9   1   2   -6.30   11.70
  -9   1   2    2.50   10.20
  -9   1   2   -7.00   11.20
   8  -1  -2    0.90    9.00
   8  -1  -2    5.20    7.10
   8  -1  -2    3.90   12.40
  -8   1   2    3.70    7.40
  -8   1   2   15.30    9.60
  -8   1   2    3.70    9.00
   7  -1  -2   20.60   10.10
   7  -1  -2   26.70    5.90
   7  -1  -2   31.80    7.30
  -7   1   2   23.80    7.20
  -7   1   2   25.60    6.00
  -7   1   2   22.50    8.50
  -7   1   2   18.30    6.50
  -7   1   2   16.00   11.90
   6  -1  -2  128.09   10.10
   6  -1  -2  120.69   11.30
   6  -1  -2   78.89    9.40
   6  -1  -2  112.29    8.10
   6  -1  -2   90.39    8.40
  -6   1   2  116.69    8.40
  -6   1   2  106.99   10.30
  -6   1   2  117.49    8.80
  -6   1   2  117.49    8.80
  -6   1   2  121.39    9.30
  -6   1   2  121.29   12.00
   5  -1  -2   -0.30    2.80
   5  -1  -2    5.80    5.50
   5  -1  -2    2.80    3.30
   5  -1  -2    1.00    4.20
   5  -1  -2    0.60    3.50
   5  -1  -2   -2.90    5.10
  -5   1   2    3.20    3.20
  -5   1   2   -1.20    5.30
  -5   1   2   -1.60    3.00
  -5   1   2    2.10    4.10
  -5   1   2    4.50    4.30
  -5   1   2    0.10    4.00
   4  -1  -2  117.59    6.10
   4  -1  -2  104.89    7.20
   4  -1  -2  112.49    7.00
   4  -1  -2  101.39    7.70
   4  -1  -2  102.79    8.20
   4  -1  -2  101.69    6.10
  -4   1   2  112.29    6.50
  -4   1   2   98.39    8.30
  -4   1   2  114.29    7.10
  -4   1   2  104.89    6.10
  -4   1   2  105.59    7.50
   3  -1  -2   44.40    3.30
   3  -1  -2   37.30    3.40
   3  -1  -2   44.50    4.20
   3  -1  -2   51.19    4.70
   3  -1  -2   31.70    3.30
   3  -1  -2   42.40    3.30
  -3   1   2   46.20    3.70
  -3   1   2   41.50    4.30
  -3   1   2   47.60    3.60
  -3   1   2   48.60    3.90
  -3   1   2   47.10    3.50
  -3   1   2   48.90    4.60
   2  -1  -2 4353.76  130.39
   2  -1  -2 4280.07  129.59
   2  -1  -2 4325.97  129.59
   2  -1  -2 4544.75  130.59
   2  -1  -2 4231.08  130.19
   2  -1  -2 4360.86  130.09
  -2   1   2 4259.67  130.09
  -2   1   2 4322.97  129.69
  -2   1   2 4316.27  130.29
  -2   1   2 4359.26  130.49
  -2   1   2 4288.67  130.39
  -2   1   2 4362.56  129.79
   1  -1  -2  189.78    6.00
   1  -1  -2  158.48    6.40
  -1   1   2  191.68    7.00
  -1   1   2  180.98    6.70
  -1   1   2  183.78    6.20
  -1   1   2  185.08    6.80
  -1   1   2  180.98    6.20
  -1   1   2  186.48    6.70
   0  -1  -2  348.67   11.20
   0  -1  -2  334.27   10.50
   0   1   2  322.97   10.60
   0   1   2  336.27   11.10
   0   1   2  332.77   10.60
   0   1   2  351.86   11.30
   0   1   2  318.47   11.20
   0   1   2  312.27   11.00
  -1  -1  -2  654.93   21.50
  -1  -1  -2  656.23   21.10
  -1  -1  -2  679.53   20.70
  -1  -1  -2  653.23   20.70
  -1  -1  -2  647.24   21.50
   1   1   2  670.63   21.10
   1   1   2  640.64   20.80
   1   1   2  655.53   20.70
   1   1   2  660.23   21.50
   1   1   2  688.53   21.50
   1   1   2  656.83   21.70
   1   1   2  657.23   21.00
  -2  -1  -2  394.36   15.50
  -2  -1  -2  442.86   14.20
  -2  -1  -2  404.46   15.30
  -2  -1  -2  420.86   14.10
  -2  -1  -2  423.16   14.50
   2   1   2  413.76   15.30
   2   1   2  416.46   14.20
   2   1   2  417.96   14.20
   2   1   2  416.56   14.50
   2   1   2  413.86   15.60
  -3  -1  -2   59.99    5.70
  -3  -1  -2   71.89    5.00
  -3  -1  -2   56.89    5.00
  -3  -1  -2   57.19    4.40
  -3  -1  -2   64.69    6.80
   3   1   2   51.29    4.30
   3   1   2   58.29    6.00
   3   1   2   72.19    5.30
   3   1   2   47.20    4.00
   3   1   2   73.69    7.10
  -4  -1  -2  172.48   10.70
  -4  -1  -2  161.98   12.50
  -4  -1  -2  199.68    9.20
  -4  -1  -2  161.28    9.60
  -4  -1  -2  201.58    9.90
   4   1   2  185.98   11.40
   4   1   2  171.58   12.20
   4   1   2  185.28    9.40
   4   1   2  189.68    9.20
   4   1   2  178.98    9.80
   4   1   2  179.88    9.10
  -5  -1  -2  367.46   20.90
  -5  -1  -2  386.66   16.70
  -5  -1  -2  409.26   16.10
  -5  -1  -2  392.56   18.50
  -5  -1  -2  376.46   16.50
   5   1   2  410.16   21.40
   5   1   2  377.66   15.90
   5   1   2  382.46   16.30
   5   1   2  361.16   19.10
   5   1   2  373.36   15.70
  -6  -1  -2   59.89    8.50
  -6  -1  -2   68.59   10.30
  -6  -1  -2   56.39    7.70
   6   1   2   76.49   11.00
   6   1   2   70.79    7.90
   6   1   2   87.69   10.00
  -7  -1  -2   65.89    8.60
  -7  -1  -2   67.29    9.40
  -7  -1  -2   85.29   11.60
   7   1   2   86.09    8.60
   7   1   2   75.09    9.60
   7   1   2   62.69   13.10
  -8  -1  -2  137.19   14.50
  -8  -1  -2  144.49   18.00
  -8  -1  -2  116.79   12.40
   8   1   2  117.69   18.10
   8   1   2  130.79   12.50
   9  -2  -2   -3.10    9.10
   9  -2  -2   -1.10   17.00
  -9   2   2    0.10    9.50
  -9   2   2   -4.30   10.00
  -9   2   2   12.00   16.10
   8  -2  -2    7.80   15.60
  -8   2   2    0.90    9.60
  -8   2   2   -0.80    7.40
  -8   2   2   -3.40    8.20
  -8   2   2    2.00    6.70
   7  -2  -2    3.60    9.50
   7  -2  -2   11.00    7.20
   7  -2  -2   -1.70    4.80
  -7   2   2   -0.80    5.70
  -7   2   2    5.40    6.10
  -7   2   2   11.60    6.60
  -7   2   2    7.40   12.40
  -7   2   2    5.40    5.20
   6  -2  -2   13.40    4.20
   6  -2  -2   11.50    5.60
   6  -2  -2   13.10    6.20
   6  -2  -2   16.60    6.00
   6  -2  -2   17.10    7.60
  -6   2   2   15.90    5.10
  -6   2   2   17.00    8.60
  -6   2   2   10.80    5.80
  -6   2   2   16.20    5.40
  -6   2   2    8.70    5.30
  -6   2   2   24.30    5.60
   5  -2  -2   92.49    9.00
   5  -2  -2   91.49    7.30
   5  -2  -2   90.69    6.40
   5  -2  -2   93.29    8.80
   5  -2  -2   94.09    7.20
  -5   2   2   89.39    6.80
  -5   2   2   79.69    6.60
  -5   2   2   98.59    8.70
  -5   2   2   96.09    9.00
  -5   2   2   80.39    6.90
  -5   2   2   80.29    6.40
   4  -2  -2   92.09    8.40
   4  -2  -2   99.29    8.20
   4  -2  -2  105.19    6.30
   4  -2  -2  112.89    7.30
   4  -2  -2  101.29    7.10
  -4   2   2  107.89    6.90
  -4   2   2  108.09    7.60
  -4   2   2  108.79    7.00
  -4   2   2   97.89    6.20
  -4   2   2   98.49    8.70
  -4   2   2  104.19    6.70
   3  -2  -2   94.19    5.80
   3  -2  -2   73.19    6.40
   3  -2  -2   85.09    4.80
   3  -2  -2   79.69    6.20
   3  -2  -2   87.09    4.90
   3  -2  -2   77.09    5.80
  -3   2   2   87.69    5.70
  -3   2   2   90.09    6.20
  -3   2   2   86.29    5.00
  -3   2   2   75.99    5.50
  -3   2   2   87.29    6.50
   2  -2  -2  320.27   11.00
   2  -2  -2  312.07   12.10
   2  -2  -2  318.17   11.90
   2  -2  -2  334.27   12.20
   2  -2  -2  317.57   11.60
   2  -2  -2  326.97   11.10
  -2   2   2  317.57   12.10
  -2   2   2  331.87   12.00
  -2   2   2  322.27   11.20
  -2   2   2  324.97   11.70
  -2   2   2  325.57   11.20
  -2   2   2  332.37   12.20
   1  -2  -2  488.35   17.10
   1  -2  -2  524.45   16.20
   1  -2  -2  515.25   16.30
   1  -2  -2  506.95   17.20
   1  -2  -2  497.55   17.00
  -1   2   2  534.35   16.40
  -1   2   2  489.25   17.10
  -1   2   2  528.55   16.40
  -1   2   2  507.55   17.20
  -1   2   2  485.85   16.80
   0  -2  -2 2604.34   76.89
   0  -2  -2 2611.34   76.89
   0  -2  -2 2445.36   77.79
   0  -2  -2 2508.35   77.79
   0  -2  -2 2584.04   77.49
   0   2   2 2567.14   76.99
   0   2   2 2521.95   76.99
   0   2   2 2543.55   77.79
   0   2   2 2501.75   77.39
   0   2   2 2603.64   77.59
  -1  -2  -2  411.26   13.70
  -1  -2  -2  401.56   14.70
  -1  -2  -2  417.16   13.80
  -1  -2  -2  399.56   15.30
  -1  -2  -2  398.26   14.90
  -1  -2  -2  406.86   14.00
   1   2   2  423.96   15.00
   1   2   2  395.56   13.80
   1   2   2  408.86   15.20
   1   2   2  375.06   14.50
   1   2   2  407.26   13.80
   1   2   2  391.16   14.20
   1   2   2  413.16   14.00
  -2  -2  -2 1461.95   47.30
  -2  -2  -2 1486.65   47.50
  -2  -2  -2 1507.35   45.90
  -2  -2  -2 1434.56   45.80
   2   2   2 1489.45   45.90
   2   2   2 1420.26   46.00
   2   2   2 1527.55   47.00
   2   2   2 1500.75   45.90
   2   2   2 1435.76   47.30
   2   2   2 1485.05   46.30
  -3  -2  -2  133.39    7.30
  -3  -2  -2  126.19    8.90
  -3  -2  -2  136.09    7.80
  -3  -2  -2  140.79   11.00
  -3  -2  -2  121.59    8.00
   3   2   2  145.09    7.10
   3   2   2  139.39    8.60
   3   2   2  142.49   10.50
   3   2   2  133.49    9.40
   3   2   2  135.29    7.50
   3   2   2  135.09    9.50
   3   2   2  138.99    7.80
  -4  -2  -2   50.39    5.30
  -4  -2  -2   38.40    8.90
  -4  -2  -2   38.60    6.20
  -4  -2  -2   47.70    5.90
  -4  -2  -2   42.00    5.80
   4   2   2   34.30    5.40
   4   2   2   41.70    8.00
   4   2   2   43.70    5.40
   4   2   2   27.70    5.20
   4   2   2   40.60    5.10
   4   2   2   52.59    8.10
  -5  -2  -2   30.10    7.70
  -5  -2  -2   29.70    7.60
  -5  -2  -2   33.20    6.40
  -5  -2  -2   43.80    6.20
  -5  -2  -2   41.80   11.80
   5   2   2   22.20    8.30
   5   2   2   32.30    5.90
   5   2   2   35.70    5.70
   5   2   2   54.49   10.50
  -6  -2  -2   11.20    5.50
  -6  -2  -2   10.30    6.90
  -6  -2  -2    5.40    7.00
   6   2   2   28.20   19.70
   6   2   2   17.20   10.10
   6   2   2    8.20    6.70
   6   2   2    8.80    6.20
  -7  -2  -2    1.20    9.50
  -7  -2  -2    8.80    8.00
  -7  -2  -2    6.60    7.20
   7   2   2    5.70    7.60
   7   2   2   14.50   12.20
   7   2   2   -0.60   16.10
   7   2   2    8.40    8.80
  -8  -2  -2   13.50    9.30
  -8  -2  -2   19.80   11.90
   8   2   2   13.00   10.00
   8   2   2   12.30   18.10
   8   2   2   16.00   23.30
   8   2   2   10.10    8.70
   9  -3  -2   -1.20   20.20
  -9   3   2   11.90   10.40
  -9   3   2    6.50    9.30
  -9   3   2   -7.80   11.80
   8  -3  -2   48.40    8.20
   8  -3  -2   56.99   18.10
  -8   3   2   34.60    9.30
  -8   3   2   35.20    8.90
  -8   3   2   50.39   10.40
  -8   3   2   48.00   11.80
   7  -3  -2   41.90    6.70
   7  -3  -2   67.09   12.20
  -7   3   2   27.50    6.50
  -7   3   2   52.29    8.70
  -7   3   2   62.29   10.50
  -7   3   2   48.80   13.90
  -7   3   2   57.29    8.60
   6  -3  -2   -1.30    7.80
   6  -3  -2   -3.90    4.90
   6  -3  -2   -0.30    6.20
   6  -3  -2   -2.00    6.10
   6  -3  -2    0.10    4.10
  -6   3   2   -4.00    9.10
  -6   3   2    0.00    5.80
  -6   3   2   -4.60    5.10
  -6   3   2   -3.10    4.70
  -6   3   2   -2.90    5.10
   5  -3  -2   26.50    4.10
   5  -3  -2   33.00    6.20
   5  -3  -2   21.00    5.10
   5  -3  -2   23.70    4.50
   5  -3  -2   34.80    7.30
   5  -3  -2   32.50    7.30
  -5   3   2   28.20    4.40
  -5   3   2   23.00    4.90
  -5   3   2   33.10    5.30
  -5   3   2   22.40    4.60
  -5   3   2   29.90    7.30
  -5   3   2   16.40    4.90
   4  -3  -2  442.16   18.00
   4  -3  -2  396.56   16.40
   4  -3  -2  438.06   17.00
   4  -3  -2  439.96   15.60
   4  -3  -2  424.66   15.70
   4  -3  -2  441.36   17.90
  -4   3   2  437.16   18.00
  -4   3   2  431.96   16.30
  -4   3   2  424.66   15.80
  -4   3   2  438.76   16.80
  -4   3   2  411.66   15.90
  -4   3   2  448.86   17.70
   3  -3  -2   75.09    5.30
   3  -3  -2   78.79    5.60
   3  -3  -2   90.49    7.00
   3  -3  -2   69.99    5.00
   3  -3  -2   76.79    6.90
   3  -3  -2   81.59    6.10
  -3   3   2   73.09    6.40
  -3   3   2   74.29    5.20
  -3   3   2   81.69    6.10
  -3   3   2   79.69    6.50
  -3   3   2   67.69    5.10
  -3   3   2   77.89    5.30
   2  -3  -2   62.89    4.40
   2  -3  -2   60.89    4.20
   2  -3  -2   64.99    5.80
   2  -3  -2   60.69    5.50
   2  -3  -2   51.69    4.60
   2  -3  -2   54.09    5.20
  -2   3   2   53.59    4.00
  -2   3   2   54.49    4.00
  -2   3   2   68.39    5.80
  -2   3   2   51.09    5.60
  -2   3   2   64.89    4.80
   1  -3  -2  635.94   21.60
   1  -3  -2  605.54   20.20
   1  -3  -2  637.34   20.20
   1  -3  -2  607.14   21.00
   1  -3  -2  640.44   21.30
  -1   3   2  607.64   21.20
  -1   3   2  643.24   21.70
  -1   3   2  623.74   20.40
  -1   3   2  626.84   20.50
  -1   3   2  627.24   21.60
  -1   3   2  588.64   21.00
   0  -3  -2  389.86   15.00
   0  -3  -2  389.06   13.60
   0  -3  -2  400.76   14.80
   0  -3  -2  394.56   13.60
   0   3   2  396.46   13.70
   0   3   2  389.46   15.00
   0   3   2  397.46   14.60
   0   3   2  376.66   13.70
   0   3   2  367.76   14.90
   0   3   2  399.06   14.20
  -1  -3  -2   10.30    3.30
  -1  -3  -2   -0.90    3.80
  -1  -3  -2   10.10    5.10
  -1  -3  -2    8.30    2.40
  -1  -3  -2    7.80    2.60
   1   3   2   11.00    4.10
   1   3   2   11.20    2.90
   1   3   2    5.00    3.00
   1   3   2    4.80    3.90
   1   3   2    5.30    2.40
   1   3   2    4.10    2.90
   1   3   2   15.00    3.10
  -2  -3  -2 2048.40   69.19
  -2  -3  -2 2167.58   67.99
  -2  -3  -2 2292.27   69.89
  -2  -3  -2 2159.78   67.49
  -2  -3  -2 2215.68   67.59
   2   3   2 2127.59   67.89
   2   3   2 2208.08   68.89
   2   3   2 2227.68   69.49
   2   3   2 2202.58   69.39
   2   3   2 2229.48   67.69
   2   3   2 2172.38   67.59
   2   3   2 2180.68   67.49
  -3  -3  -2   29.10    8.10
  -3  -3  -2   23.80    5.10
  -3  -3  -2   20.90    4.00
  -3  -3  -2   28.50    4.80
  -3  -3  -2   32.80    5.10
   3   3   2   31.10    6.30
   3   3   2   29.60    5.90
   3   3   2   24.20    3.90
   3   3   2   29.10    7.00
   3   3   2   35.30    5.00
   3   3   2   39.20    7.80
  -4  -3  -2   38.60   11.10
  -4  -3  -2   30.60    6.00
  -4  -3  -2   21.60    5.30
  -4  -3  -2   43.10    5.60
  -4  -3  -2   21.30    5.70
   4   3   2   27.10    8.10
   4   3   2   37.80    6.80
   4   3   2   43.60    5.10
   4   3   2   43.20    9.20
   4   3   2   31.30    4.80
   4   3   2   17.30    5.30
   4   3   2   30.80    9.30
  -5  -3  -2    7.60    5.60
  -5  -3  -2   13.60    6.20
  -5  -3  -2    4.00    5.90
   5   3   2   10.70    5.10
   5   3   2    9.80    5.60
   5   3   2   12.60    4.80
   5   3   2   15.00   10.60
   5   3   2   12.90   10.50
  -6  -3  -2   19.20    6.90
  -6  -3  -2   13.10    7.10
  -6  -3  -2   25.30    7.60
   6   3   2   36.90   14.40
   6   3   2   26.70    6.50
   6   3   2   19.10    7.50
   6   3   2   25.80   11.00
   6   3   2   21.10    6.70
  -7  -3  -2   16.60   10.10
  -7  -3  -2   18.30    8.80
  -7  -3  -2   13.10   10.60
   7   3   2   11.00    7.70
   7   3   2   15.10   14.40
   7   3   2   12.80   10.40
   7   3   2   54.39   19.90
   9  -4  -2   17.90    9.20
  -9   4   2    9.60   11.50
  -9   4   2    4.10   11.80
  -9   4   2   19.90   10.20
  -9   4   2   29.60   14.00
   8  -4  -2  128.39   10.80
   8  -4  -2  137.89   17.30
  -8   4   2  131.09   13.10
  -8   4   2  121.09   13.00
  -8   4   2  120.19   12.20
  -8   4   2  167.38   13.20
   7  -4  -2   20.30   11.10
   7  -4  -2   11.50    6.60
  -7   4   2   11.30    7.40
  -7   4   2   24.10    9.20
  -7   4   2    9.80    6.20
  -7   4   2   15.60   14.70
  -7   4   2    4.70    6.90
   6  -4  -2  423.36   22.10
   6  -4  -2  439.46   18.60
   6  -4  -2  436.56   17.60
  -6   4   2  454.95   18.40
  -6   4   2  409.26   18.70
  -6   4   2  462.85   19.80
  -6   4   2  428.36   24.60
  -6   4   2  403.16   22.10
   5  -4  -2  124.89    8.30
   5  -4  -2  112.89    9.10
   5  -4  -2  116.79    8.00
   5  -4  -2  139.09   11.60
   5  -4  -2  139.39   11.50
  -5   4   2  111.69    8.20
  -5   4   2  149.99   10.10
  -5   4   2   93.19    7.30
  -5   4   2  119.89    8.40
  -5   4   2   85.39    8.30
  -5   4   2  121.19   10.60
   4  -4  -2    2.20    4.60
   4  -4  -2    2.80    3.70
   4  -4  -2    0.10    4.00
   4  -4  -2    0.00    4.90
   4  -4  -2    1.40    4.60
   4  -4  -2    2.50    3.10
  -4   4   2    9.10    4.40
  -4   4   2    5.20    5.90
  -4   4   2    2.80    3.30
  -4   4   2    4.40    4.50
  -4   4   2    1.30    3.80
  -4   4   2    4.20    3.60
   3  -4  -2  310.97   13.90
   3  -4  -2  271.07   11.60
   3  -4  -2  283.27   13.10
   3  -4  -2  283.17   13.40
   3  -4  -2  303.77   14.50
   3  -4  -2  283.07   11.60
  -3   4   2  294.37   11.90
  -3   4   2  306.57   13.70
  -3   4   2  272.77   11.90
  -3   4   2  300.27   12.20
  -3   4   2  300.77   13.10
  -3   4   2  284.67   13.90
   2  -4  -2   20.20    4.50
   2  -4  -2   25.80    4.80
   2  -4  -2   33.60    3.80
   2  -4  -2   17.20    4.40
   2  -4  -2   27.00    3.40
   2  -4  -2   26.40    5.90
  -2   4   2   19.00    3.50
  -2   4   2   22.90    4.00
  -2   4   2   24.40    3.60
  -2   4   2   23.20    5.60
  -2   4   2   17.50    4.10
  -2   4   2   16.80    4.00
   1  -4  -2  149.29   10.10
   1  -4  -2  159.28    9.00
   1  -4  -2  160.08    7.40
   1  -4  -2  141.79    9.00
   1  -4  -2  143.89    7.50
   1  -4  -2  148.49    8.40
  -1   4   2  151.38    8.40
  -1   4   2  160.08    7.60
  -1   4   2  138.09    8.80
  -1   4   2  144.59   10.50
  -1   4   2  156.38    9.40
  -1   4   2  137.89    7.60
   0  -4  -2    1.40    3.00
   0  -4  -2   -1.90    2.70
   0  -4  -2   -2.70    3.20
   0  -4  -2   -6.60    5.00
   0  -4  -2    1.10    6.00
   0  -4  -2    2.60    2.30
   0   4   2    0.80    3.00
   0   4   2    0.80    2.80
   0   4   2    2.20    3.50
   0   4   2   -1.50    3.20
   0   4   2    0.00    2.90
   0   4   2    0.10    4.20
   0   4   2   -0.80    3.30
  -1  -4  -2  433.46   15.50
  -1  -4  -2  380.96   18.10
  -1  -4  -2  427.76   15.80
  -1  -4  -2  439.76   17.70
  -1  -4  -2  417.96   17.30
  -1  -4  -2  414.16   15.60
   1   4   2  396.36   17.70
   1   4   2  415.76   15.80
   1   4   2  431.36   15.90
   1   4   2  400.76   17.60
   1   4   2  417.36   16.20
   1   4   2  434.56   15.80
   1   4   2  428.26   17.30
  -2  -4  -2   35.80    7.60
  -2  -4  -2   58.49    7.00
  -2  -4  -2   44.30    5.40
  -2  -4  -2   43.20    5.00
  -2  -4  -2   64.59   10.00
   2   4   2   44.70    5.30
   2   4   2   57.09    7.80
   2   4   2   48.10    7.70
   2   4   2   57.89    5.80
   2   4   2   54.89    5.30
   2   4   2   38.50    7.20
   2   4   2   59.59    6.60
  -3  -4  -2   -1.50    5.00
  -3  -4  -2    3.70    4.60
  -3  -4  -2    5.20    4.30
  -3  -4  -2   11.50    9.80
   3   4   2    0.40    6.00
   3   4   2   -0.50    7.80
   3   4   2    0.50    4.00
   3   4   2    1.60    7.00
   3   4   2    0.10    4.80
   3   4   2   -3.60    5.70
   3   4   2    5.50    4.10
  -4  -4  -2    6.40    6.80
  -4  -4  -2   14.80    5.40
  -4  -4  -2   14.20    6.40
   4   4   2   13.80    8.40
   4   4   2   11.40    5.00
   4   4   2   12.70    9.80
   4   4   2   20.00    9.40
  -5  -4  -2   29.80    8.50
  -5  -4  -2   24.70    9.30
  -5  -4  -2   31.50    7.60
   5   4   2   23.30   11.10
   5   4   2   22.80    6.20
   5   4   2   38.30    7.80
   5   4   2   16.60   13.10
  -6  -4  -2   -8.30    9.30
  -6  -4  -2   -0.90    9.60
  -6  -4  -2   -3.10    8.10
   6   4   2   -6.50   16.10
   6   4   2   -2.10    8.50
   6   4   2    3.30   12.70
   6   4   2    1.70    6.70
   6   4   2   -0.60    8.50
  -7  -4  -2   -2.50   10.40
  -7  -4  -2   10.50   26.90
  -7  -4  -2   -5.20   12.00
   7   4   2   -3.50    8.10
   7   4   2   29.20   23.70
   7   4   2   10.40   10.70
   7   4   2   -7.80   16.70
   8  -5  -2    2.90   14.90
   8  -5  -2   -7.90    7.30
  -8   5   2   -3.80    9.60
  -8   5   2   -4.20    9.20
  -8   5   2   -3.80    9.60
  -8   5   2    2.90    9.10
   7  -5  -2    7.60   11.10
   7  -5  -2    2.40    6.10
  -7   5   2   -1.50    6.70
  -7   5   2    4.80    9.00
  -7   5   2    0.70    8.30
  -7   5   2    2.60    7.90
   6  -5  -2  386.46   21.90
   6  -5  -2  364.66   16.40
  -6   5   2  333.47   25.10
  -6   5   2  352.96   17.00
  -6   5   2  359.06   19.40
  -6   5   2  357.86   17.40
  -6   5   2  378.66   19.90
   5  -5  -2  218.18   12.80
   5  -5  -2  235.28   16.20
   5  -5  -2  219.68   11.70
   5  -5  -2  192.38   14.30
  -5   5   2  234.38   12.50
  -5   5   2  206.38   18.70
  -5   5   2  234.28   12.80
  -5   5   2  233.58   14.00
  -5   5   2  244.78   14.70
   4  -5  -2   10.30    8.30
   4  -5  -2   19.60    8.00
   4  -5  -2   13.30    6.50
   4  -5  -2   30.10    7.10
   4  -5  -2   15.10    5.00
   4  -5  -2   14.70    4.10
  -4   5   2   10.80    4.90
  -4   5   2   17.30    4.80
  -4   5   2   10.10    4.00
  -4   5   2   21.70    5.40
  -4   5   2   19.60    7.20
  -4   5   2   18.00    5.80
   3  -5  -2    0.40    3.30
   3  -5  -2   -0.20    6.10
   3  -5  -2    5.40    4.90
   3  -5  -2    2.10    6.50
   3  -5  -2    7.20    4.10
   3  -5  -2    2.80    4.80
  -3   5   2    5.40    3.50
  -3   5   2    5.20    6.00
  -3   5   2    7.90    5.00
  -3   5   2    4.50    3.90
  -3   5   2    3.00    4.40
  -3   5   2    2.60    4.70
   2  -5  -2   14.90    6.60
   2  -5  -2    8.30    3.60
   2  -5  -2    1.50    4.50
   2  -5  -2    8.30    4.00
   2  -5  -2   10.80    6.00
   2  -5  -2   15.60    5.20
  -2   5   2   12.00    3.70
  -2   5   2   10.80    4.70
  -2   5   2    0.50    4.00
  -2   5   2   16.40    4.60
  -2   5   2    6.20    3.60
  -2   5   2   10.30    5.60
   1  -5  -2   -3.70    5.70
   1  -5  -2    1.90    4.10
   1  -5  -2    0.20    3.50
   1  -5  -2   -0.20    3.20
   1  -5  -2    1.90    4.40
   1  -5  -2    0.20    6.50
  -1   5   2    3.80    6.00
  -1   5   2   -0.50    4.60
  -1   5   2    1.00    4.70
  -1   5   2    2.30    3.40
  -1   5   2    1.10    3.80
  -1   5   2   -4.50    3.80
   0  -5  -2  122.69    8.10
   0  -5  -2  174.38   11.30
   0  -5  -2  153.08   12.70
   0  -5  -2  135.39    8.70
   0  -5  -2  142.99   10.50
   0  -5  -2  142.29    9.30
   0   5   2  123.69   11.10
   0   5   2  140.09    8.50
   0   5   2  142.59   10.60
   0   5   2  126.99    8.90
   0   5   2  127.99    9.10
   0   5   2  132.09   10.40
   0   5   2  127.19    9.10
  -1  -5  -2   42.70    6.00
  -1  -5  -2   44.10    8.40
  -1  -5  -2   50.89    6.30
  -1  -5  -2   38.10    6.40
  -1  -5  -2   45.30    5.50
  -1  -5  -2   51.89    9.90
   1   5   2   50.99    6.30
   1   5   2   40.30    8.10
   1   5   2   33.90    5.40
   1   5   2   51.39    8.60
   1   5   2   40.00    5.50
   1   5   2   59.79    6.90
   1   5   2   23.30    6.00
  -2  -5  -2   14.60    8.70
  -2  -5  -2   48.50   12.20
  -2  -5  -2   35.60    6.30
  -2  -5  -2   31.40    5.20
  -2  -5  -2   30.80    7.50
   2   5   2   24.60    5.20
   2   5   2   34.40    5.80
   2   5   2   27.20    6.70
   2   5   2   28.00    8.60
   2   5   2   28.70    5.70
   2   5   2   30.40    8.00
   2   5   2   31.80    7.80
  -3  -5  -2  196.58   14.60
  -3  -5  -2  185.88   11.50
   3   5   2  166.68   18.00
   3   5   2  200.28   12.20
   3   5   2  199.88   11.60
   3   5   2  193.58   16.10
   3   5   2  181.78   15.00
  -4  -5  -2  130.69   11.50
  -4  -5  -2  125.59   13.50
  -4  -5  -2  142.09   11.00
   4   5   2  114.29   10.40
   4   5   2  116.59   15.40
   4   5   2  134.89    9.50
   4   5   2  132.09   14.50
  -5  -5  -2   86.69   10.40
  -5  -5  -2   58.89   12.10
  -5  -5  -2   74.09   10.60
   5   5   2   85.99    8.90
   5   5   2   73.69   10.00
   5   5   2   60.69   14.00
   5   5   2   86.29   17.30
  -6  -5  -2   58.69   14.60
  -6  -5  -2   42.20   14.80
   6   5   2   60.39   11.80
   6   5   2   72.19   22.40
   6   5   2   54.59   11.30
   6   5   2   57.69    9.30
   6   5   2   48.50   16.80
   8  -6  -2   -2.20   16.40
   8  -6  -2    0.00    8.50
  -8   6   2    8.60   10.60
  -8   6   2    0.30   10.60
  -8   6   2    1.20   12.20
   7  -6  -2   11.40   17.50
   7  -6  -2    1.10   12.50
   7  -6  -2    5.20    7.10
  -7   6   2    6.50   10.70
  -7   6   2   -0.40    8.20
  -7   6   2    5.40    7.20
  -7   6   2    1.10   10.00
   6  -6  -2   26.00    7.00
   6  -6  -2   36.70   13.10
   6  -6  -2   28.00   11.40
  -6   6   2   23.40    8.70
  -6   6   2   32.60   16.70
  -6   6   2   22.60    7.50
  -6   6   2   26.10    9.70
  -6   6   2   22.70    8.00
   5  -6  -2   53.99   10.80
   5  -6  -2   34.30    6.20
   5  -6  -2   38.10   11.10
  -5   6   2   23.40    7.30
  -5   6   2   41.50    7.30
  -5   6   2   42.10    8.90
  -5   6   2   50.79   13.30
  -5   6   2   42.40    7.00
   4  -6  -2  303.87   14.10
   4  -6  -2  288.87   15.00
   4  -6  -2  318.77   18.60
   4  -6  -2  322.07   18.50
  -4   6   2  319.47   14.80
  -4   6   2  261.97   20.10
  -4   6   2  285.57   20.30
  -4   6   2  309.67   14.70
  -4   6   2  303.37   22.20
   3  -6  -2    6.20    5.20
   3  -6  -2   12.70    8.80
   3  -6  -2   12.10    7.00
   3  -6  -2    5.80    4.40
  -3   6   2    5.50    8.60
  -3   6   2    5.20    5.80
  -3   6   2   11.60    4.90
  -3   6   2   11.30    4.90
  -3   6   2   13.80    6.30
   2  -6  -2  114.79   13.20
   2  -6  -2  152.68   11.40
   2  -6  -2  161.18   12.60
   2  -6  -2  138.59   10.40
   2  -6  -2  171.58   12.90
   2  -6  -2  182.18    9.70
  -2   6   2  161.38   11.90
  -2   6   2  148.59    9.80
  -2   6   2  174.68   14.80
  -2   6   2  157.88   11.60
  -2   6   2  160.98   11.50
  -2   6   2  171.68   10.10
   1  -6  -2  244.08   14.50
   1  -6  -2  203.38   18.30
   1  -6  -2  201.48   12.40
   1  -6  -2  246.38   17.50
   1  -6  -2  213.18   13.60
   1  -6  -2  234.78   11.50
  -1   6   2  236.58   11.80
  -1   6   2  209.28   12.70
  -1   6   2  231.18   12.90
  -1   6   2  214.88   15.30
  -1   6   2  230.18   15.20
  -1   6   2  217.68   12.90
   0  -6  -2  102.69    8.80
   0  -6  -2   79.39    7.00
   0  -6  -2   93.39   10.10
   0  -6  -2   94.69   11.50
   0  -6  -2  108.19    9.30
   0   6   2   95.59    8.30
   0   6   2  106.99    9.00
   0   6   2  110.69   10.20
   0   6   2  103.79   11.40
   0   6   2   67.29    8.60
   0   6   2  106.89    8.40
  -1  -6  -2   32.50   10.20
  -1  -6  -2   38.80    7.70
  -1  -6  -2   35.40    7.20
  -1  -6  -2   51.09    6.20
   1   6   2   28.40    8.20
   1   6   2   57.89    7.30
   1   6   2   48.10    8.00
   1   6   2   49.60    6.80
   1   6   2   37.30    7.90
   1   6   2   46.50   10.40
  -2  -6  -2    2.80   11.20
  -2  -6  -2   -1.10    7.00
  -2  -6  -2   -1.60    5.00
   2   6   2    5.80    5.80
   2   6   2    4.10    5.80
   2   6   2   -3.20   10.00
   2   6   2    1.30    8.20
  -3  -6  -2  153.98   11.30
  -3  -6  -2  138.59   14.60
   3   6   2  126.89   15.90
   3   6   2  142.29   10.40
   3   6   2  132.79   10.70
   3   6   2  118.79   14.40
  -4  -6  -2   27.80   11.80
  -4  -6  -2   28.60    7.70
   4   6   2   12.60   11.00
   4   6   2   21.10    8.30
   4   6   2   12.80   16.00
   4   6   2   21.60    7.60
  -5  -6  -2   -2.00    8.60
  -5  -6  -2    8.50   11.60
   5   6   2   17.00   20.20
   5   6   2    7.60   10.80
   5   6   2   -0.70    7.80
   5   6   2    0.70   13.50
   7  -7  -2    6.00    8.50
   7  -7  -2   20.60   19.10
   7  -7  -2    4.10   15.70
  -7   7   2   -0.60    9.70
  -7   7   2    2.70   10.30
  -7   7   2   15.10   18.90
   6  -7  -2   13.70   12.20
   6  -7  -2    9.50   15.30
   6  -7  -2    6.20    7.20
  -6   7   2    0.20    9.30
  -6   7   2    2.00    7.80
  -6   7   2  -12.50    7.00
  -6   7   2    2.80    9.00
   5  -7  -2  558.34   28.70
   5  -7  -2  590.14   29.10
   5  -7  -2  529.95   23.10
  -5   7   2  625.54   25.70
  -5   7   2  578.74   24.20
  -5   7   2  589.94   27.50
  -5   7   2  591.94   26.40
   4  -7  -2  479.35   25.20
   4  -7  -2  469.55   24.90
  -4   7   2  471.15   23.70
  -4   7   2  509.85   20.30
  -4   7   2  431.76   20.00
  -4   7   2  400.26   27.90
  -4   7   2  487.45   22.40
   3  -7  -2  163.78   15.10
   3  -7  -2  163.88   11.40
   3  -7  -2  129.49   12.10
  -3   7   2  131.79    9.90
  -3   7   2  170.58   14.70
  -3   7   2  195.08   13.50
  -3   7   2  131.39   14.70
  -3   7   2  166.48   11.70
   2  -7  -2  247.08   13.50
   2  -7  -2  248.58   17.10
   2  -7  -2  250.67   17.80
  -2   7   2  260.47   14.00
  -2   7   2  243.78   16.40
  -2   7   2  249.28   13.60
  -2   7   2  254.37   20.90
  -2   7   2  265.37   15.90
   1  -7  -2   46.50   12.00
   1  -7  -2   62.79    9.50
   1  -7  -2   57.69    7.30
  -1   7   2   63.79   11.30
  -1   7   2   49.40    9.80
  -1   7   2   63.09    9.10
  -1   7   2   82.09    9.50
  -1   7   2   65.69    8.30
  -1   7   2   59.69   11.60
   0  -7  -2    2.20   11.80
   0  -7  -2    2.00    7.90
   0  -7  -2    0.80    5.10
   0   7   2    0.20    8.10
   0   7   2    6.20    6.00
   0   7   2    9.80   11.00
   0   7   2    2.20    6.70
  -1  -7  -2   -2.50   12.20
  -1  -7  -2   -0.10    6.20
   1   7   2   -1.40    6.80
   1   7   2    4.80    8.90
   1   7   2    1.70   13.60
   1   7   2    0.70    6.70
  -2  -7  -2    0.40   10.10
  -2  -7  -2    5.90    6.90
  -2  -7  -2   -1.40   14.30
   2   7   2    1.50    7.20
   2   7   2    2.20   10.10
   2   7   2    0.40    6.80
   2   7   2    0.10   14.40
  -3  -7  -2    9.00    8.20
  -3  -7  -2   26.30   11.70
   3   7   2   32.20   17.60
   3   7   2   23.50    8.50
   3   7   2   10.70    8.10
   3   7   2   18.60   11.40
  -4  -7  -2    3.00   13.30
  -4  -7  -2    4.70   11.90
   4   7   2   -8.40    9.90
   4   7   2   -6.10   21.80
   4   7   2   -4.40   12.80
   4   7   2  -10.50    8.80
   6  -8  -2   21.50   23.30
   6  -8  -2   17.70   15.50
   6  -8  -2   -3.00    8.40
  -6   8   2   -3.50    8.70
  -6   8   2   -0.60    9.40
  -6   8   2    1.50   10.90
  -6   8   2    4.60   11.80
   5  -8  -2   54.09   14.30
   5  -8  -2   25.20   20.00
   5  -8  -2   37.50    8.70
  -5   8   2   37.40    9.20
  -5   8   2   54.49   11.00
  -5   8   2   54.59   10.10
  -5   8   2   36.10   11.30
   4  -8  -2    2.20    7.40
   4  -8  -2    6.80   11.20
   4  -8  -2   -2.20   15.30
  -4   8   2    1.50    9.80
  -4   8   2   -0.30    9.60
  -4   8   2   -2.10    7.20
  -4   8   2    1.90    7.30
   3  -8  -2   44.00    8.30
   3  -8  -2   45.80   12.00
   3  -8  -2   37.80   15.30
  -3   8   2   37.50   10.00
  -3   8   2   45.10    8.20
  -3   8   2   42.00    7.80
  -3   8   2   45.20   10.70
   2  -8  -2   14.80   14.60
   2  -8  -2   22.30   10.90
   2  -8  -2   31.20    8.00
  -2   8   2   22.00    9.20
  -2   8   2   20.40    7.10
  -2   8   2   15.10    7.00
  -2   8   2    7.30    8.70
   1  -8  -2   34.30    7.70
   1  -8  -2   37.40   15.10
   1  -8  -2   38.00   11.90
  -1   8   2   33.10    9.40
  -1   8   2   20.40    7.40
  -1   8   2   37.00   16.60
   0  -8  -2    3.40    9.00
   0  -8  -2    7.30    7.50
   0  -8  -2    5.50   15.90
   0   8   2   -3.60   14.80
   0   8   2   -2.70   10.50
   0   8   2    9.30    8.80
   0   8   2    3.00    7.20
  -1  -8  -2   -2.10   16.60
  -1  -8  -2    3.30   10.10
  -1  -8  -2   -4.60    7.10
   1   8   2    3.70   11.30
   1   8   2   21.10   17.50
   1   8   2    3.50    8.50
   1   8   2   -2.90    8.80
  -2  -8  -2    0.90    8.50
  -2  -8  -2   -1.40   12.30
  -2  -8  -2    3.60   19.90
   2   8   2    8.30   15.30
   2   8   2   12.40   19.70
   2   8   2   -3.50    9.10
  -3  -8  -2    5.30   13.80
  -3  -8  -2   18.20   10.90
   3   8   2    5.90   10.80
   3   8   2   14.00   15.60
   3   8   2  -22.80   27.10
   3   8   2   16.60   10.40
   5  -9  -2   -5.40    9.50
  -5   9   2    1.20   10.30
  -5   9   2  -10.40   12.60
   4  -9  -2   -1.10    9.60
   4  -9  -2   -5.80   14.90
   4  -9  -2   -3.90   21.20
  -4   9   2    0.00    9.10
  -4   9   2    5.50    9.70
  -4   9   2    7.40   12.40
  -4   9   2    5.20   12.30
   3  -9  -2   38.60   10.00
   3  -9  -2   52.89   14.00
   3  -9  -2   51.29   20.70
  -3   9   2   50.19   10.20
  -3   9   2   40.20   13.60
  -3   9   2   56.79   11.80
  -3   9   2   24.80   11.30
   2  -9  -2    3.20    8.70
   2  -9  -2   -1.10   12.80
   2  -9  -2   -5.60   19.90
  -2   9   2    6.20   12.50
  -2   9   2    5.70   12.00
  -2   9   2   -1.20   10.70
  -2   9   2    3.30    8.60
   1  -9  -2    7.00   14.10
   1  -9  -2    4.00   20.70
   1  -9  -2    5.60    9.10
  -1   9   2   -6.50   10.00
  -1   9   2    1.00   20.00
  -1   9   2    0.70    8.30
   0  -9  -2    3.20   21.60
   0  -9  -2   22.60   15.10
   0  -9  -2   12.10    9.00
   0   9   2   14.30   11.10
   0   9   2   44.10   42.20
   0   9   2    1.90   13.30
   0   9   2   25.60   11.10
   2   9  -3   14.80    9.70
   2   9  -3    7.30   10.80
   2   9  -3   17.10   24.30
  -2  -9   3    2.90   14.50
  -2  -9   3   14.00   11.00
  -2  -9   3   -7.50   24.00
   1   9  -3   -1.30    8.50
   1   9  -3    3.00    9.00
   1   9  -3   -7.80   13.20
  -1  -9   3    1.40    9.30
  -1  -9   3   16.40   23.50
  -1  -9   3   -4.30   12.00
   0   9  -3   -1.40    8.20
   0   9  -3   -0.90   10.50
   0   9  -3    7.70   18.20
   0   9  -3    1.40    9.00
   0  -9   3    5.50   11.00
   0  -9   3   -2.70    9.10
   0  -9   3   -2.50   19.40
  -1   9  -3   -3.60    7.90
  -1   9  -3    1.70    9.20
  -1   9  -3   -1.40    6.50
  -1   9  -3    0.90   10.50
   1  -9   3    5.70    8.10
   1  -9   3  -18.50   18.40
   1  -9   3    3.20   10.00
  -2   9  -3   -1.30    8.30
  -2   9  -3   -2.10   11.10
  -2   9  -3   -1.10    8.30
  -2   9  -3    7.20    9.70
  -2   9  -3    2.80    6.10
   2  -9   3   12.40   11.90
   2  -9   3   18.10   18.50
   2  -9   3    2.10    7.70
  -3   9  -3    2.90   11.50
  -3   9  -3    0.70    6.20
  -3   9  -3   -2.50    8.40
  -3   9  -3   -1.40   10.00
  -3   9  -3   -2.60    8.40
   3  -9   3   -1.00   10.90
   3  -9   3   -0.90    9.10
   3  -9   3   -3.60   17.40
  -4   9  -3   33.10   12.30
  -4   9  -3   29.00    7.60
  -4   9  -3   22.30    9.40
  -4   9  -3   20.30   13.00
  -4   9  -3   16.50    8.30
   4  -9   3   19.20    9.10
   4  -9   3   22.50   13.40
   4  -9   3   42.90   20.50
  -5   9  -3    9.40   12.20
  -5   9  -3    4.90   14.90
  -5   9  -3   -0.70   10.20
  -5   9  -3    4.70    7.80
   5  -9   3   -1.60   22.50
   5  -9   3    0.80   12.90
   5  -9   3   16.60   10.90
   3   8  -3  107.79   22.20
   3   8  -3   80.89    8.80
   3   8  -3   72.79   15.10
   3   8  -3   69.79   11.20
  -3  -8   3   59.29   13.60
  -3  -8   3   82.99   17.10
   2   8  -3    9.10    8.40
   2   8  -3    4.50   17.50
   2   8  -3   10.90   11.70
   2   8  -3   12.10    7.00
  -2  -8   3    9.30    8.60
  -2  -8   3   15.90   17.10
  -2  -8   3    3.90    7.70
  -2  -8   3   17.20   11.90
   1   8  -3    8.30   11.00
   1   8  -3   -0.20    8.80
   1   8  -3    3.10    6.70
   1   8  -3   -1.70    7.20
   1   8  -3   -0.40   16.70
  -1  -8   3   -0.40    7.00
  -1  -8   3   -4.10   15.10
  -1  -8   3   -0.20    8.30
  -1  -8   3    5.60    9.10
   0   8  -3   31.30   11.00
   0   8  -3   30.00    7.60
   0   8  -3   34.20    7.80
   0   8  -3   10.20   13.90
   0   8  -3   32.10    7.70
   0  -8   3   30.70   10.40
   0  -8   3   34.70    7.60
   0  -8   3   33.40    9.60
   0  -8   3   21.40   14.40
  -1   8  -3    2.50    6.20
  -1   8  -3    3.50    6.90
  -1   8  -3   -4.50   12.60
  -1   8  -3    1.30    6.20
   1  -8   3    6.40   13.50
   1  -8   3    3.10    6.10
   1  -8   3    3.60    8.50
  -2   8  -3    7.00    8.10
  -2   8  -3    8.60    4.90
  -2   8  -3   23.10    8.50
  -2   8  -3   15.30    6.70
  -2   8  -3   10.20    6.00
   2  -8   3    8.80    8.50
   2  -8   3   11.70   13.40
   2  -8   3   10.60    6.90
  -3   8  -3   32.80    8.80
  -3   8  -3   43.90   10.70
  -3   8  -3   27.50    6.60
  -3   8  -3   40.70    6.80
  -3   8  -3   32.90    5.60
   3  -8   3   30.40   14.50
   3  -8   3   42.60   10.90
   3  -8   3   42.70    8.30
  -4   8  -3  102.09    8.00
  -4   8  -3   87.69   13.40
  -4   8  -3   84.39    9.40
  -4   8  -3  104.39   12.30
   4  -8   3  107.99   17.70
   4  -8   3   99.39   13.20
   4  -8   3   95.69   10.50
  -5   8  -3   -2.70    9.40
  -5   8  -3   -0.20    9.60
  -5   8  -3    0.80    6.20
  -5   8  -3    6.60    8.30
   5  -8   3    1.10   10.70
   5  -8   3   -8.90   17.10
   5  -8   3    0.90    7.90
  -6   8  -3    0.60   11.50
  -6   8  -3    2.80   11.30
  -6   8  -3    6.00    7.80
   6  -8   3    1.60   20.40
   6  -8   3    3.20    9.00
   6  -8   3   20.00   14.30
   5   7  -3   11.00   16.30
  -5  -7   3    6.60   11.10
  -5  -7   3   11.60   14.00
  -5  -7   3   12.10   10.20
   4   7  -3   54.29    9.90
   4   7  -3   54.59    5.60
   4   7  -3   49.99   18.90
   4   7  -3   27.70   13.70
  -4  -7   3   49.20   12.90
  -4  -7   3   58.69   10.60
  -4  -7   3   57.49   10.70
   3   7  -3   23.40   15.20
   3   7  -3   15.60    8.00
   3   7  -3    6.70   10.90
   3   7  -3   10.30    7.30
  -3  -7   3   23.00   16.10
  -3  -7   3    8.60   10.50
  -3  -7   3    8.50    7.30
   2   7  -3   84.79    9.90
   2   7  -3   92.39    8.90
   2   7  -3   89.89    7.80
   2   7  -3   85.39   12.40
   2   7  -3   91.49   15.10
  -2  -7   3   87.49    9.20
  -2  -7   3   71.89   10.60
  -2  -7   3   86.59    7.80
  -2  -7   3  121.09   15.50
   1   7  -3  267.57   13.60
   1   7  -3  274.27   18.50
   1   7  -3  261.37   18.70
   1   7  -3  278.17   14.80
   1   7  -3  280.17   14.70
  -1  -7   3  264.07   17.50
  -1  -7   3  284.67   14.80
  -1  -7   3  306.07   19.40
  -1  -7   3  252.97   14.10
   0   7  -3   22.90    5.70
   0   7  -3   12.10   10.50
   0   7  -3   20.20    8.00
   0   7  -3   24.00    5.50
   0  -7   3   11.30    6.50
   0  -7   3   18.00    5.50
  -1   7  -3  111.59    9.20
  -1   7  -3   90.69    7.10
  -1   7  -3  102.09   12.50
  -1   7  -3   93.79    8.90
   1  -7   3  110.99   11.40
   1  -7   3   99.89    9.70
   1  -7   3   50.99    8.70
   1  -7   3  120.69   13.90
  -2   7  -3   56.49    7.90
  -2   7  -3   42.40    5.60
  -2   7  -3   38.90    8.00
  -2   7  -3   71.59    9.40
   2  -7   3   36.00   11.00
   2  -7   3   42.40    8.60
   2  -7   3   39.50    7.10
   2  -7   3   45.90    8.60
  -3   7  -3  258.97   15.70
  -3   7  -3  271.17   17.30
  -3   7  -3  276.87   15.70
  -3   7  -3  270.97   14.20
   3  -7   3  263.57   14.20
   3  -7   3  257.97   25.50
   3  -7   3  287.77   18.30
  -4   7  -3   80.99    9.90
  -4   7  -3   64.89    6.10
  -4   7  -3   56.99    9.40
  -4   7  -3   56.99    7.40
   4  -7   3   52.89   10.00
   4  -7   3   71.29   13.70
   4  -7   3   73.29    8.00
  -5   7  -3    5.20    8.40
  -5   7  -3    1.00    6.70
  -5   7  -3    4.60    5.20
  -5   7  -3    4.30    7.50
   5  -7   3   -1.70    8.80
   5  -7   3    2.70    6.50
  -6   7  -3   21.40   10.10
  -6   7  -3   33.70   10.30
  -6   7  -3   28.80    8.80
  -6   7  -3   29.50    7.40
   6  -7   3   19.70   12.70
   6  -7   3   22.80   17.10
   6  -7   3   25.20    8.00
  -7   7  -3   -2.60   12.70
  -7   7  -3    2.30    8.10
  -7   7  -3    9.60   19.70
  -7   7  -3   -5.00   11.60
   7  -7   3   -6.80    8.70
   7  -7   3    0.20   13.70
   7  -7   3  -10.10   18.50
   6   6  -3   11.40   10.60
   6   6  -3   -2.10   16.00
  -6  -6   3    4.20   10.30
  -6  -6   3   -3.70   13.00
  -6  -6   3    0.40   15.00
   5   6  -3   92.69   19.00
   5   6  -3   72.19   15.40
   5   6  -3   90.39   10.60
  -5  -6   3   94.99   11.60
  -5  -6   3   78.09   13.10
  -5  -6   3   98.89   11.40
   4   6  -3  238.48   21.20
   4   6  -3  250.57   15.60
   4   6  -3  264.17   20.40
  -4  -6   3  244.98   16.40
  -4  -6   3  266.07   19.70
  -4  -6   3  262.37   15.50
   3   6  -3  145.19    8.30
   3   6  -3  135.79   15.00
   3   6  -3  162.58   11.70
   3   6  -3  163.48   11.80
   3   6  -3  108.19   13.00
  -3  -6   3  144.29   10.30
  -3  -6   3  128.69   12.00
  -3  -6   3  161.68   11.90
  -3  -6   3  146.89   15.40
   2   6  -3 1149.58   37.00
   2   6  -3 1165.18   41.60
   2   6  -3 1161.18   38.80
   2   6  -3 1175.78   42.30
   2   6  -3 1146.09   38.60
  -2  -6   3 1142.49   41.50
  -2  -6   3 1100.29   36.80
  -2  -6   3 1169.08   39.60
  -2  -6   3 1122.59   44.30
  -2  -6   3 1171.88   42.10
   1   6  -3  493.85   23.50
   1   6  -3  504.35   18.30
   1   6  -3  479.75   19.10
   1   6  -3  501.05   22.50
   1   6  -3  499.55   19.60
   1   6  -3  526.05   22.50
   1   6  -3  493.35   18.70
  -1  -6   3  480.55   18.30
  -1  -6   3  433.76   22.20
  -1  -6   3  519.45   22.40
  -1  -6   3  488.35   19.20
  -1  -6   3  491.05   22.00
  -1  -6   3  414.76   32.40
   0   6  -3    7.20    7.50
   0   6  -3    4.40    3.80
   0   6  -3    5.20    6.10
   0   6  -3    4.40    4.30
   0   6  -3    4.60    7.70
   0   6  -3    2.70    4.60
   0   6  -3    2.30    4.30
   0  -6   3    4.50    4.90
   0  -6   3   12.00    4.40
   0  -6   3    7.60    4.80
   0  -6   3    4.20    7.70
   0  -6   3    3.90    5.00
   0  -6   3    4.90    9.40
  -1   6  -3   10.50    4.70
  -1   6  -3   14.90    7.90
  -1   6  -3    3.00    7.00
  -1   6  -3   11.30    4.60
  -1   6  -3    5.60    4.40
  -1   6  -3   10.00    3.60
   1  -6   3   14.40    8.20
   1  -6   3    8.20    5.10
   1  -6   3   11.20    5.40
   1  -6   3    5.20    4.30
   1  -6   3   14.20    7.80
   1  -6   3    7.30    5.40
  -2   6  -3  129.69    7.20
  -2   6  -3  144.69   12.70
  -2   6  -3  153.18   10.30
  -2   6  -3  136.59    9.30
  -2   6  -3  118.99   10.40
  -2   6  -3  137.09    7.00
  -2   6  -3  139.19    9.00
   2  -6   3  145.49   12.90
   2  -6   3   90.09    7.80
   2  -6   3  129.89    8.90
   2  -6   3  132.39   10.90
   2  -6   3  117.59    9.10
   2  -6   3  124.59   11.50
  -3   6  -3   13.20    3.30
  -3   6  -3   20.20    6.80
  -3   6  -3    8.30    5.20
  -3   6  -3    6.10    5.60
  -3   6  -3    8.40    8.50
  -3   6  -3   10.20    4.40
   3  -6   3   24.10    7.40
   3  -6   3    8.20    6.10
   3  -6   3    8.10    5.10
   3  -6   3    5.90    4.40
   3  -6   3   11.30    8.80
   3  -6   3   13.20    8.90
  -4   6  -3   51.99    5.60
  -4   6  -3   50.69    6.80
  -4   6  -3   39.00    7.80
  -4   6  -3   56.19    8.50
   4  -6   3   75.09   11.30
   4  -6   3   67.09   12.30
   4  -6   3   58.79    6.60
   4  -6   3   65.09    9.50
  -5   6  -3    4.70    6.20
  -5   6  -3    0.80    8.50
  -5   6  -3    2.80    4.90
  -5   6  -3   -0.60    4.30
   5  -6   3    7.70   11.50
   5  -6   3    0.10    4.80
   5  -6   3    2.40   10.50
  -6   6  -3    2.60    5.60
  -6   6  -3   10.70    9.80
  -6   6  -3    2.30    8.30
  -6   6  -3    8.70    6.70
   6  -6   3    1.60    6.60
   6  -6   3    5.30   10.40
  -7   6  -3   59.19    9.70
  -7   6  -3   62.89    8.90
  -7   6  -3   67.19   11.90
  -7   6  -3   49.30   13.20
   7  -6   3   43.50    8.90
   7  -6   3   66.19   14.80
  -8   6  -3  212.08   15.20
  -8   6  -3  244.78   18.30
  -8   6  -3  161.28   22.10
  -8   6  -3  281.87   18.80
   8  -6   3  208.08   21.30
   8  -6   3  191.78   14.60
   6   5  -3    3.40   17.60
   6   5  -3   -3.00    8.50
   6   5  -3   -2.40   13.60
  -6  -5   3   -2.00   10.50
  -6  -5   3    1.10    9.10
  -6  -5   3   -3.90    8.70
   5   5  -3   42.20    8.20
   5   5  -3   45.30   13.00
   5   5  -3   47.10   16.10
  -5  -5   3   41.40   10.10
  -5  -5   3   35.90    7.80
  -5  -5   3   25.00    7.80
   4   5  -3  152.48   15.20
   4   5  -3  118.99   13.20
  -4  -5   3  112.59   17.00
  -4  -5   3  163.88   13.20
  -4  -5   3  127.09    9.80
  -4  -5   3  153.78   10.90
   3   5  -3    5.00    7.20
   3   5  -3    2.70    2.50
   3   5  -3   -5.90    5.60
   3   5  -3    3.60    4.80
   3   5  -3   -2.20    8.70
   3   5  -3    3.10    5.70
  -3  -5   3   -3.80   10.70
  -3  -5   3   -2.70    4.50
  -3  -5   3    2.10    5.50
  -3  -5   3    3.70    4.60
   2   5  -3  120.49   10.80
   2   5  -3   88.99    9.10
   2   5  -3  114.49    6.60
   2   5  -3  127.69    9.00
   2   5  -3  133.89   10.90
   2   5  -3  135.69    9.10
   2   5  -3  136.69    8.60
  -2  -5   3  121.59    6.70
  -2  -5   3  133.29    8.40
  -2  -5   3  121.89   10.60
  -2  -5   3  155.88    9.60
  -2  -5   3  138.49   11.10
  -2  -5   3  156.78   14.40
  -2  -5   3  122.79    8.60
   1   5  -3  114.39    7.60
   1   5  -3  106.59    9.60
   1   5  -3   88.69    8.00
   1   5  -3  118.59    8.30
   1   5  -3  124.39   10.40
   1   5  -3  111.19    7.30
   1   5  -3  123.99    6.90
  -1  -5   3  121.79    9.40
  -1  -5   3  152.58   10.50
  -1  -5   3  145.09   12.10
  -1  -5   3  117.29    7.90
  -1  -5   3  119.09    6.90
  -1  -5   3  117.49    7.80
   0   5  -3 1078.59   35.90
   0   5  -3 1138.79   38.30
   0   5  -3 1141.29   34.80
   0   5  -3 1104.69   35.80
   0   5  -3 1063.89   38.10
   0   5  -3 1109.29   35.90
   0   5  -3 1103.99   37.70
   0  -5   3 1126.49   35.70
   0  -5   3 1122.19   36.20
   0  -5   3 1104.99   37.60
   0  -5   3 1076.49   38.00
   0  -5   3 1077.99   36.10
  -1   5  -3   18.30    6.10
  -1   5  -3   14.30    3.80
  -1   5  -3   15.50    3.50
  -1   5  -3   18.00    5.30
  -1   5  -3   21.10    4.00
  -1   5  -3   21.30    2.90
   1  -5   3   17.60    3.80
   1  -5   3   16.60    6.00
   1  -5   3   24.40    4.60
   1  -5   3   18.20    4.30
   1  -5   3    7.40    5.50
   1  -5   3   17.40    4.60
  -2   5  -3  225.18   13.60
  -2   5  -3  220.98    8.50
  -2   5  -3  229.28   10.70
  -2   5  -3  234.08   10.40
  -2   5  -3  230.48   12.20
  -2   5  -3  226.68   11.30
   2  -5   3  217.68   12.30
   2  -5   3  211.88   13.20
   2  -5   3  226.68   11.30
   2  -5   3  206.88   10.10
   2  -5   3  208.88   10.60
   2  -5   3  226.58   12.80
  -3   5  -3   28.70    5.40
  -3   5  -3   21.10    6.50
  -3   5  -3   21.20    3.10
  -3   5  -3   29.40    5.50
  -3   5  -3   20.00    3.90
  -3   5  -3   18.30    5.10
   3  -5   3   20.60    6.90
   3  -5   3   36.20    6.60
   3  -5   3   32.30    7.20
   3  -5   3   25.20    4.30
   3  -5   3   25.80    5.70
   3  -5   3   24.30    4.80
  -4   5  -3    5.70    5.80
  -4   5  -3    8.40    5.50
  -4   5  -3    6.90    4.20
  -4   5  -3    8.50    3.40
  -4   5  -3    6.60    5.30
  -4   5  -3    4.00    7.80
   4  -5   3    9.70    5.80
   4  -5   3   10.30    4.60
   4  -5   3    4.20    5.80
   4  -5   3    5.90    5.40
   4  -5   3   -3.60    7.20
  -5   5  -3   -0.10   11.10
  -5   5  -3   -0.30    5.40
  -5   5  -3   -0.20    4.10
  -5   5  -3   -0.40    5.50
  -5   5  -3    3.00    4.70
   5  -5   3   -2.20    4.40
   5  -5   3    2.70    7.00
   5  -5   3    0.20    4.50
   5  -5   3    5.30    8.00
  -6   5  -3   30.80    6.00
  -6   5  -3   30.40    9.10
  -6   5  -3   17.20    7.40
  -6   5  -3   24.00    5.70
   6  -5   3   22.70    6.70
   6  -5   3   32.00    9.80
   6  -5   3   25.40    6.30
  -7   5  -3   77.99   12.90
  -7   5  -3   71.89   10.20
  -7   5  -3   72.79    8.70
  -7   5  -3   82.19    9.10
   7  -5   3   83.49   14.70
   7  -5   3   63.99    8.50
  -8   5  -3  519.25   26.80
  -8   5  -3  480.95   24.10
  -8   5  -3  496.25   29.30
  -8   5  -3  505.65   24.50
   8  -5   3  482.05   24.00
   8  -5   3  540.65   31.90
   7   4  -3   18.80   15.30
   7   4  -3   29.90    9.80
  -7  -4   3   21.70   12.00
  -7  -4   3   12.00   11.00
  -7  -4   3   31.10   20.30
   6   4  -3   28.00    7.70
   6   4  -3   21.90   12.70
   6   4  -3   16.20   15.00
  -6  -4   3   35.80    8.50
  -6  -4   3   28.40    8.60
  -6  -4   3   30.10    9.40
   5   4  -3   27.10    6.70
   5   4  -3   18.60   10.20
   5   4  -3   11.10   11.80
  -5  -4   3   15.80   14.70
  -5  -4   3    5.90    5.50
  -5  -4   3   12.50    7.60
  -5  -4   3   18.90    7.50
   4   4  -3    5.60    6.10
   4   4  -3    2.00    9.30
   4   4  -3    5.20    5.10
   4   4  -3    3.80    4.60
   4   4  -3    2.10    7.90
  -4  -4   3    0.10    5.60
  -4  -4   3    1.40    4.40
  -4  -4   3    1.70   10.50
  -4  -4   3   10.10    5.10
   3   4  -3   60.79    3.50
   3   4  -3   70.19    6.20
   3   4  -3   56.29    5.70
   3   4  -3   54.89    8.20
   3   4  -3   63.99    6.30
   3   4  -3   55.39    8.10
   3   4  -3   75.09    9.00
  -3  -4   3   67.79    6.30
  -3  -4   3   61.39    7.60
  -3  -4   3   51.79    5.50
  -3  -4   3   72.49   10.70
   2   4  -3  216.48   10.20
   2   4  -3  219.78   12.50
   2   4  -3  209.88    8.00
   2   4  -3  227.38    9.90
   2   4  -3  217.38   12.60
   2   4  -3  215.78    9.90
   2   4  -3  218.78   12.00
  -2  -4   3  218.08   11.90
  -2  -4   3  205.28    7.90
  -2  -4   3  220.28    9.80
  -2  -4   3  224.48   10.20
  -2  -4   3  212.28   10.40
  -2  -4   3  223.38   14.50
  -2  -4   3  221.38   11.80
   1   4  -3  161.88    7.60
   1   4  -3  158.88    9.80
   1   4  -3  142.79    6.70
   1   4  -3  147.59    7.90
   1   4  -3  152.18    7.20
   1   4  -3  147.89    9.90
   1   4  -3  149.79    9.50
  -1  -4   3  155.38    7.90
  -1  -4   3  163.58    6.80
  -1  -4   3  156.98    8.10
  -1  -4   3  159.78   11.20
  -1  -4   3  159.68    9.70
  -1  -4   3  154.38    7.10
  -1  -4   3  147.79    9.30
   0   4  -3 1806.22   57.89
   0   4  -3 1805.92   56.19
   0   4  -3 1786.42   57.79
   0   4  -3 1840.22   55.99
   0   4  -3 1819.32   57.39
   0   4  -3 1796.02   56.19
   0   4  -3 1815.22   55.19
   0  -4   3 1809.72   56.29
   0  -4   3 1811.82   56.39
   0  -4   3 1788.02   57.39
   0  -4   3 1847.22   55.99
   0  -4   3 1836.32   57.89
  -1   4  -3  242.68    9.60
  -1   4  -3  223.38   11.40
  -1   4  -3  221.28    9.50
  -1   4  -3  217.18    9.80
  -1   4  -3  222.98    8.00
  -1   4  -3  246.28   11.10
   1  -4   3  238.68   10.00
   1  -4   3  219.18    9.60
   1  -4   3  212.38    9.50
   1  -4   3  235.18   11.30
   1  -4   3  216.98   10.80
   1  -4   3  229.48   11.10
  -2   4  -3  559.54   18.90
  -2   4  -3  580.84   19.60
  -2   4  -3  563.74   17.40
  -2   4  -3  541.35   20.80
  -2   4  -3  527.75   18.80
   2  -4   3  523.45   20.90
   2  -4   3  494.85   19.30
   2  -4   3  510.75   18.80
   2  -4   3  561.94   19.00
   2  -4   3  570.44   20.40
   2  -4   3  556.64   20.60
  -3   4  -3   15.40    4.00
  -3   4  -3   19.60    4.90
  -3   4  -3   14.10    4.30
  -3   4  -3   21.40    3.90
  -3   4  -3   17.80    2.70
  -3   4  -3   13.50    3.40
   3  -4   3   22.30    4.40
   3  -4   3   14.30    3.80
   3  -4   3   17.10    3.30
   3  -4   3   15.10    2.70
   3  -4   3   13.50    4.30
   3  -4   3    9.20    4.10
  -4   4  -3   28.90    5.20
  -4   4  -3   25.90    4.60
  -4   4  -3   25.70    3.60
  -4   4  -3   30.30    7.20
  -4   4  -3    9.80    4.50
  -4   4  -3   26.50    6.20
   4  -4   3   19.40    5.70
   4  -4   3   21.50    3.70
   4  -4   3   20.60    3.70
   4  -4   3   27.40    7.00
   4  -4   3   15.30    5.60
   4  -4   3   22.90    4.50
  -5   4  -3   34.40    6.80
  -5   4  -3   38.10    6.50
  -5   4  -3   42.60    5.10
  -5   4  -3   54.19   10.10
  -5   4  -3   42.30    6.00
  -5   4  -3   38.80    6.80
   5  -4   3   35.10    5.20
   5  -4   3   32.90    5.90
   5  -4   3   42.50    7.60
   5  -4   3   45.50    8.20
   5  -4   3   40.10    8.00
   5  -4   3   37.60    5.30
  -6   4  -3    1.90    6.30
  -6   4  -3    1.50    4.80
  -6   4  -3   -2.00    4.90
  -6   4  -3   -4.90    8.30
   6  -4   3    2.60    5.60
   6  -4   3   10.30    9.00
   6  -4   3    3.50    5.00
  -7   4  -3   24.30    8.00
  -7   4  -3   21.00    6.60
  -7   4  -3   21.10    7.80
  -7   4  -3   27.90    7.40
   7  -4   3   36.60   11.50
   7  -4   3   19.80    6.70
  -8   4  -3  103.09   15.70
  -8   4  -3   76.09   10.70
  -8   4  -3   98.49   12.30
  -8   4  -3   60.79    9.30
   8  -4   3   75.69    9.70
   8  -4   3  111.39   17.50
  -9   4  -3   13.40   11.10
  -9   4  -3   13.80   10.20
  -9   4  -3   21.50   11.50
   9  -4   3   23.30   10.20
   8   3  -3   18.00   16.30
   8   3  -3    4.40   10.10
  -8  -3   3    4.20   12.50
  -8  -3   3    6.30    9.60
  -8  -3   3   16.50   13.40
   7   3  -3   19.60    8.10
   7   3  -3    6.60   18.30
   7   3  -3   16.20   12.60
  -7  -3   3   21.20    9.30
  -7  -3   3   10.40    9.40
  -7  -3   3   34.40    9.00
   6   3  -3   -4.10   13.00
   6   3  -3    0.10    9.50
  -6  -3   3    2.00    7.30
  -6  -3   3    6.90   15.80
  -6  -3   3    0.30    7.10
  -6  -3   3   -1.60    5.90
   5   3  -3   49.20    6.70
   5   3  -3   48.70    9.50
   5   3  -3   44.40    9.90
   5   3  -3   42.50    6.00
  -5  -3   3   39.80    6.40
  -5  -3   3   61.69    8.90
  -5  -3   3   56.19    7.50
  -5  -3   3   47.70   12.50
   4   3  -3    9.70    7.10
   4   3  -3    3.10    4.30
   4   3  -3    6.00    5.60
   4   3  -3    9.30    4.70
   4   3  -3    0.90    6.80
   4   3  -3    8.20    4.10
  -4  -3   3    7.10    4.40
  -4  -3   3    9.10    8.30
  -4  -3   3    8.60    4.10
  -4  -3   3   16.40    5.60
   3   3  -3  442.26   17.80
   3   3  -3  460.35   16.00
   3   3  -3  443.56   16.40
   3   3  -3  459.65   16.00
   3   3  -3  419.76   18.10
  -3  -3   3  418.76   18.80
  -3  -3   3  438.56   17.90
  -3  -3   3  420.06   16.10
  -3  -3   3  430.16   16.00
  -3  -3   3  410.96   16.10
   2   3  -3   -2.80    4.00
   2   3  -3    1.50    1.20
   2   3  -3    3.80    2.40
   2   3  -3    2.40    4.20
   2   3  -3   -0.30    2.80
   2   3  -3    3.40    2.70
   2   3  -3    0.80    3.40
  -2  -3   3    1.50    2.70
  -2  -3   3   -4.70    3.90
  -2  -3   3   -0.40    5.60
  -2  -3   3    0.10    2.40
  -2  -3   3   -2.10    2.70
  -2  -3   3    3.60    2.60
   1   3  -3  172.78    7.30
   1   3  -3  180.08    9.10
   1   3  -3  176.18    8.40
   1   3  -3  157.78    6.40
   1   3  -3  173.28    8.80
   1   3  -3  167.18    6.80
   1   3  -3  170.38    7.20
  -1  -3   3  172.88    6.90
  -1  -3   3  162.38    6.40
  -1  -3   3  174.08    9.50
  -1  -3   3  167.58    7.40
  -1  -3   3  172.98    7.50
  -1  -3   3  157.28    8.50
  -1  -3   3  173.88    8.60
   0   3  -3 1322.57   42.10
   0   3  -3 1292.67   41.00
   0   3  -3 1303.57   41.10
   0   3  -3 1360.16   40.30
   0   3  -3 1295.27   42.30
   0   3  -3 1290.17   41.10
   0  -3   3 1372.06   42.50
   0  -3   3 1341.07   41.00
   0  -3   3 1358.96   41.30
   0  -3   3 1337.97   42.10
   0  -3   3 1343.77   42.50
   0  -3   3 1337.27   41.30
  -1   3  -3   62.09    4.30
  -1   3  -3   31.60    4.00
  -1   3  -3   52.49    3.60
  -1   3  -3   39.90    4.10
  -1   3  -3   45.30    2.20
  -1   3  -3   40.40    3.20
   1  -3   3   37.10    3.80
   1  -3   3   60.09    4.10
   1  -3   3   53.09    4.80
   1  -3   3   41.20    4.10
   1  -3   3   59.69    4.00
   1  -3   3   49.30    4.00
  -2   3  -3 1551.84   49.50
  -2   3  -3 1601.24   51.09
  -2   3  -3 1638.74   51.09
  -2   3  -3 1597.94   50.29
  -2   3  -3 1569.24   49.60
  -2   3  -3 1543.15   48.50
   2  -3   3 1641.54   49.70
   2  -3   3 1593.54   49.70
   2  -3   3 1633.14   50.19
   2  -3   3 1604.24   50.99
   2  -3   3 1646.34   48.50
   2  -3   3 1621.24   51.09
  -3   3  -3  211.98    9.20
  -3   3  -3  220.98    9.10
  -3   3  -3  221.48   10.80
  -3   3  -3  195.08    8.00
  -3   3  -3  197.48    9.80
  -3   3  -3  205.88   11.00
   3  -3   3  202.78    9.90
   3  -3   3  209.38    9.10
   3  -3   3  218.08    9.40
   3  -3   3  192.08   10.70
   3  -3   3  208.48    8.10
   3  -3   3  197.98   10.70
  -4   3  -3   25.60    6.10
  -4   3  -3   21.40    4.30
  -4   3  -3   27.90    4.30
  -4   3  -3   29.30    4.10
  -4   3  -3   24.90    3.60
  -4   3  -3   33.00    5.20
   4  -3   3   20.50    5.30
   4  -3   3   28.00    4.30
   4  -3   3   25.20    5.70
   4  -3   3   26.80    3.70
   4  -3   3   39.00    4.60
   4  -3   3   24.40    5.00
  -5   3  -3  112.99    8.00
  -5   3  -3  104.39    7.90
  -5   3  -3   82.99    7.00
  -5   3  -3   83.79   14.20
  -5   3  -3  105.19    8.10
  -5   3  -3  119.59   10.20
   5  -3   3  103.19    8.00
   5  -3   3   97.29    9.50
   5  -3   3  102.99    7.60
   5  -3   3  120.19   12.50
   5  -3   3  112.59    7.40
   5  -3   3  126.69   10.50
  -6   3  -3  209.68   15.20
  -6   3  -3  195.78   12.00
  -6   3  -3  226.38   13.70
  -6   3  -3  198.18   12.10
   6  -3   3  237.38   18.40
   6  -3   3  198.98   14.10
   6  -3   3  230.98   12.30
   6  -3   3  239.18   16.80
  -7   3  -3   10.20    9.00
  -7   3  -3   10.50    7.10
  -7   3  -3    8.60    6.60
  -7   3  -3    7.90    5.70
   7  -3   3   18.30   10.60
   7  -3   3    8.60    6.00
  -8   3  -3   36.40   11.30
  -8   3  -3   29.90    9.30
  -8   3  -3   40.40    9.60
   8  -3   3   22.10   13.80
   8  -3   3   41.20    8.80
  -9   3  -3   -4.60   10.60
  -9   3  -3   -1.50   10.40
  -9   3  -3   -0.80   11.50
   9  -3   3    4.70   10.30
   8   2  -3  128.79   12.30
   8   2  -3  132.79    9.30
   8   2  -3   88.19   18.00
   8   2  -3  121.29    8.20
  -8  -2   3  141.99   13.40
  -8  -2   3  129.09   23.40
  -8  -2   3  146.09   18.00
   7   2  -3   16.90    4.70
   7   2  -3   11.30    6.70
   7   2  -3    8.20   12.10
  -7  -2   3    8.20    9.20
  -7  -2   3    9.90    7.00
  -7  -2   3    9.80    7.90
   6   2  -3  191.68   15.20
   6   2  -3  196.38    8.40
   6   2  -3  176.38   12.90
   6   2  -3  187.98   11.60
   6   2  -3  198.78   17.70
  -6  -2   3  181.08   12.20
  -6  -2   3  203.18   14.70
  -6  -2   3  181.48   13.60
  -6  -2   3  147.99   26.80
   5   2  -3   39.00    3.20
   5   2  -3   42.80    8.80
   5   2  -3   43.10    8.50
   5   2  -3   45.20    8.10
   5   2  -3   34.30    5.40
   5   2  -3   47.40    5.50
   5   2  -3   44.50    7.10
  -5  -2   3   36.80    5.50
  -5  -2   3   41.00    6.60
  -5  -2   3   73.49   10.80
  -5  -2   3   39.20    7.10
  -5  -2   3   32.10    6.10
   4   2  -3   33.50    4.20
   4   2  -3   29.00    5.60
   4   2  -3   12.90    7.40
   4   2  -3   28.20    2.00
   4   2  -3   29.20    4.30
   4   2  -3   25.40    4.90
   4   2  -3   18.70    6.10
  -4  -2   3   23.00    4.30
  -4  -2   3   27.20    4.10
  -4  -2   3   17.70    4.50
  -4  -2   3   29.00    7.70
  -4  -2   3   24.50    4.30
   3   2  -3   48.40    6.00
   3   2  -3   24.90    3.20
   3   2  -3   26.40    4.60
   3   2  -3   28.70    3.90
   3   2  -3   30.40    3.50
   3   2  -3   42.70    6.10
  -3  -2   3   28.60    3.40
  -3  -2   3   31.90    5.50
  -3  -2   3   26.70    4.30
  -3  -2   3   35.60    4.10
  -3  -2   3   29.80    4.00
   2   2  -3  500.45   18.10
   2   2  -3  490.15   16.70
   2   2  -3  527.25   18.40
   2   2  -3  524.45   17.10
   2   2  -3  498.85   16.70
   2   2  -3  486.55   17.70
  -2  -2   3  523.95   17.00
  -2  -2   3  524.85   17.10
  -2  -2   3  512.05   18.10
  -2  -2   3  485.85   16.80
  -2  -2   3  487.55   18.20
   1   2  -3   25.40    1.90
   1   2  -3   21.90    3.20
   1   2  -3   19.90    3.30
   1   2  -3   18.20    2.00
   1   2  -3   18.20    2.10
   1   2  -3   21.20    2.20
   1   2  -3   25.40    2.90
  -1  -2   3   23.00    2.40
  -1  -2   3   26.80    3.70
  -1  -2   3   26.10    3.20
  -1  -2   3   23.80    1.60
  -1  -2   3   20.90    2.80
  -1  -2   3   21.80    2.20
  -1  -2   3   22.10    2.40
   0   2  -3   12.50    2.30
   0   2  -3    8.70    2.20
   0   2  -3   11.80    1.10
   0   2  -3   10.70    1.60
   0   2  -3   11.40    2.50
   0   2  -3   12.90    1.80
   0   2  -3   10.60    1.60
   0  -2   3   14.60    1.10
   0  -2   3   12.30    2.80
   0  -2   3   13.20    1.70
   0  -2   3   14.10    1.80
   0  -2   3   10.70    2.30
   0  -2   3   11.20    2.20
   0  -2   3    7.40    1.60
  -1   2  -3 1374.76   42.10
  -1   2  -3 1326.67   42.90
  -1   2  -3 1376.16   43.00
  -1   2  -3 1444.26   42.60
  -1   2  -3 1437.06   42.10
   1  -2   3 1336.27   42.10
   1  -2   3 1389.36   43.00
   1  -2   3 1374.96   43.00
   1  -2   3 1353.86   42.50
   1  -2   3 1351.96   42.10
  -2   2  -3  159.98    7.30
  -2   2  -3  153.08    7.90
  -2   2  -3  155.28    7.60
  -2   2  -3  158.68    6.60
  -2   2  -3  151.88    5.90
  -2   2  -3  158.18    6.60
   2  -2   3  158.48    6.70
   2  -2   3  155.08    6.70
   2  -2   3  156.78    7.80
   2  -2   3  161.18    7.40
   2  -2   3  159.08    5.90
   2  -2   3  152.38    7.80
  -3   2  -3   -1.10    3.20
  -3   2  -3    0.00    2.80
  -3   2  -3   -0.60    2.20
  -3   2  -3   -0.80    3.10
  -3   2  -3    1.30    1.90
  -3   2  -3    0.10    1.90
   3  -2   3    0.10    3.80
   3  -2   3    0.30    2.80
   3  -2   3   -1.30    4.40
   3  -2   3   -1.40    2.20
   3  -2   3   -2.10    2.70
   3  -2   3    0.30    2.10
  -4   2  -3    0.10    3.50
  -4   2  -3   -0.50    3.00
  -4   2  -3    3.10    2.80
  -4   2  -3    3.40    4.50
  -4   2  -3    2.20    3.40
   4  -2   3   -4.10    2.80
   4  -2   3   -3.10    2.60
   4  -2   3    0.40    3.80
   4  -2   3   -2.10    4.30
   4  -2   3    1.00    2.90
   4  -2   3    0.50    3.90
  -5   2  -3    9.00    3.50
  -5   2  -3    8.00    3.90
  -5   2  -3    9.30    6.60
  -5   2  -3   13.40    5.50
  -5   2  -3   13.80    5.60
   5  -2   3    9.70    5.30
   5  -2   3   15.80    6.70
   5  -2   3   12.60    4.30
   5  -2   3   16.30    6.40
   5  -2   3   19.30    4.50
   5  -2   3   27.90    7.10
  -6   2  -3   12.20   11.10
  -6   2  -3    1.90    4.90
  -6   2  -3   -1.50    5.80
  -6   2  -3    3.20    4.30
   6  -2   3    7.60    4.80
   6  -2   3    5.70    6.40
   6  -2   3    4.10    7.40
   6  -2   3    2.40    8.20
   6  -2   3    1.00    5.70
  -7   2  -3   -6.60    7.40
  -7   2  -3    4.80    6.60
  -7   2  -3    7.20    7.10
   7  -2   3    9.10    9.80
   7  -2   3    2.50    5.50
  -8   2  -3   25.00    8.90
  -8   2  -3   29.30    9.30
  -8   2  -3   51.49    9.70
   8  -2   3   39.00   13.80
   8  -2   3   45.70    9.00
  -9   2  -3   -0.60   10.70
  -9   2  -3   -0.40   11.00
  -9   2  -3   -3.10   14.90
   9  -2   3    0.90    9.30
   9  -2   3    3.60   17.20
   8   1  -3   33.00   15.40
   8   1  -3   40.70    7.90
   8   1  -3   41.80    8.70
  -8  -1   3   40.60   10.30
  -8  -1   3   40.60    9.80
  -8  -1   3   34.40   10.80
   7   1  -3    6.30    5.90
   7   1  -3   10.90    5.60
   7   1  -3   11.10   11.70
  -7  -1   3   13.20    8.30
  -7  -1   3    7.00    6.40
  -7  -1   3    9.40   15.80
  -7  -1   3   15.10    7.80
   6   1  -3  174.58   13.70
   6   1  -3  163.88   11.50
   6   1  -3  200.78   11.10
   6   1  -3  186.18    9.30
  -6  -1   3  193.28   13.50
  -6  -1   3  170.78   11.40
  -6  -1   3  179.68   14.90
  -6  -1   3  193.28   12.80
   5   1  -3   14.60    7.20
   5   1  -3   13.10    3.00
   5   1  -3    8.30    5.00
   5   1  -3   15.20    4.20
   5   1  -3   17.50    3.90
   5   1  -3    8.90    5.30
  -5  -1   3   12.40    4.00
  -5  -1   3    6.70    4.90
  -5  -1   3    9.20    4.60
  -5  -1   3   10.70    4.90
  -5  -1   3   18.20    7.70
   4   1  -3  181.68   10.40
   4   1  -3  183.48   11.20
   4   1  -3  166.48    9.40
   4   1  -3  166.48    6.70
   4   1  -3  174.78    7.90
   4   1  -3  179.58    8.00
  -4  -1   3  167.38    9.70
  -4  -1   3  162.88    9.10
  -4  -1   3  155.88    8.20
  -4  -1   3  151.78    8.40
  -4  -1   3  159.28   10.90
   3   1  -3    4.50    2.00
   3   1  -3    1.50    2.00
   3   1  -3    2.90    1.30
   3   1  -3    1.90    2.80
   3   1  -3    5.70    4.00
   3   1  -3    5.00    2.90
  -3  -1   3    1.50    2.10
  -3  -1   3    1.50    2.30
  -3  -1   3    2.30    1.30
  -3  -1   3    2.30    3.50
   2   1  -3  668.83   20.90
   2   1  -3  643.04   20.20
   2   1  -3  649.83   20.90
   2   1  -3  658.33   21.80
   2   1  -3  667.63   22.20
   2   1  -3  685.33   21.60
   2   1  -3  671.63   22.10
  -2  -1   3  663.53   22.00
  -2  -1   3  673.63   21.70
  -2  -1   3  652.43   22.00
  -2  -1   3  692.13   21.20
  -2  -1   3  686.83   21.20
  -2  -1   3  675.33   20.20
   1   1  -3  112.69    4.90
   1   1  -3  106.39    3.90
   1   1  -3  112.89    3.90
   1   1  -3  108.89    4.80
   1   1  -3  110.29    4.50
   1   1  -3  110.39    5.10
  -1  -1   3  109.79    4.20
  -1  -1   3  112.39    4.90
  -1  -1   3  106.99    4.20
  -1  -1   3  109.79    5.20
  -1  -1   3  114.09    4.60
  -1  -1   3  102.09    5.30
   0   1  -3 1078.09   31.90
   0  -1   3 1046.50   32.00
   0  -1   3 1071.29   32.10
   0  -1   3 1069.59   32.10
   0  -1   3 1080.29   32.50
   0  -1   3 1033.50   32.40
   0  -1   3 1056.29   32.40
  -1   1  -3    4.60    1.20
  -1   1  -3    4.20    1.10
  -1   1  -3    4.80    1.70
  -1   1  -3    5.10    1.70
  -1   1  -3    5.00    1.20
   1  -1   3    2.20    1.50
   1  -1   3    4.10    1.10
   1  -1   3    5.70    1.30
   1  -1   3    2.50    1.80
   1  -1   3    4.30    1.30
   1  -1   3    1.00    1.60
  -2   1  -3  105.49    4.90
  -2   1  -3  117.19    6.30
  -2   1  -3  111.49    5.00
  -2   1  -3  111.59    6.00
  -2   1  -3  109.39    5.10
   2  -1   3  107.49    5.70
   2  -1   3  113.29    5.10
   2  -1   3  112.89    5.20
   2  -1   3  107.99    4.90
   2  -1   3  116.59    6.10
   2  -1   3  107.99    6.40
  -3   1  -3  134.49    6.60
  -3   1  -3  134.19    8.40
  -3   1  -3  138.99    8.00
  -3   1  -3  138.69    6.70
  -3   1  -3  140.89    6.70
   3  -1   3  142.29    6.70
   3  -1   3  132.49    6.60
   3  -1   3  141.19    6.80
   3  -1   3  124.89    8.50
   3  -1   3  156.88    8.30
   3  -1   3  141.69    7.70
  -4   1  -3 2293.77   69.99
  -4   1  -3 2247.28   69.89
  -4   1  -3 2318.07   69.99
  -4   1  -3 2312.17   71.99
  -4   1  -3 2210.38   71.69
   4  -1   3 2246.88   70.39
   4  -1   3 2278.87   71.79
   4  -1   3 2301.37   69.99
   4  -1   3 2204.88   69.89
   4  -1   3 2237.18   69.99
   4  -1   3 2245.38   71.89
  -5   1  -3  164.58    9.90
  -5   1  -3  159.78   13.60
  -5   1  -3  168.78   11.60
  -5   1  -3  166.08    9.30
  -5   1  -3  155.78    9.40
   5  -1   3  154.18   12.60
   5  -1   3  151.18   10.30
   5  -1   3  194.68   13.40
   5  -1   3  160.88   10.00
   5  -1   3  162.68    9.20
   5  -1   3  153.48   12.50
  -6   1  -3  214.58   12.10
  -6   1  -3  200.38   14.30
  -6   1  -3  197.58   12.30
   6  -1   3  199.18   11.70
   6  -1   3  209.58   16.10
   6  -1   3  212.08   17.20
   6  -1   3  182.88   13.30
   6  -1   3  197.58   13.20
  -7   1  -3    6.10    6.60
  -7   1  -3   -0.70    5.60
  -7   1  -3    3.70    6.40
   7  -1   3   -0.90    5.30
   7  -1   3   -2.10   10.20
  -8   1  -3    6.40    9.00
  -8   1  -3    4.00    8.10
  -8   1  -3    9.00   10.60
   8  -1   3    4.60   13.70
  -9   1  -3   -0.40   14.90
  -9   1  -3    9.90   12.40
  -9   1  -3   11.70   11.90
   9  -1   3    9.40   10.60
   9   0  -3    7.50   17.80
   9   0  -3    1.70    9.80
  -9   0   3   -8.60   12.40
  -9   0   3   -4.60   12.60
  -9   0   3   -1.50   10.90
   8   0  -3   -4.60    7.10
   8   0  -3   -3.80   13.00
   8   0  -3    6.90    7.80
  -8   0   3    8.80    8.20
  -8   0   3    4.10    9.00
  -8   0   3    7.20    9.60
   7   0  -3   -0.50    5.60
   7   0  -3   -1.20    5.80
   7   0  -3    0.30   10.80
  -7   0   3   -0.50    5.70
  -7   0   3    0.60    7.30
  -7   0   3    3.90    7.10
  -7   0   3   -0.50   13.40
   6   0  -3  143.99    9.30
   6   0  -3  141.19    9.20
   6   0  -3  178.68   13.60
   6   0  -3  136.09    9.10
  -6   0   3  147.79    9.90
  -6   0   3  138.19   12.10
  -6   0   3  163.78   14.50
  -6   0   3  133.29    9.60
  -6   0   3  123.49   10.10
   5   0  -3   64.39    5.30
   5   0  -3   70.39    5.90
   5   0  -3   67.89    7.00
   5   0  -3   55.89    7.20
   5   0  -3   23.60    9.70
   5   0  -3   53.49    4.80
  -5   0   3   74.29    7.60
  -5   0   3   65.19    6.50
  -5   0   3   69.79    5.90
  -5   0   3   44.80    5.40
  -5   0   3   60.59    4.90
  -5   0   3   66.19    8.90
   4   0  -3 2802.52   85.89
   4   0  -3 2858.61   85.99
   4   0  -3 2761.02   87.69
   4   0  -3 2872.01   87.69
   4   0  -3 2758.62   86.89
   4   0  -3 2818.42   85.69
  -4   0   3 2839.52   87.79
  -4   0   3 2830.42   86.19
  -4   0   3 2838.22   85.69
  -4   0   3 2813.72   87.49
  -4   0   3 2831.72   86.29
  -4   0   3 2887.31   87.09
   3   0  -3  239.88   10.10
   3   0  -3  233.28    9.60
   3   0  -3  221.88    8.50
   3   0  -3  226.38    8.50
   3   0  -3  224.88    8.50
   3   0  -3  241.58   10.30
  -3   0   3  229.98    8.50
  -3   0   3  235.88    8.90
  -3   0   3  236.78    9.90
  -3   0   3  235.38    8.90
  -3   0   3  217.58   10.00
  -3   0   3  246.78    9.70
   2   0  -3  284.67    9.20
   2   0  -3  275.27   10.20
   2   0  -3  291.17   10.30
   2   0  -3  291.47    9.60
   2   0  -3  286.77   10.30
   2   0  -3  272.07    9.20
  -2   0   3  276.97    9.60
  -2   0   3  286.27   10.30
  -2   0   3  281.87    9.50
  -2   0   3  278.07    9.50
  -2   0   3  293.17   10.30
  -2   0   3  291.17   10.30
  -1   0   3  425.06   13.60
  -1   0   3  411.96   13.70
  -1   0   3  426.36   13.20
  -1   0   3  421.86   13.10
  -1   0  -3  311.87   10.70
  -1   0  -3  316.27   10.70
  -1   0  -3  300.17    9.90
  -1   0  -3  307.17   10.40
  -1   0  -3  295.87    9.90
   1   0   3  298.87   10.70
   1   0   3  300.67   10.00
   1   0   3  311.37   10.00
   1   0   3  311.17   10.40
   1   0   3  301.57   10.80
  -2   0  -3  191.98    8.40
  -2   0  -3  172.08    7.20
  -2   0  -3  180.48    8.50
  -2   0  -3  188.48    7.60
  -2   0  -3  186.58    7.20
   2   0   3  195.18    7.40
   2   0   3  178.38    8.70
   2   0   3  198.58    8.50
   2   0   3  198.48    7.50
   2   0   3  188.98    7.60
  -3   0  -3  631.54   22.20
  -3   0  -3  633.74   21.00
  -3   0  -3  610.44   20.70
  -3   0  -3  589.04   20.50
  -3   0  -3  594.34   22.10
   3   0   3  613.64   22.30
   3   0   3  632.04   20.80
   3   0   3  612.14   21.00
   3   0   3  655.53   22.40
   3   0   3  617.44   20.90
  -4   0  -3   56.89    5.10
  -4   0  -3   66.89    7.70
  -4   0  -3   71.29    5.70
  -4   0  -3   81.29    7.80
  -4   0  -3   52.59    5.00
   4   0   3   49.99    4.60
   4   0   3   60.59    7.30
   4   0   3   60.39    5.60
   4   0   3   53.79    5.20
   4   0   3   56.19    5.30
   4   0   3   57.89    6.60
  -5   0  -3    0.10    4.50
  -5   0  -3   -4.10    4.00
  -5   0  -3   -0.90    4.10
  -5   0  -3   -3.50    8.50
  -5   0  -3   -0.30    3.60
   5   0   3    2.50    6.00
   5   0   3    1.60    4.80
   5   0   3   -1.20    6.20
   5   0   3    2.30    4.60
   5   0   3    3.50    5.60
   5   0   3    1.50    4.00
  -6   0  -3  488.25   21.00
  -6   0  -3  490.15   20.20
  -6   0  -3  491.15   23.30
   6   0   3  561.24   25.70
   6   0   3  493.15   24.70
   6   0   3  477.05   21.50
  -7   0  -3   49.10    8.40
  -7   0  -3   43.10    8.60
  -7   0  -3   35.10    9.80
   7   0   3   29.80   11.80
   7   0   3   53.19    8.50
  -8   0  -3   30.80    9.40
  -8   0  -3   19.20   11.90
  -8   0  -3   29.20    9.80
   8   0   3   26.80    9.80
   8   0   3   14.80   14.30
   9  -1  -3   -6.00   18.90
   9  -1  -3    5.30    9.50
  -9   1   3    4.60   11.60
  -9   1   3   -0.50   12.90
  -9   1   3   -1.10    9.70
   8  -1  -3    0.30    6.90
   8  -1  -3    0.50    8.80
   8  -1  -3    5.00   12.60
  -8   1   3   -1.50    9.10
  -8   1   3   -1.20    9.40
  -8   1   3    0.50    6.90
  -8   1   3    2.10    7.70
   7  -1  -3   24.00    7.20
   7  -1  -3   25.00   10.50
   7  -1  -3   30.70    6.20
   7  -1  -3   32.10    7.20
  -7   1   3   36.00    7.00
  -7   1   3   41.50   13.00
  -7   1   3   38.70    6.50
  -7   1   3   24.50    6.70
  -7   1   3   43.80    8.20
   6  -1  -3   34.30    5.80
   6  -1  -3   44.60    5.50
   6  -1  -3   43.50    8.90
   6  -1  -3   31.70    5.60
  -6   1   3   43.60    7.10
  -6   1   3   48.50   10.40
  -6   1   3   37.60    6.20
  -6   1   3   44.30    5.60
  -6   1   3   45.00    7.20
  -6   1   3   55.79    6.00
   5  -1  -3  136.59    9.90
   5  -1  -3  130.89    8.30
   5  -1  -3  137.29   10.50
   5  -1  -3  145.49   11.00
   5  -1  -3  143.79    8.10
  -5   1   3  154.28   10.20
  -5   1   3  147.79    8.90
  -5   1   3  135.79    9.20
  -5   1   3  146.19    8.10
  -5   1   3  153.68    8.40
  -5   1   3  125.59    9.80
   4  -1  -3 7132.39  215.18
   4  -1  -3 7021.00  214.48
   4  -1  -3 7247.48  213.68
   4  -1  -3 7132.39  215.18
   4  -1  -3 7044.69  213.48
  -4   1   3 7112.29  215.28
  -4   1   3 7205.08  213.88
  -4   1   3 7203.68  214.68
  -4   1   3 7223.48  213.88
  -4   1   3 6993.40  213.88
  -4   1   3 7079.99  215.08
   3  -1  -3  259.17    9.80
   3  -1  -3  251.37   10.40
   3  -1  -3  250.97   10.50
   3  -1  -3  258.97    9.00
   3  -1  -3  248.88   10.10
   3  -1  -3  241.38    8.90
  -3   1   3  256.07   10.40
  -3   1   3  250.37    9.30
  -3   1   3  259.87    9.80
  -3   1   3  238.98    9.30
  -3   1   3  236.18   10.30
  -3   1   3  244.68   10.20
   2  -1  -3  891.71   28.50
   2  -1  -3  902.11   28.70
   2  -1  -3  879.71   27.60
   2  -1  -3  897.91   27.60
   2  -1  -3  917.51   28.60
   2  -1  -3  931.01   28.70
  -2   1   3  918.71   28.70
  -2   1   3  887.11   28.60
  -2   1   3  910.01   27.90
  -2   1   3  908.01   28.60
  -2   1   3  905.01   27.90
  -2   1   3  908.01   28.60
   1  -1  -3  864.71   26.50
   1  -1  -3  871.61   25.70
   1  -1  -3  856.21   26.30
   1  -1  -3  858.31   25.70
   1  -1  -3  844.52   26.40
   1  -1  -3  823.72   26.90
  -1   1   3  845.72   26.40
  -1   1   3  867.81   26.50
  -1   1   3  865.51   26.00
  -1   1   3  868.01   26.90
  -1   1   3  840.42   26.00
  -1   1   3  846.82   26.90
   0  -1  -3  334.27   11.20
   0  -1  -3  323.77   11.00
   0  -1  -3  326.27   10.40
   0  -1  -3  320.87   11.50
   0  -1  -3  342.67   10.40
   0  -1  -3  328.37   11.20
   0   1   3  337.17   11.40
   0   1   3  320.47   11.10
   0   1   3  333.97   10.60
   0   1   3  322.07   11.10
   0   1   3  343.17   11.60
   0   1   3  336.97   10.60
  -1  -1  -3  927.41   30.20
  -1  -1  -3  960.60   29.40
  -1  -1  -3  970.90   30.40
  -1  -1  -3  958.50   29.30
   1   1   3  958.80   30.40
   1   1   3  935.71   30.10
   1   1   3  967.10   30.00
   1   1   3  947.71   30.40
   1   1   3  946.01   29.50
   1   1   3  934.01   30.00
  -2  -1  -3  119.29    6.30
  -2  -1  -3  113.89    8.00
  -2  -1  -3  116.29    5.80
  -2  -1  -3  122.49    5.70
  -2  -1  -3  113.69    6.90
   2   1   3  119.09    7.10
   2   1   3  131.99    7.20
   2   1   3  124.09    5.90
   2   1   3  118.49    7.80
  -3  -1  -3    3.80    3.00
  -3  -1  -3    2.40    2.30
  -3  -1  -3    2.50    2.70
  -3  -1  -3   -0.30    4.50
  -3  -1  -3    2.40    3.20
   3   1   3   -0.70    3.20
   3   1   3   -2.50    4.20
   3   1   3    1.90    2.70
   3   1   3   -0.10    2.60
  -4  -1  -3   66.89    5.80
  -4  -1  -3   68.09    7.30
  -4  -1  -3   76.89    9.00
  -4  -1  -3   57.49    5.30
  -4  -1  -3   73.89    6.50
   4   1   3   77.09    6.80
   4   1   3   70.59    6.20
   4   1   3   94.29    9.40
   4   1   3   59.89    7.30
   4   1   3   76.89    6.40
  -5  -1  -3   50.29    7.80
  -5  -1  -3   42.70    6.30
  -5  -1  -3   45.00    9.30
  -5  -1  -3   47.40    6.10
  -5  -1  -3   30.40    5.80
   5   1   3   58.99    7.70
   5   1   3   43.50    6.00
   5   1   3   40.60    7.80
   5   1   3   45.10    9.30
   5   1   3   44.30    6.90
   5   1   3   53.69    6.00
  -6  -1  -3   52.39    7.30
  -6  -1  -3   54.89    9.70
  -6  -1  -3   50.69    7.70
   6   1   3   47.10    8.50
   6   1   3   53.19   11.70
   6   1   3   48.60    6.70
  -7  -1  -3    5.60    9.40
  -7  -1  -3    5.40    8.10
  -7  -1  -3    9.90    7.50
   7   1   3    5.40    6.50
   7   1   3    1.00    9.10
   7   1   3    1.90   11.10
  -8  -1  -3   18.10   11.40
  -8  -1  -3   21.10   10.60
  -8  -1  -3   16.00    9.30
   8   1   3   17.50   15.50
   8   1   3   15.50    9.90
   9  -2  -3    0.30    9.40
   9  -2  -3   -2.90   17.10
  -9   2   3    5.10    9.40
  -9   2   3    5.90   11.80
  -9   2   3    1.00   10.30
  -9   2   3    3.20   12.30
   8  -2  -3   -5.00   12.10
   8  -2  -3    3.70    6.80
  -8   2   3    0.60    8.60
  -8   2   3    2.70    8.50
  -8   2   3    8.20    7.70
  -8   2   3    2.50    6.70
   7  -2  -3    7.80    7.40
   7  -2  -3   20.40    6.90
   7  -2  -3   21.70   10.30
  -7   2   3    8.60    7.50
  -7   2   3   10.10   12.00
  -7   2   3    9.70    5.90
  -7   2   3   12.40    6.30
  -7   2   3    7.00    7.10
   6  -2  -3    5.40    5.10
   6  -2  -3    4.80    4.10
   6  -2  -3    8.90    7.40
   6  -2  -3   13.70    5.90
  -6   2   3   15.60    5.30
  -6   2   3    6.70    8.30
  -6   2   3    5.60    5.50
  -6   2   3   10.10    4.90
  -6   2   3    5.20    5.70
  -6   2   3    5.80    5.50
   5  -2  -3   60.59    7.50
   5  -2  -3   67.99    8.20
   5  -2  -3   58.39    5.00
   5  -2  -3   57.79    5.30
   5  -2  -3   76.89    7.20
   5  -2  -3   64.19    6.30
  -5   2   3   61.49    7.80
  -5   2   3   47.50    6.00
  -5   2   3   53.89    5.40
  -5   2   3   58.09    6.00
  -5   2   3   56.09    5.70
  -5   2   3   63.29    6.20
   4  -2  -3   13.40    3.00
   4  -2  -3    9.80    4.50
   4  -2  -3   13.90    3.80
   4  -2  -3   11.80    3.70
   4  -2  -3   10.90    2.70
   4  -2  -3   10.00    4.10
  -4   2   3   10.40    3.40
  -4   2   3    5.30    2.80
  -4   2   3   15.40    3.70
  -4   2   3   13.20    4.50
  -4   2   3    8.30    3.60
  -4   2   3   11.30    3.30
   3  -2  -3  212.58    8.20
   3  -2  -3  234.18    8.30
   3  -2  -3  211.28    9.90
   3  -2  -3  218.58   10.00
   3  -2  -3  208.18    9.40
   3  -2  -3  213.18    9.60
  -3   2   3  203.68    9.40
  -3   2   3  228.38    8.70
  -3   2   3  210.68    9.50
  -3   2   3  219.48    9.60
  -3   2   3  211.68    9.90
   2  -2  -3   72.49    5.20
   2  -2  -3   64.39    4.70
   2  -2  -3   81.99    5.50
   2  -2  -3   77.79    3.90
   2  -2  -3   81.69    4.00
   2  -2  -3   85.29    5.40
  -2   2   3   74.09    5.10
  -2   2   3   73.89    5.20
  -2   2   3   76.49    5.10
  -2   2   3   81.69    4.40
  -2   2   3   82.39    4.30
  -2   2   3   82.29    5.50
   1  -2  -3   65.09    4.80
   1  -2  -3   75.69    4.60
   1  -2  -3   75.59    3.50
   1  -2  -3   71.89    4.60
   1  -2  -3   71.49    3.60
   1  -2  -3   79.19    5.00
  -1   2   3   88.89    4.60
  -1   2   3   69.79    4.70
  -1   2   3   66.29    3.70
  -1   2   3   72.99    3.80
  -1   2   3   74.99    4.90
   0  -2  -3 1208.88   38.50
   0  -2  -3 1238.18   38.70
   0  -2  -3 1203.38   37.60
   0  -2  -3 1227.88   38.70
   0  -2  -3 1198.28   37.50
   0   2   3 1230.58   38.60
   0   2   3 1246.98   37.80
   0   2   3 1266.67   38.40
   0   2   3 1210.08   38.60
   0   2   3 1233.28   38.70
   0   2   3 1226.28   37.70
  -1  -2  -3  103.49    6.50
  -1  -2  -3   97.69    7.30
  -1  -2  -3   94.99    4.90
  -1  -2  -3   90.29    6.00
   1   2   3   81.79    5.90
   1   2   3   86.69    5.60
   1   2   3   92.29    5.50
   1   2   3   93.79    5.10
   1   2   3  100.49    7.10
   1   2   3   88.99    5.10
   1   2   3   98.89    6.20
  -2  -2  -3   99.19    8.70
  -2  -2  -3  110.99    7.50
  -2  -2  -3   99.69    5.80
  -2  -2  -3   92.79    6.60
  -2  -2  -3  110.89    6.10
   2   2   3  111.99    6.20
   2   2   3  108.69    7.80
   2   2   3   98.99    6.20
   2   2   3  111.19    7.70
   2   2   3  106.89    8.50
   2   2   3  115.99    7.00
   2   2   3  102.19    6.10
  -3  -2  -3   12.80    3.60
  -3  -2  -3    8.00    3.60
  -3  -2  -3   15.20    3.90
  -3  -2  -3    8.40    3.00
  -3  -2  -3   13.30    6.20
   3   2   3   14.10    6.10
   3   2   3    5.90    3.70
   3   2   3    4.80    3.80
   3   2   3   15.40    4.60
   3   2   3   10.00    3.10
   3   2   3   20.70    5.70
   3   2   3    6.10    3.20
  -4  -2  -3   64.59    6.20
  -4  -2  -3   61.59    7.30
  -4  -2  -3   62.19    6.40
  -4  -2  -3   30.50   15.20
  -4  -2  -3   66.29    5.90
   4   2   3   51.29    6.60
   4   2   3   62.09    5.90
   4   2   3   39.30    6.40
   4   2   3   66.49    8.80
   4   2   3   48.50    8.80
   4   2   3   45.40    5.60
  -5  -2  -3   48.80    6.30
  -5  -2  -3   25.40    5.80
  -5  -2  -3   26.80    6.70
   5   2   3   38.20    6.40
   5   2   3   45.20   10.10
   5   2   3   43.60    6.10
   5   2   3   47.10   10.40
   5   2   3   36.10   10.80
  -6  -2  -3    0.30    6.10
  -6  -2  -3    7.00    6.30
  -6  -2  -3    5.00    8.20
   6   2   3    3.90   10.00
   6   2   3   14.70   13.20
   6   2   3    1.20    6.00
  -7  -2  -3  149.99   13.60
  -7  -2  -3  185.18   13.20
  -7  -2  -3  149.09   15.80
   7   2   3  154.18   13.50
   7   2   3  153.78   12.80
   7   2   3  137.39   16.70
   7   2   3  147.79   21.30
  -8  -2  -3  380.46   22.80
  -8  -2  -3  428.36   25.80
   8   2   3  435.06   33.10
   8   2   3  428.56   23.50
   8   2   3  407.86   22.00
   8   2   3  306.27   26.40
   9  -3  -3    5.30   20.80
   9  -3  -3    0.50    9.30
  -9   3   3   -3.70   11.00
  -9   3   3   -6.60   11.30
  -9   3   3   -1.40   10.40
  -9   3   3    4.80    9.80
   8  -3  -3   56.29    8.10
   8  -3  -3   58.69   14.40
  -8   3   3   79.69   11.30
  -8   3   3   66.59   11.30
  -8   3   3   68.09    9.90
  -8   3   3   71.19   10.70
   7  -3  -3   10.00    7.40
   7  -3  -3   17.90   10.30
   7  -3  -3   20.90    5.60
  -7   3   3   17.50    6.50
  -7   3   3   11.00    7.20
  -7   3   3   12.80    8.00
  -7   3   3   10.50   14.30
  -7   3   3   14.80    7.20
   6  -3  -3   13.40    4.50
   6  -3  -3   23.80    7.10
   6  -3  -3   21.40    5.80
  -6   3   3   23.10    7.10
  -6   3   3   31.30    7.40
  -6   3   3   16.80    6.00
  -6   3   3   14.10    6.00
  -6   3   3   18.00    5.50
  -6   3   3   15.50    9.50
   5  -3  -3   14.40    4.30
   5  -3  -3   18.60    7.60
   5  -3  -3   12.40    3.70
   5  -3  -3   19.80    7.10
   5  -3  -3    6.10    5.60
   5  -3  -3   20.10    5.80
  -5   3   3   10.80    4.60
  -5   3   3   12.50    5.00
  -5   3   3   17.20    6.70
  -5   3   3   19.00    4.90
  -5   3   3   14.20    5.00
  -5   3   3   12.10    3.90
   4  -3  -3   13.40    5.10
   4  -3  -3   23.20    5.60
   4  -3  -3    8.30    4.00
   4  -3  -3   10.30    2.90
   4  -3  -3   12.80    4.70
   4  -3  -3   18.90    3.60
  -4   3   3   10.80    3.90
  -4   3   3   15.20    4.00
  -4   3   3   12.30    3.60
  -4   3   3   12.80    4.00
  -4   3   3   11.10    5.10
  -4   3   3   10.20    3.10
   3  -3  -3    4.50    3.60
   3  -3  -3    4.40    2.30
   3  -3  -3    6.00    3.70
   3  -3  -3    3.60    3.40
  -3   3   3    3.90    3.30
  -3   3   3    1.80    3.50
  -3   3   3    4.40    2.70
  -3   3   3    6.60    3.90
  -3   3   3    1.60    2.80
  -3   3   3    1.00    2.50
   2  -3  -3  194.58    9.70
   2  -3  -3  198.98    7.70
   2  -3  -3  204.98    9.40
   2  -3  -3  180.98    7.60
   2  -3  -3  199.88    9.30
  -2   3   3  189.98    9.40
  -2   3   3  192.58    7.90
  -2   3   3  192.28    9.10
  -2   3   3  189.78    9.20
  -2   3   3  195.98    8.10
  -2   3   3  140.99    9.00
   1  -3  -3 1059.59   35.00
   1  -3  -3 1047.70   34.80
   1  -3  -3 1089.09   33.50
   1  -3  -3 1049.59   34.60
   1  -3  -3 1123.19   33.50
  -1   3   3 1094.29   33.80
  -1   3   3 1058.49   34.90
  -1   3   3 1082.99   34.50
  -1   3   3 1048.70   34.90
  -1   3   3 1055.79   34.50
   0  -3  -3  550.74   17.80
   0  -3  -3  514.95   18.60
   0  -3  -3  545.65   19.80
   0  -3  -3  522.75   19.20
   0  -3  -3  534.35   17.70
   0  -3  -3  527.05   18.80
   0   3   3  530.25   18.70
   0   3   3  501.45   19.90
   0   3   3  541.35   19.10
   0   3   3  554.24   18.00
   0   3   3  525.25   19.20
   0   3   3  533.45   18.00
  -1  -3  -3   99.69    7.20
  -1  -3  -3  108.99    7.50
  -1  -3  -3  104.09    6.90
  -1  -3  -3  100.59    5.80
  -1  -3  -3  132.19    9.10
  -1  -3  -3  101.99    6.10
   1   3   3   95.99    7.10
   1   3   3   98.29    6.40
   1   3   3  106.39    7.80
   1   3   3   96.89    7.20
   1   3   3  109.99    8.50
   1   3   3  110.89    6.20
  -2  -3  -3   29.30    3.60
  -2  -3  -3   38.30    5.10
  -2  -3  -3   34.90    7.00
  -2  -3  -3   24.40    4.00
   2   3   3   33.20    4.10
   2   3   3   35.90    6.30
   2   3   3   36.80    6.10
   2   3   3   31.40    6.20
   2   3   3   29.50    4.30
   2   3   3   39.80    5.40
   2   3   3   33.30    4.30
  -3  -3  -3    2.50    3.40
  -3  -3  -3    4.00    4.00
  -3  -3  -3    2.20    4.30
  -3  -3  -3   10.10    7.90
  -3  -3  -3    6.80    4.20
   3   3   3    7.50    6.50
   3   3   3    5.70    6.60
   3   3   3    8.40    3.50
   3   3   3    8.60    5.20
   3   3   3    4.70    5.00
   3   3   3    6.90    4.20
   3   3   3    4.50    3.50
  -4  -3  -3   -0.20    5.60
  -4  -3  -3    5.50    4.60
  -4  -3  -3    2.50    4.50
  -4  -3  -3    1.60    6.10
  -4  -3  -3   -5.30   11.30
   4   3   3    5.40    4.20
   4   3   3    6.70    8.30
   4   3   3    1.10    5.60
   4   3   3    1.50    4.30
   4   3   3    0.40    7.10
   4   3   3   -2.60    7.90
   4   3   3   -3.40    7.70
  -5  -3  -3    6.30    7.00
  -5  -3  -3    3.60    5.60
  -5  -3  -3   12.60    6.80
   5   3   3    0.00    4.90
   5   3   3   -6.70   10.40
   5   3   3    0.10    4.80
   5   3   3    8.20    8.60
  -6  -3  -3   18.40    7.30
  -6  -3  -3   17.00    7.60
  -6  -3  -3   13.90   10.10
   6   3   3   16.30    6.80
   6   3   3   16.20   11.70
   6   3   3   17.40    7.70
   6   3   3   16.10    8.50
  -7  -3  -3  186.38   14.60
  -7  -3  -3  185.08   18.00
  -7  -3  -3  161.98   15.80
   7   3   3  151.48   20.00
   7   3   3  170.28   13.30
   7   3   3  188.08   13.20
   7   3   3  158.18   22.90
   9  -4  -3   -5.70    8.60
  -9   4   3    0.90   11.50
  -9   4   3   -0.20   12.90
  -9   4   3   -3.10   12.20
  -9   4   3   -0.60   10.80
   8  -4  -3    9.90    7.10
   8  -4  -3   -8.10   27.30
  -8   4   3    9.00    8.90
  -8   4   3   11.20    8.00
  -8   4   3    8.60    9.20
  -8   4   3   13.30    9.50
   7  -4  -3   -2.40   10.30
   7  -4  -3    1.60    5.50
  -7   4   3    4.50    8.00
  -7   4   3   -2.00    6.00
  -7   4   3   -3.60    7.30
  -7   4   3    1.40   14.50
  -7   4   3   -3.60    7.40
   6  -4  -3    7.90    5.80
   6  -4  -3    6.40    8.20
   6  -4  -3    7.10    4.50
  -6   4   3    4.30    5.60
  -6   4   3   10.10   10.30
  -6   4   3   11.00    6.70
  -6   4   3    5.10    5.30
  -6   4   3    6.50    6.10
   5  -4  -3   -0.20    6.30
   5  -4  -3   -1.90    6.30
   5  -4  -3    2.00    3.70
   5  -4  -3   -3.20    6.30
   5  -4  -3    1.20    5.60
   5  -4  -3    0.00    4.70
  -5   4   3    2.90    5.40
  -5   4   3    2.30    5.50
  -5   4   3    6.00    4.40
  -5   4   3    2.00    5.00
  -5   4   3   -1.40    4.10
  -5   4   3    0.40    7.50
   4  -4  -3  119.89    9.40
   4  -4  -3  125.79    9.40
   4  -4  -3  130.09    7.60
   4  -4  -3  137.19    8.00
  -4   4   3  124.59    8.10
  -4   4   3  132.89    9.70
  -4   4   3  143.49   10.70
  -4   4   3  125.69    8.90
  -4   4   3  120.39    8.80
  -4   4   3  128.29    9.50
   3  -4  -3   -1.80    4.00
   3  -4  -3   -0.50    3.00
   3  -4  -3   -5.30    4.70
   3  -4  -3   -0.30    3.90
   3  -4  -3    2.30    2.70
   3  -4  -3    4.50    5.20
  -3   4   3   -5.00    3.80
  -3   4   3   -0.10    3.80
  -3   4   3   -0.70    3.00
  -3   4   3    0.70    3.50
  -3   4   3    0.10    3.10
   2  -4  -3   10.10    3.10
   2  -4  -3   11.70    3.80
   2  -4  -3    9.40    4.60
   2  -4  -3    5.10    4.40
   2  -4  -3   12.30    3.90
   2  -4  -3    8.10    3.60
  -2   4   3   13.70    4.10
  -2   4   3   10.80    4.40
  -2   4   3    4.50    3.10
  -2   4   3    6.90    3.10
  -2   4   3   12.80    3.40
  -2   4   3   18.90    4.40
   1  -4  -3  142.99   10.40
   1  -4  -3  166.38    8.20
   1  -4  -3  140.19    8.90
   1  -4  -3  163.58    9.80
   1  -4  -3  148.79    8.90
   1  -4  -3  147.79    7.50
  -1   4   3  157.98    8.90
  -1   4   3  159.08    9.20
  -1   4   3  151.38    7.60
  -1   4   3  143.39    7.80
  -1   4   3  134.99    9.20
  -1   4   3  150.78    9.40
   0  -4  -3  974.80   32.20
   0  -4  -3  934.11   33.70
   0  -4  -3  938.21   32.70
   0  -4  -3  977.80   31.30
   0  -4  -3  957.30   33.20
   0  -4  -3  937.61   31.20
   0   4   3  964.20   33.30
   0   4   3 1022.80   31.60
   0   4   3  923.51   32.50
   0   4   3  998.70   31.60
   0   4   3  945.11   33.20
   0   4   3  995.70   32.20
   0   4   3  971.30   32.00
  -1  -4  -3   57.79    5.70
  -1  -4  -3   69.49    7.20
  -1  -4  -3   67.69    5.50
  -1  -4  -3   84.89    9.60
  -1  -4  -3   66.39    8.00
  -1  -4  -3   55.79    4.70
   1   4   3   51.19    4.90
   1   4   3   59.89    7.10
   1   4   3   59.09    5.60
   1   4   3   47.40    5.00
   1   4   3   64.69    7.30
   1   4   3   52.99    5.60
   1   4   3   44.00    5.80
  -2  -4  -3   73.29    6.20
  -2  -4  -3   61.89    7.30
  -2  -4  -3   53.79   12.10
  -2  -4  -3   76.19    6.80
   2   4   3   75.49    6.50
   2   4   3   45.70    7.30
   2   4   3   48.30    7.70
   2   4   3   58.39    8.30
   2   4   3   60.99    7.80
   2   4   3   62.89    6.00
   2   4   3   52.29    6.70
  -3  -4  -3  290.47   14.20
  -3  -4  -3  296.77   16.30
  -3  -4  -3  277.67   14.40
  -3  -4  -3  287.97   20.20
  -3  -4  -3  290.97   13.30
   3   4   3  280.37   17.20
   3   4   3  270.77   16.60
   3   4   3  266.67   14.30
   3   4   3  302.67   13.60
   3   4   3  277.17   17.20
   3   4   3  308.07   13.90
   3   4   3  300.97   15.70
  -4  -4  -3    8.60    6.50
  -4  -4  -3    1.70    5.50
  -4  -4  -3    8.60    6.50
   4   4   3    9.70   11.60
   4   4   3   10.10    5.50
   4   4   3    7.50    9.70
   4   4   3    9.50    9.70
   4   4   3   10.20    5.20
  -5  -4  -3  110.99   10.80
  -5  -4  -3  106.09   10.20
  -5  -4  -3   97.19   11.80
   5   4   3  124.59    9.50
   5   4   3   92.19   15.40
   5   4   3   89.39    8.70
   5   4   3  125.29   15.20
  -6  -4  -3   19.80   10.30
  -6  -4  -3   23.60   10.50
  -6  -4  -3   19.80    9.20
   6   4   3   25.40    9.10
   6   4   3   25.30   14.60
   6   4   3   18.00   10.50
   6   4   3   21.10    8.00
   6   4   3   11.10   17.00
  -7  -4  -3   10.80   11.00
  -7  -4  -3   14.90   14.00
  -7  -4  -3    6.70   11.90
   7   4   3   20.90    9.90
   7   4   3   41.30   24.40
   7   4   3   11.20   11.10
   8  -5  -3   57.49    9.10
   8  -5  -3   99.69   17.50
  -8   5   3   62.09   12.10
  -8   5   3   67.19   11.30
  -8   5   3   42.30    9.80
  -8   5   3   62.69   13.00
   7  -5  -3   32.40    7.90
   7  -5  -3   37.70   12.50
  -7   5   3   39.70    9.40
  -7   5   3   35.10    9.80
  -7   5   3   51.19   17.90
  -7   5   3   12.60    6.80
  -7   5   3   16.40    9.00
   6  -5  -3  124.39   13.30
   6  -5  -3  114.49    8.60
   6  -5  -3  126.59   10.10
  -6   5   3   96.99   10.20
  -6   5   3   97.79   10.10
  -6   5   3  140.09   16.10
  -6   5   3  138.79   10.90
  -6   5   3  120.29    9.60
   5  -5  -3   10.60    4.60
   5  -5  -3    6.30    7.70
   5  -5  -3    9.10    8.50
  -5   5   3    5.80    4.90
  -5   5   3   -1.40    8.80
  -5   5   3    0.30    5.60
  -5   5   3   10.90    5.50
   4  -5  -3    0.40    5.80
   4  -5  -3   -0.20    4.40
   4  -5  -3   -1.60    6.80
   4  -5  -3    1.30    7.70
   4  -5  -3    1.00    3.80
   4  -5  -3    1.60    6.40
  -4   5   3   -3.20    6.80
  -4   5   3    2.60    5.20
  -4   5   3    8.10    5.50
  -4   5   3    0.40    4.40
  -4   5   3    3.40    3.90
  -4   5   3    1.10    5.10
   3  -5  -3    1.20    3.90
   3  -5  -3    4.20    4.90
   3  -5  -3    3.60    3.50
   3  -5  -3    0.80    5.70
   3  -5  -3    3.30    6.20
   3  -5  -3   13.20    7.30
  -3   5   3    5.20    4.20
  -3   5   3    5.10    6.20
  -3   5   3    5.70    4.10
  -3   5   3    3.10    4.90
  -3   5   3   -0.90    4.60
  -3   5   3   -1.70    4.60
   2  -5  -3  166.68   19.20
   2  -5  -3  126.39   10.20
   2  -5  -3  114.09    8.00
   2  -5  -3  116.59    9.60
   2  -5  -3  106.59    7.30
  -2   5   3  126.29    9.20
  -2   5   3   91.79    7.00
  -2   5   3  115.69    7.90
  -2   5   3  145.49   11.00
  -2   5   3  126.99    9.50
  -2   5   3  115.19    8.30
   1  -5  -3   88.59    6.70
   1  -5  -3   90.49    6.40
   1  -5  -3   82.69    7.40
   1  -5  -3  115.79    9.60
   1  -5  -3   77.39    8.50
  -1   5   3   70.49    5.90
  -1   5   3   75.29    7.70
  -1   5   3   79.49    6.60
  -1   5   3  107.99    8.20
  -1   5   3  101.99    9.50
  -1   5   3   76.89    8.50
   0  -5  -3   32.90    7.40
   0  -5  -3   26.40    4.30
   0  -5  -3   28.70    5.70
   0  -5  -3   35.80    5.20
   0  -5  -3   33.00    9.70
   0  -5  -3   35.20    6.10
   0   5   3   31.00    6.00
   0   5   3   22.60    4.20
   0   5   3   33.00    5.50
   0   5   3   24.10    7.90
   0   5   3   43.10    7.80
   0   5   3   29.80    5.50
   0   5   3   25.50    5.20
  -1  -5  -3   70.89    8.70
  -1  -5  -3   59.29    5.70
  -1  -5  -3   65.39    7.00
  -1  -5  -3   61.09    6.30
  -1  -5  -3   52.99   10.80
  -1  -5  -3   59.29    9.10
   1   5   3   48.40    6.30
   1   5   3   56.89    6.30
   1   5   3   57.89    6.00
   1   5   3   51.19    7.10
   1   5   3   59.09    8.90
   1   5   3   55.19    8.60
  -2  -5  -3   31.90    6.80
  -2  -5  -3   35.90    5.70
  -2  -5  -3   20.90    6.30
  -2  -5  -3   33.60   10.40
   2   5   3   29.00    6.10
   2   5   3   26.60    7.40
   2   5   3   35.80    7.70
   2   5   3   39.90    6.40
   2   5   3   22.30    8.80
   2   5   3   35.20    9.10
  -3  -5  -3  119.79    9.40
  -3  -5  -3  156.08   13.50
   3   5   3  111.99    8.90
   3   5   3   80.79   10.90
   3   5   3  117.39   13.50
   3   5   3  128.19    9.90
   3   5   3  145.19   14.80
  -4  -5  -3    4.20    6.30
  -4  -5  -3   -4.20    8.50
   4   5   3   13.10   12.80
   4   5   3    7.50    6.60
   4   5   3   -4.90   10.40
   4   5   3    5.70    6.40
  -5  -5  -3   30.30   10.20
  -5  -5  -3   17.10   10.50
  -5  -5  -3   37.00    8.60
   5   5   3   42.30   17.90
   5   5   3   38.80    8.50
   5   5   3   32.70    9.30
   5   5   3   18.60   12.60
  -6  -5  -3   -0.70   11.10
  -6  -5  -3    4.60   13.40
  -6  -5  -3    3.90   11.20
   6   5   3    0.10    8.80
   6   5   3    1.10   15.50
   6   5   3    0.10   10.40
   6   5   3   -2.60   22.40
   8  -6  -3    5.60   17.60
   8  -6  -3    3.80    8.40
   8  -6  -3   -1.00   22.70
  -8   6   3   -3.20   11.90
  -8   6   3    0.60    9.40
  -8   6   3    3.90   11.20
  -8   6   3    7.50   14.10
   7  -6  -3   20.70   16.70
   7  -6  -3   13.10    7.40
  -7   6   3   12.30   10.90
  -7   6   3   17.60    9.40
  -7   6   3    7.40    7.70
  -7   6   3   15.00   10.70
   6  -6  -3    1.80   10.80
   6  -6  -3    8.40   12.60
   6  -6  -3   15.30    6.80
  -6   6   3    0.60    7.20
  -6   6   3   11.20    8.00
  -6   6   3    0.00   14.40
  -6   6   3   10.30    7.90
  -6   6   3    7.00    6.20
   5  -6  -3    3.10    5.20
   5  -6  -3   15.80   12.00
   5  -6  -3    7.00    7.90
   5  -6  -3    3.00    6.90
  -5   6   3    4.80    6.40
  -5   6   3    7.50   13.90
  -5   6   3    1.00    7.50
  -5   6   3    9.30    6.20
  -5   6   3    7.60    6.10
   4  -6  -3  543.25   22.00
   4  -6  -3  595.64   21.50
   4  -6  -3  553.64   25.60
   4  -6  -3  514.95   24.70
  -4   6   3  597.74   25.10
  -4   6   3  604.84   27.60
  -4   6   3  581.24   22.40
  -4   6   3  546.05   22.40
  -4   6   3  590.74   24.30
   3  -6  -3  181.68   14.60
   3  -6  -3  188.98   13.30
   3  -6  -3  196.08   10.70
   3  -6  -3  203.08   15.00
  -3   6   3  215.48   13.60
  -3   6   3  195.98   11.90
  -3   6   3  197.18   17.00
  -3   6   3  204.98   13.90
  -3   6   3  189.38   11.50
   2  -6  -3  150.78   12.20
   2  -6  -3  138.69    9.40
   2  -6  -3  154.28   12.70
  -2   6   3  184.88   14.40
  -2   6   3  157.68   11.90
  -2   6   3  152.18   10.40
  -2   6   3  131.99   10.30
  -2   6   3  138.19   10.20
  -2   6   3  137.89    9.80
   1  -6  -3   92.19   10.10
   1  -6  -3   94.89    9.40
   1  -6  -3   81.39    7.60
   1  -6  -3  122.39   12.40
   1  -6  -3   75.29    6.60
  -1   6   3   90.99    7.40
  -1   6   3   73.19    8.00
  -1   6   3  106.99   10.40
  -1   6   3   87.59   12.30
  -1   6   3   83.99    9.90
  -1   6   3   59.19    8.30
  -1   6   3   90.09    8.80
   0  -6  -3   69.69    8.60
   0  -6  -3   69.09    6.50
   0  -6  -3   76.39   11.20
   0  -6  -3   66.89    8.10
   0  -6  -3   82.89    7.90
   0   6   3   75.19    7.30
   0   6   3   75.89    8.20
   0   6   3   71.69    9.00
   0   6   3   69.79    9.70
   0   6   3   61.19   10.30
   0   6   3   79.59    9.40
  -1  -6  -3  358.06   20.00
  -1  -6  -3  357.56   17.60
  -1  -6  -3  332.17   18.80
  -1  -6  -3  368.86   15.80
   1   6   3  362.76   16.90
   1   6   3  332.47   20.80
   1   6   3  345.17   17.30
   1   6   3  374.96   19.70
   1   6   3  312.87   19.40
  -2  -6  -3   56.19    9.30
  -2  -6  -3   50.19    7.00
  -2  -6  -3   43.80   13.00
   2   6   3   54.29    9.60
   2   6   3   43.20   11.80
   2   6   3   55.59   14.30
   2   6   3   57.99    7.50
   2   6   3   60.59    8.10
  -3  -6  -3   48.00    8.00
  -3  -6  -3   39.10   11.00
   3   6   3   57.69   14.30
   3   6   3   29.60   10.00
   3   6   3   35.20    7.80
   3   6   3   41.30    7.90
  -4  -6  -3   22.50   11.80
  -4  -6  -3    8.80    7.40
   4   6   3   19.00   11.90
   4   6   3   13.40    7.90
   4   6   3    2.60   16.60
   4   6   3   16.30    8.90
  -5  -6  -3    3.80   12.10
  -5  -6  -3   -7.50   10.50
   5   6   3   -0.80    8.80
   5   6   3  -13.40   13.50
   5   6   3   19.30   22.00
   5   6   3   -1.10   10.10
   7  -7  -3  114.49   21.60
   7  -7  -3  107.79   18.90
   7  -7  -3  117.89   11.60
  -7   7   3  114.79   16.00
  -7   7   3  112.09   15.30
  -7   7   3  115.19   13.00
  -7   7   3  131.89   16.70
   6  -7  -3   51.89   16.00
   6  -7  -3   39.40   16.30
   6  -7  -3   43.90    8.50
  -6   7   3   39.90    9.10
  -6   7   3   57.29   10.30
  -6   7   3   54.09   11.60
  -6   7   3   47.20   11.70
   5  -7  -3   41.20    7.60
   5  -7  -3   48.90   14.60
   5  -7  -3   37.90   10.90
  -5   7   3   42.30   10.30
  -5   7   3   19.70   17.00
  -5   7   3   35.30    8.10
  -5   7   3   40.80    7.60
  -5   7   3   50.69   11.10
   4  -7  -3   29.50   12.90
   4  -7  -3   43.10    7.10
   4  -7  -3   34.10   10.90
  -4   7   3   22.50    9.20
  -4   7   3   33.60    8.40
  -4   7   3   34.60    9.80
  -4   7   3   29.10    6.70
  -4   7   3   38.60   13.80
   3  -7  -3   27.40    6.10
   3  -7  -3   17.00   12.70
   3  -7  -3   24.30    9.90
  -3   7   3   26.90    6.50
  -3   7   3   16.50    8.40
  -3   7   3   17.60    8.00
  -3   7   3   16.60   11.20
  -3   7   3   25.00    7.10
   2  -7  -3    5.40    6.90
   2  -7  -3   -3.90   11.80
   2  -7  -3    2.00    5.50
  -2   7   3    6.20    9.70
  -2   7   3    5.60    5.90
  -2   7   3   -0.20    5.10
  -2   7   3   -0.20    7.20
  -2   7   3    3.20    6.70
   1  -7  -3   11.70    5.60
   1  -7  -3   14.10   11.40
   1  -7  -3   22.00    8.40
  -1   7   3    4.60    9.70
  -1   7   3   13.40    7.00
  -1   7   3  -11.50   10.40
  -1   7   3    7.20    5.70
   0  -7  -3   28.90    8.00
   0  -7  -3   23.90    6.20
   0  -7  -3   32.10   12.50
   0   7   3   17.00   11.40
   0   7   3   32.20    8.30
   0   7   3   28.80    9.50
   0   7   3   31.60   12.70
   0   7   3   26.40    6.60
  -1  -7  -3   -2.60   12.40
  -1  -7  -3    6.10    6.50
  -1  -7  -3    0.80   10.70
   1   7   3   -4.50   11.60
   1   7   3   -0.70    8.70
   1   7   3    0.50   14.20
   1   7   3    3.00    6.60
  -2  -7  -3    3.80    7.20
  -2  -7  -3    1.30   10.40
  -2  -7  -3   10.30   15.30
   2   7   3   10.40    8.20
   2   7   3   -5.00   15.10
   2   7   3    5.50    7.20
   2   7   3    4.70   10.50
  -3  -7  -3   74.49    9.80
  -3  -7  -3   97.49   14.70
   3   7   3   81.69   21.90
   3   7   3   98.79   16.20
   3   7   3   65.99   10.20
   3   7   3  107.59   12.10
  -4  -7  -3    1.60   14.30
   4   7   3   -2.20   10.60
   4   7   3  -11.40   22.90
   4   7   3   -2.10    9.70
   4   7   3  -11.90   14.50
   6  -8  -3   30.20    9.40
   6  -8  -3   47.40   24.00
   6  -8  -3   32.30   16.70
  -6   8   3   47.20   11.40
  -6   8   3   32.50   11.00
  -6   8   3   38.80   13.10
  -6   8   3   34.60   13.10
   5  -8  -3    3.20   13.00
   5  -8  -3   -5.00    7.60
   5  -8  -3    1.50   19.90
  -5   8   3    4.90   11.10
  -5   8   3    6.20    8.70
  -5   8   3   -3.90    8.50
  -5   8   3   -3.10   11.00
   4  -8  -3   23.60   17.90
   4  -8  -3   30.00    8.40
   4  -8  -3   35.00   12.60
  -4   8   3   34.50    8.70
  -4   8   3   32.10    8.60
  -4   8   3   21.90   10.80
  -4   8   3   47.50   10.80
   3  -8  -3   53.99   17.10
   3  -8  -3   48.80   16.30
   3  -8  -3   49.40    8.40
  -3   8   3   29.80    8.20
  -3   8   3   58.09    9.20
  -3   8   3   55.19   11.40
  -3   8   3   53.99   10.80
   2  -8  -3   65.19   16.50
   2  -8  -3   61.29    8.80
   2  -8  -3  119.89   16.70
  -2   8   3   43.60    8.00
  -2   8   3   51.89    8.90
  -2   8   3   53.79   10.90
  -2   8   3   46.50   10.40
   1  -8  -3    1.90    7.00
   1  -8  -3   12.80   16.80
   1  -8  -3    8.30   10.30
  -1   8   3   -0.20    7.30
  -1   8   3   -5.60   16.10
  -1   8   3    4.40    9.10
   0  -8  -3   12.90   10.80
   0  -8  -3   16.40    7.60
   0  -8  -3   27.90   17.20
   0   8   3    2.40    7.70
   0   8   3   -0.40    8.80
   0   8   3   11.50   11.00
   0   8   3   13.80   16.00
  -1  -8  -3   46.50    8.90
  -1  -8  -3   29.00   18.60
  -1  -8  -3   39.80   12.10
   1   8   3   60.09   10.40
   1   8   3   49.99   18.70
   1   8   3   48.40   12.30
   1   8   3   58.39   11.00
  -2  -8  -3   23.60   13.60
  -2  -8  -3   23.30   21.90
  -2  -8  -3   31.10    9.70
   2   8   3   44.80   21.70
   2   8   3   25.90   10.30
   2   8   3   16.70   10.60
   2   8   3   25.50   12.90
   4  -9  -3    3.90   22.70
   4  -9  -3   18.20   10.50
   4  -9  -3   15.90   16.40
  -4   9   3    6.00   10.20
  -4   9   3    6.30   13.10
  -4   9   3    5.10   10.00
  -4   9   3    4.50   13.30
   3  -9  -3   31.20   14.40
   3  -9  -3   13.10   20.90
   3  -9  -3   22.70    9.70
  -3   9   3   28.20   13.50
  -3   9   3   22.40   10.20
  -3   9   3   18.10   13.40
  -3   9   3   13.80    9.70
   2  -9  -3  -13.90   20.40
   2  -9  -3    1.20    9.00
   2  -9  -3    5.70   14.70
  -2   9   3   -5.70   10.80
  -2   9   3   15.10   10.20
  -2   9   3   -1.60    8.90
  -2   9   3   10.20   11.80
   1  -9  -3   -0.30    9.10
   1  -9  -3    2.80   14.50
   1  -9  -3  -12.10   21.30
  -1   9   3   -5.10    9.70
  -1   9   3   -2.50   21.00
  -1   9   3   -1.50   11.70
   0  -9  -3   61.29   27.10
   0  -9  -3   42.90   10.50
   0  -9  -3   47.90   17.30
   0   9   3   55.99   11.90
   0   9   3   10.40   40.50
   0   9   3   30.70   15.20
   0   9   3   58.49   13.50
   2   9  -4    7.10    9.90
   2   9  -4   10.40   15.70
   2   9  -4    3.00    8.90
  -2  -9   4    9.40   13.60
  -2  -9   4    7.10   10.40
  -2  -9   4   -0.50   23.70
   1   9  -4    2.60    9.40
   1   9  -4    1.30   20.30
   1   9  -4   -0.80    8.90
   1   9  -4    4.60   14.00
  -1  -9   4   -1.40   24.30
  -1  -9   4    9.30   15.00
  -1  -9   4    3.90    8.80
   0   9  -4    3.70    8.80
   0   9  -4    7.90   11.30
   0   9  -4   13.50    9.60
   0  -9   4   10.50   11.70
   0  -9   4   18.00    8.90
   0  -9   4    2.20   21.40
  -1   9  -4    6.50    8.00
  -1   9  -4    7.40    6.20
  -1   9  -4   -0.30   10.90
  -1   9  -4   17.80    8.40
  -1   9  -4    2.20    9.40
   1  -9   4   10.90   11.70
   1  -9   4   13.40    7.90
   1  -9   4    1.90   18.30
  -2   9  -4   27.80   10.10
  -2   9  -4   29.20    6.20
  -2   9  -4   28.40    8.20
  -2   9  -4   35.20   11.70
  -2   9  -4   21.80    7.50
   2  -9   4   25.40   11.50
   2  -9   4   32.80   18.60
   2  -9   4   31.00    9.30
  -3   9  -4   -2.40    5.60
  -3   9  -4    1.40    7.50
  -3   9  -4   -0.70   11.20
  -3   9  -4   -0.70    7.20
  -3   9  -4    2.70   10.10
   3  -9   4   -6.40   10.80
   3  -9   4   -9.10   18.10
   3  -9   4    0.00    9.10
  -4   9  -4   -3.40   10.90
  -4   9  -4   -4.30   12.40
  -4   9  -4    1.60    8.00
  -4   9  -4    0.60    6.10
  -4   9  -4    7.30    8.70
   4  -9   4   -8.70   20.30
   4  -9   4    7.70   12.90
   4  -9   4   -2.50   10.10
  -5   9  -4    0.80    9.80
  -5   9  -4   -6.80    6.80
  -5   9  -4    5.00   11.90
  -5   9  -4   -0.50   14.40
   5  -9   4    4.10   10.70
   5  -9   4    4.70   14.20
   5  -9   4  -16.50   22.00
   3   8  -4   37.70   10.30
   3   8  -4   53.89   14.70
   3   8  -4   48.40   20.90
  -3  -8   4   39.50   21.60
  -3  -8   4   24.10   10.80
   2   8  -4    6.10    8.10
   2   8  -4   -0.90   11.20
   2   8  -4   -4.90    6.40
  -2  -8   4   -6.30    7.60
  -2  -8   4   15.70   16.70
  -2  -8   4   -1.40    7.70
  -2  -8   4   -0.50    9.90
   1   8  -4    2.00   11.40
   1   8  -4   -3.70    6.30
   1   8  -4    0.80    6.60
   1   8  -4    1.70   14.40
  -1  -8   4    0.90    7.50
  -1  -8   4   14.40   15.40
  -1  -8   4   -4.40    8.00
  -1  -8   4   -5.30    8.40
   0   8  -4    3.30    6.70
   0   8  -4    3.40    6.60
   0   8  -4    3.80    9.70
   0   8  -4   -4.50   13.80
   0   8  -4    0.40    7.00
   0  -8   4    0.20    5.90
   0  -8   4   -2.40   13.00
   0  -8   4   -1.10    8.70
   0  -8   4    8.50    8.50
  -1   8  -4   27.70    6.30
  -1   8  -4   24.80    7.50
  -1   8  -4   20.90    9.20
  -1   8  -4   21.70    7.50
  -1   8  -4   27.60    4.90
   1  -8   4   11.50   13.80
   1  -8   4   25.60    7.50
   1  -8   4   29.60    9.70
  -2   8  -4   35.20    5.90
  -2   8  -4   33.10    7.60
  -2   8  -4   32.10   10.00
  -2   8  -4   26.50    8.20
   2  -8   4   27.80    9.10
   2  -8   4   32.40    7.10
   2  -8   4   26.70   14.00
  -3   8  -4   13.50    6.50
  -3   8  -4    7.60    9.60
  -3   8  -4    3.30    5.20
  -3   8  -4    9.40    8.10
  -3   8  -4    9.50    7.60
   3  -8   4    9.70    9.10
   3  -8   4    9.20    6.90
   3  -8   4    9.20   14.60
  -4   8  -4    8.50    5.00
  -4   8  -4   11.20    9.00
  -4   8  -4   14.70   10.70
  -4   8  -4   10.50    7.40
   4  -8   4    3.50    7.00
   4  -8   4   -4.90   15.30
   4  -8   4    7.20   10.30
  -5   8  -4   19.10   10.40
  -5   8  -4   23.40   10.70
  -5   8  -4   21.00    6.20
  -5   8  -4   19.70    8.00
   5  -8   4   26.40   12.20
   5  -8   4   33.70    9.30
   5  -8   4   28.50   20.30
  -6   8  -4    3.80   14.90
  -6   8  -4   -3.20   11.40
  -6   8  -4   14.80   12.10
  -6   8  -4    6.70    7.40
   6  -8   4   14.30   13.70
   6  -8   4  -10.20   20.90
   5   7  -4   -2.90    9.90
   5   7  -4   14.60   16.20
  -5  -7   4    1.80   10.20
  -5  -7   4    3.00   11.00
  -5  -7   4   10.50   13.60
   4   7  -4   43.00    9.70
   4   7  -4   47.60   18.80
   4   7  -4   33.60   13.50
  -4  -7   4   41.60    9.90
  -4  -7   4   52.89   13.30
  -4  -7   4   44.70   10.40
   3   7  -4    9.00    7.40
   3   7  -4    5.90    4.50
   3   7  -4   13.80   15.10
   3   7  -4   11.50   11.20
  -3  -7   4    6.50    7.70
  -3  -7   4   13.70    9.10
  -3  -7   4   13.70   14.90
   2   7  -4   65.19   14.00
   2   7  -4   79.19    9.00
   2   7  -4   91.59    7.30
   2   7  -4   88.09   12.50
   2   7  -4   83.99    9.20
  -2  -7   4   77.59   10.80
  -2  -7   4   73.49    8.20
  -2  -7   4   85.39    7.30
  -2  -7   4   85.19   14.50
   1   7  -4  453.25   24.30
   1   7  -4  509.95   20.30
   1   7  -4  484.75   19.10
   1   7  -4  485.65   19.40
   1   7  -4  474.75   23.90
  -1  -7   4  496.85   23.50
  -1  -7   4  479.85   20.50
  -1  -7   4  470.55   19.20
  -1  -7   4  427.26   24.20
   0   7  -4   15.00    5.70
   0   7  -4   18.90   10.80
   0   7  -4   15.60    8.40
   0   7  -4   14.90    5.60
   0   7  -4   19.90    5.40
   0  -7   4   24.00    8.10
   0  -7   4   13.80    5.90
   0  -7   4   25.30    6.80
   0  -7   4   38.10   11.10
   0  -7   4   29.00   14.70
  -1   7  -4  227.18   10.20
  -1   7  -4  223.78   13.20
  -1   7  -4  217.28   15.90
  -1   7  -4  228.88   12.50
   1  -7   4  226.38   14.40
   1  -7   4  217.48   12.50
   1  -7   4  146.19   15.30
   1  -7   4  271.17   17.20
  -2   7  -4  131.59   11.90
  -2   7  -4  152.88   10.80
  -2   7  -4  150.08    8.30
  -2   7  -4  171.08   11.00
  -2   7  -4  140.39    7.60
   2  -7   4  149.19   10.70
   2  -7   4  145.89   11.80
   2  -7   4  149.29   16.30
   2  -7   4  111.69   14.30
  -3   7  -4    2.30    7.40
  -3   7  -4    1.50    4.90
  -3   7  -4   -3.90    6.20
  -3   7  -4    1.30    3.50
  -3   7  -4    0.50    4.00
   3  -7   4    3.40   11.20
   3  -7   4   -2.30    7.10
   3  -7   4   -3.60    5.40
  -4   7  -4  105.39   11.20
  -4   7  -4   81.09    8.20
  -4   7  -4   71.79    6.10
  -4   7  -4   87.59   12.20
   4  -7   4   93.19   14.20
   4  -7   4   72.79   10.40
   4  -7   4   85.39    8.90
  -5   7  -4   40.00   10.20
  -5   7  -4   35.80    8.00
  -5   7  -4   38.80    6.00
  -5   7  -4   51.79   10.30
   5  -7   4   39.70    7.20
   5  -7   4   52.09   15.00
   5  -7   4   43.70   11.60
  -6   7  -4   60.79   12.40
  -6   7  -4   55.59    7.80
  -6   7  -4   52.69   10.90
  -6   7  -4   54.99    8.70
   6  -7   4   49.00    8.90
   6  -7   4   58.39   17.80
   6  -7   4   55.29   12.90
  -7   7  -4   11.00   12.60
  -7   7  -4   14.20    8.60
  -7   7  -4    9.10   13.00
   7  -7   4   10.70   13.90
   7  -7   4    4.80   20.90
   6   6  -4   -3.30   10.10
   6   6  -4   -7.40   16.70
  -6  -6   4   -3.60   12.50
  -6  -6   4    2.10   10.80
  -6  -6   4    0.00    9.40
   5   6  -4    1.90   12.60
   5   6  -4    0.30    8.20
   5   6  -4    0.50   17.10
  -5  -6   4   11.80   10.80
  -5  -6   4   11.90    8.50
  -5  -6   4    3.10    8.70
   4   6  -4   92.19    9.40
   4   6  -4   79.39   15.50
  -4  -6   4  121.99   13.70
  -4  -6   4   85.99    9.80
  -4  -6   4   90.79   10.10
   3   6  -4   44.40    7.70
   3   6  -4   30.40   11.60
   3   6  -4   38.80    7.60
   3   6  -4   36.70    4.00
   3   6  -4   23.80    9.50
  -3  -6   4   29.40    8.70
  -3  -6   4   34.90    6.70
  -3  -6   4   56.29   16.50
  -3  -6   4   30.10   13.40
  -3  -6   4   41.30    6.70
   2   6  -4   86.09    9.90
   2   6  -4   88.79   12.00
   2   6  -4   92.19    7.70
   2   6  -4  108.19    9.00
   2   6  -4  109.99    7.40
   2   6  -4  112.69    8.40
  -2  -6   4   96.69    7.30
  -2  -6   4   93.59   11.50
  -2  -6   4  114.29   16.10
  -2  -6   4   91.19    7.60
  -2  -6   4   91.39   11.60
  -2  -6   4   90.19    8.50
   1   6  -4  137.29   12.10
   1   6  -4  127.29    8.60
   1   6  -4  122.49    8.70
   1   6  -4  113.09   10.20
   1   6  -4  121.79    9.20
   1   6  -4  131.99    9.60
  -1  -6   4  163.78   12.90
  -1  -6   4  145.99   11.90
  -1  -6   4   92.49    7.80
  -1  -6   4  112.79    8.30
  -1  -6   4  154.48   14.70
   0   6  -4  165.18   12.80
   0   6  -4  173.98   14.80
   0   6  -4  199.78   10.40
   0   6  -4  172.88   10.20
   0   6  -4  184.28   11.10
   0   6  -4  175.08   13.50
   0  -6   4  188.58   10.50
   0  -6   4  180.08   12.60
   0  -6   4  162.28   10.20
   0  -6   4  207.88   13.40
   0  -6   4  187.08   11.80
  -1   6  -4    2.70    3.80
  -1   6  -4    7.70    4.60
  -1   6  -4    0.20    2.80
  -1   6  -4    2.90    5.70
  -1   6  -4    1.80    4.80
  -1   6  -4   -0.70    7.20
   1  -6   4    3.00    8.20
   1  -6   4    3.90    4.20
   1  -6   4    6.90    4.90
   1  -6   4    4.80    5.60
   1  -6   4   -2.40    7.10
   1  -6   4    0.50    5.20
  -2   6  -4    7.10    4.90
  -2   6  -4    4.10    5.20
  -2   6  -4    6.90    2.90
  -2   6  -4    8.20    6.80
  -2   6  -4   12.80    5.30
  -2   6  -4    7.60    2.60
  -2   6  -4    8.00    4.10
   2  -6   4    1.90    5.50
   2  -6   4    6.10    4.50
   2  -6   4    1.40    5.00
   2  -6   4    9.10    5.40
   2  -6   4    7.80    7.90
   2  -6   4    4.80    7.40
  -3   6  -4   23.90    6.40
  -3   6  -4   18.20    6.40
  -3   6  -4   14.70    9.20
  -3   6  -4   13.70    4.60
  -3   6  -4   16.30    3.20
  -3   6  -4   17.20    5.60
   3  -6   4   11.50    4.90
   3  -6   4   24.10    9.30
   3  -6   4   12.60    6.50
   3  -6   4   20.40    7.30
   3  -6   4   18.80    8.80
  -4   6  -4   37.50    4.40
  -4   6  -4   34.90    6.30
  -4   6  -4   34.90    6.80
  -4   6  -4   16.70    6.80
   4  -6   4   41.00   10.40
   4  -6   4   25.30    5.90
   4  -6   4   25.70   10.70
   4  -6   4   19.90    7.50
  -5   6  -4   53.69    9.40
  -5   6  -4   60.59    5.90
  -5   6  -4   49.60   11.90
  -5   6  -4   63.49    8.00
   5  -6   4   28.80   21.20
   5  -6   4   68.69   10.60
   5  -6   4   37.50    6.40
  -6   6  -4  220.08   12.70
  -6   6  -4  209.08   14.10
  -6   6  -4  226.18   18.50
  -6   6  -4  208.48   16.40
   6  -6   4  209.98   13.70
   6  -6   4  210.68   14.50
   6  -6   4  206.58   17.40
  -7   6  -4   54.99    9.10
  -7   6  -4   53.99   12.60
  -7   6  -4   64.89    9.00
  -7   6  -4   68.09   11.70
   7  -6   4   58.29    9.60
   7  -6   4   42.80   12.60
  -8   6  -4  153.08   14.70
  -8   6  -4  116.39   19.40
  -8   6  -4  110.49   12.30
  -8   6  -4  121.69   15.50
   8  -6   4   65.19   22.90
   8  -6   4  123.19   12.80
   6   5  -4   77.39   10.50
   6   5  -4   55.89   15.50
   6   5  -4   69.39   19.30
  -6  -5   4   78.49   13.10
  -6  -5   4   63.19   11.30
  -6  -5   4   62.59   10.10
   5   5  -4  -13.20   12.80
   5   5  -4    7.20   11.60
   5   5  -4    6.40    6.90
  -5  -5   4    0.70    6.90
  -5  -5   4    9.50    7.20
  -5  -5   4    9.20    8.10
   4   5  -4  154.08   11.20
   4   5  -4  146.29   14.10
   4   5  -4  119.89   11.70
   4   5  -4  156.38   14.50
  -4  -5   4  140.89   17.30
  -4  -5   4  146.89   12.70
  -4  -5   4  168.38   11.10
  -4  -5   4  127.39    9.80
   3   5  -4   33.60    8.20
   3   5  -4   28.70    6.10
   3   5  -4   32.80    6.40
   3   5  -4   33.30    5.70
   3   5  -4   23.10    8.80
  -3  -5   4   28.30    5.50
  -3  -5   4   32.80    5.60
  -3  -5   4   42.00    7.90
  -3  -5   4   36.70   12.10
   2   5  -4   67.79    6.00
   2   5  -4   66.39    4.40
   2   5  -4   68.19    9.30
   2   5  -4   52.79    7.60
   2   5  -4   66.69    6.20
   2   5  -4   63.39    8.70
   2   5  -4   67.89    6.70
  -2  -5   4   75.79    9.20
  -2  -5   4   66.99    5.80
  -2  -5   4   62.99    4.40
  -2  -5   4   55.99   11.10
  -2  -5   4   60.79    7.60
  -2  -5   4   52.19    6.30
  -2  -5   4   57.69    5.80
   1   5  -4  258.67   13.60
   1   5  -4  241.28   11.40
   1   5  -4  247.98   13.50
   1   5  -4  246.58   14.50
   1   5  -4  233.48   11.00
   1   5  -4  245.18   10.20
   1   5  -4  235.58   10.30
  -1  -5   4  255.07   11.30
  -1  -5   4  263.67   13.70
  -1  -5   4  244.48   11.90
  -1  -5   4  253.37   13.40
  -1  -5   4  239.58   10.20
  -1  -5   4  257.37   10.30
  -1  -5   4  253.17   15.70
   0   5  -4  151.08    8.20
   0   5  -4  147.89    8.20
   0   5  -4  158.48    7.00
   0   5  -4  156.68    8.70
   0   5  -4  142.79   10.70
   0   5  -4  161.78   10.80
   0   5  -4  143.59   11.10
   0  -5   4  184.18   10.90
   0  -5   4  149.88   10.00
   0  -5   4  149.99    8.40
   0  -5   4  158.68    9.20
   0  -5   4  150.78    8.60
  -1   5  -4  583.44   18.90
  -1   5  -4  605.14   23.50
  -1   5  -4  604.14   23.00
  -1   5  -4  584.74   21.10
  -1   5  -4  617.94   20.90
  -1   5  -4  591.14   18.90
  -1   5  -4  577.34   20.80
   1  -5   4  569.84   21.10
   1  -5   4  623.04   23.70
   1  -5   4  612.94   21.10
   1  -5   4  611.94   22.90
   1  -5   4  561.84   21.10
   1  -5   4  595.24   22.80
  -2   5  -4   75.99    4.20
  -2   5  -4   86.09    8.10
  -2   5  -4   92.99    7.00
  -2   5  -4   90.39    6.60
  -2   5  -4   80.39    6.20
  -2   5  -4   72.19    7.90
   2  -5   4   86.69    8.70
   2  -5   4   92.19    7.10
   2  -5   4   70.99    6.50
   2  -5   4   79.69    6.30
   2  -5   4   94.19    8.40
   2  -5   4   94.99    8.90
  -3   5  -4    1.30    3.10
  -3   5  -4    7.50    4.70
  -3   5  -4    1.50    2.30
  -3   5  -4    3.40    5.00
  -3   5  -4    1.90    4.50
  -3   5  -4    2.80    6.20
   3  -5   4    1.60    4.80
   3  -5   4    0.80    3.50
   3  -5   4   -4.50    4.80
   3  -5   4   -0.30    6.40
   3  -5   4    2.80    6.60
  -4   5  -4   23.90    8.20
  -4   5  -4   20.70    4.60
  -4   5  -4   32.60    3.90
  -4   5  -4   15.20    5.30
  -4   5  -4   11.30    5.40
  -4   5  -4   18.10    6.80
   4  -5   4   15.60    5.60
   4  -5   4   26.20    7.30
   4  -5   4   17.30    4.90
   4  -5   4   13.40    6.80
   4  -5   4   22.50    4.20
   4  -5   4   16.80    6.20
  -5   5  -4   18.00    6.70
  -5   5  -4   27.30    6.60
  -5   5  -4   14.50    4.40
  -5   5  -4   22.40    5.70
   5  -5   4   17.40    5.10
   5  -5   4   19.70    9.00
   5  -5   4   17.00    4.80
   5  -5   4   20.20    8.40
  -6   5  -4   30.40    8.30
  -6   5  -4   31.30    7.50
  -6   5  -4   47.40    6.50
  -6   5  -4   29.80    5.90
   6  -5   4   29.30    6.70
   6  -5   4   29.80    6.60
   6  -5   4   34.20    9.90
  -7   5  -4    2.50    8.70
  -7   5  -4   11.00    9.60
  -7   5  -4    1.90    7.10
  -7   5  -4    7.10    7.00
   7  -5   4    7.60    6.70
   7  -5   4    5.70   10.80
  -8   5  -4   20.90    9.90
  -8   5  -4   12.60    9.30
  -8   5  -4   28.20   11.10
  -8   5  -4   17.60   11.40
   8  -5   4   25.50   10.10
   8  -5   4   22.40   15.90
   7   4  -4    2.90   14.40
   7   4  -4   28.70    9.70
  -7  -4   4   12.30    9.40
  -7  -4   4   22.90   11.00
   6   4  -4    8.60    7.00
   6   4  -4    2.00   13.90
   6   4  -4    8.70   11.90
  -6  -4   4   17.90    8.50
  -6  -4   4    9.50    9.20
  -6  -4   4    3.50    7.40
   5   4  -4   14.00   10.80
   5   4  -4    7.20    5.80
   5   4  -4   10.70    9.80
  -5  -4   4   10.60    6.20
  -5  -4   4    9.70   14.40
  -5  -4   4   15.70    7.60
   4   4  -4   14.10    4.90
   4   4  -4   -1.70    8.40
   4   4  -4    7.60    5.80
   4   4  -4   16.20    8.40
   4   4  -4    5.90    5.90
  -4  -4   4   11.10    6.70
  -4  -4   4   16.80    4.80
  -4  -4   4   10.00   10.80
  -4  -4   4   13.20    6.10
  -4  -4   4    7.40    5.20
   3   4  -4   -0.70    4.30
   3   4  -4    1.10    6.60
   3   4  -4   -0.80    3.40
   3   4  -4    2.10    4.10
   3   4  -4    2.60    5.50
   3   4  -4    2.00    6.10
  -3  -4   4   -3.60    3.80
  -3  -4   4   -1.60    8.70
  -3  -4   4   -3.20    3.40
  -3  -4   4    2.90    4.50
  -3  -4   4   -1.50    4.20
   2   4  -4   32.50    6.40
   2   4  -4   30.70    4.00
   2   4  -4   28.30    4.40
   2   4  -4   48.50    7.00
   2   4  -4   34.70    2.70
   2   4  -4   27.40    4.10
  -2  -4   4   32.90    2.50
  -2  -4   4   42.80    4.70
  -2  -4   4   32.90    4.60
  -2  -4   4   44.10    8.10
  -2  -4   4   31.30    5.50
  -2  -4   4   42.70    7.00
   1   4  -4  253.27   12.10
   1   4  -4  238.98   12.10
   1   4  -4  235.08    9.90
   1   4  -4  234.88    9.00
   1   4  -4  240.18    9.80
   1   4  -4  237.08   11.50
   1   4  -4  222.78    9.10
  -1  -4   4  241.68   12.20
  -1  -4   4  246.98   10.20
  -1  -4   4  230.38    9.20
  -1  -4   4  231.58    9.00
  -1  -4   4  238.78   11.60
  -1  -4   4  228.48   10.20
   0   4  -4 1384.46   43.40
   0   4  -4 1342.67   45.20
   0   4  -4 1395.16   45.40
   0   4  -4 1362.26   43.50
   0   4  -4 1469.45   45.10
   0   4  -4 1358.66   42.30
   0  -4   4 1370.16   43.40
   0  -4   4 1414.26   43.80
   0  -4   4 1387.06   43.80
   0  -4   4 1421.36   45.40
   0  -4   4 1410.86   44.80
  -1   4  -4    0.70    2.60
  -1   4  -4    0.60    3.20
  -1   4  -4    0.60    2.10
  -1   4  -4    1.50    1.20
  -1   4  -4    0.60    2.90
  -1   4  -4    1.00    1.20
  -1   4  -4   -0.80    3.00
   1  -4   4    4.60    3.20
   1  -4   4    0.60    3.20
   1  -4   4   -1.20    4.20
   1  -4   4    2.60    2.60
   1  -4   4    2.70    2.70
  -2   4  -4   21.00    3.50
  -2   4  -4   28.10    3.60
  -2   4  -4   27.60    2.00
  -2   4  -4   31.00    4.30
  -2   4  -4   29.80    5.00
  -2   4  -4   26.90    5.20
   2  -4   4   13.90    5.20
   2  -4   4   19.80    3.40
   2  -4   4   26.70    4.20
   2  -4   4   39.20    4.80
   2  -4   4   20.60    4.20
   2  -4   4   15.70    5.20
  -3   4  -4  265.37   12.90
  -3   4  -4  258.17   11.00
  -3   4  -4  276.97   11.40
  -3   4  -4  254.67    9.30
  -3   4  -4  263.07   13.90
  -3   4  -4  241.98   12.20
   3  -4   4  245.58   11.50
   3  -4   4  252.47   12.90
   3  -4   4  257.37   13.30
   3  -4   4  260.67   11.10
   3  -4   4  256.07    9.40
  -4   4  -4  190.08   11.20
  -4   4  -4  196.18   12.20
  -4   4  -4  204.88   14.40
  -4   4  -4  187.48   10.50
  -4   4  -4  205.98   10.00
  -4   4  -4  210.88    8.90
   4  -4   4  195.88   13.10
   4  -4   4  210.48   12.90
   4  -4   4  206.08   10.10
   4  -4   4  168.58   14.10
  -5   4  -4    4.30    4.90
  -5   4  -4    2.10    3.80
  -5   4  -4    1.60    4.30
  -5   4  -4    8.00    5.00
  -5   4  -4    6.60    4.10
  -5   4  -4   12.70    9.20
   5  -4   4    4.00    4.10
   5  -4   4    5.30    5.40
   5  -4   4    2.20    7.70
   5  -4   4    9.60    4.50
   5  -4   4    6.40    6.00
   5  -4   4    2.10    6.80
  -6   4  -4   48.60    7.20
  -6   4  -4   50.89    9.80
  -6   4  -4   40.60    6.20
  -6   4  -4   40.50    7.60
   6  -4   4   50.09   13.20
   6  -4   4   33.60    6.60
   6  -4   4   49.20    6.90
  -7   4  -4   -4.20    7.70
  -7   4  -4   -0.10    7.40
  -7   4  -4   -5.40    6.20
  -7   4  -4    0.10    6.30
   7  -4   4    1.00    5.80
   7  -4   4    2.00   11.10
  -8   4  -4  356.66   20.00
  -8   4  -4  376.46   25.60
  -8   4  -4  374.26   20.50
   8  -4   4  359.76   20.30
   8  -4   4  408.56   27.80
   8   3  -4   89.09   12.20
   8   3  -4   51.99   18.40
  -8  -3   4   85.89   14.00
  -8  -3   4   82.49   15.40
  -8  -3   4   82.99   13.00
   7   3  -4   32.20   18.20
   7   3  -4   36.20    8.40
   7   3  -4   15.50   12.90
  -7  -3   4   31.50   10.00
  -7  -3   4   31.30   11.40
  -7  -3   4   32.20    8.10
   6   3  -4   17.50   10.30
   6   3  -4    4.30   11.60
   6   3  -4    4.60    6.00
  -6  -3   4    7.40    7.00
  -6  -3   4   -1.30   14.60
  -6  -3   4   10.20    5.80
  -6  -3   4    8.80    7.20
   5   3  -4    4.10    8.80
   5   3  -4   46.50   12.60
   5   3  -4   -0.70    4.40
   5   3  -4    2.80    5.60
   5   3  -4   -1.90    8.00
  -5  -3   4   -0.50    5.70
  -5  -3   4    6.30    4.60
  -5  -3   4   -4.30   11.40
  -5  -3   4   -0.30    5.40
   4   3  -4   72.89    9.50
   4   3  -4   66.69    5.80
   4   3  -4   61.29    7.50
   4   3  -4   68.09    7.10
   4   3  -4   62.59    5.80
   4   3  -4   68.89    8.90
  -4  -3   4   72.29    8.20
  -4  -3   4   61.79    6.70
  -4  -3   4   51.79    6.20
  -4  -3   4   66.49    9.90
  -4  -3   4   60.29    5.90
   3   3  -4   21.50    4.20
   3   3  -4   44.70    6.20
   3   3  -4   28.90    5.40
   3   3  -4   26.30    3.70
   3   3  -4   39.20    4.10
   3   3  -4   35.40    6.80
  -3  -3   4   27.40    4.40
  -3  -3   4   33.80    4.10
  -3  -3   4   31.60    4.60
  -3  -3   4   37.90    5.70
  -3  -3   4   32.90    7.40
   2   3  -4  243.18    9.30
   2   3  -4  224.58    9.30
   2   3  -4  233.28   11.20
   2   3  -4  232.28   11.70
   2   3  -4  263.07   11.10
  -2  -3   4  214.58   10.80
  -2  -3   4  228.68   10.80
  -2  -3   4  227.58    9.50
  -2  -3   4  243.28    9.70
  -2  -3   4  216.98   12.30
  -2  -3   4  224.48    9.70
   1   3  -4   11.40    3.70
   1   3  -4   21.20    3.90
   1   3  -4   17.00    2.00
   1   3  -4   13.30    2.40
   1   3  -4   16.70    3.70
   1   3  -4   14.90    2.30
   1   3  -4    8.80    2.30
  -1  -3   4   18.30    5.00
  -1  -3   4   15.00    2.50
  -1  -3   4   12.70    3.90
  -1  -3   4   12.60    1.90
  -1  -3   4   11.50    2.10
  -1  -3   4   16.20    3.20
   0   3  -4 1059.89   31.70
   0   3  -4  980.90   32.80
   0   3  -4 1007.50   30.50
   0   3  -4 1007.70   31.50
   0   3  -4  963.10   32.40
   0   3  -4 1016.80   31.50
   0   3  -4  990.90   32.80
   0  -3   4  997.70   31.70
   0  -3   4 1011.90   32.80
   0  -3   4  978.40   31.50
   0  -3   4  984.70   30.50
   0  -3   4 1039.30   33.00
   0  -3   4  999.40   31.70
   0  -3   4 1043.30   32.50
  -1   3  -4   16.40    2.90
  -1   3  -4   21.60    2.60
  -1   3  -4   24.00    3.90
  -1   3  -4   14.20    2.40
  -1   3  -4   21.20    3.50
   1  -3   4   16.60    3.10
   1  -3   4   27.00    2.90
   1  -3   4   19.90    4.20
   1  -3   4   21.50    3.30
   1  -3   4   22.50    3.80
   1  -3   4   19.00    3.20
  -2   3  -4 1322.97   41.90
  -2   3  -4 1290.77   41.80
  -2   3  -4 1276.97   40.20
  -2   3  -4 1278.07   38.90
  -2   3  -4 1284.47   40.20
   2  -3   4 1300.87   41.00
   2  -3   4 1306.77   40.50
   2  -3   4 1284.57   40.40
   2  -3   4 1274.87   38.90
   2  -3   4 1268.87   41.70
   2  -3   4 1271.27   41.70
  -3   3  -4  302.87   11.40
  -3   3  -4  291.87   11.60
  -3   3  -4  297.27   10.40
  -3   3  -4  281.57   13.10
  -3   3  -4  298.67   12.40
  -3   3  -4  277.27   13.50
   3  -3   4  278.97   12.50
   3  -3   4  296.57   11.70
   3  -3   4  294.57   13.50
   3  -3   4  283.97   11.80
   3  -3   4  306.97   13.50
   3  -3   4  293.87   10.50
  -4   3  -4  165.18   12.00
  -4   3  -4  135.19    9.40
  -4   3  -4  163.58    9.00
  -4   3  -4  144.69    8.20
  -4   3  -4  162.38    7.80
  -4   3  -4  161.88   10.40
   4  -3   4  149.99   10.00
   4  -3   4  156.38    8.00
   4  -3   4  162.08    9.20
   4  -3   4  156.08   11.10
   4  -3   4  162.98    8.70
   4  -3   4  166.88   11.00
  -5   3  -4  107.79   11.60
  -5   3  -4   76.09    6.70
  -5   3  -4   85.89    6.40
  -5   3  -4   73.59    8.60
  -5   3  -4   61.69    6.30
  -5   3  -4   65.69    7.00
   5  -3   4   82.19    8.60
   5  -3   4   88.89    7.00
   5  -3   4   92.99    9.90
   5  -3   4   72.29    6.40
   5  -3   4   99.19   10.60
   5  -3   4   72.29    6.70
  -6   3  -4   55.19    6.80
  -6   3  -4   31.30    5.50
  -6   3  -4   44.00    7.10
  -6   3  -4   32.20    7.30
   6  -3   4   36.20    8.70
   6  -3   4   53.19   10.60
  -7   3  -4   15.20    6.40
  -7   3  -4   22.30    8.80
  -7   3  -4   31.40    7.50
   7  -3   4   28.20    7.10
   7  -3   4   27.00    9.60
  -8   3  -4    7.50    8.80
  -8   3  -4   12.30    8.60
  -8   3  -4    4.70   10.20
   8  -3   4    9.90   13.40
   8  -3   4   14.00    8.70
  -9   3  -4   21.40   11.30
  -9   3  -4   43.40   12.40
   9  -3   4   20.80   10.50
   8   2  -4   14.70   16.20
   8   2  -4   18.70    9.00
  -8  -2   4   18.90   15.60
  -8  -2   4   16.70    9.80
   7   2  -4   -0.80   11.70
   7   2  -4   -2.00    6.40
   7   2  -4   19.70   13.90
  -7  -2   4    0.90    7.50
  -7  -2   4    1.30    7.80
  -7  -2   4   -5.70   18.20
  -7  -2   4   -3.80    6.60
   6   2  -4   -1.70    5.80
   6   2  -4   -5.20    5.00
   6   2  -4   -0.10    9.30
   6   2  -4   -4.40   11.20
  -6  -2   4  -10.80   12.20
  -6  -2   4    0.20    5.70
  -6  -2   4   -3.10    5.80
   5   2  -4   19.10    8.10
   5   2  -4   12.60    6.70
   5   2  -4   36.60    6.40
   5   2  -4   26.90    8.40
   5   2  -4   27.20    4.90
   5   2  -4   19.30    4.90
  -5  -2   4   36.30    9.60
  -5  -2   4   22.70    5.20
  -5  -2   4   17.80    5.30
  -5  -2   4   25.80    5.20
  -5  -2   4   23.20    5.50
   4   2  -4   46.60    6.90
   4   2  -4   41.40    5.20
   4   2  -4   45.00    4.70
   4   2  -4   49.30    4.60
   4   2  -4   42.30    6.90
   4   2  -4   37.30    7.60
  -4  -2   4   35.10    4.80
  -4  -2   4   49.90    5.10
  -4  -2   4   56.29    6.90
  -4  -2   4   57.49    8.10
   3   2  -4    2.60    4.10
   3   2  -4    1.00    4.70
   3   2  -4    1.20    2.30
   3   2  -4    4.00    3.20
   3   2  -4    1.10    3.40
  -3  -2   4    0.80    2.60
  -3  -2   4    1.40    2.60
  -3  -2   4    3.60    4.50
  -3  -2   4    0.00    2.60
  -3  -2   4    2.70    3.20
   2   2  -4  490.25   15.70
   2   2  -4  492.95   17.50
   2   2  -4  480.55   15.70
   2   2  -4  455.35   16.70
   2   2  -4  478.75   17.20
   2   2  -4  503.55   16.30
  -2  -2   4  483.85   17.40
  -2  -2   4  467.45   16.00
  -2  -2   4  461.05   16.20
  -2  -2   4  451.95   15.90
  -2  -2   4  477.25   17.20
   1   2  -4  221.98    9.40
   1   2  -4  248.48    8.50
   1   2  -4  247.28    8.50
   1   2  -4  251.67    8.70
   1   2  -4  244.88    9.90
   1   2  -4  256.97    9.80
  -1  -2   4  245.58   10.00
  -1  -2   4  239.88    8.80
  -1  -2   4  243.18    8.20
  -1  -2   4  266.47    8.70
  -1  -2   4  245.68    9.70
  -1  -2   4  267.87    9.70
  -1  -2   4  236.58    8.80
   0   2  -4  126.49    4.50
   0   2  -4  127.69    6.20
   0   2  -4  127.79    5.10
   0   2  -4  132.19    5.10
   0   2  -4  136.99    6.10
   0   2  -4  135.69    6.20
   0  -2   4  141.89    5.40
   0  -2   4  134.59    5.30
   0  -2   4  130.99    5.60
   0  -2   4  131.89    6.10
   0  -2   4  133.39    6.20
   0  -2   4  145.29    6.30
   0  -2   4  124.39    4.50
  -1   2  -4  961.30   29.60
  -1   2  -4  879.11   29.80
  -1   2  -4  936.71   28.80
  -1   2  -4  923.21   28.80
  -1   2  -4  955.30   30.00
   1  -2   4  930.41   29.00
   1  -2   4  930.21   29.90
   1  -2   4  908.01   29.80
   1  -2   4  945.91   29.60
   1  -2   4  943.11   29.00
  -2   2  -4  126.89    5.10
  -2   2  -4  125.19    6.60
  -2   2  -4  115.79    6.70
  -2   2  -4  117.49    7.10
  -2   2  -4  126.39    5.70
  -2   2  -4  121.69    5.80
   2  -2   4  128.69    6.00
   2  -2   4  131.29    5.10
   2  -2   4  121.29    5.90
   2  -2   4  128.99    6.90
   2  -2   4  126.99    7.20
   2  -2   4  125.99    7.20
  -3   2  -4   -0.90    2.70
  -3   2  -4    0.20    2.10
  -3   2  -4   -2.90    3.20
  -3   2  -4    0.00    2.20
  -3   2  -4    0.10    2.90
   3  -2   4    1.00    2.50
   3  -2   4    2.30    2.20
   3  -2   4   -1.10    3.20
   3  -2   4    3.60    3.50
   3  -2   4    2.50    2.80
   3  -2   4    2.10    3.40
  -4   2  -4 1075.79   36.80
  -4   2  -4 1030.80   34.50
  -4   2  -4 1081.69   35.40
  -4   2  -4 1052.49   36.60
  -4   2  -4 1053.19   34.60
   4  -2   4 1053.89   34.80
   4  -2   4 1076.49   36.70
   4  -2   4 1092.69   34.40
   4  -2   4 1078.19   35.50
   4  -2   4 1040.20   36.60
   4  -2   4 1098.89   34.80
  -5   2  -4   74.69    6.30
  -5   2  -4   66.49    9.50
  -5   2  -4   77.79    6.40
  -5   2  -4   47.10    7.10
   5  -2   4   91.29    9.90
   5  -2   4   67.39    6.30
   5  -2   4   64.29    6.60
   5  -2   4   47.80    7.90
   5  -2   4  100.59    9.50
   5  -2   4   61.19    6.00
  -6   2  -4  110.09    9.00
  -6   2  -4   90.99   10.60
  -6   2  -4   94.49    8.10
   6  -2   4  118.09   12.20
   6  -2   4   68.79    8.90
   6  -2   4   81.09   10.90
   6  -2   4   91.49    8.30
   6  -2   4   74.49    7.90
  -7   2  -4   89.19   10.80
  -7   2  -4  111.89   10.30
  -7   2  -4   75.69    8.60
   7  -2   4   93.19    9.20
   7  -2   4   99.99   13.20
  -8   2  -4   36.80   12.30
  -8   2  -4   50.59   10.30
  -8   2  -4   30.10    9.60
   8  -2   4   36.30    8.90
   8  -2   4   29.30   13.90
   9  -2   4   63.49   12.70
   8   1  -4   18.00    6.80
   8   1  -4    8.60    8.00
   8   1  -4   17.10   14.80
  -8  -1   4   12.70    9.50
  -8  -1   4    1.60   10.40
  -8  -1   4    7.30    8.30
   7   1  -4   -1.70    5.60
   7   1  -4   -3.50    7.70
   7   1  -4   -1.00   11.10
  -7  -1   4    0.60    6.10
  -7  -1   4   -1.90   15.10
  -7  -1   4   -1.80    6.70
  -7  -1   4   -1.20    7.50
   6   1  -4  128.19    7.50
   6   1  -4  123.29   12.60
   6   1  -4  114.89    8.10
   6   1  -4  132.69    8.90
  -6  -1   4  149.19   15.10
  -6  -1   4  136.99   10.80
  -6  -1   4  124.89    9.40
  -6  -1   4  101.19    9.50
   5   1  -4    1.90    3.30
   5   1  -4    2.20    6.70
   5   1  -4    3.50    4.90
   5   1  -4    1.10    2.50
   5   1  -4   -3.00    5.40
   5   1  -4    1.10    3.60
  -5  -1   4    5.00    4.00
  -5  -1   4    8.80    5.00
  -5  -1   4    1.10    7.40
  -5  -1   4    1.20    4.50
  -5  -1   4    4.40    4.30
   4   1  -4  818.82   28.20
   4   1  -4  777.12   24.70
   4   1  -4  800.32   25.80
   4   1  -4  804.02   27.20
   4   1  -4  792.52   25.70
   4   1  -4  802.32   28.00
  -4  -1   4  816.22   28.00
  -4  -1   4  793.02   26.20
  -4  -1   4  781.22   28.00
  -4  -1   4  746.73   24.60
  -4  -1   4  789.62   26.30
  -4  -1   4  816.82   27.20
   3   1  -4   22.80    2.70
   3   1  -4   28.90    2.70
   3   1  -4   20.60    3.30
   3   1  -4   27.70    2.00
   3   1  -4   41.70    5.20
   3   1  -4   19.40    3.50
  -3  -1   4   28.20    2.00
  -3  -1   4   26.50    3.00
  -3  -1   4   29.50    4.50
   2   1  -4   43.70    3.40
   2   1  -4   39.80    2.50
   2   1  -4   43.90    3.70
   2   1  -4   41.80    3.60
   2   1  -4   42.20    2.60
   2   1  -4   51.39    4.60
  -2  -1   4   41.10    3.90
  -2  -1   4   53.09    3.80
  -2  -1   4   41.20    2.80
  -2  -1   4   41.20    3.00
  -2  -1   4   42.80    2.40
  -2  -1   4   38.80    3.50
   1   1  -4  297.97   10.00
   1   1  -4  304.87   10.20
   1   1  -4  308.17   10.90
   1   1  -4  312.97   10.20
  -1  -1   4  293.67   10.20
  -1  -1   4  304.87   10.10
  -1  -1   4  304.17    9.60
  -1  -1   4  288.27   10.20
  -1  -1   4  292.97   10.30
  -1  -1   4  304.57    9.90
  -1  -1   4  298.67    9.60
   0   1  -4   55.39    3.00
   0  -1   4   51.09    2.30
   0  -1   4   49.30    2.90
   0  -1   4   57.19    2.40
   0  -1   4   50.29    3.00
   0  -1   4   50.59    2.70
   0  -1   4   51.99    3.00
  -1   1  -4    9.90    2.10
  -1   1  -4   10.80    1.40
  -1   1  -4    7.30    1.30
  -1   1  -4   12.40    2.20
   1  -1   4    9.60    1.50
   1  -1   4    7.70    2.10
   1  -1   4    9.70    1.50
   1  -1   4    9.50    2.10
   1  -1   4    9.00    2.10
   1  -1   4    8.30    1.50
  -2   1  -4   50.89    3.60
  -2   1  -4   44.70    4.10
  -2   1  -4   58.49    4.70
  -2   1  -4   48.10    3.50
  -2   1  -4   48.70    3.50
   2  -1   4   51.79    3.60
   2  -1   4   56.19    4.70
   2  -1   4   46.20    3.40
   2  -1   4   44.00    4.30
   2  -1   4   44.90    3.20
   2  -1   4   38.40    3.60
  -3   1  -4    2.40    2.10
  -3   1  -4    7.10    3.10
  -3   1  -4    3.60    2.40
  -3   1  -4    2.80    2.70
  -3   1  -4    4.50    3.50
   3  -1   4    3.80    2.30
   3  -1   4    8.80    2.60
   3  -1   4    3.80    3.00
   3  -1   4    2.70    3.50
   3  -1   4    4.70    3.00
   3  -1   4    5.10    2.90
  -4   1  -4  396.96   15.10
  -4   1  -4  399.56   15.00
  -4   1  -4  383.06   14.80
  -4   1  -4  411.66   17.00
  -4   1  -4  367.86   17.40
   4  -1   4  417.46   15.30
   4  -1   4  425.36   15.30
   4  -1   4  406.86   17.20
   4  -1   4  398.46   15.10
   4  -1   4  394.26   16.20
   4  -1   4  370.56   16.90
  -5   1  -4   82.29    8.60
  -5   1  -4   73.49    6.00
  -5   1  -4  100.69   11.70
  -5   1  -4   69.29    6.30
   5  -1   4   54.69    7.30
   5  -1   4   71.89    6.50
   5  -1   4   71.29    7.50
   5  -1   4   70.19    6.80
   5  -1   4   88.79    9.80
   5  -1   4   54.49    5.40
  -6   1  -4   84.59   10.70
  -6   1  -4   80.39    8.00
  -6   1  -4   70.89    7.40
   6  -1   4   83.99   10.40
   6  -1   4  101.79    9.90
   6  -1   4  104.29   11.60
   6  -1   4  109.69   12.90
   6  -1   4   63.99    8.10
  -7   1  -4   -1.20    6.70
  -7   1  -4    5.00    6.80
  -7   1  -4    1.50    8.70
   7  -1   4    4.60   10.20
   7  -1   4   -0.40    6.40
  -8   1  -4    2.40    9.40
  -8   1  -4   -3.00   10.40
  -8   1  -4   -6.10    8.40
   8  -1   4    3.50    8.20
   8  -1   4    7.10   13.90
   9   0  -4    2.10    9.40
  -9   0   4    0.60   10.80
  -9   0   4    8.90   13.80
  -9   0   4  -13.30   12.40
   8   0  -4    9.30    8.20
   8   0  -4   12.30    7.50
   8   0  -4   -0.70   13.50
  -8   0   4    9.00   10.00
  -8   0   4    8.90    9.50
  -8   0   4    8.90    8.00
   7   0  -4    7.30    5.70
   7   0  -4    8.30    5.60
   7   0  -4    9.70   10.80
   7   0  -4    8.50    6.90
  -7   0   4    5.20    7.40
  -7   0   4   10.50   13.60
  -7   0   4    8.20    7.90
  -7   0   4   12.90    6.60
   6   0  -4  166.18   10.10
   6   0  -4  219.98   10.80
   6   0  -4  215.38   11.40
   6   0  -4  219.38   16.60
  -6   0   4  195.78   10.00
  -6   0   4  211.48   13.10
  -6   0   4  215.38   11.60
  -6   0   4  216.58   13.00
  -6   0   4  220.98   14.00
  -6   0   4  184.98   16.80
   5   0  -4  332.87   13.50
   5   0  -4  359.06   13.60
   5   0  -4  343.37   16.80
   5   0  -4  352.36   17.80
   5   0  -4  354.36   13.30
  -5   0   4  346.47   13.20
  -5   0   4  335.67   14.60
  -5   0   4  365.46   17.10
  -5   0   4  374.16   15.50
  -5   0   4  353.56   14.10
  -5   0   4  376.36   16.20
   4   0  -4 9908.61  288.17
   4   0  -4 9461.85  289.87
   4   0  -4 9513.25  288.07
   4   0  -4 9645.13  289.47
   4   0  -4 9724.43  288.07
   4   0  -4 9999.00  290.07
  -4   0   4 9943.71  290.07
  -4   0   4 9793.82  288.17
  -4   0   4 9466.35  288.57
  -4   0   4 9089.59  289.57
  -4   0   4 9558.14  288.47
   3   0  -4    2.20    1.90
   3   0  -4    1.70    1.60
   3   0  -4    2.40    3.30
   3   0  -4    4.50    2.50
   3   0  -4    2.70    1.60
   3   0  -4    3.90    2.70
  -3   0   4    1.70    2.10
  -3   0   4    5.30    2.00
  -3   0   4    0.90    1.80
  -3   0   4    3.00    2.50
  -3   0   4    3.10    2.90
   2   0  -4 2173.48   65.39
   2   0  -4 2157.68   65.09
   2   0  -4 2082.89   64.79
   2   0  -4 2176.18   65.09
  -2   0   4 2122.89   64.89
  -2   0   4 2134.19   64.39
  -2   0   4 2190.78   65.09
  -2   0   4 2092.09   64.89
  -2   0   4 2147.99   65.49
   1   0  -4  302.27   10.70
   1   0  -4  322.57   10.60
  -1   0   4  313.47   10.80
  -1   0   4  301.27   10.60
   0   0  -4   70.69    3.30
   0   0  -4  100.89    3.60
   0   0   4   94.19    3.60
  -1   0  -4    1.10    1.60
  -1   0  -4    0.30    1.10
  -1   0  -4    1.20    1.80
  -1   0  -4    0.90    1.20
   1   0   4   -1.30    1.20
   1   0   4    0.90    1.70
   1   0   4    1.40    1.30
   1   0   4    1.70    1.60
   1   0   4   -0.50    2.20
  -2   0  -4    9.30    2.60
  -2   0  -4   11.60    2.10
  -2   0  -4   16.10    2.30
  -2   0  -4   14.50    2.60
   2   0   4    8.60    2.90
   2   0   4   12.90    2.40
   2   0   4   15.10    3.50
   2   0   4   16.40    2.50
   2   0   4   13.20    2.30
  -3   0  -4  212.38   11.10
  -3   0  -4  223.18   10.60
  -3   0  -4  205.98    9.00
  -3   0  -4  195.38    9.50
   3   0   4  219.18    9.10
   3   0   4  214.38   11.10
   3   0   4  220.28    9.60
   3   0   4  200.68    9.80
   3   0   4  230.58   11.00
   3   0   4  228.68    9.30
  -4   0  -4   59.79    5.30
  -4   0  -4   50.19    6.30
  -4   0  -4   44.30    7.00
  -4   0  -4   37.60    4.70
  -4   0  -4   47.40    4.90
   4   0   4   47.90    5.40
   4   0   4   51.39    5.00
   4   0   4   48.60    6.60
   4   0   4   43.60    5.20
   4   0   4   53.19    5.90
   4   0   4   50.19    6.80
  -5   0  -4    2.00    4.30
  -5   0  -4    2.40    7.90
  -5   0  -4    4.40    5.30
  -5   0  -4    4.40    4.70
  -5   0  -4    2.20    4.50
   5   0   4    0.90    6.70
   5   0   4    0.40    4.00
   5   0   4    5.30    6.80
   5   0   4    9.60    5.90
   5   0   4    3.80    5.40
   5   0   4    2.00    4.50
  -6   0  -4   34.40    8.60
  -6   0  -4   32.30    7.00
  -6   0  -4   34.00    7.00
   6   0   4   33.10    8.10
   6   0   4   22.00   10.10
   6   0   4   28.00    5.60
   6   0   4   39.30   11.90
  -7   0  -4   51.29    9.30
  -7   0  -4   44.90    8.20
  -7   0  -4   58.69   10.50
   7   0   4   40.60   12.30
  -8   0  -4   53.79   13.40
  -8   0  -4   93.29   11.70
  -8   0  -4   73.09   12.10
   8   0   4   82.19   10.70
   8   0   4   67.89   15.60
   9  -1  -4   -1.00    9.10
   9  -1  -4    2.90   17.70
  -9   1   4    5.50   12.60
  -9   1   4    6.70   12.70
  -9   1   4    8.70   10.30
   8  -1  -4   72.39   10.10
   8  -1  -4   65.89   10.20
   8  -1  -4   47.50   14.50
  -8   1   4   69.19   12.40
  -8   1   4   57.89    8.50
  -8   1   4   69.09   10.00
  -8   1   4   70.39   20.60
  -8   1   4   53.69   10.70
   7  -1  -4   19.30    6.90
   7  -1  -4   18.00    5.60
   7  -1  -4   19.10    6.80
   7  -1  -4   18.10   10.40
  -7   1   4   21.60    7.10
  -7   1   4   14.90    5.80
  -7   1   4   30.30   13.70
  -7   1   4   15.90    5.70
  -7   1   4   23.60    7.30
   6  -1  -4    0.30    4.00
   6  -1  -4    8.20    7.40
   6  -1  -4    0.60    4.50
   6  -1  -4    4.10    4.60
  -6   1   4   -4.10    5.00
  -6   1   4    2.30    5.60
  -6   1   4   -1.00    4.10
  -6   1   4   -1.50    4.30
  -6   1   4   -0.60    8.20
  -6   1   4   -2.10    5.20
   5  -1  -4   24.00    3.90
   5  -1  -4   11.00    3.30
   5  -1  -4   10.70    4.10
   5  -1  -4   21.30    5.90
   5  -1  -4   24.20    6.60
  -5   1   4   13.20    4.30
  -5   1   4   18.20    4.70
  -5   1   4   16.20    4.10
  -5   1   4   14.70    3.90
  -5   1   4   14.80    6.10
  -5   1   4   15.90    4.60
   4  -1  -4  671.83   24.10
   4  -1  -4  686.33   22.20
   4  -1  -4  698.73   23.80
   4  -1  -4  689.83   23.00
   4  -1  -4  687.93   24.40
  -4   1   4  685.63   24.10
  -4   1   4  692.63   24.40
  -4   1   4  689.73   22.80
  -4   1   4  671.23   23.80
  -4   1   4  649.74   24.10
  -4   1   4  715.53   23.00
   3  -1  -4   68.29    5.40
   3  -1  -4   66.29    5.70
   3  -1  -4   73.29    3.80
   3  -1  -4   67.79    5.10
   3  -1  -4   53.09    4.60
  -3   1   4   62.09    5.50
  -3   1   4   81.69    5.50
  -3   1   4   67.79    4.40
  -3   1   4   80.09    5.60
  -3   1   4   68.79    4.30
  -3   1   4   71.59    5.10
   2  -1  -4   41.00    1.90
   2  -1  -4   41.70    3.70
   2  -1  -4   38.70    3.60
   2  -1  -4   42.20    3.60
   2  -1  -4   44.10    3.60
   2  -1  -4   43.70    1.90
  -2   1   4   40.40    2.80
  -2   1   4   38.90    2.70
  -2   1   4   28.50    3.10
  -2   1   4   38.50    3.30
  -2   1   4   42.30    3.40
  -2   1   4   43.00    3.60
   1  -1  -4  511.75   16.60
   1  -1  -4  527.05   17.50
   1  -1  -4  545.65   16.80
  -1   1   4  548.85   17.70
  -1   1   4  498.95   16.90
  -1   1   4  530.95   16.20
  -1   1   4  539.65   16.70
  -1   1   4  522.05   16.20
  -1   1   4  512.45   17.50
   0  -1  -4  518.35   17.30
   0  -1  -4  536.35   17.00
   0  -1  -4  518.05   17.10
   0  -1  -4  524.15   16.10
   0  -1  -4  532.65   16.10
   0   1   4  540.65   17.10
   0   1   4  534.45   17.80
   0   1   4  519.15   17.00
   0   1   4  541.85   17.30
   0   1   4  527.05   16.50
   0   1   4  530.05   16.50
  -1  -1  -4   51.59    3.20
  -1  -1  -4   49.70    3.20
  -1  -1  -4   45.50    4.20
  -1  -1  -4   66.79    4.90
   1   1   4   53.09    4.30
   1   1   4   74.29    5.30
   1   1   4   54.29    3.50
   1   1   4   51.49    4.20
   1   1   4   48.50    3.90
   1   1   4   45.70    4.20
  -2  -1  -4  978.40   33.00
  -2  -1  -4  963.90   31.40
  -2  -1  -4  974.50   32.20
  -2  -1  -4  966.60   32.90
  -2  -1  -4 1031.70   31.50
   2   1   4  973.70   31.70
   2   1   4  997.40   32.30
   2   1   4 1009.40   31.70
   2   1   4 1022.70   33.00
   2   1   4 1097.39   34.60
  -3  -1  -4  947.31   31.00
  -3  -1  -4  944.21   32.20
  -3  -1  -4  969.60   30.30
  -3  -1  -4  891.41   32.20
  -3  -1  -4  931.51   30.30
   3   1   4  933.61   32.20
   3   1   4  944.51   32.30
   3   1   4  933.41   31.00
   3   1   4  907.31   30.40
  -4  -1  -4  323.67   15.10
  -4  -1  -4  292.37   12.90
  -4  -1  -4  280.07   16.80
  -4  -1  -4  291.77   13.30
  -4  -1  -4  290.47   12.50
   4   1   4  289.57   13.60
   4   1   4  306.47   15.60
   4   1   4  312.77   16.00
   4   1   4  290.17   13.20
   4   1   4  307.57   13.20
  -5  -1  -4  230.18   13.40
  -5  -1  -4  266.17   13.80
  -5  -1  -4  279.57   15.80
  -5  -1  -4  267.17   12.80
  -5  -1  -4  293.87   19.90
   5   1   4  247.98   13.80
   5   1   4  277.77   17.20
   5   1   4  278.87   16.10
   5   1   4  245.48   12.80
   5   1   4  271.37   17.20
   5   1   4  240.78   14.90
  -6  -1  -4  440.06   18.50
  -6  -1  -4  399.06   21.70
  -6  -1  -4  400.86   19.40
   6   1   4  399.66   23.10
   6   1   4  389.26   19.70
   6   1   4  403.36   18.40
  -7  -1  -4   27.80    8.40
  -7  -1  -4   37.70   11.40
  -7  -1  -4   23.20    7.30
   7   1   4   33.70   12.70
   7   1   4   31.10    8.20
  -8  -1  -4  488.75   33.50
  -8  -1  -4  450.15   28.30
   8   1   4  386.56   22.30
   8   1   4  236.88   34.80
   9  -2  -4    7.20   17.60
   9  -2  -4    6.30    9.00
  -9   2   4    4.10    9.70
  -9   2   4   -6.40   10.40
  -9   2   4   -3.60   12.40
  -9   2   4    1.90   12.10
   8  -2  -4   -0.60   13.10
  -8   2   4   -6.20   17.80
  -8   2   4    0.50    9.10
  -8   2   4   10.10    9.50
  -8   2   4    0.10    7.60
  -8   2   4    3.50    7.00
   7  -2  -4    5.20    9.30
   7  -2  -4   -1.80    5.10
   7  -2  -4   -2.50    6.60
   7  -2  -4   -5.80    7.40
  -7   2   4    2.20    6.80
  -7   2   4   -0.80    5.90
  -7   2   4    4.10   11.80
  -7   2   4    2.50    7.30
  -7   2   4   -3.10    5.60
   6  -2  -4   85.69    6.60
   6  -2  -4   80.49    6.90
   6  -2  -4   87.29    8.20
   6  -2  -4  112.69   11.10
  -6   2   4   83.89    9.00
  -6   2   4   93.39   11.30
  -6   2   4   79.09    8.00
  -6   2   4   74.89    7.30
  -6   2   4   65.09    6.70
  -6   2   4   93.59    8.50
   5  -2  -4   24.20    5.00
   5  -2  -4   40.40    7.30
   5  -2  -4   36.40    4.50
   5  -2  -4   27.10    5.70
   5  -2  -4   28.70    3.90
  -5   2   4   33.40    4.60
  -5   2   4   25.50    4.90
  -5   2   4   25.20    4.80
  -5   2   4   34.80    5.20
  -5   2   4   24.10    4.90
   4  -2  -4  122.79    6.10
   4  -2  -4  122.29    8.30
   4  -2  -4  126.09    8.70
   4  -2  -4  123.09    6.30
   4  -2  -4  111.59    8.00
   4  -2  -4  119.99    9.00
  -4   2   4  115.99    8.00
  -4   2   4  122.09    7.10
  -4   2   4  123.09    8.00
  -4   2   4  130.99    7.90
  -4   2   4  114.49    6.80
  -4   2   4  118.49    8.80
   3  -2  -4   39.80    2.90
   3  -2  -4   32.00    2.80
   3  -2  -4   43.70    4.80
   3  -2  -4   44.30    4.70
   3  -2  -4   30.90    4.00
   3  -2  -4   29.70    3.90
  -3   2   4   32.30    4.10
  -3   2   4   36.20    4.30
  -3   2   4   30.10    3.20
  -3   2   4   43.10    3.70
  -3   2   4   34.10    3.90
   2  -2  -4 2138.79   65.09
   2  -2  -4 2160.28   65.09
   2  -2  -4 2162.68   66.39
   2  -2  -4 2097.89   66.59
   2  -2  -4 2185.48   66.19
  -2   2   4 2197.18   66.79
  -2   2   4 2151.28   65.49
  -2   2   4 2168.58   65.49
  -2   2   4 2167.08   66.59
  -2   2   4 2114.19   66.29
  -2   2   4 2233.88   66.49
   1  -2  -4  547.85   16.40
   1  -2  -4  513.25   17.60
   1  -2  -4  523.75   18.10
   1  -2  -4  518.95   17.80
   1  -2  -4  490.85   17.30
   1  -2  -4  514.85   16.40
  -1   2   4  530.45   16.80
  -1   2   4  533.25   18.10
  -1   2   4  517.75   17.40
  -1   2   4  524.35   16.80
  -1   2   4  519.65   17.60
   0  -2  -4 1386.96   42.80
   0  -2  -4 1329.07   42.30
   0  -2  -4 1351.36   41.40
   0  -2  -4 1342.37   42.60
   0  -2  -4 1338.37   42.60
   0   2   4 1359.06   42.60
   0   2   4 1323.97   41.70
   0   2   4 1377.76   41.70
   0   2   4 1379.56   42.90
   0   2   4 1400.06   42.70
   0   2   4 1325.07   42.30
  -1  -2  -4  308.47   12.00
  -1  -2  -4  294.57   10.50
  -1  -2  -4  291.67   12.60
  -1  -2  -4  305.97   10.60
   1   2   4  292.17   10.80
   1   2   4  274.77   12.40
   1   2   4  268.97   11.50
   1   2   4  293.77   11.90
   1   2   4  298.67   10.80
   1   2   4  296.07   11.60
   1   2   4  293.07   11.60
  -2  -2  -4   30.20    3.40
  -2  -2  -4   42.40    4.70
  -2  -2  -4   49.60    6.50
  -2  -2  -4   28.00    4.20
  -2  -2  -4   27.80    3.50
   2   2   4   33.80    3.90
   2   2   4   30.20    4.50
   2   2   4   32.30    4.10
   2   2   4   23.20    4.00
   2   2   4   38.50    5.90
   2   2   4   28.30    3.30
   2   2   4   31.90    5.10
  -3  -2  -4   52.09    5.70
  -3  -2  -4   39.00    5.30
  -3  -2  -4   48.90    8.30
  -3  -2  -4   40.30    4.70
  -3  -2  -4   49.30    4.90
   3   2   4   66.89    8.10
   3   2   4   40.30    5.30
   3   2   4   41.60    4.70
   3   2   4   32.90    4.10
   3   2   4   50.69    5.00
   3   2   4   39.10    6.50
   3   2   4   58.89    7.20
  -4  -2  -4   41.80    5.40
  -4  -2  -4   37.40    7.10
  -4  -2  -4   40.40    6.80
  -4  -2  -4   28.80    5.20
  -4  -2  -4   47.30   10.50
   4   2   4   35.70    5.40
   4   2   4   35.20    7.70
   4   2   4   51.79    7.20
   4   2   4   28.30    8.10
   4   2   4   48.80    8.30
   4   2   4   37.90    5.30
  -5  -2  -4   37.40    6.10
  -5  -2  -4   31.50    6.90
  -5  -2  -4   46.50    9.00
   5   2   4   38.20   11.80
   5   2   4   44.00   10.80
   5   2   4   42.80    7.30
   5   2   4   35.40    9.60
  -6  -2  -4   20.90    8.30
  -6  -2  -4   14.30    6.50
  -6  -2  -4   21.50    9.80
   6   2   4   15.40    8.60
   6   2   4   12.60    6.60
   6   2   4   -1.40   13.40
   6   2   4   18.20   11.20
  -7  -2  -4  120.39   13.30
  -7  -2  -4  120.79   11.20
  -7  -2  -4  136.89   15.80
   7   2   4  115.69   11.50
   7   2   4  106.39   20.30
   7   2   4   99.79   16.50
  -8  -2  -4   50.69   12.80
   9  -3  -4    7.70   21.70
   9  -3  -4    5.30    9.50
  -9   3   4   12.10   11.00
  -9   3   4   -1.40   10.00
  -9   3   4    3.50   12.10
  -9   3   4   -2.90   12.30
   8  -3  -4   -0.90   12.90
  -8   3   4    1.30    7.90
  -8   3   4    5.40    9.10
  -8   3   4   -6.80   19.10
  -8   3   4   -0.50    8.50
  -8   3   4    3.60   10.10
   7  -3  -4   15.50    5.50
   7  -3  -4   13.70   10.10
   7  -3  -4   19.40    7.30
  -7   3   4   27.50    6.80
  -7   3   4   18.30    7.90
  -7   3   4    8.30    6.80
  -7   3   4   14.10    7.60
  -7   3   4   28.30   13.40
   6  -3  -4   56.39   10.10
   6  -3  -4   41.00    5.40
   6  -3  -4   57.79    8.60
   6  -3  -4   58.29    6.30
  -6   3   4   46.40    7.60
  -6   3   4   51.19    7.40
  -6   3   4   50.39    7.40
  -6   3   4   50.59    6.30
  -6   3   4   44.10    7.60
  -6   3   4   53.59   10.40
   5  -3  -4   21.80    6.70
   5  -3  -4   26.80    6.00
   5  -3  -4   20.00    6.80
   5  -3  -4   27.20    4.50
   5  -3  -4   29.30    4.20
   5  -3  -4   18.80    5.70
  -5   3   4   24.80    5.00
  -5   3   4   34.70    7.40
  -5   3   4   27.40    5.40
  -5   3   4   23.00    4.70
  -5   3   4   16.30    5.00
  -5   3   4   29.60    6.20
   4  -3  -4   24.50    5.50
   4  -3  -4   26.90    3.60
   4  -3  -4   13.30    4.40
   4  -3  -4   22.80    5.10
   4  -3  -4   19.30    3.20
   4  -3  -4   20.40    5.50
  -4   3   4   18.80    4.70
  -4   3   4   22.90    3.70
  -4   3   4   17.10    5.00
  -4   3   4   28.60    5.00
  -4   3   4   16.90    4.40
  -4   3   4   26.70    4.30
   3  -3  -4  132.29    6.20
   3  -3  -4  132.59    8.30
   3  -3  -4  134.29    6.30
   3  -3  -4  122.69    8.30
   3  -3  -4  136.39    8.60
  -3   3   4  124.99    7.80
  -3   3   4  114.19    6.80
  -3   3   4  124.89    8.20
  -3   3   4  139.19    8.10
  -3   3   4  128.19    7.30
  -3   3   4  122.69    8.40
   2  -3  -4  631.14   22.60
   2  -3  -4  644.44   22.40
   2  -3  -4  662.33   22.80
   2  -3  -4  680.73   21.00
   2  -3  -4  628.44   22.50
   2  -3  -4  633.14   20.90
  -2   3   4  674.23   22.50
  -2   3   4  611.24   22.50
  -2   3   4  657.73   22.80
  -2   3   4  640.34   22.50
  -2   3   4  684.33   21.50
  -2   3   4  661.63   21.40
   1  -3  -4  169.88    8.20
   1  -3  -4  168.48    8.40
   1  -3  -4  170.28    6.80
   1  -3  -4  172.28    9.50
   1  -3  -4  166.48    6.90
  -1   3   4  166.98    8.50
  -1   3   4  160.18    8.60
  -1   3   4  133.69    8.30
  -1   3   4  161.38    7.20
  -1   3   4  169.28    8.60
   0  -3  -4 1951.90   62.99
   0  -3  -4 1978.90   62.69
   0  -3  -4 2055.49   63.19
   0  -3  -4 2010.30   61.39
   0  -3  -4 2080.79   61.59
   0   3   4 2023.20   62.79
   0   3   4 2042.00   63.19
   0   3   4 1957.00   62.99
   0   3   4 2038.20   61.89
   0   3   4 1994.20   61.79
   0   3   4 1996.10   62.69
  -1  -3  -4    9.30    4.70
  -1  -3  -4   14.50    3.70
  -1  -3  -4   18.90    6.60
   1   3   4   14.60    3.60
   1   3   4   19.00    3.50
   1   3   4   10.80    4.30
   1   3   4   11.20    2.90
   1   3   4   11.10    4.00
   1   3   4   11.80    3.70
   1   3   4   12.20    4.30
  -2  -3  -4   87.19    6.10
  -2  -3  -4   83.69    6.00
  -2  -3  -4   92.29    9.40
   2   3   4   65.39    7.60
   2   3   4   71.69    7.20
   2   3   4   86.99    7.80
   2   3   4   76.19    6.00
   2   3   4   65.29    5.40
   2   3   4   84.29    6.20
   2   3   4   92.89    7.30
  -3  -3  -4   55.49    6.20
  -3  -3  -4   67.79    9.80
  -3  -3  -4   68.29    6.50
  -3  -3  -4   71.79    8.60
  -3  -3  -4   60.19    5.70
   3   3   4   61.09    8.50
   3   3   4   48.60    6.60
   3   3   4   71.79    8.90
   3   3   4   63.89    6.20
   3   3   4   52.79    5.40
   3   3   4   87.39    9.70
   3   3   4   60.09    6.50
  -4  -3  -4   41.90    7.10
  -4  -3  -4   54.59    6.30
  -4  -3  -4   54.99    7.10
  -4  -3  -4   50.09    6.80
   4   3   4   59.49    6.70
   4   3   4   78.49   10.90
   4   3   4   37.10    8.30
   4   3   4   63.39    6.70
   4   3   4   58.99   10.30
  -5  -3  -4   55.99    8.50
  -5  -3  -4   88.99    9.40
  -5  -3  -4   87.29    8.80
   5   3   4   90.49    8.50
   5   3   4   75.39    7.90
   5   3   4   96.79   12.90
   5   3   4  103.29   13.90
  -6  -3  -4   69.29    9.70
  -6  -3  -4   60.69   11.80
  -6  -3  -4   47.80   10.20
   6   3   4   79.29    9.40
   6   3   4   66.79   16.40
   6   3   4   54.59   13.10
   6   3   4   53.39    9.40
  -7  -3  -4    6.40   11.00
  -7  -3  -4   10.90   10.50
  -7  -3  -4    2.00    9.20
   7   3   4    0.50   27.00
   7   3   4  -13.80   21.40
   7   3   4   16.00    9.60
   7   3   4    6.30    9.90
   8  -4  -4  104.39   10.00
   8  -4  -4  140.29   18.20
  -8   4   4  108.49   12.10
  -8   4   4  113.39   14.50
  -8   4   4  100.69   12.10
  -8   4   4  143.29   13.30
   7  -4  -4   23.50    8.00
   7  -4  -4   11.70    5.70
   7  -4  -4   23.10   11.60
  -7   4   4   27.50    8.70
  -7   4   4   24.90    6.80
  -7   4   4   19.60    7.80
  -7   4   4   13.90    7.80
  -7   4   4    9.50   14.60
   6  -4  -4   11.10    8.60
   6  -4  -4    3.10    5.80
   6  -4  -4    1.90    4.50
  -6   4   4    6.70    5.20
  -6   4   4    2.90    6.30
  -6   4   4    2.90    5.80
  -6   4   4    3.30   10.10
  -6   4   4   10.40    6.60
   5  -4  -4  148.29   12.00
   5  -4  -4  142.29   10.50
   5  -4  -4  126.29   10.40
   5  -4  -4  117.29    8.10
   5  -4  -4  118.49    7.80
  -5   4   4  134.29    9.80
  -5   4   4  105.29    7.90
  -5   4   4  123.99    9.60
  -5   4   4  110.09    9.70
  -5   4   4  138.09    9.50
  -5   4   4  135.49   11.50
   4  -4  -4   17.20    5.30
   4  -4  -4   16.00    3.60
   4  -4  -4   12.90    3.90
   4  -4  -4   11.70    5.30
  -4   4   4   11.10    3.90
  -4   4   4   15.90    6.20
  -4   4   4   15.20    4.90
  -4   4   4   16.40    5.00
  -4   4   4   10.40    4.80
  -4   4   4   10.60    4.00
   3  -4  -4  136.49    9.70
   3  -4  -4  116.59    8.60
   3  -4  -4  109.89    8.20
   3  -4  -4  132.69    7.30
   3  -4  -4  145.59   10.90
  -3   4   4  135.79    9.20
  -3   4   4  149.19    7.90
  -3   4   4  143.49    8.70
  -3   4   4  126.19    8.10
  -3   4   4  144.39   10.30
  -3   4   4  125.69    9.30
   2  -4  -4   21.50    4.80
   2  -4  -4   19.20    4.40
   2  -4  -4   21.20    3.20
   2  -4  -4   15.80    5.50
   2  -4  -4   23.60    3.50
  -2   4   4   23.40    4.80
  -2   4   4   34.40    5.20
  -2   4   4   28.40    5.10
  -2   4   4   33.80    4.40
  -2   4   4   25.60    4.40
  -2   4   4   26.20    3.80
   1  -4  -4  445.06   16.10
   1  -4  -4  427.06   19.30
   1  -4  -4  463.15   17.90
   1  -4  -4  475.25   18.30
   1  -4  -4  471.95   16.20
  -1   4   4  461.45   18.20
  -1   4   4  455.55   17.80
  -1   4   4  465.65   16.60
  -1   4   4  451.15   18.10
  -1   4   4  465.65   16.60
  -1   4   4  459.45   17.70
   0  -4  -4  124.29    6.80
   0  -4  -4  118.19    8.50
   0  -4  -4  120.19    8.90
   0  -4  -4  137.39    9.20
   0  -4  -4  135.89   10.50
   0  -4  -4  120.29    7.40
   0   4   4  116.89    7.30
   0   4   4  129.09   10.50
   0   4   4  115.79    7.60
   0   4   4  128.19    9.20
   0   4   4  125.09    8.70
   0   4   4  120.69    8.40
   0   4   4  133.19    8.80
  -1  -4  -4   19.50    6.90
  -1  -4  -4   29.30    8.40
  -1  -4  -4   31.10    4.60
  -1  -4  -4   24.90    5.80
  -1  -4  -4   18.30    3.70
  -1  -4  -4   20.00    4.90
   1   4   4   23.30    5.50
   1   4   4   25.60    5.80
   1   4   4   18.80    4.00
   1   4   4   18.70    6.10
   1   4   4   21.60    4.50
   1   4   4   24.00    4.50
   1   4   4   17.50    5.20
  -2  -4  -4   -2.70    3.20
  -2  -4  -4    1.60    4.20
  -2  -4  -4   -3.20    4.80
  -2  -4  -4   -2.40    8.30
   2   4   4   -0.70    6.00
   2   4   4    2.30    5.90
   2   4   4   -0.50    4.10
   2   4   4    2.40    4.00
   2   4   4    7.30    6.90
   2   4   4    0.80    4.40
   2   4   4    6.40    5.70
  -3  -4  -4   13.40    5.40
  -3  -4  -4   13.90    4.70
  -3  -4  -4   10.70    6.80
   3   4   4   13.00    5.20
   3   4   4    6.60    7.70
   3   4   4   11.40    8.30
   3   4   4    9.90    5.10
   3   4   4    6.40    9.30
  -4  -4  -4    0.80    6.30
  -4  -4  -4    4.30    6.50
  -4  -4  -4    1.40    7.20
   4   4   4   -1.00    5.40
   4   4   4    1.80    8.40
   4   4   4    2.50    5.50
   4   4   4    4.00    9.40
   4   4   4    8.70   10.90
  -5  -4  -4   10.40    7.00
  -5  -4  -4    5.80    7.90
  -5  -4  -4   -1.30    9.10
   5   4   4    0.00   13.80
   5   4   4    4.20   11.50
   5   4   4   -0.40    6.60
   5   4   4   -2.80    5.70
  -6  -4  -4   -3.50   10.60
  -6  -4  -4    0.60    8.80
  -6  -4  -4    9.90   10.10
   6   4   4    1.00    8.20
   6   4   4   -0.40    8.40
   6   4   4   -2.50   13.80
   6   4   4    1.40   18.60
   8  -5  -4  140.19   19.50
   8  -5  -4  146.99   11.50
  -8   5   4  152.78   27.10
  -8   5   4  135.49   14.70
  -8   5   4  120.79   13.80
  -8   5   4  162.88   14.00
   7  -5  -4   40.10    7.30
   7  -5  -4   57.19   13.90
  -7   5   4   51.79   11.10
  -7   5   4   66.19   17.30
  -7   5   4   62.19   10.30
  -7   5   4   61.39    9.40
  -7   5   4   55.39   11.10
   6  -5  -4   12.80   10.00
   6  -5  -4   16.50    5.60
   6  -5  -4   22.30   11.70
   6  -5  -4   12.10    6.80
  -6   5   4   20.50   12.70
  -6   5   4   18.90    7.70
  -6   5   4   27.80    7.30
  -6   5   4   10.00    7.70
  -6   5   4   12.80    7.00
   5  -5  -4   21.20    8.90
   5  -5  -4   10.40    4.50
   5  -5  -4    9.70    8.60
   5  -5  -4    5.40    5.40
  -5   5   4   11.80    6.20
  -5   5   4    5.20    6.50
  -5   5   4   13.20    5.50
  -5   5   4    8.70    9.10
  -5   5   4   14.30    7.00
   4  -5  -4   10.90    6.80
   4  -5  -4   16.40    9.20
   4  -5  -4    8.40    3.90
   4  -5  -4   11.00    4.70
  -4   5   4    4.80    6.00
  -4   5   4    2.90    5.20
  -4   5   4    3.90    7.30
  -4   5   4   13.80    5.90
  -4   5   4    8.50    4.20
  -4   5   4    7.00    5.10
   3  -5  -4    5.90    7.20
   3  -5  -4    4.80    3.60
   3  -5  -4    1.20    5.10
   3  -5  -4    6.60    6.20
   3  -5  -4    2.30    4.20
  -3   5   4    6.40    5.00
  -3   5   4   -0.70    5.00
  -3   5   4    9.70    6.90
  -3   5   4    2.40    3.90
  -3   5   4    1.70    4.30
   2  -5  -4  131.09   11.00
   2  -5  -4  133.79    8.70
   2  -5  -4  159.78   11.40
   2  -5  -4  147.69    8.10
   2  -5  -4  162.08   11.40
   2  -5  -4  123.29   11.30
  -2   5   4  137.09   11.90
  -2   5   4  149.19    9.70
  -2   5   4  145.29    9.60
  -2   5   4  137.29   10.20
  -2   5   4  143.49    8.90
  -2   5   4  158.68   10.80
   1  -5  -4   36.40    5.90
   1  -5  -4   23.40    8.70
   1  -5  -4   43.10    4.80
   1  -5  -4   31.20    6.00
   1  -5  -4   40.20    7.60
   1  -5  -4   46.80    5.30
  -1   5   4   37.40    5.50
  -1   5   4   34.80    7.20
  -1   5   4   41.10    6.90
  -1   5   4   47.50    6.30
  -1   5   4   27.40    4.50
  -1   5   4   38.50    7.10
   0  -5  -4   26.40    7.50
   0  -5  -4   18.60    4.70
   0  -5  -4   20.70    8.80
   0  -5  -4   14.70    5.90
   0  -5  -4   16.10    6.50
   0  -5  -4   15.50    4.00
   0   5   4   16.20    5.10
   0   5   4   19.00    4.40
   0   5   4   35.00    8.20
   0   5   4   16.50    6.10
   0   5   4   21.30    5.80
   0   5   4   27.10    6.00
  -1  -5  -4  238.98   12.30
  -1  -5  -4  229.28   13.10
  -1  -5  -4  234.28   15.00
  -1  -5  -4  259.97   14.60
  -1  -5  -4  244.18   19.80
  -1  -5  -4  237.58   11.40
   1   5   4  227.08   14.40
   1   5   4  213.38   15.10
   1   5   4  237.58   12.90
   1   5   4  249.38   12.80
   1   5   4  197.08   13.90
   1   5   4  242.08   12.00
   1   5   4  250.27   14.10
  -2  -5  -4  130.89    9.60
  -2  -5  -4  119.99   11.50
   2   5   4  163.28   10.80
   2   5   4  187.38   15.00
   2   5   4  157.38   13.50
   2   5   4  135.39   13.00
   2   5   4  149.19   10.30
  -3  -5  -4  202.88   16.20
  -3  -5  -4  194.38   13.40
   3   5   4  202.08   16.20
   3   5   4  192.88   17.20
   3   5   4  225.38   18.20
   3   5   4  196.78   13.40
   3   5   4  210.78   13.30
  -4  -5  -4  116.39   10.00
  -4  -5  -4  102.39   12.20
   4   5   4  139.59   11.50
   4   5   4  102.39   13.90
   4   5   4  131.69   17.10
   4   5   4  131.99   10.80
  -5  -5  -4   11.20   11.80
  -5  -5  -4   24.20    8.50
   5   5   4    1.20   12.90
   5   5   4    6.10   18.40
   5   5   4    1.20    9.20
   5   5   4    7.70    8.60
  -6  -5  -4    2.80   12.80
  -6  -5  -4   -1.30   13.70
  -6  -5  -4   -3.40    9.90
   6   5   4   -1.80   10.20
   6   5   4   -3.30   23.60
   6   5   4   -3.70   10.60
   6   5   4    0.90   16.40
   8  -6  -4   26.10    9.10
  -8   6   4   23.10   13.70
  -8   6   4   28.60   13.10
  -8   6   4   20.90   11.00
   7  -6  -4   18.60    7.40
   7  -6  -4   22.90   17.90
   7  -6  -4    1.90   13.80
  -7   6   4    5.60   10.80
  -7   6   4   -0.40   10.30
  -7   6   4    6.90    9.00
  -7   6   4    2.60    9.30
   6  -6  -4  197.88   13.00
   6  -6  -4  243.78   19.30
   6  -6  -4  233.68   18.40
  -6   6   4  172.58   14.20
  -6   6   4  223.38   20.30
  -6   6   4  221.78   14.80
  -6   6   4  206.08   14.80
  -6   6   4  202.18   17.20
   5  -6  -4   23.50    5.70
   5  -6  -4   26.60   11.20
   5  -6  -4   22.30    7.30
   5  -6  -4   32.90    9.60
  -5   6   4   16.50    6.40
  -5   6   4   15.00    7.10
  -5   6   4   11.20    6.80
  -5   6   4   25.90   12.20
  -5   6   4   16.20    8.00
   4  -6  -4  208.18   12.50
   4  -6  -4  180.18   11.00
   4  -6  -4  188.98   16.40
   4  -6  -4  190.98   14.90
  -4   6   4  177.98   14.10
  -4   6   4  200.98   13.10
  -4   6   4  152.98   14.50
  -4   6   4  211.28   15.70
  -4   6   4  205.38   14.80
   3  -6  -4  226.98   12.80
   3  -6  -4  246.98   16.00
   3  -6  -4  253.77   16.40
   3  -6  -4  229.28   11.70
  -3   6   4  164.78   18.30
  -3   6   4  235.98   17.90
  -3   6   4  233.38   12.80
  -3   6   4  257.57   15.60
  -3   6   4  235.88   13.40
   2  -6  -4   42.40    5.70
   2  -6  -4   38.10    6.30
   2  -6  -4   29.10    6.80
   2  -6  -4   12.90    9.60
  -2   6   4   28.70    6.80
  -2   6   4   30.70    5.90
  -2   6   4   35.80    6.00
  -2   6   4   25.60    6.80
  -2   6   4   39.40    8.60
   1  -6  -4   84.79   10.90
   1  -6  -4   93.19   10.60
   1  -6  -4   75.29    6.90
  -1   6   4   66.99    9.50
  -1   6   4   68.29   10.20
  -1   6   4   55.69    6.50
  -1   6   4   78.89    8.80
  -1   6   4   90.09    9.30
  -1   6   4   55.79    8.20
   0  -6  -4    1.10    4.40
   0  -6  -4    3.50    6.00
   0  -6  -4   -2.50    9.20
   0  -6  -4   18.10    7.00
   0   6   4    5.50    7.40
   0   6   4    1.80    5.80
   0   6   4    1.40    4.90
   0   6   4   -1.00    7.70
   0   6   4  -10.90    8.50
  -1  -6  -4  173.08   14.70
  -1  -6  -4  161.88   14.20
  -1  -6  -4  157.18   10.80
   1   6   4  135.79   10.70
   1   6   4  146.89   12.60
   1   6   4  170.88   11.50
   1   6   4  174.18   15.50
   1   6   4  156.78   14.20
  -2  -6  -4   36.00    6.70
  -2  -6  -4   35.00    9.10
   2   6   4   22.70   11.80
   2   6   4   39.90   10.00
   2   6   4   28.00    7.20
   2   6   4   37.90    7.20
   2   6   4   26.70   10.40
  -3  -6  -4    5.60    6.50
  -3  -6  -4    0.60    8.90
   3   6   4   11.60    7.40
   3   6   4   16.20    7.70
   3   6   4   18.40   14.50
   3   6   4    7.70    9.60
  -4  -6  -4    2.90    9.70
  -4  -6  -4    3.50    7.70
   4   6   4   -1.90    8.40
   4   6   4  -13.00   17.00
   4   6   4    1.50    8.90
   4   6   4    5.90   11.80
  -5  -6  -4    9.90   14.40
   5   6   4    6.50   13.90
   5   6   4    5.90   10.40
   5   6   4    7.10   10.40
   5   6   4   11.70   23.60
   7  -7  -4  219.58   22.60
   7  -7  -4  190.48   23.80
   7  -7  -4  190.48   13.50
  -7   7   4  175.58   14.60
  -7   7   4  178.08   17.10
  -7   7   4  202.68   16.60
  -7   7   4  243.58   19.20
   6  -7  -4  269.97   23.00
   6  -7  -4  367.46   27.70
   6  -7  -4  350.56   18.10
  -6   7   4  324.57   20.80
  -6   7   4  354.26   20.00
  -6   7   4  374.16   23.00
  -6   7   4  403.26   23.50
   5  -7  -4  177.48   19.30
   5  -7  -4  147.19   15.60
  -5   7   4  122.19   10.80
  -5   7   4  136.39   13.20
  -5   7   4  128.39   19.40
  -5   7   4  152.58   15.40
  -5   7   4  148.79   12.30
   4  -7  -4  175.28   16.60
   4  -7  -4  169.08   15.60
   4  -7  -4  166.38   12.00
  -4   7   4  165.88   13.50
  -4   7   4  150.18   10.90
  -4   7   4  151.18   13.80
  -4   7   4  148.79   17.40
  -4   7   4  163.78   11.90
   3  -7  -4   88.89   12.80
   3  -7  -4   47.70   12.50
   3  -7  -4   71.79    7.80
  -3   7   4   77.09   10.80
  -3   7   4   60.09    8.50
  -3   7   4   65.09   10.70
  -3   7   4   57.79   14.00
  -3   7   4   64.49    8.20
   2  -7  -4    0.70    7.10
   2  -7  -4    1.60   10.70
   2  -7  -4    0.80    5.50
  -2   7   4    3.80    6.90
  -2   7   4   10.30   10.50
  -2   7   4    0.50    7.80
  -2   7   4    1.40    6.30
  -2   7   4    1.50    5.80
   1  -7  -4    7.70    8.10
   1  -7  -4    6.10    5.70
   1  -7  -4   -6.60   12.30
  -1   7   4    5.60   10.60
  -1   7   4    7.50   10.90
  -1   7   4    6.50    8.00
  -1   7   4    9.20    6.30
   0  -7  -4    9.60   14.10
   0  -7  -4    0.60    7.50
   0  -7  -4   -1.30    6.60
   0   7   4    5.50    7.80
   0   7   4    6.40   13.50
   0   7   4   -1.70    6.30
   0   7   4   -2.90    8.40
   0   7   4   -5.40   11.60
  -1  -7  -4   12.90    6.70
  -1  -7  -4    9.80    9.70
  -1  -7  -4   13.70   14.20
   1   7   4    7.70    9.90
   1   7   4    7.20    7.20
   1   7   4   17.90    8.30
   1   7   4   10.70   13.80
  -2  -7  -4   -4.50    9.80
  -2  -7  -4    2.90    6.90
   2   7   4   11.00    7.90
   2   7   4   -4.60   16.00
   2   7   4    0.90    8.50
   2   7   4    1.40   10.40
  -3  -7  -4   39.70    9.40
  -3  -7  -4   38.40   13.40
   3   7   4   23.70   19.50
   3   7   4   33.70   10.20
   6  -8  -4   39.50   18.80
   6  -8  -4    0.70    9.00
  -6   8   4    3.10   12.10
  -6   8   4   -3.60   12.40
  -6   8   4   -1.70   10.70
  -6   8   4    4.60    9.80
   5  -8  -4   19.00   18.30
   5  -8  -4   12.60    8.20
   5  -8  -4   22.60   15.20
  -5   8   4    7.60    8.30
  -5   8   4   17.70   12.50
  -5   8   4   20.20   14.80
  -5   8   4    7.90    9.60
   4  -8  -4   29.40   16.70
   4  -8  -4   27.80    8.40
   4  -8  -4   25.70   17.50
  -4   8   4    8.60    7.70
  -4   8   4   17.50   11.10
  -4   8   4   21.90   11.20
  -4   8   4   21.60    9.00
   3  -8  -4   28.00    7.90
   3  -8  -4   23.30   17.20
   3  -8  -4   22.50   13.20
  -3   8   4   24.40   11.00
  -3   8   4   22.50   10.40
  -3   8   4   14.10    8.30
  -3   8   4   17.90    8.00
   2  -8  -4    4.90    7.20
  -2   8   4   -2.80    7.00
  -2   8   4    0.00    9.10
  -2   8   4    3.30    7.90
  -2   8   4   -2.30    9.70
   1  -8  -4   -1.60   15.50
   1  -8  -4    5.00   11.50
   1  -8  -4   10.00    7.10
  -1   8   4    9.60    8.50
  -1   8   4    7.50   15.00
  -1   8   4    4.10    9.20
   0  -8  -4   11.40    7.60
   0  -8  -4    6.40   10.10
   0  -8  -4   19.10   17.60
   0   8   4   18.10   11.80
   0   8   4    9.10    8.80
   0   8   4    2.90   16.90
   0   8   4   12.30   10.20
  -1  -8  -4   33.30   13.40
  -1  -8  -4   18.30   19.80
  -1  -8  -4   23.70    8.70
   1   8   4   34.70   12.90
   1   8   4   28.40   19.40
   1   8   4   22.90   22.30
   1   8   4   29.20   10.70
  -2  -8  -4   18.10    9.90
  -2  -8  -4   26.20   15.30
   2   8   4   24.20   23.10
   2   8   4   24.10   10.90
   2   8   4   20.10   11.40
   2   8   4   23.00   13.70
   3  -9  -4    1.00   24.90
   3  -9  -4    2.60   14.10
   3  -9  -4   -0.60    9.20
  -3   9   4   -3.10   10.10
  -3   9   4    1.20   10.70
  -3   9   4    1.70   12.50
  -3   9   4    4.40   13.10
   2  -9  -4   12.40   13.20
   2  -9  -4   20.30   10.30
   2  -9  -4  -11.00   24.40
  -2   9   4   12.00   12.00
  -2   9   4    9.10   10.00
  -2   9   4   27.90   10.70
  -2   9   4    8.40   12.30
   1  -9  -4   -9.70    9.80
   1  -9  -4   -5.50   24.00
   1  -9  -4   -8.10   13.30
  -1   9   4    4.00   10.00
   2   9  -5   -7.50   16.50
   2   9  -5    4.40    8.60
  -2  -9   5   -3.90   14.20
  -2  -9   5    7.80   10.80
   1   9  -5    5.40    9.60
   1   9  -5   -1.90   20.70
   1   9  -5    1.60    8.80
   1   9  -5   -2.40   14.10
   1   9  -5    2.90   10.80
  -1  -9   5    6.60   11.70
  -1  -9   5   10.80   20.30
  -1  -9   5   -0.40   10.20
  -1  -9   5    3.20    9.60
   0   9  -5    3.60    8.60
   0   9  -5    2.50    8.90
   0   9  -5  -17.60   17.90
   0   9  -5    5.50    8.90
   0  -9   5   -3.50    8.90
   0  -9   5    8.30   10.60
  -1   9  -5   -2.50    5.40
  -1   9  -5    0.00    9.10
  -1   9  -5   -3.30    7.10
  -1   9  -5    3.40    7.80
  -1   9  -5    0.60   10.70
   1  -9   5    5.00   17.80
   1  -9   5    6.00    7.80
   1  -9   5   -0.60   11.50
  -2   9  -5   31.10    6.70
  -2   9  -5   32.30    5.50
  -2   9  -5   31.90    8.60
  -2   9  -5   39.10   12.10
  -2   9  -5   41.10   10.80
   2  -9   5   34.20   18.00
   2  -9   5   32.40   12.20
   2  -9   5   40.10    9.10
  -3   9  -5    2.40    4.90
  -3   9  -5   -0.80    6.90
  -3   9  -5    2.90   10.00
  -3   9  -5   -8.70    7.30
  -3   9  -5   -6.70   11.10
   3  -9   5    3.40    9.10
   3  -9   5   -0.30   11.30
   3  -9   5   13.80   19.30
  -4   9  -5    8.20    5.40
  -4   9  -5    7.60   11.20
  -4   9  -5    9.30    8.50
  -4   9  -5   25.70   13.20
   4  -9   5    8.70   11.20
   4  -9   5   13.60   13.10
   4  -9   5   16.60   21.30
  -5   9  -5    6.70   14.40
  -5   9  -5    7.20   12.60
  -5   9  -5    1.90    9.50
   5  -9   5   -2.10   27.40
   5  -9   5    2.20   14.20
   5  -9   5    9.70   10.80
   3   8  -5    2.70    5.10
   3   8  -5   -0.30   12.70
   3   8  -5   -2.80    8.90
  -3  -8   5  -17.10   20.40
  -3  -8   5   -4.10   11.10
  -3  -8   5    3.90   13.10
   2   8  -5   17.80   12.10
   2   8  -5   11.00    9.40
   2   8  -5   12.80   16.90
   2   8  -5   18.10    8.00
   2   8  -5   19.00    6.50
  -2  -8   5   14.20    8.40
  -2  -8   5    9.80    7.30
  -2  -8   5   17.50   10.60
   1   8  -5   -2.10   14.90
   1   8  -5    3.60    6.70
   1   8  -5    1.00    7.50
   1   8  -5    2.60    6.60
   1   8  -5    1.60   10.60
  -1  -8   5   -1.00   14.70
  -1  -8   5    2.40    8.20
  -1  -8   5   10.20    9.40
  -1  -8   5    2.90    7.60
   0   8  -5    5.60    6.20
   0   8  -5   12.10    7.20
   0   8  -5    7.80    7.00
   0   8  -5   18.80   13.40
   0  -8   5   17.90   13.90
   0  -8   5    6.60    7.10
   0  -8   5    9.30    8.10
   0  -8   5    8.10    6.30
  -1   8  -5   14.50    7.30
  -1   8  -5   20.20    7.20
  -1   8  -5   18.10    4.50
  -1   8  -5   20.20    5.40
  -1   8  -5   27.00    9.80
   1  -8   5   10.10    6.60
   1  -8   5   23.00    9.20
   1  -8   5   31.20   13.60
  -2   8  -5   95.79   10.30
  -2   8  -5  100.49   12.70
  -2   8  -5   87.79    5.70
  -2   8  -5   63.49    8.60
  -2   8  -5   97.69    6.20
   2  -8   5  105.59   15.60
   2  -8   5   91.29    9.60
   2  -8   5   72.39   11.50
  -3   8  -5   12.80    8.20
  -3   8  -5   15.30    9.70
  -3   8  -5    8.90    3.80
  -3   8  -5    1.70    6.70
  -3   8  -5    8.20    4.40
   3  -8   5   10.70    7.60
   3  -8   5   21.20    9.70
   3  -8   5    7.40   16.10
  -4   8  -5   -5.30    9.80
  -4   8  -5    1.60    8.60
  -4   8  -5   -0.90    6.70
  -4   8  -5    1.00    5.00
  -4   8  -5    0.30    4.30
   4  -8   5   -3.50   16.10
   4  -8   5    0.00    7.20
   4  -8   5   -1.10    9.20
  -5   8  -5   12.60    8.20
  -5   8  -5    5.50   11.60
  -5   8  -5    4.50   10.00
   5  -8   5    7.40   11.30
   5  -8   5   -0.60   18.10
   5  -8   5   14.80    9.30
  -6   8  -5    8.50   12.20
  -6   8  -5   11.00   13.30
  -6   8  -5   14.60    7.40
  -6   8  -5   13.40   11.30
   6  -8   5    7.30   10.00
   6  -8   5    9.10   17.50
   6  -8   5    1.70   20.40
   5   7  -5    5.10   10.60
   5   7  -5   -6.00   16.60
  -5  -7   5    5.90   13.70
  -5  -7   5    5.80   10.70
  -5  -7   5   -0.60   10.50
   4   7  -5   26.80    9.20
   4   7  -5   40.90   14.70
   4   7  -5   46.30   23.00
  -4  -7   5   33.00   11.60
  -4  -7   5   36.30    9.60
  -4  -7   5   31.50    9.10
   3   7  -5  206.18   13.00
   3   7  -5  171.78   18.70
   3   7  -5  180.18    8.40
   3   7  -5  140.99   14.80
  -3  -7   5  151.78   18.60
  -3  -7   5  177.48   12.10
  -3  -7   5  140.59   11.50
  -3  -7   5  177.48   15.90
   2   7  -5    6.10    9.00
   2   7  -5    5.70    4.90
   2   7  -5   11.90    6.60
   2   7  -5   14.30   12.60
   2   7  -5   15.50    7.00
  -2  -7   5    8.20    5.10
  -2  -7   5   12.90    6.70
  -2  -7   5    4.60   12.10
  -2  -7   5   20.60    8.60
   1   7  -5   52.29    6.50
   1   7  -5   56.49   12.50
   1   7  -5   72.09   11.00
   1   7  -5   61.39    6.90
   1   7  -5   72.09    8.30
  -1  -7   5   91.29   17.20
  -1  -7   5   65.19   10.60
  -1  -7   5   64.79   13.90
  -1  -7   5   46.10    7.10
  -1  -7   5   51.79    6.90
   0   7  -5   33.30    6.20
   0   7  -5   37.20    6.60
   0   7  -5   47.70   11.40
   0   7  -5   38.30    5.10
   0   7  -5   30.40    8.60
   0  -7   5   37.60   11.30
   0  -7   5   48.60    9.60
   0  -7   5   39.60    6.80
   0  -7   5   35.90    7.00
   0  -7   5   11.10   11.90
  -1   7  -5  179.88   12.20
  -1   7  -5  187.08   11.40
  -1   7  -5  173.68   14.80
  -1   7  -5  189.58    8.40
  -1   7  -5  174.38    8.70
   1  -7   5  186.88   13.40
   1  -7   5  169.38   14.10
   1  -7   5  194.58   11.80
   1  -7   5  218.08   15.80
  -2   7  -5   50.29    6.80
  -2   7  -5   44.80    3.80
  -2   7  -5   56.49    9.10
  -2   7  -5   51.79    7.80
  -2   7  -5   53.69    4.10
   2  -7   5   47.50    8.70
   2  -7   5   24.60   11.60
   2  -7   5   55.39   11.80
   2  -7   5   58.49    7.50
   2  -7   5   34.20    8.50
  -3   7  -5   16.40    3.20
  -3   7  -5   15.90    3.60
  -3   7  -5   14.60   12.00
  -3   7  -5   20.60    6.30
  -3   7  -5   18.90    8.00
   3  -7   5   17.20   11.10
   3  -7   5   27.10    8.40
   3  -7   5   11.70    6.20
  -4   7  -5    2.30   11.00
  -4   7  -5    5.30    8.10
  -4   7  -5    2.10    3.70
  -4   7  -5    1.80    5.50
   4  -7   5   -0.90   13.60
   4  -7   5   13.40    6.70
   4  -7   5    5.00    8.40
  -5   7  -5    7.40    9.00
  -5   7  -5    4.60    8.90
  -5   7  -5   -2.10    6.00
   5  -7   5   10.60   10.30
   5  -7   5   -0.30    6.40
   5  -7   5   -1.40   14.40
  -6   7  -5   37.60    8.60
  -6   7  -5   40.00    7.00
  -6   7  -5   61.09   12.10
  -6   7  -5   23.90   10.00
   6  -7   5   22.30   17.50
   6  -7   5   60.09   10.00
   6  -7   5   47.40   14.00
  -7   7  -5    7.90   12.80
  -7   7  -5   13.00   11.70
  -7   7  -5   14.60    8.20
   7  -7   5   28.30   15.40
   7  -7   5   14.50   20.90
   7  -7   5   12.90   10.30
   6   6  -5   85.09   12.30
   6   6  -5   63.89   18.20
  -6  -6   5   98.19   13.80
  -6  -6   5   86.09   13.50
  -6  -6   5   72.49   15.70
   5   6  -5   28.40   13.00
   5   6  -5   50.09    9.10
  -5  -6   5   53.29   12.80
  -5  -6   5   40.30    9.80
  -5  -6   5   37.70    9.00
   4   6  -5  539.65   22.50
   4   6  -5  527.65   28.40
  -4  -6   5  547.95   27.10
  -4  -6   5  528.25   23.20
   3   6  -5  363.06   18.20
   3   6  -5  341.27   21.50
   3   6  -5  363.46   16.90
   3   6  -5  445.96   22.70
  -3  -6   5  404.66   21.30
  -3  -6   5  369.26   17.60
  -3  -6   5  373.86   27.90
  -3  -6   5  388.86   22.30
  -3  -6   5  367.46   17.10
   2   6  -5   21.70    5.70
   2   6  -5   25.00    5.70
   2   6  -5   10.20    6.30
   2   6  -5   21.00    3.90
   2   6  -5   11.90    9.60
   2   6  -5   23.30    8.30
  -2  -6   5   19.20    3.80
  -2  -6   5    9.10    6.10
  -2  -6   5   20.60    9.60
  -2  -6   5   16.40    5.00
  -2  -6   5   25.90    6.20
  -2  -6   5   20.00   13.50
   1   6  -5   28.40    4.60
   1   6  -5   29.90    4.90
   1   6  -5   29.10    6.10
   1   6  -5   24.30    9.60
   1   6  -5   37.00    7.70
   1   6  -5   28.00    4.60
  -1  -6   5   22.10    6.50
  -1  -6   5   23.60    5.10
  -1  -6   5   30.30    4.90
  -1  -6   5   36.40   11.90
   0   6  -5   89.79   11.10
   0   6  -5   76.59    9.80
   0   6  -5   80.99    7.00
   0   6  -5   89.09    6.80
   0   6  -5   78.19    5.10
   0   6  -5   67.99    8.70
   0  -6   5   76.69    6.80
   0  -6   5   54.49   10.60
   0  -6   5   85.09    8.10
   0  -6   5   75.29    7.80
   0  -6   5   70.89    7.10
   0  -6   5   81.79   10.10
  -1   6  -5   61.29    8.50
  -1   6  -5   66.19    7.70
  -1   6  -5   68.49    4.80
  -1   6  -5   70.29    6.90
  -1   6  -5   79.29    4.60
  -1   6  -5   94.19    7.20
   1  -6   5   69.39   10.20
   1  -6   5   74.89    6.90
   1  -6   5   56.19    9.40
   1  -6   5   77.29    8.80
   1  -6   5   89.79    7.70
   1  -6   5   86.79    8.10
  -2   6  -5   62.89    6.10
  -2   6  -5   89.49    9.20
  -2   6  -5   62.49    3.90
  -2   6  -5   65.29    6.90
  -2   6  -5   78.09    7.40
  -2   6  -5   68.19    9.70
  -2   6  -5   68.29    4.10
   2  -6   5   65.09   10.00
   2  -6   5   75.69    9.10
   2  -6   5   51.59    5.90
   2  -6   5   23.60    8.50
   2  -6   5   63.99    7.10
  -3   6  -5    4.60    6.40
  -3   6  -5    3.30    5.30
  -3   6  -5   -2.50    2.30
  -3   6  -5   -3.00    5.80
  -3   6  -5   -0.10    4.40
   3  -6   5   -0.90    5.70
   3  -6   5   -1.90    4.60
   3  -6   5    0.90    9.30
   3  -6   5    1.60    6.20
   3  -6   5    3.20    9.90
  -4   6  -5   21.50    7.90
  -4   6  -5   21.30    5.50
  -4   6  -5   33.10    3.90
  -4   6  -5   33.00    8.70
   4  -6   5   39.80   13.00
   4  -6   5   22.60   10.70
   4  -6   5   17.00    7.10
   4  -6   5   24.30   10.90
  -5   6  -5  126.69   10.20
  -5   6  -5  117.29    7.80
  -5   6  -5   93.19   10.20
  -5   6  -5  122.59   13.30
   5  -6   5   66.69    7.60
   5  -6   5  108.29   15.40
   5  -6   5  128.09   14.00
  -6   6  -5  443.06   24.60
  -6   6  -5  432.96   17.80
  -6   6  -5  426.66   19.90
  -6   6  -5  430.26   22.00
   6  -6   5  425.26   20.20
   6  -6   5  409.86   18.50
   6  -6   5  455.65   25.60
  -7   6  -5    0.90    7.40
  -7   6  -5    0.80   10.10
  -7   6  -5   -3.50   11.30
  -7   6  -5   -3.90    8.40
   7  -6   5   -1.90    8.80
   7  -6   5   10.40    9.30
   7  -6   5    8.00   13.30
  -8   6  -5   -4.30    9.30
  -8   6  -5   -3.20   11.70
  -8   6  -5    6.60   17.00
  -8   6  -5   -5.60   10.00
   8  -6   5    5.80   17.10
   8  -6   5   -0.60    9.80
   6   5  -5   38.60    9.20
   6   5  -5   31.80   15.20
  -6  -5   5   23.80    9.30
  -6  -5   5   40.20   10.40
  -6  -5   5   42.60   11.80
   5   5  -5   11.60    6.80
   5   5  -5   -6.70   11.00
   5   5  -5   -1.70   13.00
  -5  -5   5    3.50    8.20
  -5  -5   5    1.50    7.00
  -5  -5   5   -7.80    6.90
  -5  -5   5    0.40   21.50
   4   5  -5   94.29   12.30
   4   5  -5   79.79    8.80
   4   5  -5   83.79   13.40
   4   5  -5   93.19    8.20
   4   5  -5   92.99    9.80
  -4  -5   5   59.09   22.60
  -4  -5   5   93.49    8.80
  -4  -5   5   91.59   10.90
  -4  -5   5   66.69    8.00
   3   5  -5   51.49    7.50
   3   5  -5   53.59    6.10
   3   5  -5   56.79    9.70
   3   5  -5   54.99    9.40
   3   5  -5   47.00    6.70
  -3  -5   5   51.09    6.20
  -3  -5   5   56.39    6.80
  -3  -5   5   47.50    7.80
  -3  -5   5   55.89   12.60
   2   5  -5  394.76   16.00
   2   5  -5  411.36   16.40
   2   5  -5  420.06   14.00
   2   5  -5  425.96   16.20
   2   5  -5  426.66   18.90
   2   5  -5  374.76   19.00
   2   5  -5  422.06   20.20
  -2  -5   5  453.35   17.00
  -2  -5   5  420.26   21.90
  -2  -5   5  421.76   15.80
  -2  -5   5  404.36   18.70
  -2  -5   5  411.96   14.00
  -2  -5   5  409.06   17.20
  -2  -5   5  403.56   18.70
   1   5  -5   25.40    3.60
   1   5  -5   37.80    9.70
   1   5  -5   24.70    4.50
   1   5  -5   23.40    5.40
   1   5  -5   30.90    7.20
   1   5  -5   30.00    4.40
  -1  -5   5   34.30    5.30
  -1  -5   5   22.50    5.20
  -1  -5   5   21.10    4.20
  -1  -5   5   28.60    9.10
  -1  -5   5   28.00    3.70
  -1  -5   5   28.30    3.90
  -1  -5   5   25.10    6.80
   0   5  -5  224.28   12.30
   0   5  -5  220.98   10.30
   0   5  -5  206.28    8.00
   0   5  -5  189.78   12.30
   0   5  -5  194.88   12.70
   0   5  -5  223.38    9.90
   0   5  -5  223.08    9.90
   0  -5   5  201.28   10.00
   0  -5   5  215.48   10.00
   0  -5   5  220.58   10.70
   0  -5   5  220.98   11.90
   0  -5   5  205.18   11.90
  -1   5  -5    0.80    1.30
  -1   5  -5    8.10    3.70
  -1   5  -5   -0.80    2.90
  -1   5  -5    3.30    3.50
  -1   5  -5   -2.10    4.10
  -1   5  -5    2.50    5.10
   1  -5   5    1.80    4.30
   1  -5   5    2.50    3.50
   1  -5   5   -0.20    4.90
   1  -5   5    0.80    3.40
   1  -5   5   -2.30    5.30
   1  -5   5    2.10    3.80
  -2   5  -5    1.10    4.10
  -2   5  -5   -2.00    5.20
  -2   5  -5    1.20    3.00
  -2   5  -5    1.20    4.30
  -2   5  -5    1.40    3.60
   2  -5   5    2.80    4.20
   2  -5   5    2.10    5.20
   2  -5   5    0.60    4.70
   2  -5   5   -2.30    5.90
   2  -5   5    1.40    4.20
   2  -5   5    1.80    3.20
  -3   5  -5    3.10    4.20
  -3   5  -5    6.60    6.90
  -3   5  -5    5.70    5.00
  -3   5  -5    4.30    3.90
  -3   5  -5    4.90    2.10
  -3   5  -5    6.10    5.10
   3  -5   5    7.40    7.00
   3  -5   5    2.70    4.70
   3  -5   5    6.80    7.00
   3  -5   5    5.00    4.80
   3  -5   5    6.00    3.90
  -4   5  -5   27.80    3.70
  -4   5  -5   31.60    5.40
  -4   5  -5   25.70    6.50
  -4   5  -5   43.50   10.10
  -4   5  -5   32.70    6.90
  -4   5  -5   39.00    6.60
   4  -5   5   36.60    7.40
   4  -5   5   29.50    5.50
   4  -5   5   26.60    7.20
   4  -5   5   24.80    3.80
   4  -5   5   34.90    8.50
   4  -5   5   34.20    6.30
  -5   5  -5  250.27   16.40
  -5   5  -5  220.38   10.90
  -5   5  -5  237.18   12.70
  -5   5  -5  245.28   15.70
   5  -5   5  228.68   14.80
   5  -5   5  231.78   20.70
   5  -5   5  240.78   18.20
   5  -5   5  224.78   11.20
  -6   5  -5 1126.49   37.40
  -6   5  -5 1106.09   42.70
  -6   5  -5 1122.19   40.60
  -6   5  -5 1178.78   39.10
   6  -5   5 1112.89   37.60
   6  -5   5 1134.39   39.30
   6  -5   5 1090.59   42.70
  -7   5  -5   20.70    8.90
  -7   5  -5   44.80    8.00
  -7   5  -5   28.10    7.90
  -7   5  -5   37.10   12.00
   7  -5   5   39.40    9.60
   7  -5   5   47.50   13.60
   7  -5   5   48.40    9.30
  -8   5  -5  290.97   19.10
  -8   5  -5  363.26   24.60
  -8   5  -5  302.17   25.50
   8  -5   5  390.76   33.40
   8  -5   5  220.58   16.60
   7   4  -5   12.90   14.80
   7   4  -5    8.40    9.00
  -7  -4   5   -3.50   12.50
  -7  -4   5    2.20    9.10
  -7  -4   5    1.90   10.80
   6   4  -5    0.10   15.10
   6   4  -5    7.40   11.80
   6   4  -5    8.10    7.00
  -6  -4   5   -2.30    7.20
  -6  -4   5    6.30    8.90
  -6  -4   5   -7.60    7.70
  -6  -4   5    0.70   20.70
   5   4  -5    5.70    9.60
   5   4  -5    5.80    6.40
   5   4  -5    6.00   11.70
   5   4  -5    5.40    5.50
  -5  -4   5   10.60    7.90
  -5  -4   5   -0.60   14.40
  -5  -4   5   14.30    6.00
  -5  -4   5    5.00    7.10
   4   4  -5   41.80    6.20
   4   4  -5   45.80    9.60
   4   4  -5   40.00    5.60
   4   4  -5   51.29    7.20
   4   4  -5   47.80    9.30
  -4  -4   5   54.49    6.70
  -4  -4   5   53.39    7.30
  -4  -4   5   46.10    6.20
  -4  -4   5   39.80   11.60
  -4  -4   5   53.29    7.80
   3   4  -5  195.08    9.50
   3   4  -5  168.28   13.20
   3   4  -5  189.28   12.40
   3   4  -5  220.08   13.80
   3   4  -5  169.18   10.20
   3   4  -5  169.88    9.70
  -3  -4   5  188.48   15.50
  -3  -4   5  181.28   10.00
  -3  -4   5  188.48   10.90
  -3  -4   5  202.48   10.30
  -3  -4   5  193.98   12.10
   2   4  -5 1441.66   45.50
   2   4  -5 1532.25   48.10
   2   4  -5 1496.65   45.60
   2   4  -5 1484.85   45.50
   2   4  -5 1376.56   48.90
   2   4  -5 1468.35   48.10
  -2  -4   5 1413.66   43.80
  -2  -4   5 1475.75   46.10
  -2  -4   5 1424.86   47.80
  -2  -4   5 1434.46   46.00
  -2  -4   5 1397.06   48.10
  -2  -4   5 1420.46   45.50
  -2  -4   5 1436.36   47.20
   1   4  -5   83.89    7.00
   1   4  -5   71.79    7.00
   1   4  -5   65.99    6.20
   1   4  -5   76.59    4.90
   1   4  -5   82.89    4.90
   1   4  -5   77.29    6.90
   1   4  -5   81.39    5.80
  -1  -4   5   83.39    5.00
  -1  -4   5  103.39    8.90
  -1  -4   5   80.69    7.20
  -1  -4   5   84.79    7.30
  -1  -4   5   78.29    5.70
  -1  -4   5   82.29    5.00
  -1  -4   5   72.19    5.20
   0   4  -5  327.27   14.10
   0   4  -5  334.07   10.60
   0   4  -5  306.47   13.50
   0   4  -5  322.17   14.20
   0   4  -5  315.87   12.10
   0   4  -5  325.27   12.00
   0   4  -5  322.47   12.10
   0  -4   5  320.37   12.20
   0  -4   5  323.27   12.60
   0  -4   5  315.17   13.50
   0  -4   5  320.27   12.40
   0  -4   5  324.07   13.80
  -1   4  -5   29.90    4.40
  -1   4  -5   25.40    5.00
  -1   4  -5   36.40    3.80
   1  -4   5   24.30    3.70
   1  -4   5   25.50    4.10
   1  -4   5   36.00    5.60
   1  -4   5   23.90    4.50
   1  -4   5   31.50    3.80
   1  -4   5   24.90    3.90
  -2   4  -5   64.79    5.00
  -2   4  -5   68.79    5.80
  -2   4  -5   71.29    7.10
  -2   4  -5   89.89    7.50
  -2   4  -5   78.89    5.60
   2  -4   5   69.69    5.10
   2  -4   5   49.99    5.40
   2  -4   5   66.49    6.50
   2  -4   5   76.99    7.70
   2  -4   5   76.69    7.10
   2  -4   5   79.89    5.90
  -3   4  -5   29.40    5.10
  -3   4  -5   28.60    4.20
  -3   4  -5   41.60    5.90
  -3   4  -5   35.90    2.90
  -3   4  -5   38.90    6.60
  -3   4  -5   38.40    4.60
   3  -4   5   33.00    2.80
   3  -4   5   24.50    5.10
   3  -4   5   25.40    4.30
   3  -4   5   27.60    5.50
   3  -4   5   34.80    4.70
   3  -4   5   27.40    5.30
  -4   4  -5   45.10    7.50
  -4   4  -5   48.90    4.40
  -4   4  -5   54.89    5.60
  -4   4  -5   40.50    6.20
  -4   4  -5   51.39    6.20
  -4   4  -5   46.20    5.50
   4  -4   5   57.49    7.80
   4  -4   5   62.69    7.40
   4  -4   5   53.99    5.60
   4  -4   5   59.69    6.60
   4  -4   5   46.60    4.30
   4  -4   5   50.49    7.80
  -5   4  -5   99.19    7.90
  -5   4  -5   92.79    6.70
  -5   4  -5   62.99    8.30
  -5   4  -5   76.99    7.60
  -5   4  -5  103.59    9.40
   5  -4   5   94.89    6.80
   5  -4   5   74.09    6.80
   5  -4   5   84.29    9.90
   5  -4   5  114.69   16.70
  -6   4  -5   97.79    9.80
  -6   4  -5  111.49    8.40
  -6   4  -5  103.69    8.90
  -6   4  -5  113.29   10.70
   6  -4   5  121.69    9.00
   6  -4   5   81.29    8.50
   6  -4   5  126.59   13.60
  -7   4  -5   74.69    9.40
  -7   4  -5   86.49    9.00
  -7   4  -5   49.80    9.80
   7  -4   5   83.89   10.00
   7  -4   5   75.49   13.40
  -8   4  -5  145.59   15.60
  -8   4  -5  187.88   13.70
  -8   4  -5  179.88   13.40
   8  -4   5  203.88   18.90
   8  -4   5  166.98   12.80
   8   3  -5    4.50   10.00
   8   3  -5   -5.60   17.10
  -8  -3   5   -2.50   10.20
  -8  -3   5   -0.40   11.50
  -8  -3   5   -3.70   13.20
   7   3  -5   -1.10   12.50
   7   3  -5    6.60    7.50
  -7  -3   5   10.60   10.60
  -7  -3   5    2.60    7.20
   6   3  -5   14.10    7.30
   6   3  -5   -4.10    9.90
   6   3  -5    2.10    5.80
  -6  -3   5   -1.40    7.10
  -6  -3   5   16.40   27.20
  -6  -3   5    3.70    5.70
  -6  -3   5    5.40    7.40
   5   3  -5  104.59    7.90
   5   3  -5  101.59    7.60
   5   3  -5   89.49   11.10
   5   3  -5   83.19   11.00
  -5  -3   5   89.89    8.50
  -5  -3   5   91.19   10.10
  -5  -3   5   94.59    7.90
  -5  -3   5   92.09   13.20
   4   3  -5   19.60    4.30
   4   3  -5   27.30    7.50
   4   3  -5   24.90    7.10
   4   3  -5   32.50    7.80
   4   3  -5   26.80    5.50
   4   3  -5   15.10    4.30
  -4  -3   5   17.30    4.30
  -4  -3   5   21.90    5.50
  -4  -3   5   23.80    6.10
  -4  -3   5   31.40    5.40
  -4  -3   5   21.00    8.60
   3   3  -5  111.39    7.90
   3   3  -5  116.09   10.40
   3   3  -5  111.89    6.80
   3   3  -5  108.99    8.40
   3   3  -5  116.59    9.70
   3   3  -5  107.99    7.30
  -3  -3   5  127.09    7.70
  -3  -3   5  145.49   10.60
  -3  -3   5  113.09    7.60
  -3  -3   5  112.09    7.10
  -3  -3   5  120.79    8.90
   2   3  -5  816.32   27.10
   2   3  -5  824.42   26.00
   2   3  -5  839.12   28.20
   2   3  -5  798.42   27.90
   2   3  -5  826.72   26.00
   2   3  -5  792.52   27.40
  -2  -3   5  798.22   26.30
  -2  -3   5  798.02   27.30
  -2  -3   5  769.72   28.10
  -2  -3   5  799.42   27.40
  -2  -3   5  838.52   28.00
  -2  -3   5  826.52   26.60
   1   3  -5   28.10    2.60
   1   3  -5   30.40    2.90
   1   3  -5   26.70    4.10
   1   3  -5   36.00    4.40
   1   3  -5   31.90    4.60
   1   3  -5   30.90    3.00
  -1  -3   5   33.40    4.70
  -1  -3   5   33.20    4.30
  -1  -3   5   32.60    2.90
  -1  -3   5   33.50    3.40
  -1  -3   5   37.20    5.40
  -1  -3   5   26.90    2.50
   0   3  -5 1551.14   48.60
   0   3  -5 1566.94   47.60
   0   3  -5 1555.24   47.60
   0   3  -5 1567.84   47.90
   0   3  -5 1563.44   49.10
   0   3  -5 1554.24   46.60
   0   3  -5 1544.45   49.00
   0  -3   5 1536.85   49.00
   0  -3   5 1538.35   46.60
   0  -3   5 1526.95   49.00
   0  -3   5 1617.14   47.90
   0  -3   5 1525.85   48.50
   0  -3   5 1531.75   47.90
   0  -3   5 1546.75   47.80
  -1   3  -5   61.19    5.40
  -1   3  -5   48.20    4.80
  -1   3  -5   64.19    4.80
  -1   3  -5   55.99    4.10
  -1   3  -5   49.60    3.60
   1  -3   5   56.19    4.00
   1  -3   5   51.79    5.20
   1  -3   5   54.79    5.40
  -2   3  -5   26.50    3.10
  -2   3  -5   17.90    3.50
  -2   3  -5   30.80    4.80
  -2   3  -5   28.60    1.90
  -2   3  -5   22.20    3.10
  -2   3  -5   26.60    4.30
   2  -3   5   35.00    4.60
   2  -3   5   27.40    1.80
   2  -3   5   29.30    4.30
   2  -3   5   25.00    4.10
   2  -3   5   29.10    3.60
  -3   3  -5  398.86   15.60
  -3   3  -5  392.06   14.30
  -3   3  -5  385.66   16.60
  -3   3  -5  408.96   16.40
  -3   3  -5  384.26   13.30
  -3   3  -5  389.46   14.50
   3  -3   5  380.96   14.80
   3  -3   5  401.36   16.60
   3  -3   5  413.46   13.40
   3  -3   5  394.56   14.60
   3  -3   5  364.56   15.80
   3  -3   5  390.66   16.40
  -4   3  -5  251.57   11.50
  -4   3  -5  276.27   10.90
  -4   3  -5  273.87   13.80
  -4   3  -5  282.17   13.00
  -4   3  -5  268.47   12.00
  -4   3  -5  262.87   15.30
   4  -3   5  263.07   14.30
   4  -3   5  284.97   12.00
   4  -3   5  274.47   14.40
   4  -3   5  263.37   10.90
   4  -3   5  278.67   12.40
   4  -3   5  272.57   13.50
  -5   3  -5    2.00    5.70
  -5   3  -5    5.20    4.90
  -5   3  -5    1.60    4.10
  -5   3  -5    3.30    8.40
  -5   3  -5   -2.40    3.90
  -5   3  -5   -0.10    5.20
   5  -3   5   -1.00    3.70
   5  -3   5   -0.80    4.10
   5  -3   5    2.50    6.60
   5  -3   5    1.80    6.60
   5  -3   5    1.20    5.90
   5  -3   5   -2.80    4.90
  -6   3  -5   31.90    6.00
  -6   3  -5   31.70    8.30
  -6   3  -5   19.00    5.40
   6  -3   5   17.30    8.40
   6  -3   5   12.90    5.10
   6  -3   5   20.20   10.30
  -7   3  -5   -2.40    6.50
  -7   3  -5   -1.40    9.10
  -7   3  -5    2.70    6.90
   7  -3   5    0.90   10.70
   7  -3   5    1.30    6.20
  -8   3  -5   30.90   10.10
  -8   3  -5   41.10    9.50
  -8   3  -5   36.80    9.50
   8  -3   5   46.60   10.00
   8  -3   5   27.10   14.80
   8   2  -5   34.70    9.30
   8   2  -5   16.90   16.50
  -8  -2   5   19.50   12.40
  -8  -2   5   21.70    9.80
   7   2  -5   21.70   15.50
   7   2  -5   27.40    7.00
   7   2  -5   12.70   12.90
  -7  -2   5   39.80   17.70
  -7  -2   5   17.40    9.00
  -7  -2   5   18.80    8.40
  -7  -2   5   17.10    7.50
   6   2  -5    1.60    9.50
   6   2  -5    4.60    5.00
   6   2  -5   -5.50    9.80
  -6  -2   5    0.00    6.40
  -6  -2   5    1.10    6.70
  -6  -2   5    5.80    8.90
  -6  -2   5    7.30   12.40
   5   2  -5   10.80    4.10
   5   2  -5    6.10    7.30
   5   2  -5    6.50    4.30
   5   2  -5    1.40    6.10
   5   2  -5    6.80    8.00
   5   2  -5    3.90    5.70
  -5  -2   5    7.70    8.60
  -5  -2   5    5.20    4.30
  -5  -2   5    7.90    5.30
  -5  -2   5    2.90    5.00
  -5  -2   5    2.00    5.00
   4   2  -5  130.99    9.20
   4   2  -5  131.99    8.00
   4   2  -5  135.79   10.30
   4   2  -5  147.29   11.60
   4   2  -5  125.59    7.30
   4   2  -5  135.19    9.90
  -4  -2   5  143.19    9.70
  -4  -2   5  133.69    8.00
  -4  -2   5  151.38   10.80
  -4  -2   5  165.58    9.20
   3   2  -5   35.70    4.30
   3   2  -5   35.20    5.50
   3   2  -5   41.90    6.10
   3   2  -5   42.80    3.50
   3   2  -5   34.80    3.30
   3   2  -5   30.70    4.60
  -3  -2   5   37.50    4.50
  -3  -2   5   45.80    5.90
  -3  -2   5   40.60    4.00
  -3  -2   5   44.70    4.60
   2   2  -5  184.48    8.70
   2   2  -5  185.78    8.90
   2   2  -5  202.78    9.60
   2   2  -5  187.58    8.00
   2   2  -5  193.98    7.10
   2   2  -5  188.88    7.10
  -2  -2   5  191.78    6.20
  -2  -2   5  193.88    7.70
  -2  -2   5  188.38    8.70
  -2  -2   5  186.98    8.10
  -2  -2   5  194.88    7.70
  -2  -2   5  187.68    9.50
   1   2  -5  800.02   24.60
   1   2  -5  774.02   25.60
   1   2  -5  840.32   26.10
   1   2  -5  802.92   26.00
   1   2  -5  804.02   24.60
   1   2  -5  790.62   25.10
  -1  -2   5  809.62   25.10
  -1  -2   5  798.52   25.90
  -1  -2   5  787.02   25.70
  -1  -2   5  790.12   25.10
  -1  -2   5  825.42   26.00
  -1  -2   5  833.72   25.20
  -1  -2   5  776.82   24.90
   0   2  -5    4.80    2.00
   0   2  -5    2.50    1.20
   0   2  -5    8.50    2.30
   0   2  -5    5.10    1.30
   0  -2   5    6.00    2.00
   0  -2   5    2.20    1.50
   0  -2   5    4.10    1.20
   0  -2   5    2.70    2.40
   0  -2   5    3.00    2.00
   0  -2   5    2.90    2.10
   0  -2   5    3.50    1.50
  -1   2  -5  306.97   11.50
  -1   2  -5  302.97   11.50
  -1   2  -5  319.47   10.20
  -1   2  -5  303.17   10.20
   1  -2   5  290.77   11.40
   1  -2   5  311.37   11.50
   1  -2   5  300.17   10.50
   1  -2   5  288.47    9.50
   1  -2   5  302.37   10.60
  -2   2  -5   12.00    2.70
  -2   2  -5   10.70    3.30
  -2   2  -5   11.80    1.90
  -2   2  -5   14.20    2.40
  -2   2  -5   12.70    2.30
   2  -2   5   14.60    2.50
   2  -2   5   25.00    4.10
   2  -2   5    9.60    2.90
   2  -2   5    9.60    1.80
   2  -2   5   12.40    3.60
   2  -2   5   12.40    3.30
  -3   2  -5  149.09    7.20
  -3   2  -5  131.99    8.30
  -3   2  -5  147.69    9.20
  -3   2  -5  128.39    6.50
   3  -2   5  131.09    6.50
   3  -2   5  142.29    8.50
   3  -2   5  133.09    8.80
   3  -2   5  124.99    9.00
   3  -2   5  141.69    7.40
   3  -2   5  150.88    7.30
  -4   2  -5   40.20    4.50
  -4   2  -5   36.30    4.60
  -4   2  -5   35.30    4.10
  -4   2  -5   40.80    6.20
  -4   2  -5   39.70    7.00
   4  -2   5   33.90    4.50
   4  -2   5   27.30    4.30
   4  -2   5   34.80    5.90
   4  -2   5   35.20    4.30
   4  -2   5   40.00    6.30
   4  -2   5   46.00    6.60
  -5   2  -5   -0.50    7.90
  -5   2  -5    1.70    4.10
  -5   2  -5    2.30    4.80
  -5   2  -5    2.30    4.20
  -5   2  -5    0.50    5.00
   5  -2   5   -2.50    5.70
   5  -2   5    0.90    4.20
   5  -2   5    2.30    6.50
   5  -2   5    1.30    4.80
   5  -2   5    0.60    4.40
   5  -2   5   -0.50    5.60
  -6   2  -5   27.20    6.00
  -6   2  -5   24.60    6.00
  -6   2  -5   18.90    6.40
   6  -2   5   26.90    9.90
   6  -2   5   35.70   12.60
   6  -2   5   42.80    6.80
   6  -2   5   17.60    6.50
  -7   2  -5    7.30    6.60
  -7   2  -5    9.20    7.30
  -7   2  -5    1.50    7.20
   7  -2   5    2.30   10.50
   7  -2   5    7.50    6.20
  -8   2  -5   37.00    9.90
  -8   2  -5   13.30    8.50
  -8   2  -5   31.80    9.90
   8  -2   5   15.90   13.60
   8  -2   5   29.80    8.60
   8   1  -5   35.80   15.20
   8   1  -5   47.50    6.60
   8   1  -5   37.40    8.90
  -8  -1   5   42.00   10.10
  -8  -1   5   40.00   11.30
  -8  -1   5   55.69   12.20
   7   1  -5   -1.50    4.30
   7   1  -5   -2.30    7.10
   7   1  -5    2.00    5.80
   7   1  -5   -1.80   11.10
  -7  -1   5    0.70   14.80
  -7  -1   5    5.70    7.60
  -7  -1   5   -2.10    6.90
  -7  -1   5   -0.30    6.50
   6   1  -5   20.20    5.40
   6   1  -5   20.30    4.90
   6   1  -5    7.80    8.90
   6   1  -5   19.70    3.70
  -6  -1   5   26.00   10.60
  -6  -1   5   22.50    5.80
   5   1  -5    0.80    2.40
   5   1  -5    0.10    3.60
   5   1  -5    2.00    5.90
   5   1  -5   -4.40    6.80
   5   1  -5    1.90    5.00
   5   1  -5   -2.10    3.20
  -5  -1   5    2.50    3.80
  -5  -1   5   -2.40    6.90
  -5  -1   5    2.10    4.40
  -5  -1   5    2.20    4.50
  -5  -1   5   -1.00    2.40
  -5  -1   5   -8.60    4.30
   4   1  -5   28.10    4.50
   4   1  -5   29.20    3.30
   4   1  -5   25.60    3.30
   4   1  -5   36.80    6.60
   4   1  -5   33.30    2.60
   4   1  -5   25.30    5.00
  -4  -1   5   32.50    5.00
  -4  -1   5   19.60    4.40
  -4  -1   5   33.40    3.90
  -4  -1   5   28.30    2.60
  -4  -1   5   35.30    4.40
  -4  -1   5   31.80    5.90
   3   1  -5   -1.90    4.00
   3   1  -5    2.60    1.60
   3   1  -5    4.00    2.90
   3   1  -5   -0.50    2.70
   3   1  -5    0.00    1.50
   3   1  -5   -1.30    1.60
   3   1  -5    4.40    3.70
  -3  -1   5   -1.00    3.10
  -3  -1   5    0.00    2.10
  -3  -1   5   -0.50    1.50
  -3  -1   5    0.40    2.50
  -3  -1   5   -0.80    2.70
  -3  -1   5    0.40    2.00
   2   1  -5  100.89    5.60
   2   1  -5  102.69    5.40
   2   1  -5   98.49    6.00
   2   1  -5   97.09    5.40
  -2  -1   5   95.89    5.80
  -2  -1   5  106.39    5.40
  -2  -1   5   92.99    4.30
  -2  -1   5  106.29    4.50
  -2  -1   5  106.39    5.60
  -2  -1   5  103.79    4.40
   1   1  -5   -2.00    1.50
   1   1  -5    3.40    1.50
   1   1  -5    3.70    1.70
  -1  -1   5   -0.10    1.50
  -1  -1   5    2.70    0.90
  -1  -1   5    1.90    1.90
  -1  -1   5    2.80    1.50
  -1  -1   5    1.20    1.60
  -1  -1   5    3.70    1.00
  -1  -1   5    1.20    1.50
   0   1  -5  324.07   10.60
   0  -1   5  324.77   10.00
   0  -1   5  321.37   10.00
   0  -1   5  324.67   10.50
   0  -1   5  312.97   10.40
   0  -1   5  314.67   10.60
   0  -1   5  296.67   10.80
  -1   1  -5  355.06   11.10
  -1   1  -5  340.17   12.30
  -1   1  -5  356.06   12.30
  -1   1  -5  350.46   11.10
   1  -1   5  348.37   12.40
   1  -1   5  351.06   11.60
   1  -1   5  346.87   11.50
   1  -1   5  352.16   11.50
   1  -1   5  341.37   12.20
  -2   1  -5 5702.53  176.28
  -2   1  -5 6124.29  176.58
  -2   1  -5 5813.02  175.28
  -2   1  -5 5856.51  175.08
  -2   1  -5 5908.81  175.08
   2  -1   5 5650.53  176.18
   2  -1   5 5740.53  176.38
   2  -1   5 5955.40  175.38
   2  -1   5 5763.22  175.28
   2  -1   5 5989.90  176.48
   2  -1   5 5865.11  175.38
  -3   1  -5  393.96   13.50
  -3   1  -5  366.26   15.40
  -3   1  -5  387.16   15.20
  -3   1  -5  365.36   13.60
  -3   1  -5  380.36   13.60
   3  -1   5  363.76   13.70
   3  -1   5  364.06   13.60
   3  -1   5  365.26   15.10
   3  -1   5  383.06   13.80
   3  -1   5  366.46   15.20
   3  -1   5  367.46   14.70
  -4   1  -5  277.07   14.70
  -4   1  -5  287.97   11.50
  -4   1  -5  290.07   13.60
  -4   1  -5  267.97   11.70
  -4   1  -5  257.07   11.70
   4  -1   5  267.17   12.80
   4  -1   5  271.27   12.00
   4  -1   5  276.77   12.00
   4  -1   5  262.77   14.00
   4  -1   5  276.47   14.00
   4  -1   5  279.17   11.90
  -5   1  -5   62.09    6.40
  -5   1  -5   58.99    8.50
  -5   1  -5   52.79    5.90
  -5   1  -5   46.90    5.90
  -5   1  -5   64.19   10.50
   5  -1   5   59.39    8.70
   5  -1   5   41.60    5.40
   5  -1   5   71.69    9.10
   5  -1   5   49.30    6.80
   5  -1   5   46.30    6.30
   5  -1   5   50.69    7.90
  -6   1  -5   15.20    8.20
  -6   1  -5   18.70    6.50
  -6   1  -5   26.70    6.30
   6  -1   5   16.80    9.10
   6  -1   5   14.60    8.50
   6  -1   5   17.10    6.40
  -7   1  -5   23.30    9.30
  -7   1  -5   23.00    7.40
  -7   1  -5   13.20    7.60
   7  -1   5   24.00    7.40
   7  -1   5    6.90   10.60
  -8   1  -5   -6.10    9.20
  -8   1  -5   -1.80    9.00
  -8   1  -5   -2.70   11.90
   8  -1   5    1.10   14.40
   8  -1   5   -1.70    8.60
   9   0  -5    1.70    9.50
  -9   0   5   -4.80   11.80
  -9   0   5   -2.20   10.70
  -9   0   5    0.20   11.60
   8   0  -5    8.60   13.80
   8   0  -5    0.90    7.00
   8   0  -5    2.80    7.20
  -8   0   5   11.50    8.50
  -8   0   5    0.30   19.20
  -8   0   5    9.90    9.40
  -8   0   5   -4.90    9.60
   7   0  -5   -4.10    5.20
   7   0  -5    3.10    5.30
   7   0  -5    1.90   10.30
   7   0  -5   -2.70    6.30
  -7   0   5   -0.30   12.30
  -7   0   5    4.00    4.80
  -7   0   5    3.50    6.30
  -7   0   5    2.30    7.40
  -7   0   5    0.10    6.70
   6   0  -5 1456.85   47.40
   6   0  -5 1585.24   51.99
   6   0  -5 1506.15   47.80
   6   0  -5 1554.64   47.80
  -6   0   5 1510.55   47.40
  -6   0   5 1379.56   48.70
  -6   0   5 1550.34   51.09
  -6   0   5 1463.65   51.69
  -6   0   5 1534.95   50.19
  -6   0   5 1512.25   48.80
   5   0  -5  107.79    9.50
   5   0  -5   92.29    6.70
   5   0  -5   87.49    7.70
   5   0  -5   97.29    6.60
  -5   0   5  101.69    6.60
  -5   0   5  108.09    7.40
  -5   0   5  102.99    9.10
  -5   0   5  106.79    7.50
  -5   0   5   92.49    7.70
  -5   0   5  123.09   10.20
   4   0  -5  127.29    6.40
   4   0  -5  124.19    5.90
   4   0  -5  126.19    8.50
   4   0  -5  130.39    9.30
   4   0  -5  121.19    5.80
   4   0  -5  123.39    8.50
  -4   0   5  115.99    6.90
  -4   0   5  124.89    6.30
  -4   0   5  123.99    8.80
  -4   0   5  107.69    8.20
  -4   0   5  130.29    8.00
   3   0  -5   15.20    3.10
   3   0  -5   19.40    1.80
   3   0  -5   23.50    4.00
   3   0  -5   11.10    3.30
   3   0  -5   13.60    2.60
   3   0  -5   15.80    1.70
  -3   0   5   14.60    3.00
  -3   0   5   17.40    3.20
  -3   0   5   19.10    2.60
  -3   0   5   19.90    2.40
  -3   0   5   20.10    3.60
  -3   0   5   14.90    2.40
   2   0  -5  790.92   25.10
   2   0  -5  754.12   24.50
   2   0  -5  794.32   24.30
  -2   0   5  800.32   25.10
  -2   0   5  750.92   23.60
  -2   0   5  747.03   24.50
  -2   0   5  762.02   24.20
  -2   0   5  771.02   23.60
  -1   0   5   94.49    4.90
  -1   0   5  101.09    5.00
   0   0  -5  224.18    7.60
   0   0  -5  228.78    7.60
  -1   0  -5  746.83   22.50
  -1   0  -5  722.43   23.60
  -1   0  -5  740.73   23.70
  -1   0  -5  728.73   22.50
   1   0   5  715.43   23.60
   1   0   5  721.93   22.90
   1   0   5  749.82   23.60
   1   0   5  739.13   22.90
   1   0   5  740.13   23.60
  -2   0  -5  783.52   25.60
  -2   0  -5  799.52   26.40
  -2   0  -5  800.32   24.90
  -2   0  -5  778.02   26.30
  -2   0  -5  781.02   24.90
   2   0   5  762.62   25.10
   2   0   5  812.02   26.50
   2   0   5  759.52   26.20
   2   0   5  784.72   26.30
   2   0   5  811.22   25.20
  -3   0  -5   51.09    6.50
  -3   0  -5   52.69    4.40
  -3   0  -5   30.80    3.90
  -3   0  -5   53.49    5.90
   3   0   5   47.00    5.80
   3   0   5   31.00    3.60
   3   0   5   47.00    5.00
   3   0   5   51.29    6.00
   3   0   5   40.50    4.00
  -4   0  -5  965.10   30.80
  -4   0  -5  887.91   30.60
  -4   0  -5  908.81   31.20
  -4   0  -5  935.11   32.90
  -4   0  -5  862.71   33.10
   4   0   5  948.31   33.20
   4   0   5  939.11   30.90
   4   0   5  896.11   30.90
   4   0   5  945.81   31.80
   4   0   5  964.60   31.40
   4   0   5  955.10   33.20
  -5   0  -5   62.09    7.60
  -5   0  -5   93.49    8.10
  -5   0  -5   80.19    7.70
  -5   0  -5   96.69   12.60
  -5   0  -5   74.99    6.80
   5   0   5   91.09   10.20
   5   0   5  107.49    8.20
   5   0   5   62.59    7.00
   5   0   5   85.09   10.10
   5   0   5  100.59    8.80
   5   0   5   84.49   10.10
  -6   0  -5   30.60    8.60
   6   0   5   27.00    6.00
   6   0   5   34.40   10.10
   6   0   5   30.60   11.20
  -7   0  -5   13.60    8.00
  -7   0  -5    7.00    9.40
  -7   0  -5    9.40    7.20
   7   0   5   12.00   11.70
  -8   0  -5   38.20   15.00
  -8   0  -5   13.10   10.00
  -8   0  -5   26.10   10.50
   8   0   5   18.20   22.20
   8   0   5    7.00   10.30
   9  -1  -5    0.90   17.90
   9  -1  -5    5.70    9.10
  -9   1   5   13.40   12.50
  -9   1   5   10.90   10.60
  -9   1   5    4.50   12.40
   8  -1  -5    2.20    6.70
   8  -1  -5   -3.70   10.00
   8  -1  -5   -2.90   14.40
  -8   1   5    3.00    7.10
  -8   1   5    9.30    9.30
  -8   1   5   -0.40    9.40
  -8   1   5    2.10    7.80
  -8   1   5   -0.10   17.60
   7  -1  -5    8.30   10.10
   7  -1  -5   15.50    6.50
   7  -1  -5   13.20    5.40
   7  -1  -5   11.70    6.80
  -7   1   5   11.20    5.70
  -7   1   5    8.30    7.40
  -7   1   5   17.50    6.00
  -7   1   5   18.50    7.70
  -7   1   5   12.80   11.30
   6  -1  -5 2765.32   84.89
   6  -1  -5 2801.22   88.29
   6  -1  -5 2740.73   85.49
   6  -1  -5 2866.31   84.89
  -6   1   5 2763.92   87.29
  -6   1   5 2807.52   85.99
  -6   1   5 2690.13   88.09
  -6   1   5 2793.72   85.49
  -6   1   5 2714.73   87.89
  -6   1   5 2712.03   85.99
   5  -1  -5  115.89    6.60
   5  -1  -5  111.79    6.80
   5  -1  -5  105.09    8.00
   5  -1  -5  134.29    9.30
   5  -1  -5  120.59    9.90
   5  -1  -5  105.69    8.90
  -5   1   5  123.39    8.60
  -5   1   5  111.29    7.70
  -5   1   5  127.89    8.70
  -5   1   5  122.79    7.90
  -5   1   5  133.49    9.80
  -5   1   5  113.99    9.10
   4  -1  -5   87.09    4.90
   4  -1  -5   86.49    7.00
   4  -1  -5   82.19    6.40
   4  -1  -5   97.09    7.60
   4  -1  -5   97.49    8.00
   4  -1  -5   87.89    4.80
  -4   1   5   84.49    6.50
  -4   1   5   90.99    7.60
  -4   1   5  102.99    6.50
  -4   1   5   90.69    6.10
  -4   1   5   87.39    6.20
  -4   1   5   87.39    6.80
   3  -1  -5  159.58    8.30
   3  -1  -5  161.48    8.30
   3  -1  -5  155.78    5.50
   3  -1  -5  158.88    8.10
   3  -1  -5  164.28    7.80
   3  -1  -5  165.68    5.60
  -3   1   5  162.98    7.70
  -3   1   5  158.98    7.60
  -3   1   5  159.28    8.20
  -3   1   5  159.38    6.70
  -3   1   5  146.89    6.60
  -3   1   5  151.68    7.60
   2  -1  -5    1.80    2.40
   2  -1  -5    0.80    1.90
   2  -1  -5    5.90    2.60
  -2   1   5    4.50    1.90
  -2   1   5    1.30    2.20
  -2   1   5    2.40    1.80
  -2   1   5    0.20    2.30
  -2   1   5    1.00    1.30
  -2   1   5    0.00    1.40
   1  -1  -5 1114.59   33.90
   1  -1  -5 1077.99   35.00
   1  -1  -5 1118.19   33.70
  -1   1   5 1125.09   33.30
  -1   1   5 1082.29   34.90
  -1   1   5 1116.39   35.10
  -1   1   5 1084.19   33.70
  -1   1   5 1123.59   33.80
  -1   1   5 1098.89   33.30
   0  -1  -5  102.49    4.90
   0  -1  -5  103.99    5.70
   0   1   5  110.89    5.40
   0   1   5  106.19    5.00
   0   1   5   98.89    4.20
   0   1   5  101.39    5.80
   0   1   5  100.39    5.00
  -1  -1  -5  143.89    6.90
  -1  -1  -5  144.89    5.60
  -1  -1  -5  138.99    5.60
   1   1   5  143.89    7.10
   1   1   5  139.89    7.00
   1   1   5  141.39    7.20
   1   1   5  143.19    6.10
   1   1   5  142.09    6.90
   1   1   5  141.59    7.60
   1   1   5  146.59    6.10
  -2  -1  -5   55.99    5.20
  -2  -1  -5   65.29    6.20
  -2  -1  -5   58.99    4.00
  -2  -1  -5   64.69    4.50
   2   1   5   71.69    6.50
   2   1   5   62.99    4.50
   2   1   5   52.09    4.00
   2   1   5   70.09    5.50
   2   1   5   48.60    4.80
  -3  -1  -5   79.99    5.70
  -3  -1  -5   60.79    6.30
  -3  -1  -5   85.19    6.40
  -3  -1  -5   89.39    6.40
  -3  -1  -5   92.69    8.50
   3   1   5   69.39    7.60
   3   1   5   94.59    8.30
   3   1   5   69.19    5.50
   3   1   5   77.09    6.20
   3   1   5   88.69    6.10
  -4  -1  -5  183.88   11.90
  -4  -1  -5  185.88   15.20
  -4  -1  -5  155.48    9.60
  -4  -1  -5  174.58   10.30
  -4  -1  -5  177.98    9.30
   4   1   5  187.78   12.70
   4   1   5  170.58   12.10
   4   1   5  183.78   13.40
  -5  -1  -5   17.20    4.80
  -5  -1  -5   22.20    6.40
  -5  -1  -5   18.30    5.90
  -5  -1  -5   13.50    6.00
   5   1   5   22.20    5.30
   5   1   5   14.60    8.20
   5   1   5   18.30    7.90
   5   1   5   15.60    6.50
  -6  -1  -5  157.08   14.90
  -6  -1  -5  170.48   11.80
  -6  -1  -5  141.69   11.40
   6   1   5  123.99   13.60
   6   1   5  108.59    9.30
  -7  -1  -5  121.89   13.40
  -7  -1  -5  126.59   11.30
  -7  -1  -5  171.78   13.70
   7   1   5  123.79   11.10
   7   1   5  123.89   15.80
  -8  -1  -5   73.89   12.80
  -8  -1  -5   75.69   11.30
  -8  -1  -5   83.39   17.90
   8   1   5   58.69   12.40
   8   1   5   45.10   17.00
   8   1   5   95.19   26.50
   9  -2  -5   11.10   17.70
   9  -2  -5    0.80    9.00
  -9   2   5   14.30   13.70
  -9   2   5    7.50   10.10
  -9   2   5   15.00   10.60
  -9   2   5   13.20   12.10
   8  -2  -5    4.10    6.80
   8  -2  -5    0.50   13.00
  -8   2   5   -1.00    7.20
  -8   2   5    5.70    9.50
  -8   2   5    1.80    8.00
  -8   2   5   16.00   18.30
  -8   2   5   -1.50    7.70
   7  -2  -5   12.40    6.30
   7  -2  -5    3.70    7.50
   7  -2  -5    8.10   10.10
   7  -2  -5    6.80    5.00
  -7   2   5    4.20    6.00
  -7   2   5   12.50    7.30
  -7   2   5    3.10    6.40
  -7   2   5   14.00   12.10
  -7   2   5    6.20    7.10
   6  -2  -5   53.09    5.90
   6  -2  -5   56.19    9.90
   6  -2  -5   55.79    5.70
   6  -2  -5   46.80    7.00
  -6   2   5   52.19    6.90
  -6   2   5   68.79    8.00
  -6   2   5   61.49   10.10
  -6   2   5   48.00    7.10
  -6   2   5   64.59    8.60
  -6   2   5   52.29    6.20
   5  -2  -5   38.70    5.90
   5  -2  -5   51.29    7.10
   5  -2  -5   47.00    7.50
   5  -2  -5   33.00    6.00
   5  -2  -5   47.60    4.40
  -5   2   5   31.90    5.50
  -5   2   5   42.70    6.10
  -5   2   5   50.09    7.40
  -5   2   5   51.09    5.70
  -5   2   5   38.80    4.80
  -5   2   5   54.29    6.00
   4  -2  -5   51.59    3.70
   4  -2  -5   49.40    5.50
   4  -2  -5   47.40    5.90
   4  -2  -5   48.30    5.70
   4  -2  -5   64.49    6.50
   4  -2  -5   42.30    3.50
  -4   2   5   51.79    5.70
  -4   2   5   60.59    6.10
  -4   2   5   50.39    4.60
  -4   2   5   43.70    4.30
  -4   2   5   56.19    5.50
  -4   2   5   54.49    5.90
   3  -2  -5   44.60    3.10
   3  -2  -5   45.80    3.10
   3  -2  -5   46.80    4.90
   3  -2  -5   46.40    4.70
   3  -2  -5   42.60    4.90
   3  -2  -5   46.40    4.90
  -3   2   5   50.79    4.80
  -3   2   5   39.10    4.50
  -3   2   5   55.29    5.30
  -3   2   5   48.20    4.60
  -3   2   5   52.29    3.80
  -3   2   5   54.89    4.00
   2  -2  -5   83.49    6.00
   2  -2  -5   86.59    3.40
   2  -2  -5   87.89    6.20
   2  -2  -5   84.79    5.60
   2  -2  -5   86.79    3.40
  -2   2   5   84.29    5.40
  -2   2   5   89.09    6.00
  -2   2   5   94.69    7.00
  -2   2   5   88.29    4.50
  -2   2   5   83.49    4.50
  -2   2   5   87.09    5.40
   1  -2  -5    0.90    3.20
   1  -2  -5    0.60    2.10
   1  -2  -5    3.50    2.60
   1  -2  -5    0.70    1.00
   1  -2  -5    0.60    2.50
   1  -2  -5    0.20    1.00
  -1   2   5    1.30    1.50
  -1   2   5    2.00    2.80
  -1   2   5    2.00    2.10
  -1   2   5   -0.50    1.60
   0  -2  -5   11.40    3.40
   0  -2  -5    9.90    3.10
   0  -2  -5   12.20    1.70
   0  -2  -5   12.80    2.80
   0  -2  -5   14.30    4.10
   0  -2  -5   15.40    1.90
   0   2   5   11.50    2.30
   0   2   5   12.20    3.00
   0   2   5    9.90    2.80
   0   2   5    9.70    3.40
   0   2   5    9.90    2.90
   0   2   5   13.10    2.20
  -1  -2  -5   30.10    5.40
  -1  -2  -5   21.20    2.60
  -1  -2  -5   17.30    2.40
  -1  -2  -5   21.10    3.70
   1   2   5   20.50    3.90
   1   2   5   32.60    3.40
   1   2   5   20.30    3.80
   1   2   5   30.10    4.30
   1   2   5   35.60    5.20
   1   2   5   18.40    2.80
   1   2   5   21.70    3.60
  -2  -2  -5  166.38    7.60
  -2  -2  -5  169.58    7.90
  -2  -2  -5  168.38    9.60
  -2  -2  -5  163.78   11.20
   2   2   5  174.08    8.10
   2   2   5  164.78    9.50
   2   2   5  160.48   10.50
   2   2   5  176.78    9.40
   2   2   5  164.48    8.20
   2   2   5  160.78    9.30
   2   2   5  162.98    8.90
  -3  -2  -5  302.37   12.20
  -3  -2  -5  292.07   12.70
  -3  -2  -5  309.47   13.60
  -3  -2  -5  299.97   17.20
  -3  -2  -5  290.57   14.30
   3   2   5  314.87   14.60
   3   2   5  295.07   14.00
   3   2   5  300.27   15.90
   3   2   5  258.47   14.50
   3   2   5  320.17   13.20
   3   2   5  301.87   13.30
   3   2   5  320.87   12.70
  -4  -2  -5   40.90    6.50
  -4  -2  -5   38.90    6.00
  -4  -2  -5   35.50    5.20
  -4  -2  -5   45.40   10.00
   4   2   5   43.00    7.70
   4   2   5   51.59    9.00
   4   2   5   61.29    7.20
   4   2   5   42.80    7.20
   4   2   5   64.69    9.80
   4   2   5   34.90    5.20
   4   2   5   41.40    5.80
  -5  -2  -5  193.98   15.20
  -5  -2  -5  224.28   14.10
  -5  -2  -5  218.48   12.30
   5   2   5  202.68   14.60
   5   2   5  190.38   17.00
   5   2   5  186.78   16.00
   5   2   5  218.98   12.80
   5   2   5  227.88   17.60
  -6  -2  -5 1164.68   41.00
  -6  -2  -5 1166.48   45.20
  -6  -2  -5 1173.38   42.60
   6   2   5 1216.28   46.30
   6   2   5 1185.38   46.20
   6   2   5 1230.78   41.60
  -7  -2  -5  128.49   14.10
  -7  -2  -5   74.19   11.90
  -7  -2  -5  111.99   11.40
   7   2   5  151.68   28.70
   7   2   5  133.39   12.10
   7   2   5  117.49   11.90
   7   2   5  117.39   17.20
   9  -3  -5    1.90    8.90
  -9   3   5   -9.70    9.70
  -9   3   5    5.30   10.80
  -9   3   5   -0.80   12.80
  -9   3   5    6.40   11.50
   8  -3  -5    3.70    6.80
   8  -3  -5   11.40   13.60
  -8   3   5    6.10    8.80
  -8   3   5    2.50    8.90
  -8   3   5   -0.70   10.20
  -8   3   5   -5.50    8.00
  -8   3   5   -2.80   18.70
   7  -3  -5    5.80   10.90
   7  -3  -5    2.90    7.00
  -7   3   5    7.50   12.40
  -7   3   5   -2.80    7.00
  -7   3   5    6.10    7.70
  -7   3   5    4.70    6.40
  -7   3   5    1.60    7.00
   6  -3  -5    1.30    4.80
   6  -3  -5   -1.60    8.00
   6  -3  -5   -1.40    3.90
   6  -3  -5   -0.30    6.50
  -6   3   5   -2.60    6.60
  -6   3   5   -4.90    9.10
  -6   3   5   -2.30    5.30
  -6   3   5   -4.40    4.50
  -6   3   5    3.70    6.40
  -6   3   5    3.00    5.80
   5  -3  -5   76.99    8.60
   5  -3  -5   50.69    7.60
   5  -3  -5   70.19    5.60
   5  -3  -5   82.69    9.30
   5  -3  -5   68.89    8.00
   5  -3  -5   64.29    5.20
  -5   3   5   58.39    7.30
  -5   3   5   66.29    6.90
  -5   3   5   67.29    7.40
  -5   3   5   81.49    9.10
  -5   3   5   65.69    6.40
  -5   3   5   78.69    7.80
   4  -3  -5   12.90    2.80
   4  -3  -5   14.50    4.60
   4  -3  -5   18.70    3.30
   4  -3  -5    7.10    4.90
   4  -3  -5    8.20    4.90
   4  -3  -5   18.20    5.50
  -4   3   5   11.50    5.40
  -4   3   5   12.00    3.50
  -4   3   5   13.40    4.60
  -4   3   5   16.90    4.80
  -4   3   5   12.50    4.00
  -4   3   5   11.20    4.60
   3  -3  -5  256.77   12.50
   3  -3  -5  272.97   12.90
   3  -3  -5  271.97    9.90
   3  -3  -5  273.27    9.90
   3  -3  -5  268.07   12.10
   3  -3  -5  276.87   12.40
  -3   3   5  269.67   10.90
  -3   3   5  296.47   12.80
  -3   3   5  264.77   12.20
  -3   3   5  262.27   11.90
  -3   3   5  287.57   12.20
  -3   3   5  273.97   11.60
   2  -3  -5  745.33   26.40
   2  -3  -5  781.72   25.80
   2  -3  -5  787.02   26.10
   2  -3  -5  793.22   24.10
   2  -3  -5  723.23   26.10
   2  -3  -5  780.02   24.10
  -2   3   5  756.02   26.10
  -2   3   5  775.12   26.10
  -2   3   5  786.72   26.00
  -2   3   5  751.92   26.40
  -2   3   5  734.63   24.80
  -2   3   5  759.72   24.80
   1  -3  -5  151.08    8.20
   1  -3  -5  157.58    6.30
   1  -3  -5  155.98    8.70
   1  -3  -5  161.08    8.50
   1  -3  -5  162.88    6.50
   1  -3  -5  128.09    9.70
  -1   3   5  160.88    8.40
  -1   3   5  140.49    7.10
  -1   3   5  173.18    8.50
  -1   3   5  150.58    8.40
  -1   3   5  157.28    8.80
  -1   3   5  150.88    6.90
   0  -3  -5   39.30    4.80
   0  -3  -5   57.89    5.90
   0  -3  -5   51.39    3.70
   0  -3  -5   61.59    6.80
   0  -3  -5   42.50    5.20
   0   3   5   44.30    5.00
   0   3   5   51.39    4.40
   0   3   5   41.10    4.80
   0   3   5   40.60    4.90
   0   3   5   43.70    5.40
   0   3   5   61.39    4.50
  -1  -3  -5   75.39    8.20
  -1  -3  -5   65.89    4.90
  -1  -3  -5   60.49    6.10
  -1  -3  -5   62.19    4.40
   1   3   5   78.29    5.60
   1   3   5   50.09    5.60
   1   3   5   57.59    6.50
   1   3   5   56.19    5.50
   1   3   5   48.30    5.30
   1   3   5   58.79    4.70
   1   3   5   65.39    6.80
  -2  -3  -5   17.70    5.50
  -2  -3  -5   20.90    3.50
  -2  -3  -5   17.50    4.00
  -2  -3  -5   15.70    7.30
   2   3   5   21.90    4.30
   2   3   5   19.30    4.50
   2   3   5   22.50    6.50
   2   3   5   27.40    6.00
   2   3   5   24.30    4.40
   2   3   5   21.80    5.70
   2   3   5   23.90    7.00
  -3  -3  -5   11.00    9.30
  -3  -3  -5    9.00    5.60
  -3  -3  -5   15.80    5.00
  -3  -3  -5   13.20    4.10
   3   3   5   10.50    6.10
   3   3   5    7.20    6.80
   3   3   5   10.10    4.70
   3   3   5   12.10    7.20
   3   3   5   11.10    5.40
   3   3   5   15.20    7.70
   3   3   5    6.10    4.30
  -4  -3  -5   19.30    7.50
  -4  -3  -5   23.00    6.40
  -4  -3  -5   22.10    5.30
   4   3   5   21.10    5.80
   4   3   5   10.30   10.60
   4   3   5   22.70    8.40
   4   3   5   10.60    5.70
   4   3   5    3.80   12.40
  -5  -3  -5  464.55   20.80
  -5  -3  -5  528.65   23.00
  -5  -3  -5  508.45   24.90
   5   3   5  503.55   26.00
   5   3   5  539.65   26.50
   5   3   5  464.45   21.30
   5   3   5  522.25   21.50
  -6  -3  -5   45.50   12.90
  -6  -3  -5   31.10   10.20
  -6  -3  -5   53.49    9.20
   6   3   5   39.70   13.00
   6   3   5   28.50    8.60
   6   3   5   36.60    9.60
   6   3   5   26.50   16.30
  -7  -3  -5    8.60   13.00
  -7  -3  -5   -3.30   12.30
  -7  -3  -5    5.20   11.30
   7   3   5    0.50   10.10
   7   3   5    0.80   16.90
   7   3   5   -4.10    9.40
   7   3   5    0.50   22.40
   8  -4  -5   19.00   14.60
  -8   4   5    7.10    9.70
  -8   4   5    5.70    9.10
  -8   4   5   13.00   10.50
  -8   4   5   15.80   20.40
  -8   4   5    7.30    9.50
   7  -4  -5   -2.30    7.20
   7  -4  -5    3.20    5.60
   7  -4  -5    0.80   11.20
  -7   4   5    0.80    7.70
  -7   4   5   -6.00    7.80
  -7   4   5    0.30    6.70
  -7   4   5    0.30   14.40
  -7   4   5    5.20    8.10
   6  -4  -5   42.30    6.40
   6  -4  -5   41.80    9.80
   6  -4  -5   23.70    5.10
  -6   4   5   27.00    7.60
  -6   4   5   36.30    7.80
  -6   4   5   39.30   13.40
  -6   4   5   24.70    6.00
  -6   4   5   25.70   11.00
   5  -4  -5   12.30    3.90
   5  -4  -5    0.30    7.00
   5  -4  -5    3.90    4.10
   5  -4  -5    8.00   11.80
   5  -4  -5    9.60    7.00
  -5   4   5    8.70    7.90
  -5   4   5    4.80    5.40
  -5   4   5   -3.10    5.30
  -5   4   5    3.40    4.60
  -5   4   5   20.00    6.40
  -5   4   5    4.40    5.10
   4  -4  -5   22.20    3.80
   4  -4  -5   23.80    6.90
   4  -4  -5   19.60    6.40
   4  -4  -5   23.40    4.10
   4  -4  -5   18.10    6.10
   4  -4  -5   32.40    6.50
  -4   4   5   26.70    5.80
  -4   4   5   24.50    6.00
  -4   4   5   21.00    5.00
  -4   4   5   21.50    6.70
  -4   4   5   23.40    5.10
  -4   4   5   25.60    4.50
   3  -4  -5   83.19    6.10
   3  -4  -5   80.29    7.90
   3  -4  -5   76.39    5.50
   3  -4  -5   75.39    7.80
   3  -4  -5   91.49    8.00
  -3   4   5   95.09    8.30
  -3   4   5   70.59    5.90
  -3   4   5   87.59    8.60
  -3   4   5   74.99    7.70
  -3   4   5   81.09    6.30
  -3   4   5   78.29    7.00
   2  -4  -5  625.54   22.80
   2  -4  -5  596.74   22.80
   2  -4  -5  626.74   22.20
   2  -4  -5  592.74   23.20
   2  -4  -5  611.04   20.20
  -2   4   5  606.34   22.40
  -2   4   5  611.14   21.00
  -2   4   5  631.54   22.90
  -2   4   5  594.14   21.10
  -2   4   5  600.94   22.70
  -2   4   5  621.64   22.30
   1  -4  -5    6.50    4.50
   1  -4  -5    5.30    6.40
   1  -4  -5    5.70    4.80
   1  -4  -5    9.80    2.80
   1  -4  -5    8.70    3.20
   1  -4  -5    7.80    4.20
  -1   4   5    6.70    3.90
  -1   4   5    8.70    3.30
  -1   4   5    7.70    3.50
  -1   4   5    8.20    4.40
  -1   4   5   12.60    4.90
  -1   4   5   13.80    5.10
   0  -4  -5  194.38   11.10
   0  -4  -5  190.88    9.10
   0  -4  -5  186.28   13.00
   0  -4  -5  190.38   11.00
   0  -4  -5  179.58    8.60
   0   4   5  192.48   10.90
   0   4   5  192.68    9.80
   0   4   5  202.38   11.40
   0   4   5  205.88   11.20
   0   4   5  182.78   11.00
   0   4   5  192.78    9.30
   0   4   5  201.68   10.80
  -1  -4  -5  248.98   14.60
  -1  -4  -5  274.37   17.20
  -1  -4  -5  274.67   11.50
   1   4   5  292.77   13.40
   1   4   5  269.87   13.80
   1   4   5  264.27   12.00
   1   4   5  272.07   14.60
   1   4   5  289.37   14.00
   1   4   5  273.47   14.30
   1   4   5  271.87   12.50
  -2  -4  -5   27.80    4.70
  -2  -4  -5   16.90    5.90
  -2  -4  -5   26.40    5.30
  -2  -4  -5   19.40    9.90
   2   4   5   18.10    6.50
   2   4   5   28.40    6.00
   2   4   5   23.90    7.50
   2   4   5   21.90    7.20
   2   4   5   22.70    6.90
   2   4   5   19.00    5.10
   2   4   5   14.80    4.70
  -3  -4  -5  194.68   12.10
  -3  -4  -5  190.48   10.70
  -3  -4  -5  193.58   14.00
   3   4   5  179.98   14.00
   3   4   5  143.09   12.10
   3   4   5  175.08   11.60
   3   4   5  188.98   12.20
  -4  -4  -5   52.89   10.00
   4   4   5   37.50   10.20
   4   4   5   35.60    7.20
   4   4   5   23.70    9.80
   4   4   5   45.20   11.90
   4   4   5   45.20    7.60
  -5  -4  -5   48.00    8.30
  -5  -4  -5   45.90   10.30
  -5  -4  -5   57.39   12.20
   5   4   5   49.90    9.00
   5   4   5   62.09    9.50
   5   4   5   60.79   14.20
   5   4   5   34.60   17.10
  -6  -4  -5    0.10   13.20
  -6  -4  -5    6.00   11.60
  -6  -4  -5   -3.10    8.80
   6   4   5   -6.80   21.90
   6   4   5    5.70    9.50
   6   4   5   -0.90    9.50
   6   4   5  -12.00   28.20
   8  -5  -5   45.40   17.00
   8  -5  -5   28.50    8.50
  -8   5   5   36.70   10.70
  -8   5   5   23.70   12.20
  -8   5   5   32.50   12.50
  -8   5   5   30.10   13.50
   7  -5  -5   10.00   12.30
   7  -5  -5    4.10    6.10
   7  -5  -5    4.70    8.50
  -7   5   5    5.30    9.40
  -7   5   5    7.60    9.30
  -7   5   5   -6.80    8.40
  -7   5   5    3.90    7.20
   6  -5  -5    3.20    5.10
   6  -5  -5   -8.60    6.70
   6  -5  -5   -4.20   10.20
  -6   5   5   -1.30   11.50
  -6   5   5    3.30    6.00
  -6   5   5   -1.10    7.10
  -6   5   5    1.40    7.20
  -6   5   5    0.10    6.60
   5  -5  -5   -7.10    8.90
   5  -5  -5   -3.00    7.80
   5  -5  -5    0.60    5.20
   5  -5  -5    0.20    4.20
  -5   5   5    2.40    5.00
  -5   5   5   -0.10    7.00
  -5   5   5    1.10    6.30
  -5   5   5    1.30    9.10
  -5   5   5    2.50    6.00
   4  -5  -5   44.60    5.10
   4  -5  -5   39.80    8.50
   4  -5  -5   44.30    5.70
   4  -5  -5   45.10    8.00
  -4   5   5   57.69    8.00
  -4   5   5   38.70    7.30
  -4   5   5   35.00    5.50
  -4   5   5   47.90    9.50
  -4   5   5   52.09    7.00
  -4   5   5   34.10    6.60
   3  -5  -5  107.09   10.30
   3  -5  -5   87.79    6.20
   3  -5  -5   83.19    6.50
   3  -5  -5   62.99    9.70
   3  -5  -5  102.89   10.30
  -3   5   5   85.99    8.50
  -3   5   5   92.49    8.90
  -3   5   5   94.29    9.10
  -3   5   5   95.29    8.50
  -3   5   5   97.29    7.50
  -3   5   5   80.79    9.70
   2  -5  -5    6.90    7.00
   2  -5  -5   11.20    4.20
   2  -5  -5    7.10    5.70
   2  -5  -5    7.40    7.60
   2  -5  -5    9.80    3.50
   2  -5  -5   13.60    5.30
  -2   5   5    4.80    4.00
  -2   5   5   11.10    5.20
  -2   5   5    7.60    4.80
  -2   5   5   12.50    4.70
  -2   5   5   11.70    6.00
  -2   5   5   19.30    5.50
   1  -5  -5   31.10    9.60
   1  -5  -5   38.80    4.70
   1  -5  -5   43.40    7.00
   1  -5  -5   49.50    5.30
  -1   5   5   34.50    5.90
  -1   5   5   51.29    8.10
  -1   5   5   33.50    6.30
  -1   5   5   35.10    7.40
  -1   5   5   46.30    5.40
  -1   5   5   45.40    7.10
   0  -5  -5   34.20    4.70
   0  -5  -5   25.00    6.50
   0  -5  -5   32.70    8.50
   0  -5  -5   36.90    5.30
   0  -5  -5   30.80   10.10
   0  -5  -5   29.60    6.50
   0   5   5   30.50    7.50
   0   5   5   47.50    7.10
   0   5   5   27.50    5.00
   0   5   5   36.00    6.10
   0   5   5   32.10    7.20
   0   5   5   34.70    6.80
   0   5   5   36.10    6.20
  -1  -5  -5  134.19    8.90
  -1  -5  -5  140.99   12.60
  -1  -5  -5  127.89   10.60
   1   5   5  137.29    9.90
   1   5   5  137.49    9.30
   1   5   5  120.19   11.90
   1   5   5  130.79   12.20
   1   5   5  110.79   10.30
   1   5   5  122.89    9.50
  -2  -5  -5    1.10    6.10
  -2  -5  -5    4.50    6.20
  -2  -5  -5    3.30    4.60
   2   5   5    2.00    5.70
   2   5   5    9.50   19.40
   2   5   5    1.20    7.10
   2   5   5    5.10    8.70
  -3  -5  -5   21.60    6.60
  -3  -5  -5   22.40    7.90
   3   5   5   18.30    6.40
   3   5   5   26.20   10.40
   3   5   5   30.20    7.50
   3   5   5   25.80   11.30
   3   5   5   11.10    9.50
  -4  -5  -5   14.70    9.60
  -4  -5  -5    8.60    6.60
   4   5   5    9.90    7.60
   4   5   5    7.80   11.20
  -5  -5  -5   20.10    8.60
  -5  -5  -5   27.00   13.00
   5   5   5   17.10    9.70
   5   5   5   27.20   10.10
   5   5   5   24.50   21.80
   5   5   5    5.30   14.80
   7  -6  -5   -5.10   14.10
   7  -6  -5    7.00    7.20
   7  -6  -5   -0.30   17.90
  -7   6   5    7.10   11.20
  -7   6   5    1.00    8.90
  -7   6   5   -6.50   10.70
  -7   6   5    1.40    9.70
  -7   6   5   -6.10   19.40
   6  -6  -5  198.38   18.00
   6  -6  -5  141.39   11.40
   6  -6  -5  141.89   10.10
  -6   6   5  145.49   11.70
  -6   6   5  143.79   14.10
  -6   6   5  122.89   13.20
  -6   6   5  162.28   13.20
  -6   6   5  175.88   22.20
   5  -6  -5   45.80   10.30
   5  -6  -5   51.59    6.70
   5  -6  -5   44.90    7.90
  -5   6   5   71.19    9.50
  -5   6   5   66.69   13.80
  -5   6   5   54.29   10.00
  -5   6   5   41.50    7.90
  -5   6   5   35.90    9.40
   4  -6  -5   27.60    5.40
   4  -6  -5   25.30    9.10
   4  -6  -5   28.70    6.80
  -4   6   5   39.90   11.20
  -4   6   5   29.10    7.60
  -4   6   5   29.70    8.40
  -4   6   5   37.00    7.30
  -4   6   5   33.80    7.40
   3  -6  -5   34.70    8.10
   3  -6  -5   27.10    6.10
   3  -6  -5   28.30    5.50
  -3   6   5   27.30    7.40
  -3   6   5   31.50    9.80
  -3   6   5   25.60    5.80
  -3   6   5   33.60    7.20
  -3   6   5   24.00    7.50
   2  -6  -5   77.79   10.00
   2  -6  -5   59.39   10.30
   2  -6  -5   62.89    7.10
   2  -6  -5   75.89    6.70
  -2   6   5   54.09    8.20
  -2   6   5   73.39   10.10
  -2   6   5   65.59    8.00
  -2   6   5   71.69    7.80
  -2   6   5   65.79    8.60
   1  -6  -5  400.06   15.70
   1  -6  -5  401.56   19.70
   1  -6  -5  348.97   16.40
   1  -6  -5  412.66   21.00
  -1   6   5  359.36   20.10
  -1   6   5  376.06   16.70
  -1   6   5  353.86   20.60
   0  -6  -5  115.49   13.30
   0  -6  -5  135.69   12.70
   0  -6  -5  109.29    9.10
   0  -6  -5  121.19    8.40
   0   6   5  151.98   14.20
   0   6   5   98.99   11.30
   0   6   5  123.09   11.60
   0   6   5  190.28   19.90
  -1  -6  -5   63.99   12.50
  -1  -6  -5   46.40    8.80
  -1  -6  -5   51.89    9.40
  -1  -6  -5   68.29    7.30
   1   6   5   61.39   12.90
   1   6   5   49.60    9.30
   1   6   5   74.49    8.40
  -2  -6  -5   21.80    6.60
  -2  -6  -5   33.60    9.20
   2   6   5   28.10    8.10
   2   6   5   16.10   10.80
   2   6   5   18.50    9.00
   2   6   5   21.00   13.60
   2   6   5   33.50    7.70
  -3  -6  -5    9.70    6.80
  -3  -6  -5    7.40   10.60
   3   6   5    0.00    7.40
   3   6   5    3.90   10.00
   3   6   5    3.30    8.20
   3   6   5   -1.30   14.70
  -4  -6  -5   15.90    8.40
  -4  -6  -5   19.60   11.20
   4   6   5   15.30   19.40
   4   6   5   10.10    9.60
   4   6   5   27.60   12.90
   7  -7  -5   11.20    8.60
  -7   7   5   13.00   12.20
  -7   7   5   19.90   10.30
  -7   7   5   14.10   13.20
   6  -7  -5   13.10   16.40
   6  -7  -5    4.00   14.70
  -6   7   5   17.20   10.80
  -6   7   5    2.60    8.90
  -6   7   5   -8.00   23.50
  -6   7   5    4.10    9.30
  -6   7   5    2.30   11.10
   5  -7  -5    4.40   11.00
   5  -7  -5    2.10    6.40
   5  -7  -5   -8.10   15.20
  -5   7   5    2.30    9.90
  -5   7   5    3.60    8.80
  -5   7   5   -6.80   16.20
  -5   7   5    3.00    7.20
  -5   7   5    1.70    8.40
   4  -7  -5    4.70   10.30
   4  -7  -5   -0.10    8.10
   4  -7  -5    0.10    5.80
   4  -7  -5    2.80   11.90
  -4   7   5    0.50    8.80
  -4   7   5    5.80    8.80
  -4   7   5    4.50    7.60
  -4   7   5   12.00    7.50
   3  -7  -5    0.20   11.40
   3  -7  -5   12.10    7.80
   3  -7  -5    2.80    8.70
   3  -7  -5    7.30    6.10
  -3   7   5   13.30    7.00
  -3   7   5    4.40    8.50
  -3   7   5    5.80   11.40
  -3   7   5    4.10    8.10
   2  -7  -5   14.70    7.80
   2  -7  -5   23.30    6.10
   2  -7  -5   25.50   10.00
   2  -7  -5   30.80   12.30
  -2   7   5   29.50    9.30
  -2   7   5   27.10    7.00
  -2   7   5   17.90   12.80
  -2   7   5   21.90    7.70
  -2   7   5   21.60    8.30
   1  -7  -5   -2.70   11.60
   1  -7  -5   -0.20    8.00
   1  -7  -5    3.90    5.60
  -1   7   5   15.00    8.50
  -1   7   5    4.10   10.30
  -1   7   5    3.80    6.40
  -1   7   5   -2.10   11.40
   0  -7  -5   -1.00   13.80
   0  -7  -5    2.20    9.10
   0   7   5    3.00    6.70
   0   7   5   -4.50    9.00
   0   7   5   -4.60    8.00
   0   7   5   -1.20   11.00
  -1  -7  -5   83.99   19.40
  -1  -7  -5   85.59    9.10
  -1  -7  -5   95.49   13.80
   1   7   5   83.19   16.50
   1   7   5  124.09   11.50
   1   7   5  106.49   13.30
   1   7   5   95.89   11.50
  -2  -7  -5   -2.50   11.70
  -2  -7  -5    3.30    7.20
   2   7   5    1.10   11.20
   2   7   5    3.50    8.30
   2   7   5   -3.80    8.80
   2   7   5  -18.50   16.00
  -3  -7  -5   40.60    9.70
  -3  -7  -5   46.70   13.90
   3   7   5   63.89   11.60
   3   7   5   23.90   20.70
   3   7   5   37.20   14.20
   3   7   5   37.70   11.60
   5  -8  -5   19.40   21.40
   5  -8  -5   29.50    8.60
   5  -8  -5   18.40   15.40
  -5   8   5   32.60   10.90
  -5   8   5   34.90   13.10
  -5   8   5   29.60   12.00
   4  -8  -5   39.10    8.40
   4  -8  -5   21.00   19.00
   4  -8  -5   40.30   15.00
  -4   8   5   43.90   13.20
  -4   8   5   34.10    9.10
  -4   8   5   30.00   10.20
  -4   8   5   45.40   16.90
   3  -8  -5   14.70   16.90
   3  -8  -5    1.40    7.60
   3  -8  -5    1.60   12.00
  -3   8   5    9.80    8.90
  -3   8   5    0.60    8.30
  -3   8   5    1.00   10.80
  -3   8   5   10.40   11.00
   2  -8  -5    2.10    7.40
   2  -8  -5    4.00   11.60
   2  -8  -5   -3.00   15.90
  -2   8   5   10.80    9.70
  -2   8   5    1.20    8.40
  -2   8   5    0.90    7.60
  -2   8   5    2.50    9.90
   1  -8  -5   45.30   11.40
   1  -8  -5   61.69    9.50
   1  -8  -5   41.30   17.40
  -1   8   5   55.69   12.10
  -1   8   5   65.39   10.80
  -1   8   5   57.79   17.20
   0  -8  -5   30.80    8.70
   0  -8  -5   10.30   20.70
   0  -8  -5   35.60   13.60
   0   8   5   17.60   16.70
   0   8   5   39.20   10.30
   0   8   5   32.70   11.10
   0   8   5   38.50   18.20
  -1  -8  -5    1.80    8.90
  -1  -8  -5    5.00   23.70
  -1  -8  -5    2.90   12.20
   1   8   5    9.40   11.60
   1   8   5    8.70   23.20
   1   8   5    1.90   12.70
   1   8   5    9.80    9.80
   2   9  -6   10.20    8.00
   1   9  -6   -1.20    9.00
   1   9  -6    5.90   10.30
   1   9  -6    9.00   14.30
   1   9  -6    6.40    8.90
  -1  -9   6   12.40   23.60
  -1  -9   6    2.80    9.80
  -1  -9   6    2.70   11.80
   0   9  -6   46.70    9.90
   0   9  -6   43.40    8.40
   0   9  -6   47.30   10.10
   0   9  -6   28.40   18.90
   0  -9   6   64.79   17.40
   0  -9   6   51.79   13.10
   0  -9   6   23.90   22.00
  -1   9  -6    3.80    5.70
  -1   9  -6    9.20    8.40
  -1   9  -6    2.20   11.00
  -1   9  -6    2.70    4.80
  -1   9  -6    8.00    9.30
   1  -9   6    0.80    8.00
   1  -9   6    0.50   10.70
   1  -9   6  -18.70   18.40
  -2   9  -6    3.30    8.20
  -2   9  -6   -2.10   10.90
  -2   9  -6    1.60    9.70
   2  -9   6    7.10    8.50
   2  -9   6   -3.20   11.50
  -3   9  -6   -7.10   11.50
  -3   9  -6   -6.40   10.60
  -3   9  -6   10.20    8.40
   3  -9   6   -5.70   10.10
   3  -9   6    1.60   11.80
  -4   9  -6   16.80   14.20
  -4   9  -6   37.80   13.10
  -4   9  -6   23.70    9.20
   4  -9   6   25.70   22.30
   4  -9   6   22.20    9.90
   4  -9   6   34.80   18.50
  -5   9  -6    2.30   10.20
  -5   9  -6   -3.80   14.80
  -5   9  -6   -3.50   12.50
   5  -9   6   16.30   24.60
   5  -9   6   -6.80   14.30
   5  -9   6    8.80   10.90
   3   8  -6    1.80    9.00
   3   8  -6   -6.80   12.80
  -3  -8   6    8.40   12.40
  -3  -8   6   -3.40   10.00
   2   8  -6    3.60    9.20
   2   8  -6    3.80    7.70
   2   8  -6   -0.50    5.90
   2   8  -6   14.10   17.20
   2   8  -6   -2.50   11.80
  -2  -8   6    9.30   10.60
  -2  -8   6    3.30    8.00
  -2  -8   6   -2.40   16.50
  -2  -8   6    7.80    6.80
   1   8  -6   21.80   11.60
   1   8  -6   22.30    7.30
   1   8  -6   21.80    7.20
   1   8  -6   18.40   15.60
   1   8  -6   17.80    7.70
  -1  -8   6   16.90   17.10
  -1  -8   6   13.50    8.80
  -1  -8   6   21.20    8.30
  -1  -8   6   23.10    8.40
   0   8  -6    9.40   15.50
   0   8  -6   13.80    6.90
   0   8  -6   12.60    7.30
   0   8  -6   16.60    5.50
   0  -8   6   17.00   14.40
   0  -8   6   17.60    8.90
   0  -8   6   26.60    9.20
   0  -8   6   14.20    7.30
  -1   8  -6    4.70   10.00
  -1   8  -6    2.70    3.40
  -1   8  -6    4.10    6.30
  -1   8  -6    6.70    7.30
  -1   8  -6    0.70    3.80
   1  -8   6    1.50    6.80
   1  -8   6    0.40   13.20
   1  -8   6   -1.20    7.90
  -2   8  -6    1.60    9.10
  -2   8  -6    5.50    6.20
  -2   8  -6    5.30    7.70
   2  -8   6    7.10   13.30
   2  -8   6    6.70    9.10
   2  -8   6    4.90    5.90
  -3   8  -6   19.50    9.40
  -3   8  -6   21.20   10.30
  -3   8  -6   21.60    7.00
   3  -8   6   22.60    9.80
   3  -8   6   23.40    7.80
   3  -8   6   29.20   15.20
  -4   8  -6    1.50    7.70
  -4   8  -6   10.10   10.10
  -4   8  -6    7.30   10.30
   4  -8   6    4.70    7.40
   4  -8   6   14.00   16.70
   4  -8   6   15.60   11.00
  -5   8  -6    7.60    7.90
  -5   8  -6    9.70    4.70
  -5   8  -6    7.40   11.40
  -5   8  -6   19.50   11.00
   5  -8   6    8.60   12.20
   5  -8   6   10.60   20.40
   5  -8   6    9.80    9.50
  -6   8  -6   -2.90    6.50
  -6   8  -6    8.40   15.60
  -6   8  -6    2.10   14.20
  -6   8  -6   -2.20   12.00
   6  -8   6   -3.50   14.70
   6  -8   6    4.60   10.20
   6  -8   6  -25.90   24.50
   5   7  -6    1.70   10.50
   5   7  -6   10.30   17.00
  -5  -7   6   11.90   14.40
  -5  -7   6   10.30   11.20
  -5  -7   6    2.40   10.20
   4   7  -6   26.80   14.40
   4   7  -6   23.80    8.80
  -4  -7   6   23.00    9.10
  -4  -7   6   24.10   11.70
  -4  -7   6   26.90    9.10
   3   7  -6  148.99   12.20
   3   7  -6  161.18   11.60
   3   7  -6  184.28   20.30
  -3  -7   6  168.58   11.60
  -3  -7   6  132.49   13.20
  -3  -7   6  148.99   19.20
  -3  -7   6  151.08   11.80
   2   7  -6   -6.00   12.10
   2   7  -6   11.20    4.60
   2   7  -6    0.80    6.60
   2   7  -6   13.10    6.20
   2   7  -6    9.80    9.00
  -2  -7   6   11.40   18.70
  -2  -7   6   14.00    6.70
  -2  -7   6   29.00   14.10
  -2  -7   6   11.10    7.80
   1   7  -6  197.68   11.60
   1   7  -6  205.78   12.90
   1   7  -6  228.58   17.30
   1   7  -6  224.78   11.90
   1   7  -6  226.68   18.10
  -1  -7   6  204.38   16.60
  -1  -7   6  215.48   12.30
  -1  -7   6  207.48   13.50
  -1  -7   6  212.48   19.90
  -1  -7   6  223.38   16.30
   0   7  -6  188.08   14.90
   0   7  -6  158.08    8.90
   0   7  -6  179.18   11.60
   0   7  -6  176.58   11.50
   0  -7   6  194.08   15.50
   0  -7   6  169.08   14.40
   0  -7   6  194.48   12.00
   0  -7   6  165.98   12.70
  -1   7  -6    2.10    2.60
  -1   7  -6    7.60    5.20
  -1   7  -6    6.10    2.50
  -1   7  -6    2.00    5.80
  -1   7  -6    3.30    6.80
   1  -7   6   13.60   11.20
   1  -7   6    3.40    7.30
   1  -7   6    5.80    5.10
   1  -7   6    6.40    7.40
   1  -7   6   -1.60   11.50
  -2   7  -6  131.29   10.60
  -2   7  -6  116.59   11.60
  -2   7  -6   94.89    8.10
   2  -7   6  120.69   12.30
   2  -7   6   90.69    8.20
   2  -7   6  103.49   11.60
   2  -7   6  143.99   13.90
  -3   7  -6   14.40    6.80
  -3   7  -6   13.20    7.90
  -3   7  -6    3.80    7.70
   3  -7   6   22.60   11.90
   3  -7   6   19.40    6.60
   3  -7   6   12.50   11.60
   3  -7   6   20.10    8.30
  -4   7  -6   82.29    9.00
  -4   7  -6   69.49    5.20
  -4   7  -6  103.69   11.10
   4  -7   6   52.19    7.60
   4  -7   6   80.19   14.30
   4  -7   6   83.09   11.80
  -5   7  -6   16.80    4.70
  -5   7  -6   14.30    8.90
  -5   7  -6   19.80   10.00
  -5   7  -6   25.80    7.50
   5  -7   6   10.10    6.70
   5  -7   6   13.70   14.60
   5  -7   6   28.30   11.20
  -6   7  -6    4.00    7.30
  -6   7  -6    4.50   10.90
  -6   7  -6    9.40    6.10
  -6   7  -6    3.10    9.50
   6  -7   6    2.10   19.20
   6  -7   6    7.60    8.60
   6  -7   6    6.90   12.40
  -7   7  -6   -0.70    7.90
  -7   7  -6   11.50   14.00
  -7   7  -6    7.70   12.90
   7  -7   6    2.80   14.70
   7  -7   6   -3.00    9.60
   6   6  -6   80.19   18.80
   6   6  -6   90.29   12.10
  -6  -6   6   80.99   13.20
  -6  -6   6   69.69   13.00
  -6  -6   6   97.09   16.60
   5   6  -6   38.80    9.00
   5   6  -6   40.30   13.90
  -5  -6   6   48.10   12.80
  -5  -6   6   45.20    9.40
  -5  -6   6   49.50   10.10
   4   6  -6   21.20   13.60
   4   6  -6   41.80   11.80
   4   6  -6   61.49    8.20
  -4  -6   6   41.90   10.30
  -4  -6   6   46.00   18.90
  -4  -6   6   33.90    7.80
  -4  -6   6   31.60    8.00
   3   6  -6   60.99    7.40
   3   6  -6   58.59   12.70
   3   6  -6   58.89   10.70
  -3  -6   6   72.59    8.00
  -3  -6   6   71.29   14.20
  -3  -6   6   76.89   11.20
  -3  -6   6   76.89    7.80
   2   6  -6  139.59   10.30
   2   6  -6  163.68   14.30
   2   6  -6  155.68   10.40
   2   6  -6  131.09    9.70
   2   6  -6  154.18   13.30
   2   6  -6  143.09    7.60
  -2  -6   6  148.29   17.10
  -2  -6   6  165.58    9.80
  -2  -6   6  150.08    7.60
  -2  -6   6  167.68   13.90
  -2  -6   6  166.38   13.80
  -2  -6   6  126.79    9.50
   1   6  -6   23.60    4.30
   1   6  -6   29.60    7.70
   1   6  -6   29.70    9.20
   1   6  -6   26.80    4.70
   1   6  -6   28.90    5.10
  -1  -6   6   29.40    8.60
  -1  -6   6   31.30   11.70
  -1  -6   6   27.30    7.40
  -1  -6   6   33.50    5.80
  -1  -6   6   28.60    5.00
   0   6  -6   10.60    5.10
   0   6  -6    1.10    6.10
   0   6  -6    6.20    2.80
   0   6  -6    2.50    7.90
   0   6  -6    7.70    4.30
   0   6  -6   11.10    4.50
   0  -6   6    6.30    7.60
   0  -6   6   10.60    5.80
   0  -6   6    8.10    4.80
   0  -6   6    5.10    8.90
   0  -6   6   11.90    4.80
   0  -6   6    3.50    5.90
  -1   6  -6    5.70    6.70
  -1   6  -6    3.20    3.80
  -1   6  -6    1.80    5.00
  -1   6  -6   -3.50    4.60
  -1   6  -6    0.90    5.40
   1  -6   6   -3.70    8.20
   1  -6   6    0.20    7.90
   1  -6   6    2.70    4.20
   1  -6   6    3.70    5.50
   1  -6   6   -0.70    4.90
   1  -6   6   -0.10    5.30
  -2   6  -6   94.79    7.90
  -2   6  -6  102.59    7.70
  -2   6  -6   88.19    9.30
  -2   6  -6   89.89    8.10
   2  -6   6   98.19    9.60
   2  -6   6   99.59    7.60
   2  -6   6  105.09   11.90
   2  -6   6  106.09    9.10
   2  -6   6   75.19   10.20
   2  -6   6   96.69    8.70
  -3   6  -6  132.69    9.00
  -3   6  -6  130.89   10.30
  -3   6  -6  107.79   11.00
  -3   6  -6  118.89    8.90
   3  -6   6  139.59    9.50
   3  -6   6  120.49   12.30
   3  -6   6   96.89    9.80
   3  -6   6  122.09   10.80
   3  -6   6  151.98   14.00
  -4   6  -6  360.96   18.00
  -4   6  -6  348.17   16.00
  -4   6  -6  349.17   12.60
  -4   6  -6  357.56   19.80
   4  -6   6  360.56   20.50
   4  -6   6  361.46   23.10
   4  -6   6  372.36   19.90
   4  -6   6  354.96   16.40
  -5   6  -6   67.59    9.40
  -5   6  -6   70.69    5.90
  -5   6  -6   62.79   10.20
  -5   6  -6   62.29    7.60
   5  -6   6   75.69    8.30
   5  -6   6   76.89   12.00
   5  -6   6   60.19   13.30
  -6   6  -6   97.19    9.70
  -6   6  -6   85.19   10.70
  -6   6  -6  122.49    8.60
  -6   6  -6  105.09   11.70
   6  -6   6  120.79    9.20
   6  -6   6  120.99   14.40
   6  -6   6  148.19   12.00
  -7   6  -6   42.10    8.40
  -7   6  -6   43.20    9.90
  -7   6  -6   26.50   11.00
  -7   6  -6   25.40   10.20
   7  -6   6   33.30    9.70
   7  -6   6   38.20   14.80
   7  -6   6   41.20   10.60
   6   5  -6  155.98   12.30
   6   5  -6  128.19   18.00
  -6  -5   6  159.78   13.10
  -6  -5   6  140.49   15.40
  -6  -5   6  164.58   14.00
   5   5  -6   26.40    7.30
   5   5  -6   24.80   11.20
   5   5  -6   28.00   13.60
  -5  -5   6   15.30    7.90
  -5  -5   6   19.50    7.70
  -5  -5   6   16.10   18.40
  -5  -5   6   26.10    9.30
   4   5  -6   41.70    7.40
   4   5  -6   54.29   12.70
   4   5  -6   56.99    6.90
   4   5  -6   43.20   10.30
   4   5  -6   55.99    8.60
  -4  -5   6   37.00    8.60
  -4  -5   6   44.40   14.90
  -4  -5   6   44.00    7.30
  -4  -5   6   56.49    7.60
   3   5  -6   44.40    9.10
   3   5  -6   52.29    6.50
   3   5  -6   47.90    6.70
   3   5  -6   47.60    9.60
   3   5  -6   46.90    5.90
  -3  -5   6   65.99   12.90
  -3  -5   6   38.90    7.80
  -3  -5   6   57.19    6.80
  -3  -5   6   48.30    6.10
   2   5  -6   13.90    8.00
   2   5  -6   17.70    4.40
   2   5  -6   22.20    4.90
   2   5  -6   21.30    6.90
   2   5  -6   10.40    4.30
   2   5  -6   11.40    6.70
  -2  -5   6   15.10   10.70
  -2  -5   6   16.30    4.20
  -2  -5   6   17.50    2.80
  -2  -5   6    9.80    4.70
  -2  -5   6   22.00    7.60
  -2  -5   6   18.30    5.90
  -2  -5   6   19.70    5.70
   1   5  -6  279.47   15.90
   1   5  -6  280.87   12.40
   1   5  -6  286.77   11.10
   1   5  -6  310.47   15.20
   1   5  -6  246.78   14.20
   1   5  -6  297.47   11.40
   1   5  -6  286.47   12.10
  -1  -5   6  292.77   11.50
  -1  -5   6  303.27   14.70
  -1  -5   6  270.37   11.00
  -1  -5   6  308.47   17.00
  -1  -5   6  298.17   14.60
  -1  -5   6  309.87   12.80
  -1  -5   6  292.67   13.20
   0   5  -6   39.90    4.20
   0   5  -6   39.00    7.80
   0   5  -6   44.00    2.90
   0   5  -6   38.80    4.80
   0   5  -6   37.70    7.00
   0  -5   6   36.70    4.70
   0  -5   6   34.00    5.00
   0  -5   6   54.09    7.30
   0  -5   6   33.40    4.70
   0  -5   6   37.40    7.40
   0  -5   6   40.60    6.20
  -1   5  -6    1.80    4.20
  -1   5  -6    3.00    3.20
  -1   5  -6    6.50    3.80
  -1   5  -6    6.50    3.60
  -1   5  -6    1.40    5.30
   1  -5   6    3.60    5.50
   1  -5   6    2.50    4.30
   1  -5   6    2.70    5.90
   1  -5   6    1.60    4.00
   1  -5   6    5.10    3.90
   1  -5   6    6.60    3.40
  -2   5  -6   57.19    6.20
  -2   5  -6   65.79    5.60
  -2   5  -6   66.59    7.30
  -2   5  -6   56.09    7.40
  -2   5  -6   64.69    5.80
   2  -5   6   77.49    6.40
   2  -5   6   71.49    7.70
   2  -5   6   72.39    6.00
   2  -5   6   64.69    8.20
   2  -5   6   84.09    8.70
   2  -5   6   63.99    6.70
  -3   5  -6    8.10    6.90
  -3   5  -6    4.60    4.30
  -3   5  -6    2.50    5.10
  -3   5  -6    5.50    4.80
  -3   5  -6   11.60    4.10
   3  -5   6    3.40    4.10
   3  -5   6   20.40    8.30
   3  -5   6   -0.90    6.90
   3  -5   6    5.00    5.40
   3  -5   6   -0.40    4.70
   3  -5   6    8.70    6.20
  -4   5  -6  270.77   16.00
  -4   5  -6  262.67   12.90
  -4   5  -6  280.67   14.10
  -4   5  -6  289.07   10.70
  -4   5  -6  305.37   15.10
   4  -5   6  278.97   13.80
   4  -5   6  291.37   16.70
   4  -5   6  292.67   17.70
   4  -5   6  282.07   10.70
  -5   5  -6   75.29    7.30
  -5   5  -6   76.89    8.80
  -5   5  -6  106.99   11.90
   5  -5   6  111.39    9.10
   5  -5   6  102.69   12.70
   5  -5   6   93.39    6.60
   5  -5   6   77.99   10.50
  -6   5  -6  166.88   13.00
  -6   5  -6  170.08   11.10
  -6   5  -6  174.98   12.70
  -6   5  -6  197.48   17.00
   6  -5   6  179.18   15.80
   6  -5   6  162.38   11.90
   6  -5   6  153.98   11.40
  -7   5  -6   83.09    9.20
  -7   5  -6   66.59    9.70
  -7   5  -6   58.49   10.80
  -7   5  -6   67.99   11.10
   7  -5   6   75.39   10.50
   7  -5   6   75.49   14.80
   7  -5   6   77.49   10.30
  -8   5  -6    2.00   13.10
  -8   5  -6    0.30    9.10
   8  -5   6   -5.80   15.20
   8  -5   6   -1.10    9.60
   7   4  -6    0.50    9.00
   7   4  -6   13.10   15.20
  -7  -4   6    1.80   11.70
  -7  -4   6    6.30    9.40
  -7  -4   6   -0.30   10.60
   6   4  -6   -0.90   11.90
   6   4  -6   -2.80    6.50
   6   4  -6    4.80   13.60
  -6  -4   6   -1.40    6.90
  -6  -4   6   -5.80    8.70
  -6  -4   6   -0.30   18.40
  -6  -4   6   -2.20    7.50
   5   4  -6    0.00    5.10
   5   4  -6   -4.60    6.30
   5   4  -6   -2.30   13.30
   5   4  -6    2.10    9.60
  -5  -4   6    0.50    7.40
  -5  -4   6   -8.80   13.50
  -5  -4   6    0.00    7.10
  -5  -4   6   -1.00    5.80
   4   4  -6   67.09   10.60
   4   4  -6   77.19    8.40
   4   4  -6   69.99    6.40
   4   4  -6   67.59    9.90
   4   4  -6   76.09    6.90
  -4  -4   6   69.89    7.20
  -4  -4   6   69.59    8.50
  -4  -4   6   60.79    7.70
  -4  -4   6   79.19   11.90
  -4  -4   6   68.29    7.00
   3   4  -6   48.60    8.50
   3   4  -6   32.10    5.20
   3   4  -6   33.00    4.70
   3   4  -6   26.60    6.80
   3   4  -6   32.30    4.50
  -3  -4   6   35.00    4.90
  -3  -4   6   43.20    5.20
  -3  -4   6   29.20    5.90
  -3  -4   6   43.80    9.80
  -3  -4   6   35.80    5.50
   2   4  -6  333.77   15.50
   2   4  -6  308.67   14.20
   2   4  -6  315.97   15.10
   2   4  -6  288.27   12.40
   2   4  -6  314.97   12.30
   2   4  -6  331.67   12.50
  -2  -4   6  318.77   10.50
  -2  -4   6  328.17   14.80
  -2  -4   6  322.47   13.40
  -2  -4   6  329.97   13.10
  -2  -4   6  331.97   12.50
  -2  -4   6  332.27   16.90
   1   4  -6   10.00    2.50
   1   4  -6    7.20    4.80
   1   4  -6    4.60    2.70
   1   4  -6    6.70    4.30
   1   4  -6    4.00    2.80
  -1  -4   6    4.00    2.50
  -1  -4   6    9.10    3.90
  -1  -4   6    3.70    6.30
  -1  -4   6    4.50    3.00
  -1  -4   6   11.80    3.40
  -1  -4   6    7.80    2.40
  -1  -4   6    2.20    4.50
   0   4  -6   35.80    3.70
   0   4  -6   28.30    3.60
   0   4  -6   22.40    4.60
   0   4  -6   30.30    1.90
   0   4  -6   31.80    5.00
   0   4  -6   28.00    3.30
   0  -4   6   31.30    3.70
   0  -4   6   25.80    4.40
   0  -4   6   28.30    5.30
   0  -4   6   31.80    3.90
   0  -4   6   38.00    5.70
  -1   4  -6  319.97   11.40
  -1   4  -6  299.57   13.80
  -1   4  -6  274.97   11.40
  -1   4  -6  305.27   12.30
  -1   4  -6  310.37   13.40
   1  -4   6  312.37   13.60
   1  -4   6  280.27   13.30
   1  -4   6  303.47   13.20
   1  -4   6  291.67   12.50
   1  -4   6  299.37   12.00
   1  -4   6  309.27   11.90
  -2   4  -6  293.37   11.40
  -2   4  -6  296.77   13.70
  -2   4  -6  297.57   14.20
  -2   4  -6  285.87   11.50
  -2   4  -6  284.97   12.60
   2  -4   6  291.07   11.80
   2  -4   6  294.27   16.10
   2  -4   6  272.57   12.90
   2  -4   6  263.57   13.20
   2  -4   6  301.57   12.20
   2  -4   6  289.77   13.60
  -3   4  -6    2.80    4.30
  -3   4  -6    4.90    3.10
  -3   4  -6    2.60    3.80
  -3   4  -6    9.30    6.20
  -3   4  -6    3.20    4.20
  -3   4  -6    3.00    1.90
   3  -4   6    3.40    1.90
   3  -4   6    3.10    3.30
   3  -4   6    5.90    4.90
   3  -4   6    5.30    3.90
   3  -4   6    3.80    5.40
   3  -4   6   -0.60    4.30
  -4   4  -6  236.98   11.30
  -4   4  -6  237.78   16.20
  -4   4  -6  249.68   13.10
  -4   4  -6  247.48    9.80
  -4   4  -6  252.87   14.10
  -4   4  -6  230.58   12.10
   4  -4   6  244.88   14.80
   4  -4   6  217.58   14.40
   4  -4   6  231.58   12.40
   4  -4   6  231.08   14.30
   4  -4   6  268.97   11.80
   4  -4   6  243.68   10.00
  -5   4  -6    3.70    3.90
  -5   4  -6    2.40    5.80
  -5   4  -6    2.00    4.40
  -5   4  -6    2.10    5.40
  -5   4  -6   -2.40    5.70
   5  -4   6   -2.10    4.10
   5  -4   6   -0.60    6.70
   5  -4   6    0.00    5.00
  -6   4  -6 1071.69   37.70
  -6   4  -6 1121.79   36.90
  -6   4  -6 1093.19   41.70
   6  -4   6 1088.29   37.10
   6  -4   6 1162.58   42.20
   6  -4   6 1066.89   38.10
  -7   4  -6    5.40    6.50
  -7   4  -6   -4.00    9.90
  -7   4  -6    0.70    6.80
   7  -4   6   -5.40   11.20
   7  -4   6    8.30    7.50
  -8   4  -6    1.50   10.60
  -8   4  -6    0.00    9.30
  -8   4  -6   -1.60    9.00
   8  -4   6    2.90    8.90
  -8  -3   6    9.90   12.10
   7   3  -6   -5.00   12.60
  -7  -3   6    7.20    8.30
  -7  -3   6    6.40   20.80
  -7  -3   6    1.40    9.30
  -7  -3   6    1.30    9.00
   6   3  -6   22.20    7.10
   6   3  -6   33.40    6.50
   6   3  -6   25.20   11.00
   6   3  -6   25.20   12.00
  -6  -3   6   42.90    9.60
  -6  -3   6   30.90    7.40
  -6  -3   6   28.80   15.10
  -6  -3   6   41.60    8.70
   5   3  -6    0.70    8.30
   5   3  -6    3.00    4.40
   5   3  -6    6.00    8.80
   5   3  -6    7.80    5.00
  -5  -3   6    5.10   11.10
  -5  -3   6    8.50    5.80
  -5  -3   6    1.90    4.90
   4   3  -6    5.20    5.70
   4   3  -6    5.20    3.60
   4   3  -6    1.60    4.80
   4   3  -6   -1.00    3.60
   4   3  -6    3.70    7.20
   4   3  -6    1.10    6.40
  -4  -3   6    2.90    5.00
  -4  -3   6   -0.90    4.60
  -4  -3   6    0.80    3.80
  -4  -3   6    6.70    8.20
  -4  -3   6    2.40    4.20
   3   3  -6    0.30    4.60
   3   3  -6    2.40    2.70
   3   3  -6   -2.50    3.60
   3   3  -6    0.70    2.80
   3   3  -6    0.70    5.70
   3   3  -6    1.50    5.40
  -3  -3   6    2.00    3.60
  -3  -3   6    2.90    6.00
  -3  -3   6   -0.90    2.90
  -3  -3   6    0.60    3.30
  -3  -3   6   -0.80    3.40
   2   3  -6  522.75   17.50
   2   3  -6  533.35   17.50
   2   3  -6  555.34   19.90
   2   3  -6  555.54   20.00
   2   3  -6  548.15   19.40
  -2  -3   6  514.15   18.30
  -2  -3   6  532.45   19.50
  -2  -3   6  529.05   18.20
  -2  -3   6  501.75   20.00
  -2  -3   6  536.25   16.50
  -2  -3   6  551.64   19.60
  -2  -3   6  526.35   16.50
   1   3  -6   99.69    4.70
   1   3  -6   94.99    4.90
   1   3  -6   96.19    7.20
   1   3  -6   99.29    5.00
   1   3  -6  101.89    6.80
   1   3  -6   90.59    6.50
  -1  -3   6   94.39    8.00
  -1  -3   6   98.19    6.50
  -1  -3   6   99.79    5.10
  -1  -3   6  111.69    6.80
  -1  -3   6  105.59    5.60
  -1  -3   6  104.99    4.90
   0   3  -6  768.62   24.70
   0   3  -6  800.32   24.70
   0   3  -6  753.82   26.40
   0  -3   6  793.12   25.30
   0  -3   6  795.32   25.60
   0  -3   6  767.52   26.40
   0  -3   6  800.12   24.00
   0  -3   6  818.22   26.10
   0  -3   6  790.42   27.70
   0  -3   6  791.12   25.30
  -1   3  -6   40.90    3.10
  -1   3  -6   44.60    5.00
  -1   3  -6   29.10    3.00
  -1   3  -6   33.20    4.10
   1  -3   6   39.10    4.70
   1  -3   6   25.40    3.30
   1  -3   6   44.70    4.70
   1  -3   6   27.50    4.00
   1  -3   6   32.90    3.40
   1  -3   6   31.90    4.40
  -2   3  -6  406.16   14.80
  -2   3  -6  404.66   15.90
  -2   3  -6  395.26   14.00
  -2   3  -6  406.86   16.30
   2  -3   6  396.06   15.70
   2  -3   6  388.86   12.60
   2  -3   6  418.36   16.10
   2  -3   6  417.46   14.50
   2  -3   6  392.96   15.90
   2  -3   6  409.16   14.70
  -3   3  -6  249.48   12.00
  -3   3  -6  216.88    9.50
  -3   3  -6  225.18    8.60
  -3   3  -6  226.28   10.00
  -3   3  -6  228.48   12.60
   3  -3   6  220.08   12.20
   3  -3   6  213.08   11.80
   3  -3   6  241.88   10.50
   3  -3   6  238.78   10.20
   3  -3   6  226.48   11.70
   3  -3   6  222.38    8.60
  -4   3  -6  101.99    7.40
  -4   3  -6  104.29    6.70
  -4   3  -6  113.09    9.70
  -4   3  -6   79.99    6.60
  -4   3  -6  141.79   11.30
   4  -3   6  122.19   10.20
   4  -3   6   91.69    8.10
   4  -3   6   97.49    6.90
   4  -3   6  106.39    7.40
   4  -3   6  128.19    8.20
   4  -3   6  113.39    9.90
  -5   3  -6  121.09    8.40
  -5   3  -6   82.99    8.50
  -5   3  -6  117.09    8.60
  -5   3  -6  110.49    8.00
   5  -3   6  126.69    8.60
   5  -3   6  119.89    7.90
   5  -3   6  101.99   11.60
   5  -3   6  108.09   10.90
   5  -3   6  145.19   12.20
  -6   3  -6   22.50    8.70
  -6   3  -6   38.20    6.60
   6  -3   6   17.70    5.70
   6  -3   6   33.90   11.80
   6  -3   6   29.00    7.60
   6  -3   6   39.50    9.80
  -7   3  -6   56.19   10.10
  -7   3  -6   76.49    9.10
  -7   3  -6   83.39    9.50
   7  -3   6   77.49    9.20
   7  -3   6   91.59   14.50
  -8   3  -6   49.60   12.40
  -8   3  -6   52.79   10.70
  -8   3  -6   61.89   10.90
   8  -3   6   38.10   15.90
   8   2  -6   -3.00    8.60
   8   2  -6   -0.60   17.70
  -8  -2   6    1.80   11.90
  -8  -2   6   -2.10    9.80
  -8  -2   6    1.50   10.90
   7   2  -6   -3.00   12.40
   7   2  -6    0.80    7.80
   7   2  -6    7.30    6.30
  -7  -2   6    3.80    9.10
  -7  -2   6   -4.80    8.30
  -7  -2   6    5.60    7.10
   6   2  -6   10.00    5.10
   6   2  -6    8.80    5.80
   6   2  -6   10.70   10.80
   6   2  -6   -2.80    9.40
  -6  -2   6    3.40    5.90
  -6  -2   6    9.60    6.70
  -6  -2   6    5.30   12.00
  -6  -2   6   11.20    6.80
   5   2  -6    1.50    8.20
   5   2  -6   -3.00    3.80
   5   2  -6    2.30    8.00
   5   2  -6   -3.80    6.10
   5   2  -6   -0.30    3.50
  -5  -2   6    0.20    5.20
  -5  -2   6    0.00    4.40
  -5  -2   6    1.30    8.40
  -5  -2   6   -1.40    5.00
  -5  -2   6    1.10    5.40
   4   2  -6  175.48    7.90
   4   2  -6  176.98   10.60
   4   2  -6  168.78   11.40
   4   2  -6  214.98   12.50
   4   2  -6  156.78   10.50
  -4  -2   6  170.48    9.30
  -4  -2   6  177.28   10.40
  -4  -2   6  170.28   12.50
  -4  -2   6  148.29    9.70
  -4  -2   6  161.78    8.80
   3   2  -6    1.50    3.60
   3   2  -6    2.60    1.90
   3   2  -6    1.90    4.60
   3   2  -6    2.10    1.90
   3   2  -6   -1.90    3.40
  -3  -2   6    1.00    2.70
  -3  -2   6   -1.20    3.00
  -3  -2   6    2.60    3.20
  -3  -2   6    0.40    4.80
  -3  -2   6    2.60    2.60
   2   2  -6   66.69    5.60
   2   2  -6   46.30    2.80
   2   2  -6   61.99    4.50
   2   2  -6   54.59    4.50
   2   2  -6   46.80    4.50
   2   2  -6   50.59    2.80
  -2  -2   6   55.89    3.70
  -2  -2   6   42.90    3.80
  -2  -2   6   56.99    3.90
  -2  -2   6   51.09    3.10
  -2  -2   6   56.79    5.30
  -2  -2   6   54.39    4.80
  -2  -2   6   48.70    3.10
   1   2  -6  772.02   24.70
   1   2  -6  790.52   25.40
   1   2  -6  782.82   25.10
   1   2  -6  772.22   25.30
  -1  -2   6  792.72   24.50
  -1  -2   6  766.02   25.00
  -1  -2   6  764.02   24.70
  -1  -2   6  793.92   24.70
  -1  -2   6  803.72   25.30
  -1  -2   6  796.82   24.50
  -1  -2   6  784.32   25.30
   0   2  -6  121.89    5.90
   0   2  -6  120.39    6.20
   0  -2   6  124.49    6.10
   0  -2   6  111.69    4.70
   0  -2   6  113.09    6.00
   0  -2   6  124.89    5.10
   0  -2   6  124.89    5.90
   0  -2   6  116.99    5.00
   0  -2   6  111.79    5.70
  -1   2  -6   17.10    2.90
  -1   2  -6   22.70    3.40
  -1   2  -6   21.50    2.00
  -1   2  -6   17.20    1.90
   1  -2   6   17.30    3.30
   1  -2   6   18.20    2.40
   1  -2   6   15.70    3.00
   1  -2   6   15.70    2.30
   1  -2   6   21.70    1.90
   1  -2   6   17.40    3.00
  -2   2  -6 1280.07   39.10
  -2   2  -6 1311.77   40.80
  -2   2  -6 1285.97   39.10
  -2   2  -6 1267.17   40.70
   2  -2   6 1257.97   38.70
   2  -2   6 1243.88   40.60
   2  -2   6 1246.38   39.40
   2  -2   6 1225.18   39.40
   2  -2   6 1245.98   40.50
   2  -2   6 1245.28   40.60
  -3   2  -6  104.89    6.30
  -3   2  -6  111.19    6.00
  -3   2  -6  115.59    8.10
  -3   2  -6   98.19    8.90
   3  -2   6  112.79    6.00
   3  -2   6  104.39    6.60
   3  -2   6  109.39    8.50
   3  -2   6   92.49    8.40
   3  -2   6  105.29    8.30
   3  -2   6  113.79    7.00
  -4   2  -6  407.96   15.00
  -4   2  -6  387.16   17.20
  -4   2  -6  381.36   15.10
  -4   2  -6  371.96   18.10
  -4   2  -6  365.96   14.70
   4  -2   6  415.26   17.90
   4  -2   6  387.46   14.90
   4  -2   6  389.36   15.70
   4  -2   6  392.06   17.10
   4  -2   6  410.06   15.40
   4  -2   6  397.86   17.60
  -5   2  -6  162.38   12.50
  -5   2  -6  186.48   10.10
  -5   2  -6  172.88   10.20
  -5   2  -6  173.68   10.70
  -5   2  -6  191.58   15.70
   5  -2   6  164.18   11.50
   5  -2   6  175.58   14.10
   5  -2   6  176.38   10.60
   5  -2   6  168.08   10.70
   5  -2   6  175.78   13.30
   5  -2   6  152.48   11.00
  -6   2  -6  157.78   11.90
  -6   2  -6  158.08   11.30
  -6   2  -6  169.78   14.90
   6  -2   6  164.08   11.60
   6  -2   6  173.68   15.00
   6  -2   6  148.39   11.00
   6  -2   6  193.28   16.30
  -7   2  -6  221.28   18.40
  -7   2  -6  216.48   14.90
  -7   2  -6  228.68   15.60
   7  -2   6  218.48   14.60
   7  -2   6  176.88   16.90
  -8   2  -6   46.20   10.20
  -8   2  -6   28.10   11.00
  -8   2  -6   45.90   10.30
   8  -2   6   52.49   13.30
   8  -2   6   27.90   15.00
   8   1  -6   49.10    8.70
   8   1  -6   54.09    5.80
   8   1  -6   44.00   16.30
  -8  -1   6   38.40   11.30
  -8  -1   6   60.49   23.00
  -8  -1   6   29.60    9.60
  -8  -1   6   35.20   11.00
   7   1  -6    0.30   12.00
   7   1  -6    3.30    4.00
   7   1  -6    2.00    5.70
   7   1  -6    4.90   11.50
  -7  -1   6    5.50    7.50
  -7  -1   6   -1.20    6.40
  -7  -1   6    4.30    7.60
  -7  -1   6   -2.10   14.30
   6   1  -6  128.59    7.00
   6   1  -6  122.49   12.80
   6   1  -6  141.79    9.60
   6   1  -6  126.19    8.70
   6   1  -6  124.89   12.00
  -6  -1   6  148.49   13.30
  -6  -1   6  133.99   13.40
  -6  -1   6  133.99    9.40
  -6  -1   6  146.29   11.20
   5   1  -6   12.50    3.60
   5   1  -6   11.40    3.30
   5   1  -6    7.80    6.10
   5   1  -6    7.20    2.50
   5   1  -6    6.40    6.90
   5   1  -6   10.70    5.70
  -5  -1   6    6.30    4.00
  -5  -1   6    6.80    5.20
  -5  -1   6    5.30    4.70
  -5  -1   6   16.50    5.10
  -5  -1   6    6.10    7.00
  -5  -1   6    6.50    2.60
   4   1  -6   65.79    4.30
   4   1  -6   80.79    7.30
   4   1  -6   65.69    4.50
   4   1  -6   65.99    6.70
   4   1  -6   80.99    8.00
   4   1  -6   68.49    6.10
   4   1  -6   65.79    4.50
  -4  -1   6   73.69    4.30
  -4  -1   6   76.89    5.70
  -4  -1   6   74.29    7.10
  -4  -1   6   70.89    6.30
  -4  -1   6   68.99    5.10
  -4  -1   6   56.09    6.10
   3   1  -6   14.10    1.50
   3   1  -6   11.60    1.40
   3   1  -6    7.60    3.60
   3   1  -6   12.70    3.40
   3   1  -6   15.50    4.50
   3   1  -6   14.00    3.40
  -3  -1   6    7.30    3.60
  -3  -1   6   12.50    2.50
  -3  -1   6   10.10    3.30
  -3  -1   6   10.00    2.50
  -3  -1   6   10.80    2.20
  -3  -1   6   14.50    3.20
   2   1  -6    9.50    2.60
   2   1  -6    5.50    2.60
  -2  -1   6    9.30    2.10
  -2  -1   6   10.00    2.30
  -2  -1   6    6.40    2.50
  -2  -1   6   11.80    2.60
  -2  -1   6   10.30    1.70
  -2  -1   6    8.90    1.70
   1   1  -6   32.40    2.30
   1   1  -6   32.20    2.70
   1   1  -6   30.40    2.90
   1   1  -6   28.60    2.20
  -1  -1   6   28.00    1.70
  -1  -1   6   34.20    3.00
  -1  -1   6   34.50    3.00
  -1  -1   6   28.50    1.80
   0   1  -6   23.00    2.20
   0  -1   6   19.20    2.40
   0  -1   6   22.60    2.10
   0  -1   6   20.10    1.50
   0  -1   6   24.70    2.30
   0  -1   6   21.70    1.50
   0  -1   6   20.00    2.10
  -1   1  -6   41.10    2.20
  -1   1  -6   48.40    4.30
  -1   1  -6   41.80    2.10
  -1   1  -6   43.80    3.90
   1  -1   6   47.80    3.20
   1  -1   6   53.99    4.00
   1  -1   6   41.40    2.80
   1  -1   6   40.70    3.20
   1  -1   6   45.70    4.00
  -2   1  -6   33.70    2.90
  -2   1  -6   31.00    4.00
  -2   1  -6   29.70    2.80
  -2   1  -6   33.20    4.20
   2  -1   6   26.20    3.10
   2  -1   6   35.70    3.30
   2  -1   6   34.40    4.50
   2  -1   6   38.70    6.20
   2  -1   6   32.30    3.90
   2  -1   6   29.50    3.10
  -3   1  -6  261.37   10.70
  -3   1  -6  259.47   10.30
  -3   1  -6  233.38   12.40
  -3   1  -6  271.77   12.20
  -3   1  -6  269.47   10.30
   3  -1   6  263.87   12.10
   3  -1   6  260.67   10.80
   3  -1   6  282.07   12.70
   3  -1   6  261.37   10.70
   3  -1   6  253.57   10.70
   3  -1   6  253.57   11.90
  -4   1  -6  379.86   15.00
  -4   1  -6  400.56   14.80
  -4   1  -6  387.36   15.00
  -4   1  -6  364.96   18.00
  -4   1  -6  372.46   17.00
   4  -1   6  369.06   15.30
   4  -1   6  388.96   17.50
   4  -1   6  379.76   15.20
   4  -1   6  394.66   15.20
   4  -1   6  390.16   16.60
   4  -1   6  378.96   17.60
  -5   1  -6    9.90    5.40
  -5   1  -6    7.90    4.50
  -5   1  -6    1.00    4.40
  -5   1  -6   10.50    6.80
   5  -1   6    4.00    6.30
   5  -1   6    4.30    6.50
   5  -1   6    7.30    6.80
   5  -1   6   12.80    6.30
   5  -1   6    1.30    4.00
   5  -1   6    3.40    5.60
  -6   1  -6   14.00    5.80
  -6   1  -6   14.60    6.20
  -6   1  -6    9.10    6.40
   6  -1   6   14.50    9.30
   6  -1   6    2.40    9.70
   6  -1   6   12.70    5.70
  -7   1  -6    6.90    7.20
  -7   1  -6    9.80    7.80
  -7   1  -6    0.40    9.50
   7  -1   6    5.10    7.10
   7  -1   6   -4.40   11.60
  -8   1  -6  122.99   17.70
  -8   1  -6   98.09   12.60
  -8   1  -6   84.69   12.00
   8  -1   6   45.10   23.80
   8  -1   6   63.39   10.90
   8   0  -6   35.50   15.10
   8   0  -6   40.20    8.10
   8   0  -6   44.50    8.10
   8   0  -6   48.60    9.90
  -8   0   6   30.80   19.40
  -8   0   6   38.70    9.40
  -8   0   6   52.19   12.00
  -8   0   6   55.09   11.60
   7   0  -6   86.69    7.50
   7   0  -6   79.39    8.00
   7   0  -6   52.79   12.10
   7   0  -6   81.49    7.40
  -7   0   6   70.19    9.80
  -7   0   6   71.29    6.90
  -7   0   6   64.99    9.70
  -7   0   6   84.19    8.90
  -7   0   6   98.39   14.70
   6   0  -6 1406.06   44.60
   6   0  -6 1479.45   44.60
   6   0  -6 1384.66   44.70
  -6   0   6 1369.66   45.80
  -6   0   6 1380.66   48.70
  -6   0   6 1472.15   48.30
  -6   0   6 1376.66   46.10
  -6   0   6 1399.26   44.60
   5   0  -6   27.50    3.60
   5   0  -6   25.80    6.30
   5   0  -6   32.50    3.70
   5   0  -6   35.30    7.60
   5   0  -6   34.90    4.40
   5   0  -6   32.30    6.50
  -5   0   6   34.90    5.30
  -5   0   6   44.20    7.50
  -5   0   6   33.00    4.10
  -5   0   6   40.60    6.20
  -5   0   6   25.50    5.70
  -5   0   6   21.30    4.00
   4   0  -6  906.81   29.60
   4   0  -6  923.71   31.10
   4   0  -6  916.21   31.00
   4   0  -6  930.41   28.50
   4   0  -6  922.11   31.20
   4   0  -6  911.71   28.40
  -4   0   6  970.90   31.00
  -4   0   6  917.51   29.60
  -4   0   6  957.30   31.30
  -4   0   6  881.21   29.70
  -4   0   6  904.41   29.70
  -4   0   6  934.61   31.00
   3   0  -6   71.59    5.20
   3   0  -6   70.39    5.70
   3   0  -6   61.79    4.70
   3   0  -6   53.69    4.50
  -3   0   6   57.69    4.80
  -3   0   6   53.19    3.80
  -3   0   6   70.19    5.40
  -3   0   6   55.79    5.10
  -3   0   6   62.49    4.80
  -3   0   6   58.19    4.00
   2   0  -6   93.39    5.40
   2   0  -6   94.99    4.40
   2   0  -6   87.69    6.00
   2   0  -6   87.09    4.80
  -2   0   6   85.39    3.60
  -2   0   6   95.79    5.20
  -2   0   6  103.79    5.90
  -2   0   6   88.89    3.60
  -1   0   6   34.00    3.20
  -1   0   6   31.80    3.10
   0   0  -6  223.28    7.70
   0   0  -6  228.38    7.80
   0   0   6  223.78    7.50
   0   0   6  224.18    9.20
   0   0   6  226.88    7.10
   0   0   6  219.18    7.10
  -1   0  -6  199.18    6.50
  -1   0  -6  205.88    6.60
  -1   0  -6  201.78    8.50
  -1   0  -6  202.98    8.30
   1   0   6  202.08    7.50
   1   0   6  205.68    7.40
   1   0   6  205.48    8.80
   1   0   6  196.68    8.20
   1   0   6  208.48    8.50
  -2   0  -6  346.87   13.20
  -2   0  -6  339.47   11.60
  -2   0  -6  343.47   13.50
  -2   0  -6  322.17   11.40
   2   0   6  327.47   11.90
   2   0   6  305.87   12.60
   2   0   6  340.77   13.20
   2   0   6  324.87   13.50
  -3   0  -6   52.19    5.00
  -3   0  -6   56.79    7.00
  -3   0  -6   53.59    4.40
  -3   0  -6   55.39    6.30
   3   0   6   41.60    4.20
   3   0   6   42.50    4.70
   3   0   6   43.80    5.60
   3   0   6   60.39    5.60
   3   0   6   58.89    6.70
  -4   0  -6    1.20    4.90
  -4   0  -6   -0.30    3.30
  -4   0  -6   -1.70    3.70
  -4   0  -6   -1.80    3.90
  -4   0  -6   -2.50    6.30
   4   0   6    3.10    6.00
   4   0   6    2.30    5.70
   4   0   6    1.30    4.20
   4   0   6    3.10    5.30
   4   0   6   -1.60    3.20
   4   0   6    0.70    4.60
  -5   0  -6   98.69    8.70
  -5   0  -6  127.39    8.60
  -5   0  -6  110.89    8.40
  -5   0  -6  116.89   11.10
   5   0   6   96.39    9.30
   5   0   6  111.89    9.40
   5   0   6  133.49   12.80
   5   0   6  143.19   12.50
   5   0   6   88.39    7.60
  -6   0  -6  107.69   12.80
  -6   0  -6  109.49    9.40
  -6   0  -6   85.69    9.40
   6   0   6   73.09    8.30
   6   0   6   73.09   12.00
   6   0   6   78.89   13.50
  -7   0  -6   21.50   10.90
  -7   0  -6   36.40    9.00
  -7   0  -6   35.70    8.50
   7   0   6   19.00   12.70
  -8   0  -6   12.30   12.30
  -8   0  -6   11.10   14.50
  -8   0  -6   14.90    9.80
   8   0   6   -5.00   15.40
   8   0   6   14.10   10.20
   9  -1  -6    8.20    9.30
  -9   1   6   14.50   13.10
  -9   1   6   12.60    9.40
  -9   1   6   12.70   10.90
   8  -1  -6   56.89    7.90
   8  -1  -6   52.49   16.10
   8  -1  -6   53.29    9.30
  -8   1   6   45.80   11.40
  -8   1   6   52.99   11.10
  -8   1   6   56.99    9.40
  -8   1   6   67.59   20.00
  -8   1   6   39.90    8.10
   7  -1  -6    3.70    5.10
   7  -1  -6    3.60    5.80
   7  -1  -6    0.70    6.30
   7  -1  -6   -4.40   10.70
  -7   1   6    3.80    7.70
  -7   1   6   -0.90    5.70
  -7   1   6    0.20    5.70
  -7   1   6    3.80    7.10
  -7   1   6   -1.10   11.10
   6  -1  -6   78.89    7.30
   6  -1  -6   88.69    6.40
   6  -1  -6   86.69    6.10
   6  -1  -6   83.09   10.20
  -6   1   6   75.69    7.10
  -6   1   6   88.99    7.40
  -6   1   6   78.49    8.20
  -6   1   6   91.09   10.60
  -6   1   6   63.49    7.90
  -6   1   6   85.99   11.40
   5  -1  -6   31.50    4.90
   5  -1  -6   28.50    6.80
   5  -1  -6   24.10    3.40
   5  -1  -6   32.80    6.70
   5  -1  -6   30.00    3.50
  -5   1   6   33.40    5.50
  -5   1   6   28.50    4.50
  -5   1   6   26.50    4.30
  -5   1   6   30.50    6.60
  -5   1   6   31.20    5.20
  -5   1   6   36.10    6.30
   4  -1  -6    2.10    3.80
   4  -1  -6   -1.10    3.30
   4  -1  -6   -0.20    1.60
   4  -1  -6    3.00    4.40
   4  -1  -6   -3.80    4.00
   4  -1  -6   -2.20    1.60
  -4   1   6    3.40    2.60
  -4   1   6   -2.20    3.10
  -4   1   6    0.30    3.80
  -4   1   6   -1.20    3.40
  -4   1   6    1.50    2.80
   3  -1  -6  109.99    6.40
   3  -1  -6   94.39    6.40
   3  -1  -6  102.89    7.60
   3  -1  -6  108.99    6.60
  -3   1   6  100.19    6.00
  -3   1   6   99.39    5.10
  -3   1   6  102.79    6.40
  -3   1   6   99.09    7.10
  -3   1   6  109.49    6.00
  -3   1   6   95.49    5.10
   2  -1  -6   90.09    6.10
   2  -1  -6  110.99    4.90
  -2   1   6  102.59    6.30
  -2   1   6   99.59    6.00
  -2   1   6   94.69    4.60
  -2   1   6   96.69    4.00
  -2   1   6   90.19    4.10
  -2   1   6   98.79    4.70
   1  -1  -6  377.86   14.20
   1  -1  -6  374.96   12.50
   1  -1  -6  406.56   12.50
   1  -1  -6  377.86   12.70
  -1   1   6  383.66   12.00
  -1   1   6  369.36   12.00
  -1   1   6  412.86   14.40
  -1   1   6  399.56   14.20
   0  -1  -6 1009.60   32.60
   0   1   6 1026.00   32.40
   0   1   6 1033.80   32.30
   0   1   6 1117.29   35.80
   0   1   6 1026.40   31.90
   0   1   6 1063.59   32.60
  -1  -1  -6  916.11   27.80
  -1  -1  -6  900.01   27.70
  -1  -1  -6  929.61   29.40
  -1  -1  -6  886.61   29.50
   1   1   6  878.31   29.80
   1   1   6  893.01   29.00
   1   1   6  862.61   29.40
   1   1   6  939.21   29.50
   1   1   6  900.21   28.40
   1   1   6  930.51   28.40
   1   1   6  894.91   29.40
  -2  -1  -6  919.11   28.70
  -2  -1  -6  884.01   30.60
  -2  -1  -6  914.71   30.90
  -2  -1  -6  909.81   28.70
   2   1   6  898.41   30.50
   2   1   6  920.91   30.20
   2   1   6  887.21   30.10
   2   1   6  920.81   29.30
   2   1   6  915.11   30.80
  -3  -1  -6  454.95   18.30
  -3  -1  -6  438.96   19.30
  -3  -1  -6  437.46   17.20
  -3  -1  -6  441.06   16.10
  -3  -1  -6  449.46   15.90
   3   1   6  440.06   18.70
   3   1   6  467.05   16.70
   3   1   6  425.86   20.40
   3   1   6  441.56   17.40
   3   1   6  435.36   16.50
  -4  -1  -6  816.12   28.50
  -4  -1  -6  813.22   32.70
  -4  -1  -6  845.22   28.40
  -4  -1  -6  899.91   29.80
  -4  -1  -6  872.71   31.40
   4   1   6  875.41   31.90
   4   1   6  834.72   30.00
   4   1   6  799.72   29.00
   4   1   6  804.82   31.40
  -5  -1  -6  174.18   11.10
  -5  -1  -6  175.08   12.70
  -5  -1  -6  158.18   13.80
  -5  -1  -6  150.08   10.60
   5   1   6  187.88   15.30
   5   1   6  145.19   11.60
   5   1   6  193.58   15.40
  -6  -1  -6  430.06   19.70
  -6  -1  -6  489.95   21.80
  -6  -1  -6  442.46   23.70
   6   1   6  455.65   25.60
   6   1   6  463.65   20.70
  -7  -1  -6   20.80    9.70
  -7  -1  -6   14.80    7.80
  -7  -1  -6   17.70    9.80
   7   1   6   20.30   13.90
   7   1   6   28.00    9.50
  -9   2   6   10.50   10.40
  -9   2   6    3.30   13.20
   8  -2  -6   68.39   15.10
   8  -2  -6   85.99    8.90
   8  -2  -6   88.19   10.00
  -8   2   6   82.99   10.50
  -8   2   6   67.29   11.30
  -8   2   6  101.09   19.90
  -8   2   6   89.09   10.40
  -8   2   6   79.39   11.50
   7  -2  -6    4.00    7.30
   7  -2  -6    5.80    5.00
   7  -2  -6    4.90   10.20
   7  -2  -6    5.40    5.90
  -7   2   6    3.70    7.40
  -7   2   6   -0.30   12.10
  -7   2   6   10.10    6.90
  -7   2   6    4.60    6.30
  -7   2   6   10.80    7.90
   6  -2  -6   39.90    5.10
   6  -2  -6   44.80    9.20
   6  -2  -6   53.49    7.30
   6  -2  -6   55.69    5.20
  -6   2   6   40.60    6.50
  -6   2   6   44.40    7.60
  -6   2   6   55.39    9.90
  -6   2   6   48.30    7.50
  -6   2   6   48.10    6.30
  -6   2   6   45.40    7.30
   5  -2  -6    2.80    5.60
   5  -2  -6   -0.20    5.10
   5  -2  -6    0.50    4.70
   5  -2  -6   -0.20    6.10
   5  -2  -6    0.50    2.80
   5  -2  -6    0.40    2.70
  -5   2   6    1.10    4.40
  -5   2   6    4.40    4.40
  -5   2   6   -1.50    4.20
  -5   2   6   -0.50    3.60
  -5   2   6   -1.60    4.20
  -5   2   6   -0.40    5.70
   4  -2  -6  767.12   24.00
   4  -2  -6  768.22   26.80
   4  -2  -6  762.72   26.80
   4  -2  -6  786.82   24.00
   4  -2  -6  753.82   26.90
   4  -2  -6  725.23   27.10
  -4   2   6  805.02   27.30
  -4   2   6  810.72   26.90
  -4   2   6  752.82   25.40
  -4   2   6  775.62   26.80
  -4   2   6  775.82   26.70
  -4   2   6  768.52   25.40
   3  -2  -6  185.68    8.80
   3  -2  -6  175.18    9.00
   3  -2  -6  173.08    9.50
  -3   2   6  178.78    8.80
  -3   2   6  194.48    8.80
  -3   2   6  196.18    9.50
  -3   2   6  180.38    7.60
  -3   2   6  187.48    7.80
  -3   2   6  180.98    9.60
   2  -2  -6  382.36   14.10
   2  -2  -6  392.66   13.90
   2  -2  -6  391.46   15.10
   2  -2  -6  392.06   14.10
  -2   2   6  392.96   13.20
  -2   2   6  393.56   14.00
  -2   2   6  415.56   15.30
  -2   2   6  388.16   14.00
  -2   2   6  389.66   15.00
  -2   2   6  388.96   13.20
   1  -2  -6  180.88    8.70
   1  -2  -6  180.98    9.10
   1  -2  -6  171.68    7.60
   1  -2  -6  170.08    7.60
  -1   2   6  170.08    7.50
  -1   2   6  169.78    7.50
  -1   2   6  169.58    6.70
  -1   2   6  171.78    6.80
  -1   2   6  164.18    8.80
   0  -2  -6    0.10    2.40
   0  -2  -6    0.00    1.20
   0  -2  -6   -0.50    1.30
   0  -2  -6   -0.30    3.80
   0  -2  -6   -0.30    4.30
   0   2   6   -2.30    3.10
   0   2   6    0.10    2.10
   0   2   6   -0.50    2.50
   0   2   6    1.60    1.90
   0   2   6    0.50    3.10
   0   2   6    1.70    2.70
  -1  -2  -6   -2.30    4.40
  -1  -2  -6    3.30    1.90
  -1  -2  -6   -0.40    3.00
  -1  -2  -6   -0.90    2.00
   1   2   6    3.90    3.80
   1   2   6    1.60    4.00
   1   2   6    0.30    3.10
   1   2   6   -2.00    2.20
   1   2   6    0.50    2.50
   1   2   6    2.50    3.10
   1   2   6    2.60    4.00
  -2  -2  -6   98.49    8.90
  -2  -2  -6   82.89    5.90
  -2  -2  -6   87.49    5.50
  -2  -2  -6   61.69    6.80
   2   2   6   76.29    6.90
   2   2   6   77.09    6.60
   2   2   6  102.59    8.70
   2   2   6   83.69    5.80
   2   2   6   89.49    6.10
   2   2   6   68.69    7.20
   2   2   6   67.49    6.00
  -3  -2  -6  180.58   13.50
  -3  -2  -6  169.58    9.40
  -3  -2  -6  180.28    8.90
  -3  -2  -6  160.98   11.20
   3   2   6  150.48   11.60
   3   2   6  175.38   12.60
   3   2   6  163.88    9.90
   3   2   6  162.58   11.20
   3   2   6  179.08    9.60
   3   2   6  176.68   10.50
   3   2   6  164.98   11.30
  -4  -2  -6    0.60    4.10
  -4  -2  -6    0.80    5.40
  -4  -2  -6    6.10    5.20
   4   2   6    5.40    7.60
   4   2   6   -0.10    4.60
   4   2   6    7.50    5.90
   4   2   6    0.40    9.10
   4   2   6    6.30    7.90
   4   2   6    2.00    5.00
  -5  -2  -6  192.28   15.20
  -5  -2  -6  182.68   12.10
  -5  -2  -6  188.08   13.60
   5   2   6  171.88   13.10
   5   2   6  188.08   12.60
   5   2   6  175.58   14.90
   5   2   6  174.78   16.90
   5   2   6  202.48   16.10
  -6  -2  -6    4.00    8.50
  -6  -2  -6    3.80    8.40
  -6  -2  -6    7.00    7.10
   6   2   6    4.00    7.20
   6   2   6    2.70    7.60
   6   2   6   -6.80   14.50
   6   2   6   -1.90   11.50
  -7  -2  -6   14.40   17.50
  -7  -2  -6   10.90   11.90
  -7  -2  -6   11.10    9.00
   7   2   6   23.50   24.30
   7   2   6    9.30   17.30
   7   2   6   12.80    9.90
   7   2   6   27.60   10.70
   8  -3  -6   -1.00    6.70
   8  -3  -6    7.60    8.90
   8  -3  -6   -2.20   14.10
  -8   3   6    1.40    8.60
  -8   3   6    6.80   20.60
  -8   3   6    1.00    9.20
  -8   3   6    4.80    8.30
  -8   3   6   -4.20    9.40
   7  -3  -6   -1.40    5.30
   7  -3  -6    7.50    6.00
   7  -3  -6    6.00   10.90
  -7   3   6    6.70   12.50
  -7   3   6   -4.40    7.20
  -7   3   6    8.10    7.70
  -7   3   6   -4.40    8.20
  -7   3   6    7.60    6.50
   6  -3  -6    4.10   13.10
   6  -3  -6    1.30    4.50
   6  -3  -6   -1.80    6.70
  -6   3   6   -5.80    5.70
  -6   3   6   -0.10    6.90
  -6   3   6    4.00    6.20
  -6   3   6    5.20    9.40
  -6   3   6    1.90    6.60
  -6   3   6   -0.50    4.90
   5  -3  -6    2.30    3.00
   5  -3  -6    3.50    6.20
   5  -3  -6    6.90    6.60
   5  -3  -6    3.60    4.20
   5  -3  -6    6.70    5.80
  -5   3   6   -1.70    5.20
  -5   3   6    0.70    3.90
  -5   3   6    1.40    4.80
  -5   3   6    3.50    5.00
  -5   3   6    2.80    6.30
  -5   3   6    4.40    5.30
   4  -3  -6  288.17   14.60
   4  -3  -6  299.67   10.80
   4  -3  -6  310.07   15.40
   4  -3  -6  303.47   14.70
   4  -3  -6  294.87   10.70
  -4   3   6  313.27   14.30
  -4   3   6  292.57   13.80
  -4   3   6  313.17   14.40
  -4   3   6  306.87   14.50
  -4   3   6  309.57   12.40
  -4   3   6  323.77   12.70
   3  -3  -6  106.59    8.20
   3  -3  -6  116.49    5.10
   3  -3  -6  110.19    4.90
   3  -3  -6  113.59    8.40
   3  -3  -6  147.39    8.40
   3  -3  -6  125.39    9.20
  -3   3   6  112.99    8.60
  -3   3   6  103.89    6.80
  -3   3   6  113.29    8.40
  -3   3   6  121.39    7.20
  -3   3   6  105.19    8.10
  -3   3   6  113.69    7.70
   2  -3  -6  670.93   24.40
   2  -3  -6  708.33   23.30
   2  -3  -6  636.74   23.70
   2  -3  -6  702.23   21.20
   2  -3  -6  672.13   23.60
   2  -3  -6  676.03   21.10
  -2   3   6  674.93   24.20
  -2   3   6  690.13   23.50
  -2   3   6  677.63   23.90
  -2   3   6  684.73   22.40
  -2   3   6  667.43   23.50
  -2   3   6  702.53   22.40
   1  -3  -6    4.00    1.80
   1  -3  -6    1.30    5.20
   1  -3  -6    5.20    3.30
   1  -3  -6    1.90    3.50
   1  -3  -6    5.10    4.10
  -1   3   6    5.10    2.70
  -1   3   6    7.00    3.50
  -1   3   6    4.50    2.40
  -1   3   6    6.50    3.50
  -1   3   6    4.50    3.60
  -1   3   6    2.20    4.20
   0  -3  -6   68.79    4.70
   0  -3  -6   75.79    6.60
   0  -3  -6   68.39    4.40
   0  -3  -6   65.29    6.10
   0  -3  -6   79.89    7.90
   0  -3  -6   82.89    6.80
   0   3   6   68.89    6.00
   0   3   6   66.99    5.20
   0   3   6   73.39    6.60
   0   3   6   70.89    6.40
   0   3   6   71.99    6.50
   0   3   6   73.29    5.20
  -1  -3  -6   87.69    5.60
  -1  -3  -6   80.49    5.90
  -1  -3  -6   67.69    6.70
  -1  -3  -6  113.79    9.90
   1   3   6   98.09    7.70
   1   3   6   84.89    7.50
   1   3   6   84.89    6.20
   1   3   6   97.19    7.80
   1   3   6   92.19    6.30
   1   3   6   87.39    6.90
   1   3   6   95.79    8.40
  -2  -3  -6  109.79    7.10
  -2  -3  -6  111.89    7.70
  -2  -3  -6  106.79    9.40
  -2  -3  -6  147.09   11.70
   2   3   6   93.49    8.40
   2   3   6  108.19    8.50
   2   3   6  102.69    8.70
   2   3   6  101.99    7.20
   2   3   6  121.79    7.80
   2   3   6  127.39   10.00
   2   3   6   95.29    9.20
  -3  -3  -6  347.37   15.30
  -3  -3  -6  369.76   17.60
  -3  -3  -6  363.86   14.70
   3   3   6  345.57   18.30
   3   3   6  380.86   16.50
   3   3   6  337.87   15.90
   3   3   6  349.27   18.60
   3   3   6  364.36   15.60
   3   3   6  362.26   17.80
  -4  -3  -6  258.87   13.20
  -4  -3  -6  241.98   14.70
  -4  -3  -6  268.27   16.60
   4   3   6  258.17   17.70
   4   3   6  261.27   18.80
   4   3   6  260.47   14.00
   4   3   6  265.17   14.70
   4   3   6  271.97   18.30
  -5  -3  -6   13.50    6.50
  -5  -3  -6   13.50    7.70
  -5  -3  -6   13.70    8.10
   5   3   6   22.00    7.70
   5   3   6   21.60   13.50
   5   3   6   19.70   10.60
  -6  -3  -6   21.40   10.00
  -6  -3  -6   23.50   10.10
  -6  -3  -6   18.00    8.60
   6   3   6   21.10    9.10
   6   3   6   21.20   13.70
   6   3   6   17.80   17.80
   6   3   6   20.50    8.90
  -7  -3  -6    8.40   12.50
   8  -4  -6    2.80    7.10
   8  -4  -6    1.50   14.80
   8  -4  -6    1.40    9.80
  -8   4   6    3.90   11.10
  -8   4   6   -0.90   10.70
  -8   4   6   -2.30   10.50
  -8   4   6   -1.50    8.60
  -8   4   6   13.50   20.90
   7  -4  -6   21.80    7.20
   7  -4  -6   18.40    5.60
   7  -4  -6   18.80   12.20
  -7   4   6   19.50   15.10
  -7   4   6   31.00    9.20
  -7   4   6   23.60    8.70
  -7   4   6   20.20    8.70
  -7   4   6   25.10    7.90
   6  -4  -6    5.90    5.20
   6  -4  -6    6.30    4.30
   6  -4  -6    3.00    9.00
  -6   4   6    7.30    7.10
  -6   4   6    6.10    7.20
  -6   4   6   10.20    6.90
  -6   4   6    5.50   10.30
  -6   4   6   10.40    6.10
   5  -4  -6   76.59    9.80
   5  -4  -6  101.89    6.60
   5  -4  -6   88.09    7.50
   5  -4  -6   96.89   10.40
  -5   4   6   94.49    9.30
  -5   4   6   90.19    9.70
  -5   4   6   89.89    8.30
  -5   4   6  102.79    7.90
   4  -4  -6   44.20    7.50
   4  -4  -6   61.99    4.70
   4  -4  -6   57.29    7.50
   4  -4  -6   65.69    8.50
   4  -4  -6   71.19    9.00
  -4   4   6   55.19    6.80
  -4   4   6   57.79    7.10
  -4   4   6   54.69    7.90
  -4   4   6   59.89    6.40
  -4   4   6   46.20    5.50
  -4   4   6   46.80    7.00
   3  -4  -6  215.68    8.60
   3  -4  -6  205.28    8.70
   3  -4  -6  195.28   12.60
   3  -4  -6  228.18   12.30
   3  -4  -6  203.58   12.10
  -3   4   6  212.08   11.50
  -3   4   6  191.08   12.10
  -3   4   6  215.88   11.80
  -3   4   6  219.78   12.50
  -3   4   6  206.78    9.90
  -3   4   6  209.28   10.60
   2  -4  -6   67.19    4.50
   2  -4  -6   78.69    4.80
   2  -4  -6   69.59    7.20
   2  -4  -6   66.89    7.00
   2  -4  -6   58.29    7.20
   2  -4  -6   56.39    7.90
  -2   4   6   63.59    5.60
  -2   4   6   66.39    6.70
  -2   4   6   65.39    6.90
  -2   4   6   84.69    7.70
  -2   4   6   69.99    5.50
  -2   4   6   58.49    6.00
   1  -4  -6   52.19    8.40
   1  -4  -6   72.19    7.30
   1  -4  -6   56.99    7.80
   1  -4  -6   62.79    7.40
   1  -4  -6   59.29    4.40
   1  -4  -6   56.59    4.60
  -1   4   6   52.69    6.30
  -1   4   6   60.19    6.90
  -1   4   6   58.79    5.60
  -1   4   6   42.30    6.00
  -1   4   6   54.79    5.10
  -1   4   6   60.79    7.20
   0  -4  -6   30.70    5.60
   0  -4  -6   25.30    6.60
   0  -4  -6   25.40    5.40
   0  -4  -6   15.60    5.30
   0  -4  -6   21.90   13.70
   0   4   6   20.90    4.70
   0   4   6   24.30    5.50
   0   4   6   18.60    5.60
   0   4   6   27.40    5.30
   0   4   6   16.60    6.60
   0   4   6   30.30    6.00
   0   4   6   23.10    4.00
  -1  -4  -6    6.80    8.50
  -1  -4  -6    4.40    3.30
  -1  -4  -6    4.00    4.80
  -1  -4  -6    5.00    4.00
   1   4   6    1.00    3.80
   1   4   6    3.90    5.00
   1   4   6    3.00    5.80
   1   4   6    0.00    5.30
   1   4   6   -1.90    6.70
   1   4   6    2.80    4.20
   1   4   6    2.50    6.10
  -2  -4  -6    6.20    4.90
  -2  -4  -6    8.20    4.00
  -2  -4  -6    8.30    5.90
   2   4   6    6.60    5.20
   2   4   6    7.70    5.60
   2   4   6    9.10    6.30
   2   4   6    7.00    8.50
   2   4   6    4.10    4.70
   2   4   6    8.30    6.50
  -3  -4  -6   40.30    8.20
  -3  -4  -6   40.10    6.10
  -3  -4  -6   47.30    7.20
   3   4   6   43.10    9.70
   3   4   6   32.00    9.10
   3   4   6   33.10   10.20
   3   4   6   58.19    8.10
  -4  -4  -6    6.80    8.30
  -4  -4  -6   -1.50    6.40
   4   4   6    2.60    7.70
   4   4   6    3.40   11.20
   4   4   6    2.70   13.30
   4   4   6    5.70    9.50
   4   4   6    0.20    6.10
  -5  -4  -6   58.09   12.00
  -5  -4  -6   81.09    9.30
   5   4   6   73.89   14.70
   5   4   6   80.99   10.20
   5   4   6   81.19   10.70
  -6  -4  -6    5.30   13.50
  -6  -4  -6   -3.20    9.10
   6   4   6   -5.90    8.90
   6   4   6   -2.00   10.40
   6   4   6   16.70   24.10
   6   4   6   -0.80   15.30
   8  -5  -6   17.40   20.30
   8  -5  -6    3.50   17.50
   8  -5  -6    7.10    7.70
  -8   5   6    9.00   11.30
  -8   5   6    8.10    9.40
  -8   5   6   -7.40   11.80
  -8   5   6    8.70   12.40
   7  -5  -6    8.00   14.50
   7  -5  -6    9.10   13.80
   7  -5  -6    7.80    6.20
  -7   5   6   -3.80    9.00
  -7   5   6    5.60   16.80
  -7   5   6   -1.90    7.50
  -7   5   6   12.90    9.30
  -7   5   6    1.10    9.10
   6  -5  -6   -6.10   11.80
   6  -5  -6    0.70    4.80
   6  -5  -6    0.30    6.10
   6  -5  -6    1.70   10.40
  -6   5   6   -0.50    6.30
  -6   5   6    5.50    8.20
  -6   5   6   12.60    8.50
  -6   5   6    4.30    7.70
  -6   5   6    6.30   11.60
   5  -5  -6   18.80    5.60
   5  -5  -6   18.60    9.20
   5  -5  -6   16.60    4.60
   5  -5  -6   17.20    9.30
  -5   5   6   18.20    6.00
  -5   5   6   28.00   10.40
  -5   5   6   10.60    7.30
  -5   5   6   25.60    7.50
  -5   5   6   24.10    7.50
   4  -5  -6  127.69   14.90
   4  -5  -6  110.69    7.40
   4  -5  -6  106.69    7.40
   4  -5  -6   96.99   10.50
  -4   5   6  141.69   11.40
  -4   5   6   92.79    7.70
  -4   5   6  103.19    9.50
  -4   5   6  106.19   11.00
  -4   5   6  106.69    8.90
   3  -5  -6   20.10    4.60
   3  -5  -6   22.90    7.00
   3  -5  -6   23.20    4.00
   3  -5  -6   31.70    8.40
  -3   5   6   16.30   11.70
  -3   5   6   14.80    4.70
  -3   5   6   23.20    6.10
  -3   5   6   24.40    7.10
  -3   5   6   23.60    6.20
  -3   5   6   20.40    6.50
   2  -5  -6    4.10    5.10
   2  -5  -6   14.80    3.80
   2  -5  -6    4.40    7.50
   2  -5  -6    6.90    8.50
   2  -5  -6    5.70    4.00
  -2   5   6    5.80    5.80
  -2   5   6    4.90    5.30
  -2   5   6   -0.60    4.10
  -2   5   6    9.20    5.50
   1  -5  -6  261.97   14.60
   1  -5  -6  209.08   18.00
   1  -5  -6  203.68    9.70
   1  -5  -6  189.88   13.00
   1  -5  -6  196.48   10.20
  -1   5   6  197.38   13.20
  -1   5   6  204.68   11.00
  -1   5   6  228.08   13.60
  -1   5   6  190.88   13.70
  -1   5   6  212.18   12.00
  -1   5   6  228.58   13.20
   0  -5  -6  112.49    7.80
   0  -5  -6  131.79    8.00
   0  -5  -6  104.69    9.80
   0   5   6  104.19   10.50
   0   5   6   90.09    8.10
   0   5   6  107.59   11.20
   0   5   6  125.99    8.60
   0   5   6  121.49   10.30
   0   5   6  116.29    9.80
  -1  -5  -6  303.07   14.30
  -1  -5  -6  332.97   18.80
  -1  -5  -6  336.97   17.40
  -1  -5  -6  298.27   13.50
   1   5   6  270.37   17.00
   1   5   6  286.17   16.00
   1   5   6  313.57   18.20
   1   5   6  319.37   14.50
  -2  -5  -6  147.29   10.30
  -2  -5  -6  144.69   12.80
  -2  -5  -6  164.58   10.40
   2   5   6  149.39   10.50
   2   5   6  119.59   12.90
   2   5   6  161.28   14.60
   2   5   6  145.39   11.00
  -3  -5  -6   41.80    7.50
  -3  -5  -6   30.70    9.80
   3   5   6   41.60    8.60
   3   5   6   24.90   10.20
   3   5   6   49.60    8.40
   3   5   6   31.60   11.20
   3   5   6   38.20   12.60
  -4  -5  -6    6.70   10.50
  -4  -5  -6    2.40    6.80
   4   5   6    9.40    8.00
   4   5   6    0.20    8.60
   4   5   6    0.10   11.10
   4   5   6    8.80   17.10
  -5  -5  -6    6.70   12.60
  -5  -5  -6   18.10    9.00
   5   5   6   21.40   21.10
   5   5   6   11.10   10.30
   5   5   6    5.10   10.50
   5   5   6   11.40   15.60
   7  -6  -6   12.30   14.70
   7  -6  -6   12.80    7.30
   7  -6  -6   12.40   16.60
   7  -6  -6   33.80   10.50
  -7   6   6   33.30   18.70
  -7   6   6   24.40   28.00
  -7   6   6   17.00   11.70
  -7   6   6   14.30   10.30
  -7   6   6   18.60    9.40
   6  -6  -6  119.99    8.90
   6  -6  -6   99.69   17.10
   6  -6  -6  139.79   16.40
  -6   6   6  123.79   18.10
  -6   6   6  108.69   13.60
  -6   6   6  103.29   12.70
  -6   6   6   94.69   10.70
  -6   6   6  120.59   12.30
   5  -6  -6  166.68   15.40
   5  -6  -6  135.49   15.70
   5  -6  -6  148.79   10.40
   5  -6  -6  151.28   10.20
  -5   6   6  159.58   13.30
  -5   6   6  135.49   15.40
  -5   6   6  152.28   12.20
  -5   6   6  144.29   10.80
  -5   6   6  155.38   13.70
   4  -6  -6    1.70    8.90
   4  -6  -6    7.10    9.60
   4  -6  -6    0.60    4.60
   4  -6  -6    6.40    6.10
  -4   6   6    2.60    7.60
  -4   6   6   -2.30    7.50
  -4   6   6   -0.80    5.80
  -4   6   6    5.10    7.00
  -4   6   6    0.30   10.40
   3  -6  -6  105.39   11.50
   3  -6  -6   98.39    7.20
   3  -6  -6  102.09   12.30
   3  -6  -6   96.89    7.80
  -3   6   6  101.99   12.20
  -3   6   6   81.29    9.70
  -3   6   6   92.39    8.30
  -3   6   6   95.39    9.60
  -3   6   6   95.99   10.00
   2  -6  -6    1.40    4.20
   2  -6  -6    1.90    5.40
   2  -6  -6   -0.10    9.80
   2  -6  -6    2.60    6.80
  -2   6   6    0.40    5.90
  -2   6   6    1.00    5.20
  -2   6   6    0.30    6.30
  -2   6   6    7.50    9.30
  -2   6   6    5.30    7.50
   1  -6  -6  135.29   11.90
   1  -6  -6  142.09    9.30
   1  -6  -6  141.79    9.20
  -1   6   6  161.48   13.70
  -1   6   6  139.59   11.40
  -1   6   6   81.89    9.80
  -1   6   6  133.59   12.60
  -1   6   6  142.29   10.30
   0  -6  -6   12.40   10.20
   0  -6  -6   26.10    5.60
   0  -6  -6   32.30    7.00
   0  -6  -6   42.10    9.50
   0   6   6   28.70    8.50
   0   6   6   30.20    8.00
   0   6   6   31.90    6.20
   0   6   6   31.80   10.90
   0   6   6   26.70   10.40
  -1  -6  -6   31.90    9.20
  -1  -6  -6   11.60   11.80
  -1  -6  -6   27.60    7.90
  -1  -6  -6   25.40    6.10
   1   6   6   20.10   12.30
   1   6   6   16.10    7.00
   1   6   6   18.20   10.10
   1   6   6   20.10    8.90
   1   6   6   21.90    7.60
  -2  -6  -6   -1.00    7.00
  -2  -6  -6   -2.60    8.40
   2   6   6    1.10    8.20
   2   6   6   -3.20   11.90
   2   6   6    1.30    9.10
   2   6   6    6.80    6.90
  -3  -6  -6   -0.30   10.10
  -3  -6  -6   14.80    7.40
   3   6   6    8.70    8.20
   3   6   6   28.30   18.70
   3   6   6    4.60    9.30
   3   6   6   -1.60   10.60
  -4  -6  -6    5.60   13.00
  -4  -6  -6   15.80    8.90
   4   6   6    5.50   12.90
   4   6   6    7.50   10.70
   4   6   6   16.50   10.20
   4   6   6   -1.70   21.00
   6  -7  -6   68.39    9.00
   6  -7  -6   74.69   17.30
   6  -7  -6   66.49   19.90
  -6   7   6   63.89   22.50
  -6   7   6   93.39   13.10
  -6   7   6   69.49   11.60
  -6   7   6   60.19   13.60
   5  -7  -6   46.30    9.60
   5  -7  -6   34.00   12.80
   5  -7  -6   49.80    7.70
   5  -7  -6   23.30   16.60
  -5   7   6   27.40    9.90
  -5   7   6   43.70   18.90
  -5   7   6   36.70   10.20
  -5   7   6   46.10   12.00
  -5   7   6   38.30    8.90
   4  -7  -6    2.70    5.80
   4  -7  -6    1.10    8.00
   4  -7  -6    7.80   12.50
   4  -7  -6    5.50   11.30
  -4   7   6   -2.70    7.30
  -4   7   6   -7.10    9.40
  -4   7   6   -5.80    9.10
  -4   7   6    1.50   13.60
  -4   7   6   -2.00    8.20
   3  -7  -6   24.30    8.00
   3  -7  -6   17.60    6.40
   3  -7  -6   16.90   10.40
  -3   7   6   16.70    9.50
  -3   7   6   15.90   12.50
  -3   7   6   27.20    9.50
  -3   7   6   12.90    7.60
  -3   7   6   17.50    7.00
   2  -7  -6    2.70    5.70
   2  -7  -6    4.40    7.60
   2  -7  -6    5.60    9.70
  -2   7   6   14.70    8.30
  -2   7   6    9.80    7.90
  -2   7   6   19.50   12.90
  -2   7   6    2.00    6.80
  -2   7   6   -0.30    8.70
   1  -7  -6    8.90    9.00
   1  -7  -6   -2.10   13.60
   1  -7  -6    9.70    6.10
   1  -7  -6    2.60    8.00
  -1   7   6    1.70   13.70
  -1   7   6   -3.20    8.80
  -1   7   6    1.80    6.90
   0  -7  -6    5.30   13.50
   0  -7  -6   -0.60    9.50
   0  -7  -6   -2.60    6.10
   0   7   6    6.70   15.30
   0   7   6   -2.00    6.80
   0   7   6    8.00    9.80
   0   7   6   11.60   12.00
   0   7   6   -0.80    8.30
  -1  -7  -6    0.40   17.60
  -1  -7  -6   17.80    7.20
  -1  -7  -6   27.30   12.30
   1   7   6   12.40   11.10
   1   7   6   13.80    7.80
   1   7   6   13.00    9.80
  -2  -7  -6   13.30   12.00
  -2  -7  -6    3.90    7.90
   2   7   6   -2.30   19.40
   2   7   6   -0.40    8.90
   2   7   6   15.30   10.30
  -3  -7  -6   -1.40   14.30
  -3  -7  -6    0.20    9.20
   3   7   6   -1.20   11.20
   3   7   6    5.60   11.10
   3   7   6   15.30   14.40
   5  -8  -6    1.20   25.00
   5  -8  -6    7.50    8.50
  -5   8   6   -6.70   12.60
  -5   8   6   17.00   12.20
  -5   8   6    9.10   10.60
   4  -8  -6    3.40   14.90
  -4   8   6    3.60   12.30
  -4   8   6   -1.00   10.10
  -4   8   6   -4.70    8.80
  -4   8   6   -1.10   11.50
   3  -8  -6    2.80   12.80
   3  -8  -6    0.70   16.30
   3  -8  -6    6.90   14.10
  -3   8   6    4.90    8.50
  -3   8   6    7.40   13.70
  -3   8   6   11.10    9.80
   2  -8  -6   16.70   13.10
   2  -8  -6   18.60   16.90
   2  -8  -6    7.60    7.60
  -2   8   6   13.40    9.50
  -2   8   6   11.00   10.50
  -2   8   6   13.00    8.50
  -2   8   6   11.70   11.40
   1  -8  -6   27.20   15.50
   1  -8  -6   49.50    8.90
   1  -8  -6   51.49   18.50
  -1   8   6   39.90   12.30
  -1   8   6   37.10   17.50
  -1   8   6   43.30   10.10
   0  -8  -6   14.80   19.70
   0  -8  -6   23.00    8.90
   0  -8  -6   16.10   12.90
   0   8   6   31.80   12.50
   0   8   6   18.20   13.10
  -1  -8  -6   22.10   14.50
  -1  -8  -6   30.20    9.80
   1   8   6   34.50   12.40
   1   8   6   35.50   11.90
   1   8   6   36.20   15.20
   1   9  -7    6.60   15.10
   1   9  -7   -4.40    8.30
   1   9  -7   10.40    9.60
  -1  -9   7   -0.60   10.10
  -1  -9   7   -9.30    8.80
   0   9  -7   18.40   12.80
   0   9  -7   19.90    9.20
   0   9  -7   24.40   10.80
   0   9  -7   31.60    9.20
   0   9  -7   24.50    5.50
   0  -9   7   34.10   32.50
   0  -9   7   20.40   13.00
  -1   9  -7   -7.00   10.90
  -1   9  -7   -0.20    8.30
  -1   9  -7    1.80    9.10
   1  -9   7    4.70   19.60
   1  -9   7   -3.30    9.00
   1  -9   7    5.20   11.70
  -2   9  -7   31.30   13.00
  -2   9  -7    9.50    8.30
  -2   9  -7   20.90   10.20
   2  -9   7   32.20   14.10
   2  -9   7   32.60   20.00
   2  -9   7   15.60    8.40
  -3   9  -7    6.10   10.70
  -3   9  -7    0.40    8.50
  -3   9  -7    7.90   13.00
   3  -9   7    6.90   13.70
   3  -9   7   -4.50   26.00
   3  -9   7   16.40   19.00
  -4   9  -7   14.60   14.50
  -4   9  -7   29.70   10.60
  -4   9  -7   31.10   12.50
   4  -9   7   40.10   14.10
   4  -9   7   40.60   11.30
   4  -9   7   15.40   21.90
   3   8  -7   -0.80    8.80
   3   8  -7    7.90   13.70
  -3  -8   7   -1.90    9.10
  -3  -8   7    0.20   11.80
   2   8  -7    4.30    5.90
   2   8  -7    4.30   13.10
   2   8  -7    1.30    7.80
   2   8  -7    7.50    9.10
  -2  -8   7    3.10   17.10
  -2  -8   7   10.00    9.10
  -2  -8   7    2.70   10.30
  -2  -8   7   -1.20    6.30
   1   8  -7   -0.40    7.00
   1   8  -7    5.20    6.50
   1   8  -7    2.30    6.30
   1   8  -7    2.90   15.50
   1   8  -7   10.70   11.30
  -1  -8   7    6.90    7.50
  -1  -8   7    3.50    8.50
  -1  -8   7   -0.40   17.20
  -1  -8   7    0.80    8.10
   0   8  -7   50.09    7.90
   0   8  -7   50.29    8.30
   0   8  -7   58.99   16.50
   0   8  -7   58.39    5.40
   0  -8   7   55.19   17.40
   0  -8   7   44.10   10.30
   0  -8   7   49.60   10.10
   0  -8   7   48.70    7.90
  -1   8  -7   23.20    7.10
  -1   8  -7   18.10   10.30
  -1   8  -7   23.00    8.00
   1  -8   7   19.20    9.60
   1  -8   7   14.10    7.70
   1  -8   7   15.80   13.50
  -2   8  -7    0.50    7.90
  -2   8  -7    2.40    6.20
  -2   8  -7   -1.90   10.10
   2  -8   7   -4.40   13.70
   2  -8   7    1.60    7.90
   2  -8   7    4.40    6.50
  -3   8  -7    7.10    7.10
  -3   8  -7    2.40   10.20
  -3   8  -7   -0.30    8.20
   3  -8   7    1.40    9.30
   3  -8   7    3.00    7.60
   3  -8   7   -5.60   14.60
  -4   8  -7   -3.80    9.20
  -4   8  -7   10.50   11.40
  -4   8  -7   11.30    7.60
   4  -8   7   12.60   11.50
   4  -8   7   -2.80   18.80
   4  -8   7   12.00    8.50
  -5   8  -7    6.40    8.30
  -5   8  -7    3.70   10.70
  -5   8  -7    0.70   11.70
   5  -8   7    6.80   11.90
   5  -8   7   -1.10    8.30
   5  -8   7    0.50   18.70
  -6   8  -7   -5.20   14.70
  -6   8  -7    1.10    5.50
  -6   8  -7   -4.80   12.20
   6  -8   7    6.60   14.70
   6  -8   7   -1.40   23.30
   6  -8   7   16.40    9.70
   4   7  -7    5.60   13.40
   4   7  -7    6.10    8.40
  -4  -7   7   10.10   13.40
  -4  -7   7   14.10    9.60
  -4  -7   7   29.10    9.20
   3   7  -7   35.10   11.00
   3   7  -7   31.70    7.50
   3   7  -7   48.90   17.20
   3   7  -7   38.00    9.60
  -3  -7   7   57.19   12.30
  -3  -7   7   49.90    7.90
  -3  -7   7   45.50    8.70
  -3  -7   7   48.70   17.60
   2   7  -7   28.10    9.90
   2   7  -7   14.00    6.70
   2   7  -7   23.80    6.80
   2   7  -7   16.50   13.00
  -2  -7   7   21.40    7.00
  -2  -7   7   29.00    5.00
  -2  -7   7   34.60   18.40
  -2  -7   7   15.70    9.20
  -2  -7   7   18.10   14.60
   1   7  -7   71.49    6.80
   1   7  -7   78.79    7.70
   1   7  -7   59.19   10.80
   1   7  -7   74.99    6.40
   1   7  -7   69.69   12.90
  -1  -7   7  100.49   13.30
  -1  -7   7   91.59    9.10
  -1  -7   7   77.59    7.50
  -1  -7   7   85.89   17.40
  -1  -7   7   73.69    9.70
   0   7  -7   19.10   10.50
   0   7  -7   19.90    3.50
   0   7  -7   12.70    6.90
   0   7  -7   22.20    5.80
   0   7  -7   19.40    5.60
   0  -7   7   18.80    6.40
   0  -7   7   18.50    6.90
   0  -7   7   15.00    7.20
   0  -7   7   21.10   10.90
  -1   7  -7   21.20    7.90
  -1   7  -7   40.80    7.10
  -1   7  -7   28.80    5.90
  -1   7  -7   52.49    9.10
   1  -7   7   13.20   14.50
   1  -7   7   41.40    8.50
   1  -7   7   43.00    8.30
   1  -7   7   47.70    7.30
   1  -7   7   16.10   10.50
  -2   7  -7    3.50    5.40
  -2   7  -7    1.20    6.20
  -2   7  -7    2.40    7.40
   2  -7   7    9.90   11.50
   2  -7   7    0.80    7.00
   2  -7   7    4.30    5.50
   2  -7   7   -0.40   12.00
  -3   7  -7   13.40    7.00
  -3   7  -7   11.50    8.20
   3  -7   7   14.80    8.30
   3  -7   7    5.30   11.20
   3  -7   7   11.70   12.10
   3  -7   7   12.80    6.60
  -4   7  -7   29.80   10.10
  -4   7  -7   31.30    7.20
  -4   7  -7   22.70    8.50
   4  -7   7   16.60   13.40
   4  -7   7   16.40    6.80
   4  -7   7   16.00    8.60
  -5   7  -7    8.20    3.70
  -5   7  -7    7.20   10.00
  -5   7  -7    2.10    8.20
  -5   7  -7    7.90    6.80
   5  -7   7    2.60    7.60
   5  -7   7    8.20   15.00
   5  -7   7   11.80   10.60
  -6   7  -7   59.29   13.10
  -6   7  -7   60.19   12.80
  -6   7  -7   53.79    9.40
   6  -7   7   69.79   14.90
   6  -7   7   61.09    9.60
  -7   7  -7   10.40   15.80
  -7   7  -7    6.90    7.80
  -7   7  -7   11.50   10.80
  -7   7  -7    6.00   12.20
   7  -7   7   14.10   25.10
   7  -7   7    1.10   11.10
   7  -7   7    8.00   15.60
   5   6  -7  180.58   12.90
   5   6  -7  109.69   24.80
  -5  -6   7  176.58   16.60
  -5  -6   7  226.18   14.70
  -5  -6   7  161.58   13.30
   4   6  -7   26.40    7.30
   4   6  -7   17.10   13.10
   4   6  -7   24.90   12.10
  -4  -6   7   22.00    7.70
  -4  -6   7   27.30    8.20
  -4  -6   7   16.90   19.30
  -4  -6   7   15.00    9.80
   3   6  -7   35.10    8.00
   3   6  -7   22.40   10.20
   3   6  -7   38.50    7.60
   3   6  -7   35.60   13.80
   3   6  -7   42.10    6.70
  -3  -6   7   30.20    9.10
  -3  -6   7   45.90    6.80
  -3  -6   7   35.80   15.90
  -3  -6   7   51.19   12.50
  -3  -6   7   42.20    7.70
   2   6  -7   43.30    6.10
   2   6  -7   42.60   10.40
   2   6  -7   40.40    7.80
   2   6  -7   50.49    9.70
   2   6  -7   41.70    6.10
  -2  -6   7   41.50    4.20
  -2  -6   7   34.20   10.40
  -2  -6   7   40.80    5.60
  -2  -6   7   41.20   14.90
  -2  -6   7   48.20    9.30
  -2  -6   7   37.60    6.70
   1   6  -7   77.89   10.10
   1   6  -7   77.19    5.90
   1   6  -7   70.79    7.10
   1   6  -7   76.99    6.70
   1   6  -7   61.89    5.30
   1   6  -7   64.09   10.10
  -1  -6   7   74.99   12.80
  -1  -6   7   59.49    8.80
  -1  -6   7   65.99    6.20
  -1  -6   7   66.29   10.90
  -1  -6   7   63.39    6.80
   0   6  -7   20.30    5.40
   0   6  -7   20.70    4.70
   0   6  -7   15.90    4.20
   0   6  -7   19.80    2.50
   0   6  -7   16.60    8.20
   0  -6   7   12.20    4.70
   0  -6   7   22.60    5.70
   0  -6   7   10.10    8.00
   0  -6   7   12.10    5.80
   0  -6   7   19.80    6.80
   0  -6   7    8.40    9.70
  -1   6  -7   14.00    5.10
  -1   6  -7    9.50    6.10
  -1   6  -7    7.50    4.20
  -1   6  -7    9.80    5.40
   1  -6   7    5.70    8.50
   1  -6   7    7.10    5.60
   1  -6   7    9.20    5.90
   1  -6   7   12.40    8.70
   1  -6   7   10.60    5.60
   1  -6   7   15.80    5.10
  -2   6  -7   66.39    6.40
  -2   6  -7   58.39    8.30
  -2   6  -7   70.49    7.40
   2  -6   7   71.99   10.40
   2  -6   7   60.39    9.70
   2  -6   7   68.59    7.20
   2  -6   7   74.59    8.80
   2  -6   7   60.79    8.20
  -3   6  -7  148.79    9.60
  -3   6  -7  149.69   12.80
  -3   6  -7  152.18   11.20
  -3   6  -7  136.39    9.90
   3  -6   7  132.59   13.00
   3  -6   7  130.29   14.80
   3  -6   7  136.69   13.90
   3  -6   7  131.49    9.50
  -4   6  -7  453.05   20.80
  -4   6  -7  435.16   18.30
  -4   6  -7  447.36   22.30
   4  -6   7  444.56   19.00
   4  -6   7  431.46   22.20
   4  -6   7  471.55   23.00
   4  -6   7  447.46   25.30
  -5   6  -7   -5.90    8.70
  -5   6  -7    4.60    4.00
  -5   6  -7   -4.00    8.00
  -5   6  -7    3.00    5.60
   5  -6   7    4.50   12.00
   5  -6   7    3.30    9.50
   5  -6   7   -4.00    5.40
  -6   6  -7   11.30    5.70
  -6   6  -7    7.70    7.40
  -6   6  -7    9.60    8.60
  -6   6  -7   15.70   10.40
   6  -6   7    8.60   10.80
   6  -6   7   20.90    6.30
   6  -6   7   11.20    7.60
  -7   6  -7    0.70    7.40
  -7   6  -7   -1.10   15.00
  -7   6  -7   -5.40    8.40
  -7   6  -7    8.10   11.80
   7  -6   7   -0.40   11.10
   7  -6   7    1.90   15.60
   7  -6   7    1.10   15.30
   6   5  -7   37.10   16.90
   6   5  -7   45.50    9.30
  -6  -5   7   36.90   10.20
  -6  -5   7   40.80   12.50
  -6  -5   7   34.40   10.20
   5   5  -7    7.30    9.00
   5   5  -7   15.30   11.80
   5   5  -7   25.40   14.50
   5   5  -7   15.00    6.90
  -5  -5   7   13.80    7.80
  -5  -5   7   13.90    9.20
  -5  -5   7   27.10   18.20
  -5  -5   7    9.00    7.80
   4   5  -7   75.49   14.00
   4   5  -7   82.69   11.80
   4   5  -7   78.29    9.30
   4   5  -7   66.19    7.10
  -4  -5   7   81.09    8.30
  -4  -5   7   68.19    8.10
  -4  -5   7   58.49    9.70
  -4  -5   7   80.09   15.40
   3   5  -7   27.70    5.60
   3   5  -7   25.90    8.20
   3   5  -7   24.20    5.90
   3   5  -7   23.80    5.00
   3   5  -7   10.20    8.30
  -3  -5   7   28.30   12.00
  -3  -5   7   36.20    6.20
  -3  -5   7   31.10    5.60
   2   5  -7  115.19    8.10
   2   5  -7  114.29   11.10
   2   5  -7  131.89   11.40
   2   5  -7  113.59    7.70
   2   5  -7  106.09   10.80
   2   5  -7  115.59    7.60
  -2  -5   7  121.89    8.70
  -2  -5   7  125.19    8.30
  -2  -5   7   98.69    5.60
  -2  -5   7  117.09    7.80
  -2  -5   7  142.19   13.60
  -2  -5   7  109.59   10.30
  -2  -5   7   87.39   10.20
   1   5  -7    7.20    6.60
   1   5  -7    5.90    5.10
   1   5  -7    3.80    2.80
   1   5  -7    2.80    3.70
   1   5  -7    5.40    3.50
   1   5  -7    8.00    6.40
  -1  -5   7    2.60    3.40
  -1  -5   7    6.90    8.80
  -1  -5   7    6.00    4.50
  -1  -5   7    6.50    3.80
  -1  -5   7    7.50    2.90
  -1  -5   7   12.10    6.50
  -1  -5   7    5.80    4.80
   0   5  -7    1.00    3.50
   0   5  -7    2.50    6.70
   0   5  -7   -1.80    3.00
   0   5  -7   -1.60    5.20
   0   5  -7   -0.50    3.20
   0  -5   7    4.60    6.50
   0  -5   7    5.80    4.60
   0  -5   7   -0.90    6.80
   0  -5   7   -1.10    4.10
   0  -5   7    3.00    3.50
   0  -5   7    4.30    4.00
  -1   5  -7   12.90    3.50
  -1   5  -7   11.60    4.20
  -1   5  -7    9.70    3.90
  -1   5  -7    4.90    5.10
  -1   5  -7   14.70    6.50
   1  -5   7   10.80    6.10
   1  -5   7   13.90    4.70
   1  -5   7   11.90    6.30
   1  -5   7   11.50    4.40
   1  -5   7   11.40    3.70
   1  -5   7   11.80    4.90
  -2   5  -7   38.10    5.90
  -2   5  -7   41.60    8.10
  -2   5  -7   21.80    4.20
  -2   5  -7   24.80    4.80
  -2   5  -7   29.40    5.90
   2  -5   7   24.40    5.80
   2  -5   7   32.00    7.60
   2  -5   7   23.20    4.50
   2  -5   7   24.00    5.40
   2  -5   7   20.80    5.80
   2  -5   7   21.70    6.60
  -3   5  -7  364.76   20.20
  -3   5  -7  382.96   16.10
  -3   5  -7  387.76   18.40
  -3   5  -7  386.46   15.40
  -3   5  -7  428.56   17.50
   3  -5   7  401.26   16.30
   3  -5   7  381.46   16.70
   3  -5   7  357.66   18.20
   3  -5   7  360.16   18.20
   3  -5   7  408.46   20.40
   3  -5   7  417.86   18.60
  -4   5  -7 1648.64   53.39
  -4   5  -7 1688.93   53.09
  -4   5  -7 1672.33   54.89
  -4   5  -7 1676.33   50.59
  -4   5  -7 1638.54   56.29
   4  -5   7 1663.53   50.59
   4  -5   7 1686.13   56.39
   4  -5   7 1678.43   53.69
   4  -5   7 1567.94   56.49
  -5   5  -7    7.80    4.20
  -5   5  -7    1.20    6.00
  -5   5  -7   11.70    5.70
  -5   5  -7    7.60    7.70
   5  -5   7   12.40    6.10
   5  -5   7    5.80    8.30
   5  -5   7    9.70    4.40
   5  -5   7   15.60   10.30
  -6   5  -7  141.99   11.00
  -6   5  -7  171.98   11.30
  -6   5  -7  204.98   17.50
   6  -5   7  173.18   12.00
   6  -5   7  153.88   15.00
   6  -5   7  213.18   13.70
  -7   5  -7   54.69    8.50
  -7   5  -7   46.60    8.80
  -7   5  -7   46.70   11.50
   7  -5   7   44.60    9.80
   7  -5   7   43.60    8.80
   7  -5   7   42.80   12.70
  -8   5  -7   14.60   11.20
  -8   5  -7    9.10    9.90
  -8   5  -7   -3.40   13.30
   8  -5   7   10.90    9.70
   7   4  -7   -8.50   31.70
   7   4  -7    0.70    8.50
  -7  -4   7   -4.00   10.10
  -7  -4   7    4.30    9.30
  -7  -4   7    4.50   11.90
   6   4  -7    4.10   12.50
   6   4  -7    4.50    8.30
   6   4  -7   12.70    6.80
  -6  -4   7   11.50    9.20
  -6  -4   7   12.40    8.70
  -6  -4   7   10.70   21.00
  -6  -4   7   12.20    7.40
   5   4  -7   77.09   12.30
   5   4  -7   86.09    8.10
   5   4  -7   95.09   12.70
   5   4  -7   83.49    7.50
  -5  -4   7   77.69    8.20
  -5  -4   7   77.19   15.30
  -5  -4   7   85.29   10.40
  -5  -4   7   93.99   13.30
   4   4  -7  549.74   23.00
   4   4  -7  578.44   21.10
   4   4  -7  660.43   26.10
   4   4  -7  573.94   24.20
   4   4  -7  590.14   20.90
  -4  -4   7  617.64   22.70
  -4  -4   7  555.14   22.70
  -4  -4   7  617.74   24.70
  -4  -4   7  581.54   22.40
  -4  -4   7  567.24   27.10
   3   4  -7    7.90    4.80
   3   4  -7   10.70    3.90
   3   4  -7    8.20    6.10
   3   4  -7   13.00    7.10
   3   4  -7    9.40    6.60
   3   4  -7    7.20    3.50
  -3  -4   7    8.40    4.10
  -3  -4   7   14.30   13.70
  -3  -4   7    8.10    4.90
  -3  -4   7    4.60    5.10
  -3  -4   7    3.70    4.20
   2   4  -7   64.39    4.80
   2   4  -7   77.29    5.10
   2   4  -7   57.39    6.90
   2   4  -7   59.39    5.20
   2   4  -7   57.69    7.00
   2   4  -7   60.59    6.90
  -2  -4   7   57.09    6.90
  -2  -4   7   74.19    5.20
  -2  -4   7   59.19    3.90
  -2  -4   7   69.39    7.00
  -2  -4   7   92.89   10.10
  -2  -4   7   68.29    5.60
  -2  -4   7   59.99    5.70
   1   4  -7   32.80    3.30
   1   4  -7   23.10    5.80
   1   4  -7   31.40    3.20
   1   4  -7   28.60    5.30
   1   4  -7   34.80    6.20
   1   4  -7   23.90    3.30
  -1  -4   7   25.10    3.40
  -1  -4   7   27.10    4.10
  -1  -4   7   18.80    4.40
  -1  -4   7   29.70    3.00
  -1  -4   7   29.80    3.90
  -1  -4   7   43.50    9.00
  -1  -4   7   37.90    7.40
   0   4  -7    6.50    2.50
   0   4  -7    7.00    4.50
   0   4  -7    4.40    2.80
   0  -4   7    9.50    3.60
   0  -4   7    8.90    5.10
   0  -4   7    3.80    2.70
   0  -4   7    3.80    3.10
   0  -4   7    5.40    3.40
   0  -4   7    0.70    4.70
  -1   4  -7    0.80    3.90
  -1   4  -7   -0.60    3.90
  -1   4  -7    0.40    2.40
  -1   4  -7    0.00    2.70
   1  -4   7   -0.30    3.10
   1  -4   7   -2.20    4.90
   1  -4   7   -0.80    3.60
   1  -4   7   -0.40    2.60
   1  -4   7   -1.80    3.20
   1  -4   7   -1.30    4.00
  -2   4  -7  190.18    9.10
  -2   4  -7  187.58    8.60
  -2   4  -7  199.88   10.40
  -2   4  -7  199.18   11.20
  -2   4  -7  187.18   12.00
   2  -4   7  203.08   12.00
   2  -4   7  190.08   11.10
   2  -4   7  210.18   11.10
   2  -4   7  191.68    9.80
   2  -4   7  193.48   11.20
   2  -4   7  208.98    9.50
  -3   4  -7  170.38   12.60
  -3   4  -7  138.59    7.90
  -3   4  -7  156.18    8.90
  -3   4  -7  127.29   10.20
  -3   4  -7  154.88   10.10
   3  -4   7  138.49   10.80
   3  -4   7  116.19    8.10
   3  -4   7  146.79    8.80
   3  -4   7  145.69   11.30
   3  -4   7  139.19    5.60
  -4   4  -7   36.10    5.10
  -4   4  -7   26.70    5.80
  -4   4  -7   33.50    3.90
  -4   4  -7   20.30    8.50
  -4   4  -7   29.20    5.70
   4  -4   7   39.30    8.30
   4  -4   7   28.40    4.90
   4  -4   7   29.10    7.90
   4  -4   7   34.80    7.40
   4  -4   7   33.90    3.90
   4  -4   7   26.70    5.90
  -5   4  -7  118.99   10.80
  -5   4  -7  131.69    9.80
  -5   4  -7  130.19    8.40
  -5   4  -7  113.99    8.20
   5  -4   7   88.99   12.00
   5  -4   7   98.09   10.50
   5  -4   7  111.09    7.40
   5  -4   7  116.09   14.30
  -6   4  -7  284.17   14.80
  -6   4  -7  287.27   14.10
  -6   4  -7  286.77   18.90
   6  -4   7  246.88   15.20
   6  -4   7  298.37   19.70
   6  -4   7  256.07   14.50
  -7   4  -7   17.80    7.60
  -7   4  -7   20.10   12.20
  -7   4  -7   10.50    8.00
   7  -4   7   11.40    7.90
   7  -4   7   15.10   11.60
  -8   4  -7    0.90    9.60
  -8   4  -7   -1.20   13.60
  -8   4  -7   -7.70    9.40
   8  -4   7   10.80   15.50
   8  -4   7    8.20    9.10
   7   3  -7    9.80    7.40
   7   3  -7   21.20   13.70
   7   3  -7    4.00    9.50
  -7  -3   7    5.00   10.00
  -7  -3   7   24.40   10.60
  -7  -3   7   -7.30   20.20
  -7  -3   7   14.30    8.60
   6   3  -7   18.20   13.00
   6   3  -7   13.10    6.80
   6   3  -7   15.90    5.80
   6   3  -7    5.10   10.90
  -6  -3   7   19.00    6.80
  -6  -3   7   13.40    7.70
  -6  -3   7   13.70   14.60
  -6  -3   7   13.90    8.30
   5   3  -7   44.40    9.90
   5   3  -7   38.40    5.60
   5   3  -7   47.30    5.40
   5   3  -7   70.49   11.00
  -5  -3   7   53.79   11.60
  -5  -3   7   50.49    9.40
  -5  -3   7   62.09    6.80
  -5  -3   7   43.00    7.00
   4   3  -7  240.48   15.40
   4   3  -7  248.18   10.60
   4   3  -7  250.17   13.50
   4   3  -7  236.18   13.30
   4   3  -7  242.78   14.90
   4   3  -7  240.18   10.10
  -4  -3   7  247.48   11.60
  -4  -3   7  247.78   16.50
  -4  -3   7  235.78   12.10
  -4  -3   7  232.28   12.50
  -4  -3   7  227.28   13.40
   3   3  -7   16.50    5.70
   3   3  -7    6.50    4.00
   3   3  -7    7.60    5.50
   3   3  -7    4.00    2.70
   3   3  -7    2.00    2.40
   3   3  -7    9.60    5.30
  -3  -3   7    6.10    4.10
  -3  -3   7    4.50    3.50
  -3  -3   7    5.70    3.40
  -3  -3   7    9.10    3.70
  -3  -3   7    5.00    6.50
   2   3  -7  605.04   21.30
   2   3  -7  575.64   18.50
   2   3  -7  602.44   20.60
   2   3  -7  555.24   21.00
   2   3  -7  592.64   20.60
   2   3  -7  565.34   18.50
  -2  -3   7  577.14   20.90
  -2  -3   7  600.44   19.70
  -2  -3   7  569.54   18.30
  -2  -3   7  568.14   18.30
  -2  -3   7  589.74   19.70
  -2  -3   7  563.04   21.50
  -2  -3   7  581.24   20.30
  -2  -3   7  588.94   20.70
   1   3  -7    1.20    3.00
   1   3  -7    2.70    2.10
   1   3  -7    3.20    3.50
   1   3  -7    2.60    1.60
   1   3  -7    3.10    1.60
   1   3  -7    7.00    3.70
  -1  -3   7    0.00    2.30
  -1  -3   7    2.00    1.90
  -1  -3   7    3.10    4.30
  -1  -3   7   -0.70    2.80
  -1  -3   7    3.20    2.20
  -1  -3   7   -3.40    3.50
  -1  -3   7    0.00    3.70
   0   3  -7   22.40    2.20
   0   3  -7   19.80    3.90
   0   3  -7   20.40    3.40
   0   3  -7   20.80    2.20
   0  -3   7   16.90    3.80
   0  -3   7   22.80    1.80
   0  -3   7   21.30    3.80
   0  -3   7   17.60    2.90
   0  -3   7   24.30    3.00
   0  -3   7   22.20    4.20
  -1   3  -7  341.37   11.70
  -1   3  -7  343.77   11.70
  -1   3  -7  341.67   13.90
  -1   3  -7  355.36   13.80
   1  -3   7  349.77   12.40
   1  -3   7  343.17   13.70
   1  -3   7  338.07   12.50
   1  -3   7  337.47   13.80
   1  -3   7  317.07   13.40
   1  -3   7  340.87   13.60
  -2   3  -7  191.18    7.90
  -2   3  -7  195.38   10.00
  -2   3  -7  187.08   10.40
  -2   3  -7  185.38    8.20
   2  -3   7  186.78   10.40
   2  -3   7  177.68    6.60
   2  -3   7  190.98   10.10
   2  -3   7  171.68   10.00
   2  -3   7  199.58    8.80
   2  -3   7  190.38    8.50
  -3   3  -7   39.80    4.10
  -3   3  -7   44.10    4.60
  -3   3  -7   35.70    5.30
  -3   3  -7   37.70    3.40
  -3   3  -7   56.49    7.10
   3  -3   7   38.30    5.90
   3  -3   7   32.40    5.80
   3  -3   7   40.10    4.50
   3  -3   7   45.50    5.20
   3  -3   7   39.70    3.50
  -4   3  -7   -0.90    4.60
  -4   3  -7    4.30    6.60
  -4   3  -7    2.10    4.30
  -4   3  -7    5.50    3.60
  -4   3  -7    2.10    3.10
   4  -3   7    4.10    3.50
   4  -3   7    1.40    4.10
   4  -3   7    4.70    4.90
   4  -3   7   -2.30    5.10
   4  -3   7    2.00    5.80
   4  -3   7    2.50    5.70
  -5   3  -7    2.50    5.60
  -5   3  -7    1.30    4.30
  -5   3  -7    2.40    5.30
  -5   3  -7   -2.50    4.10
   5  -3   7    0.90    4.70
   5  -3   7    4.70    6.80
   5  -3   7    2.30    8.10
   5  -3   7   -2.40    4.20
  -6   3  -7   38.50    7.90
  -6   3  -7   53.09    7.40
   6  -3   7   66.79   11.00
   6  -3   7   52.59    8.00
   6  -3   7   42.00   11.90
   6  -3   7   54.79    7.90
  -7   3  -7   36.90    8.10
  -7   3  -7   35.20   10.70
   7  -3   7   37.90   12.40
   7  -3   7   44.50    8.30
  -8   3  -7  260.47   22.50
  -8   3  -7  278.27   19.50
  -8   3  -7  221.28   15.70
   8  -3   7  295.87   19.20
   8  -3   7  154.58   19.30
   8   2  -7   -3.60   16.90
   8   2  -7   -1.00    8.40
  -8  -2   7    7.50   11.40
  -8  -2   7    6.00   11.30
  -8  -2   7    4.60    9.70
   7   2  -7   -0.60    6.10
   7   2  -7   -3.80   12.60
  -7  -2   7    3.30   17.20
  -7  -2   7    3.40    8.30
  -7  -2   7    0.90    7.20
  -7  -2   7    5.40    8.70
   6   2  -7   21.70    5.10
   6   2  -7    8.90    5.60
   6   2  -7    9.80   10.20
   6   2  -7   17.60   11.20
  -6  -2   7   25.20    7.60
  -6  -2   7   21.40    7.20
  -6  -2   7   24.20   12.00
  -6  -2   7   18.20    6.10
   5   2  -7    9.70    7.90
   5   2  -7    6.90    7.80
   5   2  -7    8.80    3.90
   5   2  -7   13.40    3.70
   5   2  -7    4.00    6.70
  -5  -2   7    9.60    5.70
  -5  -2   7   18.60    8.90
  -5  -2   7    8.50    5.90
  -5  -2   7    8.60    4.50
  -5  -2   7   11.30    5.60
   4   2  -7  119.29   10.20
   4   2  -7  114.09    9.30
   4   2  -7  102.49    5.70
   4   2  -7  112.89    5.80
   4   2  -7  110.79    8.40
   4   2  -7  100.69    8.50
  -4  -2   7  104.29    7.80
  -4  -2   7  140.79    9.90
  -4  -2   7  115.59    7.40
  -4  -2   7  104.39    8.90
  -4  -2   7  109.09    7.20
   3   2  -7  100.59    8.80
   3   2  -7   99.39    4.20
   3   2  -7  108.39    7.90
   3   2  -7  101.79    7.50
   3   2  -7   98.99    4.30
   3   2  -7  117.09    7.40
  -3  -2   7  106.39    7.50
  -3  -2   7  103.99    6.30
  -3  -2   7  111.19    7.90
  -3  -2   7  103.09    4.40
  -3  -2   7  102.79    6.00
  -3  -2   7  101.79    7.30
   2   2  -7   63.19    5.10
   2   2  -7   62.09    4.70
   2   2  -7   63.09    4.80
   2   2  -7   66.99    5.20
  -2  -2   7   55.19    3.80
  -2  -2   7   76.39    5.60
  -2  -2   7   54.79    3.80
  -2  -2   7   58.99    4.20
  -2  -2   7   48.70    4.30
   1   2  -7  354.96   12.50
   1   2  -7  340.37   12.40
   1   2  -7  356.76   12.70
  -1  -2   7  337.77   12.40
  -1  -2   7  360.16   11.90
  -1  -2   7  368.86   12.40
  -1  -2   7  367.16   11.90
  -1  -2   7  363.56   12.60
  -1  -2   7  347.27   12.70
   0   2  -7   53.99    4.20
   0   2  -7   51.29    4.60
   0  -2   7   53.59    3.50
   0  -2   7   58.69    4.50
   0  -2   7   63.89    4.30
   0  -2   7   52.09    3.50
   0  -2   7   53.39    3.60
   0  -2   7   50.99    4.50
   0  -2   7   59.79    4.40
  -1   2  -7  388.06   13.70
  -1   2  -7  361.76   11.80
  -1   2  -7  366.36   13.80
  -1   2  -7  371.36   11.80
   1  -2   7  365.56   12.60
   1  -2   7  371.36   13.60
   1  -2   7  357.06   12.30
   1  -2   7  356.16   14.10
   1  -2   7  376.96   13.70
   1  -2   7  382.86   12.80
  -2   2  -7   11.40    3.20
  -2   2  -7    7.20    2.20
  -2   2  -7    8.00    3.80
  -2   2  -7   10.10    2.20
   2  -2   7    6.20    2.30
   2  -2   7    8.20    2.60
   2  -2   7   10.30    3.60
   2  -2   7    8.10    3.90
   2  -2   7    7.50    2.70
   2  -2   7    6.20    3.40
  -3   2  -7   44.70    6.20
  -3   2  -7   44.30    5.40
  -3   2  -7   57.29    5.20
  -3   2  -7   43.50    4.30
  -3   2  -7   53.09    4.30
   3  -2   7   50.09    4.30
   3  -2   7   50.59    6.00
   3  -2   7   49.20    4.60
   3  -2   7   38.10    5.90
   3  -2   7   49.20    6.30
   3  -2   7   44.80    4.80
  -4   2  -7   -2.10    4.90
  -4   2  -7    0.90    3.90
  -4   2  -7    2.90    3.40
  -4   2  -7    2.20    3.40
  -4   2  -7    3.50    6.30
   4  -2   7    0.40    4.40
   4  -2   7    1.60    3.90
   4  -2   7    0.20    5.30
   4  -2   7    0.20    5.60
   4  -2   7   -3.50    5.90
   4  -2   7    1.10    3.70
  -5   2  -7   19.60    4.90
  -5   2  -7   20.50    5.00
  -5   2  -7   15.30    5.50
  -5   2  -7   26.30    7.60
   5  -2   7   19.10    5.70
   5  -2   7    9.90    5.10
   5  -2   7   12.50    7.60
   5  -2   7   19.60    7.40
  -6   2  -7   39.50    6.90
  -6   2  -7   43.30    6.90
  -6   2  -7   28.10    8.00
   6  -2   7   35.60    6.70
   6  -2   7   30.40   11.00
   6  -2   7   25.60    9.70
   6  -2   7   31.20    7.90
  -7   2  -7    2.00    7.40
  -7   2  -7    6.40    7.80
  -7   2  -7    0.80    7.20
   7  -2   7   -0.80   11.20
   7  -2   7    4.90    7.40
  -8   2  -7  299.17   20.30
  -8   2  -7  333.07   21.00
  -8   2  -7  278.97   24.80
   8  -2   7  308.77   20.50
   8   1  -7    0.40    9.50
   8   1  -7   -2.20   14.50
   8   1  -7   -3.00    7.40
  -8  -1   7    3.50   17.30
  -8  -1   7   -3.70    8.90
  -8  -1   7   17.90   22.60
  -8  -1   7    5.50   10.20
   7   1  -7    0.70    3.80
   7   1  -7   -0.30    6.10
   7   1  -7    5.70   12.40
   7   1  -7    2.90    5.60
  -7  -1   7    3.40    8.50
  -7  -1   7    5.80    8.40
  -7  -1   7   -1.70   14.40
  -7  -1   7    1.80    6.80
   6   1  -7    4.50    4.30
   6   1  -7   -0.40   12.00
   6   1  -7    3.70    4.00
   6   1  -7    2.50    3.30
  -6  -1   7    0.50    3.00
  -6  -1   7    9.10    6.50
  -6  -1   7    5.10    7.20
  -6  -1   7    0.60    6.30
  -6  -1   7    3.10    9.90
  -6  -1   7    5.40    5.20
   5   1  -7    4.20    2.80
   5   1  -7    4.70    6.30
   5   1  -7    4.50    3.00
   5   1  -7    8.20    3.00
   5   1  -7    6.00    6.90
   5   1  -7    4.00    7.40
   5   1  -7    3.20    5.80
  -5  -1   7    9.60    2.90
  -5  -1   7    1.90    3.70
  -5  -1   7    4.30    4.70
  -5  -1   7    2.60    5.00
  -5  -1   7   10.40    5.00
  -5  -1   7    1.20    6.90
   4   1  -7    1.10    4.30
   4   1  -7    2.60    1.60
   4   1  -7    1.00    1.50
   4   1  -7   -1.10    4.60
   4   1  -7    0.80    5.20
   4   1  -7    1.40    5.40
  -4  -1   7    0.40    3.60
  -4  -1   7    0.00    3.20
  -4  -1   7    0.60    4.10
  -4  -1   7    0.00    4.70
  -4  -1   7   -0.10    2.40
  -4  -1   7    0.10    2.90
   3   1  -7    0.10    4.10
   3   1  -7   -1.70    3.40
   3   1  -7    0.80    3.00
  -3  -1   7   -0.90    2.20
  -3  -1   7   -1.60    3.20
  -3  -1   7    1.20    3.30
  -3  -1   7    0.00    2.10
  -3  -1   7   -1.70    2.50
  -3  -1   7    2.00    2.00
   2   1  -7  127.09    7.10
   2   1  -7  146.09    7.50
   2   1  -7  151.48    6.50
   2   1  -7  154.78    6.30
  -2  -1   7  146.39    5.60
  -2  -1   7  153.98    6.20
  -2  -1   7  159.68    7.60
  -2  -1   7  144.99    5.60
  -2  -1   7  155.58    6.80
  -2  -1   7  150.28    6.40
  -1  -1   7  187.28    8.10
  -1  -1   7  188.08    7.90
   0   1  -7 5051.39  151.58
   0   1  -7 5161.08  151.68
   0  -1   7 5092.89  151.18
   0  -1   7 5068.49  151.18
   0  -1   7 4935.41  151.38
   0  -1   7 5191.28  152.18
   0  -1   7 4998.30  151.38
  -1   1  -7  372.36   13.30
  -1   1  -7  338.87   12.40
   1  -1   7  325.97   12.30
   1  -1   7  333.77   11.50
   1  -1   7  328.07   12.40
   1  -1   7  335.57   12.10
   1  -1   7  351.36   11.60
  -2   1  -7   47.40    3.30
  -2   1  -7   45.70    3.30
  -2   1  -7   48.20    4.70
  -2   1  -7   62.09    5.60
   2  -1   7   60.39    4.40
   2  -1   7   48.00    3.80
   2  -1   7   58.69    5.50
   2  -1   7   55.29    5.20
   2  -1   7   53.69    4.40
  -3   1  -7  324.37   12.50
  -3   1  -7  337.77   15.20
  -3   1  -7  340.97   12.60
  -3   1  -7  348.07   13.20
  -3   1  -7  341.87   14.80
   3  -1   7  354.66   13.30
   3  -1   7  318.07   14.50
   3  -1   7  337.27   13.10
   3  -1   7  350.46   15.10
   3  -1   7  353.96   13.50
   3  -1   7  324.87   14.70
  -4   1  -7   10.40    4.30
  -4   1  -7   14.10    7.30
  -4   1  -7   17.30    5.50
  -4   1  -7   12.70    4.20
  -4   1  -7   13.70    3.80
   4  -1   7    8.60    6.30
   4  -1   7    3.40    3.80
   4  -1   7   18.70    5.10
   4  -1   7   10.70    4.60
   4  -1   7   18.60    5.90
   4  -1   7    8.10    5.40
  -5   1  -7    4.80    5.20
  -5   1  -7    7.20    4.90
  -5   1  -7   10.60    5.70
  -5   1  -7    5.80    4.60
   5  -1   7    3.50    7.70
   5  -1   7   10.20    5.10
   5  -1   7    4.50    6.20
   5  -1   7    7.30    7.30
  -6   1  -7    5.50    6.70
  -6   1  -7    3.90    6.70
  -6   1  -7   -0.70    6.00
   6  -1   7   -1.10    8.70
   6  -1   7    4.70    6.20
   6  -1   7    3.30   10.90
  -7   1  -7    6.70    9.50
  -7   1  -7    7.10    8.00
  -7   1  -7    8.00    7.50
   7  -1   7    5.90    7.70
   7  -1   7   11.60   13.20
  -8   1  -7    4.60   12.90
  -8   1  -7    5.80   10.60
  -8   1  -7    6.20   10.10
   8  -1   7   -3.50    9.10
   8  -1   7    2.10   15.70
   8   0  -7  601.54   23.60
   8   0  -7  560.64   24.30
   8   0  -7  611.14   23.20
  -8   0   7  598.64   29.30
  -8   0   7  595.64   38.30
  -8   0   7  647.94   26.70
  -8   0   7  632.54   29.30
   7   0  -7   18.30    6.20
   7   0  -7   16.10   11.40
   7   0  -7   20.80    6.10
   7   0  -7   21.60    5.30
  -7   0   7   14.50    7.70
  -7   0   7   21.10    8.00
  -7   0   7   27.80   13.60
  -7   0   7   23.00    7.10
  -7   0   7   19.80    5.60
   6   0  -7    2.50    8.10
   6   0  -7    6.30    4.40
   6   0  -7    2.60    3.50
  -6   0   7    4.30    6.30
  -6   0   7    2.20    5.10
  -6   0   7    7.40    6.60
  -6   0   7    6.00    6.00
  -6   0   7   -2.30    4.70
  -6   0   7    5.60    8.70
   5   0  -7   -1.20    3.40
   5   0  -7   -1.30    6.10
   5   0  -7   -1.40    5.80
   5   0  -7    0.60    2.20
   5   0  -7   -1.00    5.60
   5   0  -7    0.40    2.30
  -5   0   7    0.70    4.50
  -5   0   7    2.20    4.40
  -5   0   7   -1.70    3.20
  -5   0   7   -3.40    4.80
  -5   0   7    4.00    6.00
  -5   0   7    4.60    3.60
   4   0  -7   65.29    5.10
   4   0  -7   59.59    6.30
   4   0  -7   69.09    6.10
   4   0  -7   84.29    7.20
  -4   0   7   54.89    5.70
  -4   0   7   68.99    6.40
  -4   0   7   76.29    5.30
  -4   0   7   72.89    6.10
  -4   0   7   77.19    5.00
  -4   0   7   70.09    5.20
   3   0  -7   13.60    3.80
   3   0  -7   10.20    2.80
   3   0  -7    9.20    3.10
  -3   0   7    8.20    2.40
  -3   0   7    9.20    2.10
  -3   0   7   11.50    2.20
  -3   0   7    3.20    3.10
  -3   0   7    8.60    2.80
   2   0  -7  119.79    4.60
   2   0  -7  123.89    7.20
  -2   0   7  129.99    7.00
  -2   0   7  120.99    6.60
  -2   0   7  120.29    4.30
  -2   0   7  123.19    4.30
  -1   0   7  174.68    7.70
  -1   0   7  160.58    7.80
   0   0  -7 1203.48   36.90
   0   0   7 1198.48   36.40
   0   0   7 1220.58   36.40
   0   0   7 1212.68   36.70
  -1   0  -7   95.59    6.10
  -1   0  -7  107.39    5.80
   1   0   7   93.69    6.40
   1   0   7   97.39    6.10
   1   0   7   96.39    4.80
   1   0   7  105.09    5.70
   1   0   7   99.49    4.80
  -2   0  -7  728.93   24.80
  -2   0  -7  737.83   24.80
  -2   0  -7  693.13   22.60
  -2   0  -7  731.63   22.70
   2   0   7  712.93   23.40
   2   0   7  706.53   23.40
   2   0   7  683.13   24.50
   2   0   7  713.03   24.20
   2   0   7  739.53   25.00
  -3   0  -7  125.99    8.90
  -3   0  -7  134.69    7.10
  -3   0  -7  133.39    8.10
  -3   0  -7  118.99   10.40
  -3   0  -7  120.59    6.90
   3   0   7  123.79   10.20
   3   0   7  129.69    7.90
   3   0   7  112.99    9.20
   3   0   7  124.39    7.30
   3   0   7  111.39    8.30
  -4   0  -7   22.20    5.00
  -4   0  -7   30.30    6.50
  -4   0  -7   23.90    7.60
  -4   0  -7   23.30    4.80
  -4   0  -7   25.60    4.30
   4   0   7   22.10    6.60
   4   0   7   27.30    7.30
   4   0   7   24.00    5.80
   4   0   7   24.50    6.80
   4   0   7   23.10    7.50
   4   0   7   21.70    4.70
  -5   0  -7   16.40    6.00
  -5   0  -7    9.00    5.80
  -5   0  -7   10.70    6.60
  -5   0  -7   11.50    4.90
   5   0   7   13.90    8.10
   5   0   7    4.00    8.30
   5   0   7    8.00    5.00
   5   0   7    5.70    8.50
  -6   0  -7   13.90    6.50
  -6   0  -7   22.40    9.00
  -6   0  -7   30.70    8.00
   6   0   7   12.80    6.50
   6   0   7   21.90   13.40
   6   0   7   15.70    9.70
  -7   0  -7   -1.00    8.70
  -7   0  -7    0.50    7.80
  -7   0  -7    3.10   10.70
   7   0   7  -10.00   13.10
  -8   0  -7   19.90   15.90
  -8   0  -7   19.70   12.90
  -8   0  -7    7.50   11.80
   8   0   7   13.80   10.60
   8  -1  -7  925.01   43.00
   8  -1  -7  975.80   34.20
   8  -1  -7 1015.10   33.70
  -8   1   7 1046.60   39.40
  -8   1   7 1047.90   40.10
  -8   1   7  902.61   45.30
  -8   1   7  981.50   36.70
  -8   1   7 1027.60   35.40
   7  -1  -7   53.29   11.80
   7  -1  -7   45.90    5.80
   7  -1  -7   43.40    6.20
   7  -1  -7   39.00    8.00
  -7   1   7   44.70    9.00
  -7   1   7   50.29   13.20
  -7   1   7   55.99    9.80
  -7   1   7   49.50    7.40
  -7   1   7   42.20    7.20
   6  -1  -7    0.10    3.50
   6  -1  -7    1.10    8.40
   6  -1  -7   -0.70    5.50
   6  -1  -7    1.60    3.30
  -6   1   7    0.60    5.80
  -6   1   7   -8.70    6.10
  -6   1   7    4.10    8.20
  -6   1   7    3.60    5.00
  -6   1   7   -6.90    6.10
  -6   1   7    1.50    4.90
   5  -1  -7   23.20    6.10
   5  -1  -7   18.70    2.30
   5  -1  -7   19.70    6.60
   5  -1  -7   23.90    2.40
   5  -1  -7   14.60    6.20
   5  -1  -7   22.70    5.00
  -5   1   7   22.50    4.80
  -5   1   7   21.10    5.00
  -5   1   7    9.60    4.70
  -5   1   7   24.70    6.30
  -5   1   7   12.40    5.60
  -5   1   7   18.70    4.10
   4  -1  -7   19.50    4.20
   4  -1  -7   20.30    5.50
   4  -1  -7   34.30    5.30
   4  -1  -7   28.90    5.00
  -4   1   7   35.40    4.60
  -4   1   7   21.80    4.60
  -4   1   7   19.10    3.40
  -4   1   7   25.50    4.60
  -4   1   7   20.30    4.10
  -4   1   7   22.60    3.70
   3  -1  -7  347.17   14.50
   3  -1  -7  354.06   13.00
   3  -1  -7  349.96   13.80
  -3   1   7  352.26   14.30
  -3   1   7  321.07   12.00
  -3   1   7  343.37   12.00
  -3   1   7  372.56   12.80
  -3   1   7  372.56   13.90
   2  -1  -7   23.00    2.40
   2  -1  -7   23.80    2.60
   2  -1  -7   13.60    3.60
  -2   1   7   18.50    1.80
  -2   1   7    8.80    3.00
  -2   1   7   18.00    3.60
  -2   1   7   21.90    1.90
  -1   1   7  389.46   12.10
  -1   1   7  382.36   14.70
  -1   1   7  377.76   14.40
  -1   1   7  384.96   12.10
   0  -1  -7   22.70    3.50
   0   1   7   25.70    2.30
   0   1   7   17.70    3.30
   0   1   7   21.80    2.70
   0   1   7   23.90    3.00
   0   1   7   25.00    2.90
  -1  -1  -7   98.59    7.60
  -1  -1  -7  103.69    6.40
  -1  -1  -7  103.19    4.00
  -1  -1  -7  105.79    4.00
   1   1   7  105.09    7.30
   1   1   7  111.99    5.50
   1   1   7  109.99    6.50
   1   1   7  112.79    6.50
   1   1   7   98.69    7.40
   1   1   7  100.89    7.40
   1   1   7  108.09    5.50
  -2  -1  -7  336.37   11.80
  -2  -1  -7  344.47   15.00
  -2  -1  -7  347.97   14.20
  -2  -1  -7  334.37   11.90
   2   1   7  325.67   14.10
   2   1   7  327.07   14.00
   2   1   7  329.87   12.70
   2   1   7  347.77   12.70
   2   1   7  336.57   14.70
   2   1   7  291.47   13.90
  -3  -1  -7   87.99    6.00
  -3  -1  -7   81.89    5.70
  -3  -1  -7  118.89   15.20
  -3  -1  -7   79.69    7.80
   3   1   7   88.29    6.60
   3   1   7  107.19    9.70
   3   1   7   81.69    6.70
   3   1   7   71.79    7.00
  -4  -1  -7  510.55   21.70
  -4  -1  -7  523.95   20.20
  -4  -1  -7  485.85   18.90
  -4  -1  -7  509.05   18.60
   4   1   7  493.65   19.80
   4   1   7  483.15   22.30
   4   1   7  488.95   22.30
   4   1   7  500.65   21.20
  -5  -1  -7  435.96   21.20
  -5  -1  -7  368.66   17.80
  -5  -1  -7  398.26   19.20
  -5  -1  -7  411.26   17.10
   5   1   7  396.46   22.30
   5   1   7  399.56   22.80
  -6  -1  -7  216.38   14.50
  -6  -1  -7  159.28   13.90
  -6  -1  -7  217.38   13.60
   6   1   7  151.68   15.90
   6   1   7  205.78   14.60
  -7  -1  -7    3.40   10.90
  -7  -1  -7    7.40    9.70
  -7  -1  -7    2.50    8.20
   7   1   7    4.10    8.60
   7   1   7    7.50   13.90
   7   1   7   13.40   19.80
   8  -2  -7   15.50   14.80
   8  -2  -7   32.50    8.30
   8  -2  -7   43.20    7.00
  -8   2   7   14.20   18.20
  -8   2   7   29.20   10.70
  -8   2   7   40.60    9.00
  -8   2   7   33.00   11.10
  -8   2   7   37.30    9.60
   7  -2  -7    5.40   11.00
   7  -2  -7    6.30    5.30
   7  -2  -7    2.00    4.60
   7  -2  -7    3.00    8.10
  -7   2   7    9.10    7.50
  -7   2   7    0.00    7.60
  -7   2   7    9.40    7.20
  -7   2   7    2.40   11.90
  -7   2   7    7.60    6.50
   6  -2  -7   35.00    9.20
   6  -2  -7   31.40    4.00
   6  -2  -7   30.70    4.10
  -6   2   7   36.30    7.10
  -6   2   7   20.10    5.60
  -6   2   7   40.50    9.30
  -6   2   7   28.80    7.20
  -6   2   7   25.10    6.90
  -6   2   7   34.60    6.60
   5  -2  -7   24.00    6.50
   5  -2  -7   31.50    2.70
   5  -2  -7   33.90    7.20
   5  -2  -7   35.50    6.30
   5  -2  -7   30.10    2.70
  -5   2   7   38.80    7.00
  -5   2   7   32.30    5.50
  -5   2   7   37.10    6.10
  -5   2   7   31.30    5.80
  -5   2   7   25.20    6.30
  -5   2   7   29.10    4.80
   4  -2  -7    5.40    5.50
   4  -2  -7   13.00    5.10
   4  -2  -7    7.60    4.50
   4  -2  -7   11.10    4.70
  -4   2   7    6.10    3.70
  -4   2   7    8.70    3.70
  -4   2   7    7.50    4.10
  -4   2   7    6.70    4.10
  -4   2   7    5.10    3.10
  -4   2   7    1.90    4.30
   3  -2  -7   12.10    4.10
   3  -2  -7    9.30    3.90
   3  -2  -7    4.80    3.70
   3  -2  -7    8.80    3.90
  -3   2   7    6.70    2.70
  -3   2   7    6.60    3.00
  -3   2   7   10.90    4.20
  -3   2   7    7.10    3.30
  -3   2   7   10.90    4.10
  -3   2   7    8.70    2.50
   2  -2  -7    2.00    3.20
   2  -2  -7    0.10    3.10
   2  -2  -7   -0.20    3.10
  -2   2   7    1.70    2.70
  -2   2   7   -1.20    3.30
  -2   2   7   -1.00    2.90
  -2   2   7    1.60    2.20
  -2   2   7   -1.00    1.80
  -2   2   7   -0.90    2.30
   1  -2  -7   15.50    4.00
   1  -2  -7   20.10    3.10
   1  -2  -7   21.30    4.20
   1  -2  -7   19.70    3.60
  -1   2   7   20.30    2.40
  -1   2   7   22.40    3.20
  -1   2   7   14.40    3.10
  -1   2   7   21.20    2.60
  -1   2   7   14.20    3.80
   0  -2  -7  181.78    8.80
   0  -2  -7  188.58   10.20
   0   2   7  199.98    7.70
   0   2   7  184.08    7.80
   0   2   7  164.18    9.30
   0   2   7  177.98    8.70
   0   2   7  189.48    9.80
   0   2   7  204.58    8.80
  -1  -2  -7  627.34   19.80
  -1  -2  -7  647.44   22.30
  -1  -2  -7  643.84   19.90
  -1  -2  -7  614.44   22.70
   1   2   7  631.54   22.10
   1   2   7  638.64   22.50
   1   2   7  617.44   22.50
   1   2   7  588.34   22.30
   1   2   7  612.24   20.80
   1   2   7  609.24   21.90
   1   2   7  582.04   21.60
  -2  -2  -7  293.37   16.20
  -2  -2  -7  285.47   11.10
  -2  -2  -7  299.17   13.80
  -2  -2  -7  287.17   11.40
   2   2   7  294.47   12.30
   2   2   7  292.47   14.00
   2   2   7  302.97   12.10
   2   2   7  300.47   14.10
   2   2   7  294.77   13.60
   2   2   7  299.67   14.50
   2   2   7  270.37   13.30
  -3  -2  -7   85.19    9.10
  -3  -2  -7   74.39    6.20
  -3  -2  -7   70.79   11.10
  -3  -2  -7   65.69    5.50
   3   2   7   62.19    6.30
   3   2   7   82.09    7.90
   3   2   7   77.49    8.60
   3   2   7   58.69    7.90
   3   2   7   88.89    9.60
   3   2   7   50.89    7.20
  -4  -2  -7 2227.28   70.89
  -4  -2  -7 2222.38   67.39
   4   2   7 2212.18   69.09
   4   2   7 1759.52   72.69
   4   2   7 2256.47   71.49
   4   2   7 2196.38   70.09
   4   2   7 2126.99   67.99
  -5  -2  -7  201.48   14.90
  -5  -2  -7  234.88   16.80
  -5  -2  -7  250.27   13.40
   5   2   7  216.58   17.50
   5   2   7  190.48   13.50
   5   2   7  204.68   14.90
   5   2   7  190.48   16.40
   5   2   7  213.58   17.20
  -6  -2  -7   16.50    9.00
  -6  -2  -7   14.40    8.80
  -6  -2  -7   17.00    7.80
   6   2   7   22.00    8.80
   6   2   7   23.00    8.30
   6   2   7   16.80   12.70
   6   2   7   25.40   16.80
  -7  -2  -7   23.20   12.10
  -7  -2  -7   14.90   12.40
  -7  -2  -7   22.10   10.20
   7   2   7    0.90   19.50
   7   2   7    9.00   25.40
   7   2   7   31.70   10.70
   7   2   7   31.30   11.30
   8  -3  -7    1.80    6.40
   8  -3  -7   -3.70    7.70
   8  -3  -7   -3.50   14.80
  -8   3   7    0.40    8.80
  -8   3   7    3.10    9.40
  -8   3   7    3.60   18.60
  -8   3   7   -7.60   15.10
  -8   3   7    1.10   10.40
   7  -3  -7   41.40    5.70
   7  -3  -7   48.90   12.80
   7  -3  -7   42.80    6.30
  -7   3   7   50.89   10.20
  -7   3   7   30.30    8.60
  -7   3   7   40.10    9.10
  -7   3   7   50.89   13.60
  -7   3   7   24.90    7.40
   6  -3  -7    7.90    3.70
   6  -3  -7   18.10    9.40
   6  -3  -7    8.30    4.00
  -6   3   7   12.50    7.30
  -6   3   7   14.30    9.20
  -6   3   7    6.90    5.40
  -6   3   7    1.10    6.70
  -6   3   7    1.10    6.30
  -6   3   7   15.10    6.90
   5  -3  -7   14.70    2.80
   5  -3  -7   14.80    7.40
   5  -3  -7   12.90    2.90
   5  -3  -7   16.40    6.60
   5  -3  -7   10.20    6.90
  -5   3   7   16.40    5.60
  -5   3   7   16.50    4.60
  -5   3   7   18.10    5.80
  -5   3   7   14.80    7.10
  -5   3   7    5.40    6.20
  -5   3   7   17.50    6.10
   4  -3  -7  503.95   20.80
   4  -3  -7  504.35   20.30
   4  -3  -7  513.65   19.60
  -4   3   7  478.05   18.50
  -4   3   7  510.35   20.10
  -4   3   7  493.55   19.60
  -4   3   7  529.95   18.50
  -4   3   7  521.75   20.60
  -4   3   7  572.94   20.80
   3  -3  -7  126.09    8.90
   3  -3  -7  129.89    9.30
   3  -3  -7  114.19    9.30
   3  -3  -7  130.39    8.40
  -3   3   7  140.69    9.60
  -3   3   7  127.29    9.30
  -3   3   7  129.39    7.30
  -3   3   7  128.39    7.50
  -3   3   7  128.19    8.00
  -3   3   7  118.79    8.60
   2  -3  -7    0.70    4.10
   2  -3  -7   -0.70    4.00
   2  -3  -7    6.20    3.80
   2  -3  -7    8.60    5.00
  -2   3   7    3.90    3.50
  -2   3   7    4.40    2.60
  -2   3   7    7.80    4.30
  -2   3   7    4.60    3.00
  -2   3   7   10.30    4.30
  -2   3   7    3.70    3.20
   1  -3  -7   98.79    7.90
   1  -3  -7   97.69    7.20
   1  -3  -7  106.49    7.40
   1  -3  -7   97.09    7.90
  -1   3   7   93.19    6.20
  -1   3   7   96.69    7.20
  -1   3   7  108.49    7.90
  -1   3   7  100.79    5.90
   0  -3  -7   37.40    5.30
   0  -3  -7   23.40    7.00
   0  -3  -7   29.50    2.80
   0  -3  -7   33.60    3.00
   0   3   7   26.50    4.00
   0   3   7   29.60    5.10
   0   3   7   24.90    3.60
   0   3   7   30.20    4.80
   0   3   7   66.29    6.40
   0   3   7   28.80    5.30
  -1  -3  -7    9.70    2.80
  -1  -3  -7   15.80    5.40
  -1  -3  -7    9.50    7.30
  -1  -3  -7   16.70    4.80
   1   3   7   15.40    4.60
   1   3   7   12.80    5.20
   1   3   7   11.40    4.80
   1   3   7   18.20    3.70
   1   3   7    6.20    5.00
   1   3   7   23.50    4.40
   1   3   7   19.70    6.10
  -2  -3  -7    8.20    5.70
  -2  -3  -7    5.60    3.30
  -2  -3  -7    7.00    4.10
  -2  -3  -7   10.50    8.20
   2   3   7    5.10    5.00
   2   3   7    6.10    6.30
   2   3   7    8.10    6.40
   2   3   7    3.10    6.30
   2   3   7    3.20    5.30
   2   3   7    3.50    3.70
   2   3   7    6.60    5.00
  -3  -3  -7  784.02   27.00
  -3  -3  -7  774.72   26.60
  -3  -3  -7  801.02   30.10
   3   3   7  782.92   29.50
   3   3   7  752.02   30.40
   3   3   7  757.52   30.20
   3   3   7  760.12   27.50
   3   3   7  777.42   28.80
   3   3   7  774.62   29.00
  -4  -3  -7   39.80    9.50
  -4  -3  -7   44.10    8.00
  -4  -3  -7   41.80    6.30
   4   3   7   25.20    9.50
   4   3   7   41.50    7.10
   4   3   7   46.80   11.30
   4   3   7   32.20   10.30
   4   3   7   34.90    8.60
  -5  -3  -7   22.90    9.40
  -5  -3  -7   23.70    7.20
   5   3   7   36.10   12.40
   5   3   7   23.40    8.10
   5   3   7   21.50    7.70
   5   3   7   28.70   14.40
  -6  -3  -7    4.40   10.70
  -6  -3  -7   -1.90    8.30
   6   3   7   -7.50   20.50
   6   3   7    0.00    9.40
   6   3   7    1.50    9.00
   8  -4  -7    8.90    6.90
   8  -4  -7    7.80   16.10
  -8   4   7    3.00   11.90
  -8   4   7   -5.00   11.50
  -8   4   7    4.80    9.50
  -8   4   7   -7.20   10.70
   7  -4  -7    3.90    5.20
   7  -4  -7    3.60    6.20
   7  -4  -7    3.90   12.70
  -7   4   7    7.40    8.70
  -7   4   7    0.90   13.80
  -7   4   7   -0.20    7.10
  -7   4   7    2.60    8.70
  -7   4   7   -2.30    8.80
   6  -4  -7   20.50   11.00
   6  -4  -7   20.20   10.50
   6  -4  -7   20.60    5.00
  -6   4   7   32.10    8.40
  -6   4   7   23.70    7.10
  -6   4   7   21.20    7.70
  -6   4   7   15.70   11.10
  -6   4   7   22.10    8.30
   5  -4  -7   32.90    4.00
   5  -4  -7   43.10    4.40
   5  -4  -7   34.70    9.00
   5  -4  -7   33.00    9.10
  -5   4   7   34.40    7.10
  -5   4   7   45.80    7.90
  -5   4   7   37.00    7.30
  -5   4   7   38.80    8.90
  -5   4   7   38.40    6.10
  -5   4   7   43.90    8.80
   4  -4  -7  202.78    8.30
   4  -4  -7  204.78   14.70
   4  -4  -7  209.08    8.10
   4  -4  -7  220.18   13.40
   4  -4  -7  193.38   13.50
  -4   4   7  202.98   11.70
  -4   4   7  205.18   13.70
  -4   4   7  218.58   12.30
  -4   4   7  215.28   13.60
  -4   4   7  205.48   12.90
  -4   4   7  209.98   10.60
   3  -4  -7    2.80    5.20
   3  -4  -7    6.90    6.00
   3  -4  -7    0.30    2.20
   3  -4  -7    0.10    5.10
   3  -4  -7    3.70    6.40
   3  -4  -7    0.70    2.30
  -3   4   7    3.30    4.40
  -3   4   7   -0.50    4.80
  -3   4   7   -4.10    4.80
  -3   4   7    0.30    3.50
  -3   4   7   -0.70    4.40
  -3   4   7    3.10    5.10
   2  -4  -7  138.99    9.70
   2  -4  -7  132.99    6.00
   2  -4  -7  145.79   11.30
   2  -4  -7  144.29    6.20
   2  -4  -7  152.58   10.50
  -2   4   7  118.99    9.90
  -2   4   7  143.59    8.20
  -2   4   7  146.59   10.70
  -2   4   7  129.79    9.30
  -2   4   7  148.69   10.00
  -2   4   7  119.69    8.60
   1  -4  -7   56.99    7.20
   1  -4  -7   79.29    5.30
   1  -4  -7   76.79    7.20
   1  -4  -7   82.09    5.00
  -1   4   7   56.49    7.50
  -1   4   7   76.09    8.00
  -1   4   7   79.19    7.50
  -1   4   7   72.79    5.80
  -1   4   7   56.89    6.40
  -1   4   7   71.79    6.30
   0  -4  -7   83.49    5.20
   0  -4  -7   73.99    8.70
   0  -4  -7   66.59    7.70
   0  -4  -7   85.99    5.70
   0  -4  -7   69.29    7.90
   0  -4  -7   55.39    9.80
   0   4   7   80.69    8.50
   0   4   7   70.79    8.30
   0   4   7   88.79    6.60
   0   4   7   74.99    6.80
   0   4   7   72.99    7.50
   0   4   7   84.29    8.80
   0   4   7   82.69    8.10
  -1  -4  -7  136.09   11.20
  -1  -4  -7  128.09    7.70
  -1  -4  -7  115.59    8.10
  -1  -4  -7  154.98   13.70
   1   4   7  105.49    9.60
   1   4   7  129.79   10.10
   1   4   7  124.09    9.10
   1   4   7  106.39   10.20
   1   4   7  101.89    9.40
   1   4   7  131.99    8.90
  -2  -4  -7   44.10    5.40
  -2  -4  -7   47.00    6.40
  -2  -4  -7   59.59    8.70
   2   4   7   53.89    9.50
   2   4   7   33.70    8.30
   2   4   7   32.50    9.20
   2   4   7   46.10    7.30
   2   4   7   56.19    6.70
  -3  -4  -7  108.09   11.10
  -3  -4  -7   82.69    7.40
  -3  -4  -7   93.69    8.90
   3   4   7  101.09   12.40
   3   4   7  106.99    9.20
   3   4   7   69.79   10.80
   3   4   7   91.69   12.40
  -4  -4  -7   -1.70    8.60
   4   4   7   -0.50    6.60
   4   4   7    4.10   14.60
   4   4   7   -1.40   11.00
   4   4   7   -2.90    7.20
   4   4   7   -4.80   10.70
  -5  -4  -7   46.70   12.20
  -5  -4  -7   46.20    8.70
   5   4   7   34.10   13.30
   5   4   7   58.99   11.10
   5   4   7   66.59   10.10
   5   4   7   39.90   19.70
   7  -5  -7    3.30   13.90
   7  -5  -7  -16.10   15.40
   7  -5  -7   -1.90    7.30
  -7   5   7   -0.80    9.70
  -7   5   7   -1.60    9.80
  -7   5   7   -4.20   16.30
  -7   5   7    2.30    8.40
  -7   5   7    4.50    9.90
   6  -5  -7   21.20    5.10
   6  -5  -7   13.80   11.40
   6  -5  -7   14.00   12.80
   6  -5  -7   22.40    6.10
  -6   5   7   15.60    8.30
  -6   5   7   19.20    7.20
  -6   5   7   22.00    9.60
  -6   5   7   16.90    8.30
  -6   5   7   19.30   12.50
   5  -5  -7   53.09   11.00
   5  -5  -7   45.00    8.20
   5  -5  -7   68.99   12.20
   5  -5  -7   57.89    5.80
  -5   5   7   62.09    9.40
  -5   5   7   39.40    8.80
  -5   5   7   42.10    8.20
  -5   5   7   49.90    7.20
  -5   5   7   47.80   11.20
   4  -5  -7    1.10    7.40
   4  -5  -7    0.00    3.50
   4  -5  -7   -2.40    8.80
  -4   5   7    1.60    4.90
  -4   5   7    4.50    7.30
  -4   5   7   -0.20    8.70
  -4   5   7   -0.20    6.70
  -4   5   7    2.50    6.00
   3  -5  -7   28.20    3.80
   3  -5  -7   26.60    8.70
   3  -5  -7   21.30    7.10
  -3   5   7   29.10    7.60
  -3   5   7   31.90    7.70
  -3   5   7   41.20    5.80
  -3   5   7   17.20    6.30
  -3   5   7   26.70    6.50
  -3   5   7   22.80    6.40
   2  -5  -7   28.00    4.40
   2  -5  -7   33.60    7.40
   2  -5  -7   13.00    7.20
   2  -5  -7   29.90    4.00
  -2   5   7   21.50    5.20
  -2   5   7   32.10    6.40
  -2   5   7   28.70    7.10
  -2   5   7   25.20    6.30
  -2   5   7   31.10    7.70
   1  -5  -7  141.79   11.50
   1  -5  -7  105.89   10.90
   1  -5  -7  121.19    7.30
  -1   5   7   82.79    8.90
  -1   5   7  115.39   11.10
  -1   5   7  121.19   16.10
  -1   5   7  113.49    8.10
  -1   5   7  122.79    8.90
   0  -5  -7   22.70    4.40
   0  -5  -7   29.00    7.60
   0  -5  -7   22.10    5.20
   0  -5  -7    9.10    8.60
   0   5   7   24.20    7.10
   0   5   7   21.30    5.50
   0   5   7   30.90    9.60
   0   5   7   22.90    6.80
   0   5   7   29.00    7.90
  -1  -5  -7    8.90    6.70
  -1  -5  -7    8.60    4.60
  -1  -5  -7   17.00    5.70
   1   5   7   23.70   10.10
   1   5   7   12.30    7.30
   1   5   7   13.70    5.30
   1   5   7   10.30    8.10
   1   5   7   13.70    7.20
  -2  -5  -7   23.90    5.60
  -2  -5  -7   32.70    7.40
  -2  -5  -7   20.50    8.20
   2   5   7   25.50    6.70
   2   5   7   16.80    9.10
   2   5   7   23.80   10.80
   2   5   7   28.90    7.90
   2   5   7   29.60   11.90
  -3  -5  -7   65.29    7.70
  -3  -5  -7   37.20    9.70
   3   5   7   45.90   12.90
   3   5   7   52.69   13.80
   3   5   7   48.10   10.90
   3   5   7   48.80    9.80
   3   5   7   59.29    9.00
  -4  -5  -7   27.90   11.80
  -4  -5  -7   21.70    7.80
   4   5   7   16.50   12.80
   4   5   7   28.60   10.30
   4   5   7   22.10    9.00
   4   5   7   16.70   18.10
  -5  -5  -7   69.19   11.10
  -5  -5  -7   55.99   14.80
   5   5   7   90.99   13.30
   5   5   7   66.69   13.20
   5   5   7   44.60   16.70
   7  -6  -7    0.00    7.00
   7  -6  -7   -4.50   15.90
  -7   6   7    4.40   10.10
  -7   6   7    7.90   12.30
  -7   6   7   -1.30   10.80
  -7   6   7   -1.50   11.70
   6  -6  -7    5.60   13.00
   6  -6  -7    5.20    5.80
   6  -6  -7    9.70    7.30
  -6   6   7   12.00   10.70
  -6   6   7   14.10   15.70
  -6   6   7   11.00    8.20
  -6   6   7    5.50    9.60
  -6   6   7    7.00    9.60
   5  -6  -7    8.00    5.10
   5  -6  -7   16.20   11.50
   5  -6  -7   13.20    6.50
  -5   6   7    8.30    8.20
  -5   6   7   12.90    9.40
  -5   6   7   12.90    7.00
  -5   6   7   11.00   12.40
  -5   6   7   13.70    8.80
   4  -6  -7   27.60    5.40
   4  -6  -7    8.80   11.50
   4  -6  -7   25.70   10.50
   4  -6  -7   15.90    5.90
  -4   6   7   14.10    8.20
  -4   6   7   21.30    8.80
  -4   6   7   17.50   10.20
  -4   6   7    8.80    6.70
  -4   6   7   20.60    8.30
   3  -6  -7  230.68   17.70
   3  -6  -7  266.87   11.90
   3  -6  -7  245.78   16.90
   3  -6  -7  254.17   12.60
  -3   6   7  279.67   16.60
  -3   6   7  247.88   18.90
  -3   6   7  253.77   16.40
  -3   6   7  271.07   17.60
   2  -6  -7  117.69   13.60
   2  -6  -7  145.09    9.30
   2  -6  -7  147.69   12.70
   2  -6  -7  149.39    8.90
  -2   6   7  138.99   11.40
  -2   6   7  131.59   11.80
  -2   6   7  144.89   15.40
  -2   6   7  125.19   12.00
  -2   6   7  138.69   14.20
   1  -6  -7  101.89    8.20
   1  -6  -7  101.69   11.80
   1  -6  -7   78.49   12.70
   1  -6  -7   94.19    7.40
  -1   6   7  108.89   11.20
  -1   6   7  102.09   13.00
  -1   6   7   90.99    9.40
  -1   6   7  117.59   13.30
   0  -6  -7   46.10    9.40
   0  -6  -7   42.60    7.70
   0  -6  -7   50.59    6.60
   0   6   7   49.30    7.70
   0   6   7   59.99   12.30
   0   6   7   39.00   11.20
   0   6   7   34.60    8.80
   0   6   7   54.19   10.00
  -1  -6  -7   10.00    7.80
  -1  -6  -7    4.50    5.60
  -1  -6  -7    7.90    9.00
   1   6   7   -0.20    8.00
   1   6   7   11.80    8.40
   1   6   7   -2.10   12.70
   1   6   7   11.50   12.10
   1   6   7    6.20    6.50
  -2  -6  -7   28.00   10.40
   2   6   7   25.40   13.10
   2   6   7   17.30    9.50
   2   6   7   21.30    7.90
   2   6   7   20.80   10.60
   2   6   7   16.20   13.80
  -3  -6  -7   -0.90   12.20
  -3  -6  -7    5.60    7.80
   3   6   7    5.20   10.00
   3   6   7    2.80   12.40
   3   6   7    2.50    8.80
   3   6   7    1.30   18.70
  -4  -6  -7    7.40    9.10
   4   6   7    8.70   11.80
   4   6   7   14.10   13.90
   4   6   7   22.80   11.20
   6  -7  -7    0.60    7.00
   6  -7  -7    6.30   16.60
  -6   7   7    0.20    9.70
  -6   7   7    4.70   12.50
  -6   7   7   -4.30   10.90
  -6   7   7   10.40   12.40
   5  -7  -7   -1.40    8.60
   5  -7  -7    5.90    6.30
   5  -7  -7   -5.60   16.10
   5  -7  -7    9.50   12.40
  -5   7   7   14.60   17.00
  -5   7   7    2.90    9.60
  -5   7   7    8.20    8.60
  -5   7   7    3.90    9.80
   4  -7  -7   10.10   11.50
   4  -7  -7   19.30    8.30
   4  -7  -7   11.30   15.80
   4  -7  -7    1.80    5.80
  -4   7   7    5.30    9.50
  -4   7   7    7.90   10.80
  -4   7   7   15.70   13.60
  -4   7   7    7.90    9.00
  -4   7   7    8.10    8.00
   3  -7  -7   11.30    6.00
   3  -7  -7   14.20   13.20
   3  -7  -7   16.10   11.10
   3  -7  -7   16.40    8.00
  -3   7   7   19.50    9.30
  -3   7   7   18.30   10.20
  -3   7   7    6.70   13.90
  -3   7   7   18.80    7.90
  -3   7   7   21.80    9.00
   2  -7  -7   -2.30    5.80
   2  -7  -7   21.70   14.40
   2  -7  -7   -1.40   10.40
  -2   7   7    4.00    7.30
  -2   7   7   -8.90   12.10
  -2   7   7    0.70    9.80
  -2   7   7    5.30    8.90
  -2   7   7    9.70    8.70
   1  -7  -7   46.70   10.70
   1  -7  -7   61.79    9.40
   1  -7  -7   46.60    7.30
  -1   7   7   40.20   14.70
  -1   7   7   54.19    9.00
  -1   7   7   56.19   15.30
  -1   7   7   52.39   10.50
   0  -7  -7    5.60    6.60
   0  -7  -7   -2.20   14.40
   0  -7  -7   -6.90   10.40
   0   7   7    1.40    8.00
   0   7   7   12.30   16.10
   0   7   7    6.30   15.10
   0   7   7    1.60   10.10
   0   7   7    3.70    9.20
  -1  -7  -7   55.09    8.50
  -1  -7  -7   49.70   13.10
   1   7   7   39.60    9.30
   1   7   7   59.89   13.10
   1   7   7   49.60   12.20
   1   7   7   80.99   17.50
  -2  -7  -7   -0.80    8.30
  -2  -7  -7    3.50   13.60
   2   7   7    4.00   12.70
   2   7   7    6.60   11.00
   2   7   7    1.90    9.60
   4  -8  -7   -0.10    7.60
   4  -8  -7    3.90   15.00
  -4   8   7   -4.00   12.50
  -4   8   7    7.70   12.80
  -4   8   7   -1.60   11.50
   3  -8  -7   41.30    8.70
   3  -8  -7   47.10   15.60
   3  -8  -7   35.50   18.70
  -3   8   7   56.09   13.10
  -3   8   7   45.30   10.60
  -3   8   7   43.80   14.80
  -3   8   7   49.60   13.50
   2  -8  -7   19.00   13.00
   2  -8  -7   33.10    8.60
  -2   8   7   28.20   12.40
  -2   8   7   20.70    9.50
  -2   8   7   13.10   11.20
  -2   8   7   26.60   12.70
   1  -8  -7   17.20    8.60
   1  -8  -7   12.00   18.40
  -1   8   7   35.70   13.70
  -1   8   7   25.50   13.20
   0  -8  -7   -3.50   14.50
   0  -8  -7    3.40    8.80
   0   8   7    1.00    9.50
   0   8   7   -4.20   12.30
   0   8   7    2.40   13.60
   1   9  -8    0.80    9.40
   1   9  -8    5.30    8.30
  -1  -9   8   -1.50    9.60
  -1  -9   8   -3.40   11.60
   0   9  -8   -5.60    8.70
   0   9  -8    5.90    8.50
   0   9  -8    4.10   12.20
   0  -9   8   -7.70    8.70
   0  -9   8    4.10   12.00
  -1   9  -8    3.20    9.10
  -1   9  -8   -2.20    8.60
  -1   9  -8    3.50   12.60
   1  -9   8    2.30   11.60
  -2   9  -8   33.10    9.50
  -2   9  -8   41.70   11.20
  -2   9  -8   24.30   13.20
   2  -9   8   19.70   12.20
  -3   9  -8    0.50   13.40
  -3   9  -8   -8.90   10.60
  -3   9  -8   -1.60    8.80
   3  -9   8   -4.10   12.00
   3  -9   8    6.80   10.00
  -4   9  -8   15.10    9.80
  -4   9  -8   15.30   14.50
  -4   9  -8   18.40   14.00
   4  -9   8   14.00   13.00
   4  -9   8   25.90   11.30
   3   8  -8    1.20    9.00
   3   8  -8   23.10   14.60
  -3  -8   8    9.70   13.20
  -3  -8   8    3.40    9.90
   2   8  -8    3.50   13.40
   2   8  -8    1.60    7.80
   2   8  -8    9.80    8.40
  -2  -8   8    3.90    7.10
  -2  -8   8    2.80   11.30
  -2  -8   8    8.90    9.50
   1   8  -8    0.60    5.90
   1   8  -8    3.00    6.20
   1   8  -8    1.80    7.10
   1   8  -8   -1.00   13.10
  -1  -8   8   -3.00    7.80
  -1  -8   8   -2.80    8.50
  -1  -8   8    2.00    8.50
  -1  -8   8   13.70   17.30
   0   8  -8   -0.10    9.70
   0   8  -8    1.30    6.80
   0   8  -8   -2.50    6.60
   0  -8   8    8.30    9.20
   0  -8   8    3.00    7.60
   0  -8   8   -5.80   14.10
   0  -8   8   -2.90    9.30
  -1   8  -8    5.50    9.60
  -1   8  -8   10.70    6.80
  -1   8  -8    3.80    7.20
   1  -8   8    5.10   13.90
   1  -8   8   10.60    9.20
   1  -8   8    9.00    7.10
  -2   8  -8  -12.50   16.20
  -2   8  -8   20.10    7.30
  -2   8  -8   -0.60    7.70
   2  -8   8   -0.30   14.40
   2  -8   8    0.90    7.10
   2  -8   8   -2.00    8.70
  -3   8  -8   16.80    9.10
  -3   8  -8   28.90    7.80
  -3   8  -8   17.30   11.30
   3  -8   8   25.40   15.90
   3  -8   8   11.40   10.10
   3  -8   8   21.60    8.40
  -4   8  -8   -2.80    9.20
  -4   8  -8    1.90   11.20
  -4   8  -8    2.10    7.50
   4  -8   8    0.10    8.00
   4  -8   8    7.30   19.20
   4  -8   8   -5.10   10.10
  -5   8  -8   14.20   13.10
  -5   8  -8    0.50   11.30
  -5   8  -8    2.70    8.20
   5  -8   8   10.70   13.10
   5  -8   8   12.20    9.00
   5  -8   8   23.30   22.90
   4   7  -8   -2.70   12.80
   4   7  -8    8.00    8.20
  -4  -7   8    6.00   13.50
  -4  -7   8    7.50    9.30
  -4  -7   8    3.80    8.70
   3   7  -8  129.29   15.60
   3   7  -8  109.79   11.10
  -3  -7   8  100.09   24.10
  -3  -7   8  135.59   28.60
  -3  -7   8  125.89   10.20
  -3  -7   8  100.99   10.80
  -3  -7   8  102.39   14.00
   2   7  -8  135.89    9.70
   2   7  -8  103.79   13.30
   2   7  -8  132.29   17.00
   2   7  -8  120.79    9.20
  -2  -7   8  124.19    8.20
  -2  -7   8  119.89   21.40
  -2  -7   8  131.39   13.00
  -2  -7   8  115.89   10.20
  -2  -7   8  127.29   15.60
   1   7  -8   -0.30   11.20
   1   7  -8    0.60    7.10
   1   7  -8    3.90    9.20
   1   7  -8   -0.90    5.40
   1   7  -8    4.50    4.30
  -1  -7   8    5.00   12.50
  -1  -7   8    6.10    8.10
  -1  -7   8   -1.30    6.20
  -1  -7   8   -0.30    6.00
  -1  -7   8    7.50   15.60
   0   7  -8   82.39    7.80
   0   7  -8   82.89    7.70
   0   7  -8   75.69    8.90
   0  -7   8   66.19    7.70
   0  -7   8   79.39    8.90
   0  -7   8   85.19   10.20
   0  -7   8   93.99   13.10
   0  -7   8   34.70   14.20
  -1   7  -8    0.20    7.50
  -1   7  -8    3.90    5.90
  -1   7  -8    2.70    5.00
  -1   7  -8   -8.00    6.80
   1  -7   8   -7.60   11.00
   1  -7   8   -2.70    5.30
   1  -7   8    1.80    7.20
   1  -7   8   -0.60   11.30
   1  -7   8   -0.30    7.70
  -2   7  -8   64.49    7.30
  -2   7  -8   68.69   10.70
  -2   7  -8   56.89    8.00
   2  -7   8   68.29   13.50
   2  -7   8   41.50    6.90
   2  -7   8   22.30   12.00
   2  -7   8   41.50    9.00
  -3   7  -8   38.70   10.50
  -3   7  -8   25.00    7.80
   3  -7   8   24.50    7.30
   3  -7   8   33.60    9.50
   3  -7   8   18.50   12.00
   3  -7   8   19.70   12.50
  -4   7  -8   10.50    9.40
  -4   7  -8   18.90    8.90
  -4   7  -8   13.70    6.40
   4  -7   8    4.70    9.30
   4  -7   8   -0.30   13.80
   4  -7   8    6.30    6.90
  -5   7  -8   12.30    9.20
  -5   7  -8    3.90    7.00
  -5   7  -8    6.80    9.40
   5  -7   8    7.70    7.30
   5  -7   8   15.10   11.70
   5  -7   8   15.30   18.60
  -6   7  -8   40.40    5.70
  -6   7  -8   30.60   12.40
  -6   7  -8   41.20    9.20
   6  -7   8   16.70   17.80
   6  -7   8   28.30   19.70
   5   6  -8   25.00   14.70
  -5  -6   8   36.60    9.50
  -5  -6   8   39.00   10.10
  -5  -6   8   52.99   14.40
   4   6  -8   68.59    8.10
   4   6  -8   65.59   13.50
   4   6  -8   72.69    9.90
  -4  -6   8   75.59   11.80
  -4  -6   8   76.89    9.60
  -4  -6   8   85.59    9.30
  -4  -6   8   73.79   20.70
   3   6  -8   49.30   11.10
   3   6  -8   70.39   12.70
   3   6  -8   40.50    6.50
   3   6  -8   43.10    7.70
   3   6  -8   58.89    8.10
  -3  -6   8   48.80    7.50
  -3  -6   8   38.70    6.70
  -3  -6   8   50.49   16.40
  -3  -6   8   40.30    9.20
   2   6  -8   55.09    9.40
   2   6  -8   59.49    6.40
   2   6  -8   52.29   11.70
   2   6  -8   51.99    7.20
   2   6  -8   55.79    6.30
  -2  -6   8   60.19   15.00
  -2  -6   8   45.80    8.40
  -2  -6   8   58.49    6.00
  -2  -6   8   64.19    9.50
  -2  -6   8   50.59   11.90
   1   6  -8   -0.20    3.40
   1   6  -8   -5.20    7.20
   1   6  -8    0.40    5.20
   1   6  -8   -0.60    8.40
   1   6  -8   -0.70    4.20
  -1  -6   8    3.90    9.30
  -1  -6   8   -0.70    5.80
  -1  -6   8    3.30    4.70
  -1  -6   8    1.70    4.90
  -1  -6   8    5.50   11.10
   0   6  -8   97.99    7.50
   0   6  -8   96.09    7.20
   0   6  -8   86.99    7.00
   0  -6   8   75.49    7.20
   0  -6   8   57.99   11.20
   0  -6   8   88.29    8.80
   0  -6   8   92.59    7.80
   0  -6   8   98.79    9.90
   0  -6   8   98.19   11.40
  -1   6  -8  110.29    8.50
  -1   6  -8  102.19    7.40
  -1   6  -8  102.89    9.90
  -1   6  -8  110.89    8.30
   1  -6   8   95.29    8.50
   1  -6   8  126.79   10.70
   1  -6   8  117.99    9.30
   1  -6   8  111.29    8.70
   1  -6   8  107.89   11.60
  -2   6  -8  364.26   14.70
  -2   6  -8  341.47   18.30
  -2   6  -8  380.76   16.80
  -2   6  -8  360.66   15.60
   2  -6   8  351.76   15.50
   2  -6   8  320.57   21.90
   2  -6   8  325.77   19.90
   2  -6   8  306.77   20.20
   2  -6   8  316.87   17.30
  -3   6  -8   54.69    9.80
  -3   6  -8   49.10    7.30
  -3   6  -8   53.89    7.90
  -3   6  -8   50.49    6.20
   3  -6   8   49.10    8.70
   3  -6   8   47.10   10.90
   3  -6   8   34.90   10.60
  -4   6  -8   90.99    9.40
  -4   6  -8   80.19    7.70
  -4   6  -8   71.69   10.20
   4  -6   8   70.59   10.20
   4  -6   8   73.59    8.10
   4  -6   8   65.49   12.20
   4  -6   8   91.09   13.70
  -5   6  -8   32.20    4.10
  -5   6  -8   19.60    8.20
  -5   6  -8   31.00   11.30
  -5   6  -8   39.60    7.30
   5  -6   8   18.60   14.80
   5  -6   8   28.10    7.60
   5  -6   8   31.30   10.40
  -6   6  -8   16.90    5.60
  -6   6  -8   23.00    7.70
  -6   6  -8    8.20    9.90
   6  -6   8   19.40    8.20
   6  -6   8   10.00   11.00
   6  -6   8   16.20    6.30
  -7   6  -8    0.50   11.10
  -7   6  -8   -1.50    7.80
  -7   6  -8    3.20    8.90
   7  -6   8   -4.00   14.50
   7  -6   8    6.70   11.00
   6   5  -8    9.70    8.30
   6   5  -8   15.40   14.70
  -6  -5   8    1.10    9.90
  -6  -5   8   24.40   10.10
  -6  -5   8   -0.40   25.10
   5   5  -8   16.40    8.00
   5   5  -8   10.60   11.50
   5   5  -8   12.30    6.60
  -5  -5   8   19.70   18.20
  -5  -5   8    4.30    7.90
  -5  -5   8   10.90    7.70
  -5  -5   8    8.70    9.40
   4   5  -8   -2.80   10.00
   4   5  -8    1.70    5.90
   4   5  -8   -0.50    5.00
   4   5  -8    5.10    9.40
   4   5  -8   -0.40    7.70
  -4  -5   8   -0.10    7.60
  -4  -5   8    0.60    6.20
  -4  -5   8   -0.50    6.00
  -4  -5   8    3.90   13.70
   3   5  -8   77.19    6.60
   3   5  -8   59.89   10.00
   3   5  -8   52.99    7.20
   3   5  -8   68.39    9.50
   3   5  -8   61.49    6.00
  -3  -5   8   97.39   13.90
  -3  -5   8   68.39    6.80
  -3  -5   8   56.59    6.50
  -3  -5   8   58.19    8.40
   2   5  -8    7.20    4.20
   2   5  -8   -4.90    7.00
   2   5  -8    2.80    3.60
   2   5  -8    7.20    6.40
   2   5  -8    0.50    4.10
  -2  -5   8    5.00    2.80
  -2  -5   8    6.20    5.60
  -2  -5   8   -0.40    5.20
  -2  -5   8    6.40    7.00
  -2  -5   8    2.10    4.10
  -2  -5   8   -4.60   10.00
   1   5  -8    7.30    6.50
   1   5  -8   14.50    6.10
   1   5  -8    5.30    3.70
   1   5  -8    7.50    3.40
   1   5  -8    4.80    6.50
   1   5  -8    8.60    2.90
  -1  -5   8   12.70    4.30
  -1  -5   8    6.10    2.90
  -1  -5   8    2.40    7.20
  -1  -5   8    4.60    4.90
  -1  -5   8    9.50    5.00
   0   5  -8   51.39    4.70
   0   5  -8   54.49    8.20
   0   5  -8   45.20    7.00
   0   5  -8   52.99    5.00
   0  -5   8   54.19    5.50
   0  -5   8   23.10    8.70
   0  -5   8   46.10    6.30
   0  -5   8   60.19    6.40
   0  -5   8   55.49    5.80
   0  -5   8   52.59    7.50
  -1   5  -8   16.20    4.30
  -1   5  -8   12.30    5.50
  -1   5  -8   18.60    3.70
  -1   5  -8   16.60    7.00
   1  -5   8   11.30    4.10
   1  -5   8   21.20    5.40
   1  -5   8    8.00    6.30
   1  -5   8   12.80    6.70
   1  -5   8    8.20    4.70
   1  -5   8   14.50    4.80
  -2   5  -8  911.51   34.00
  -2   5  -8  897.81   33.30
  -2   5  -8  930.81   30.50
  -2   5  -8  949.01   30.30
  -2   5  -8  930.01   32.00
   2  -5   8  883.21   33.00
   2  -5   8  928.21   33.50
   2  -5   8  928.91   31.20
   2  -5   8  908.11   33.20
   2  -5   8  923.81   33.20
  -3   5  -8  215.18   12.00
  -3   5  -8  230.98   11.20
  -3   5  -8  222.48   14.50
  -3   5  -8  232.68   13.60
   3  -5   8  257.87   15.50
   3  -5   8  231.28   14.50
   3  -5   8  255.77   15.10
   3  -5   8  250.67   13.50
   3  -5   8  268.97   17.10
   3  -5   8  248.78   12.30
  -4   5  -8  438.06   21.20
  -4   5  -8  426.46   17.40
  -4   5  -8  448.56   18.60
   4  -5   8  461.15   21.90
   4  -5   8  418.36   18.10
   4  -5   8  435.36   14.40
  -5   5  -8  107.49    9.00
  -5   5  -8   83.99    6.20
  -5   5  -8   95.79   12.30
   5  -5   8   84.29   13.00
   5  -5   8   98.89    9.40
   5  -5   8   72.39   10.70
  -6   5  -8   10.90    6.60
  -6   5  -8    5.90   10.30
  -6   5  -8   16.80    6.00
   6  -5   8    9.60    7.90
   6  -5   8    9.50    6.50
   6  -5   8    6.30   10.30
  -7   5  -8   14.90   11.00
  -7   5  -8   27.80    8.10
  -7   5  -8   14.70    8.00
   7  -5   8   32.10   10.00
   7  -5   8   24.50    9.60
   7  -5   8   28.70   13.70
   7   4  -8    1.90    8.50
   7   4  -8   -8.20   16.50
  -7  -4   8   12.10   12.10
  -7  -4   8    4.50   10.20
  -7  -4   8   -1.10   10.50
   6   4  -8   66.49    8.00
   6   4  -8   65.29   14.50
  -6  -4   8   61.49    9.30
  -6  -4   8   73.19   10.30
  -6  -4   8   80.69   19.10
  -6  -4   8   69.09   11.60
   5   4  -8   -3.00   11.50
   5   4  -8    3.50   10.20
   5   4  -8    3.50    5.50
   5   4  -8    1.30    4.90
  -5  -4   8   -3.00    5.80
  -5  -4   8   -0.60   13.50
  -5  -4   8   -0.80    7.20
   4   4  -8   62.29    5.80
   4   4  -8   60.19    8.30
   4   4  -8   58.49    5.40
   4   4  -8   44.80   10.30
  -4  -4   8   70.49    8.20
  -4  -4   8   65.39   11.80
  -4  -4   8   44.70    6.60
  -4  -4   8   57.59    7.20
   3   4  -8    1.20    4.80
   3   4  -8    0.60    6.20
   3   4  -8    2.20    6.50
   3   4  -8    4.50    3.00
   3   4  -8   -2.30    7.10
   3   4  -8    1.50    3.50
  -3  -4   8    4.70    4.30
  -3  -4   8    2.00    8.50
  -3  -4   8    6.10    5.30
  -3  -4   8    7.60    5.20
  -3  -4   8    9.40    4.40
   2   4  -8   35.20    6.90
   2   4  -8   36.20    4.50
   2   4  -8   45.40    3.80
   2   4  -8   34.00    6.30
   2   4  -8   48.70    3.90
  -2  -4   8   42.10    4.80
  -2  -4   8   39.70    5.80
  -2  -4   8   40.90    5.30
  -2  -4   8   59.89    9.30
  -2  -4   8   45.70    3.40
  -2  -4   8   45.70    4.60
  -2  -4   8   42.40    6.90
   1   4  -8  149.88   10.00
   1   4  -8  147.89   10.70
   1   4  -8  145.09    6.70
   1   4  -8  144.69    6.70
   1   4  -8  155.18    6.60
   1   4  -8  145.59    9.50
  -1  -4   8  154.88    6.70
  -1  -4   8  153.78    8.40
  -1  -4   8  133.79    9.00
  -1  -4   8  135.49   11.30
  -1  -4   8  145.69    9.20
  -1  -4   8  150.18    8.00
  -1  -4   8  138.79    7.60
   0   4  -8  131.09    6.30
   0   4  -8  129.89    9.70
   0   4  -8  136.79    6.20
   0   4  -8  132.69    8.70
   0  -4   8  116.49    8.50
   0  -4   8  140.69    8.30
   0  -4   8  127.19    8.70
   0  -4   8  131.79    7.80
   0  -4   8  144.99    7.60
   0  -4   8  128.99   10.10
  -1   4  -8   28.60    5.30
  -1   4  -8   25.80    5.50
  -1   4  -8   28.20    3.50
  -1   4  -8   30.50    3.30
   1  -4   8   26.40    5.20
   1  -4   8   31.80    5.00
   1  -4   8   20.90    4.20
   1  -4   8   31.20    4.00
   1  -4   8   15.30    5.70
  -2   4  -8  802.42   26.60
  -2   4  -8  805.12   29.10
  -2   4  -8  792.32   29.50
   2  -4   8  815.32   28.90
   2  -4   8  807.92   28.90
   2  -4   8  851.31   27.40
   2  -4   8  840.52   29.70
   2  -4   8  804.02   27.50
   2  -4   8  827.42   29.00
  -3   4  -8   18.00    7.10
  -3   4  -8   11.30    4.20
  -3   4  -8   15.10    5.00
  -3   4  -8   20.60    3.90
   3  -4   8   25.70    6.90
   3  -4   8   17.40    4.50
   3  -4   8   23.30    5.30
   3  -4   8   20.50    6.20
   3  -4   8   28.40    6.60
   3  -4   8   18.20    2.20
  -4   4  -8 2067.39   64.29
  -4   4  -8 2081.49   67.59
  -4   4  -8 2108.19   64.49
  -4   4  -8 2077.69   62.89
   4  -4   8 1938.91   65.09
   4  -4   8 2087.19   67.49
   4  -4   8 1965.40   62.79
   4  -4   8 2071.69   67.69
   4  -4   8 2096.59   65.19
  -5   4  -8   16.30    5.20
  -5   4  -8   15.30    4.70
  -5   4  -8    9.60    7.40
  -5   4  -8   22.00    7.00
   5  -4   8    5.30    7.40
   5  -4   8   22.50    6.50
   5  -4   8   16.80   10.10
   5  -4   8   18.90    5.20
  -6   4  -8    1.70    8.60
  -6   4  -8   -2.70    6.00
  -6   4  -8    0.90    5.50
   6  -4   8    0.60    5.90
   6  -4   8    1.60    6.60
   6  -4   8    0.80    9.50
  -7   4  -8   18.30    7.60
  -7   4  -8    8.70    9.70
  -7   4  -8   17.00    8.50
   7  -4   8   18.00   12.40
   7  -4   8   25.30    9.10
  -8   4  -8   24.40   10.80
  -8   4  -8   25.20   16.70
  -8   4  -8   12.40   10.10
   8  -4   8   26.40   11.20
   7   3  -8  -18.50   13.30
   7   3  -8    9.80    7.00
  -7  -3   8    3.80    8.30
  -7  -3   8   -3.20   10.20
  -7  -3   8    2.50   21.80
  -7  -3   8   -3.80    9.90
   6   3  -8   26.10   11.60
   6   3  -8   59.49    6.70
   6   3  -8   45.30    6.80
  -6  -3   8   33.30    8.90
  -6  -3   8   42.10    9.70
  -6  -3   8   57.79   15.30
  -6  -3   8   44.90    7.60
   5   3  -8   -6.40    9.40
   5   3  -8    3.80    9.50
   5   3  -8    1.50    4.30
  -5  -3   8    2.40    6.20
  -5  -3   8    3.40    6.40
  -5  -3   8    0.50    9.80
  -5  -3   8    0.30    5.10
   4   3  -8  175.88   13.60
   4   3  -8  224.98   14.90
   4   3  -8  202.68    8.50
   4   3  -8  190.78   12.30
   4   3  -8  202.58   14.10
   4   3  -8  199.18    8.50
  -4  -3   8  198.98   15.60
  -4  -3   8  206.58   12.30
  -4  -3   8  203.88   10.50
  -4  -3   8  216.48   11.70
  -4  -3   8  183.08   11.70
   3   3  -8   55.19    6.70
   3   3  -8   47.50    5.70
   3   3  -8   50.89    6.70
   3   3  -8   44.80    3.10
   3   3  -8   50.69    6.90
   3   3  -8   49.70    3.20
  -3  -3   8   41.90    5.10
  -3  -3   8   35.30    4.90
  -3  -3   8   46.40    4.70
  -3  -3   8   55.49    7.60
  -3  -3   8   42.50    5.80
   2   3  -8  161.18    8.30
   2   3  -8  145.49    8.80
   2   3  -8  175.98    9.70
   2   3  -8  167.58    9.80
  -2  -3   8  158.68    7.10
  -2  -3   8  168.98    7.90
  -2  -3   8  153.78    8.90
  -2  -3   8  164.28    8.10
  -2  -3   8  188.08    9.30
  -2  -3   8  163.58    6.90
  -2  -3   8  175.68   10.80
  -2  -3   8  173.78    8.00
   1   3  -8   23.00    4.40
   1   3  -8   19.90    4.20
   1   3  -8   26.30    3.10
   1   3  -8   24.80    4.30
  -1  -3   8   22.80    4.40
  -1  -3   8   24.20    3.60
  -1  -3   8   20.20    2.80
  -1  -3   8   21.90    3.00
  -1  -3   8   16.00    3.60
  -1  -3   8   20.50    5.20
   0   3  -8  302.27   12.70
   0   3  -8  294.97   12.30
   0  -3   8  297.27   11.50
   0  -3   8  318.47   12.40
   0  -3   8  316.27   11.30
   0  -3   8  313.87   10.30
   0  -3   8  301.07   12.60
   0  -3   8  309.07   12.30
   0  -3   8  317.07   12.60
  -1   3  -8  177.78    6.90
  -1   3  -8  184.38    6.80
  -1   3  -8  173.78    9.70
  -1   3  -8  184.68    9.30
   1  -3   8  194.08    8.00
   1  -3   8  174.58    9.50
   1  -3   8  182.18    9.60
   1  -3   8  183.18    8.20
   1  -3   8  171.38    9.00
   1  -3   8  175.38    6.20
   1  -3   8  182.78    9.90
   1  -3   8  182.38    6.20
  -2   3  -8  160.78    7.20
  -2   3  -8  160.58    9.30
  -2   3  -8  152.48   10.30
  -2   3  -8  159.78    7.00
   2  -3   8  160.28   10.40
   2  -3   8  152.78    8.30
   2  -3   8  150.28    9.90
   2  -3   8  164.68    9.80
   2  -3   8  179.98    8.20
   2  -3   8  156.78    6.20
  -3   3  -8  256.27   10.90
  -3   3  -8  264.37   13.30
  -3   3  -8  253.87   10.60
   3  -3   8  255.47   11.50
   3  -3   8  262.47   11.90
   3  -3   8  259.67   10.10
   3  -3   8  254.07   13.70
   3  -3   8  274.97   14.60
   3  -3   8  271.67   13.60
  -4   3  -8   80.19    6.70
  -4   3  -8   69.49    6.20
  -4   3  -8   97.19   10.00
  -4   3  -8  102.49   11.50
  -4   3  -8   77.79    5.80
   4  -3   8   96.29    9.30
   4  -3   8   87.19    9.60
   4  -3   8   80.69    9.40
   4  -3   8   79.19    7.20
   4  -3   8   90.39    8.10
   4  -3   8   85.69    6.10
  -5   3  -8   64.39    7.60
  -5   3  -8   91.49   11.20
  -5   3  -8   69.09    7.10
  -5   3  -8   62.79    6.30
   5  -3   8   52.19   10.20
   5  -3   8   77.59    8.10
   5  -3   8   74.19   10.00
   5  -3   8   58.69    6.70
  -6   3  -8  100.19    8.80
  -6   3  -8  104.49   12.10
  -6   3  -8   87.39    9.90
   6  -3   8   91.69   14.30
   6  -3   8  126.39   12.90
   6  -3   8  123.39   10.90
   6  -3   8  119.09   10.10
  -7   3  -8    9.60    7.50
  -7   3  -8   13.30    9.40
  -7   3  -8   17.30    8.10
   7  -3   8   21.10   12.70
   7  -3   8    9.40    7.90
  -8   3  -8   27.00   15.60
  -8   3  -8   23.20   10.40
  -8   3  -8   33.20   10.60
   8  -3   8   28.80   10.30
   8  -3   8   19.00   15.90
   8   2  -8   -1.20   16.70
   8   2  -8   -3.90    7.90
  -8  -2   8    6.50   10.30
  -8  -2   8   12.30   12.20
  -8  -2   8    1.10   11.50
   7   2  -8    0.40   12.20
   7   2  -8   -6.40    6.50
   7   2  -8   -0.10    5.80
  -7  -2   8    6.10    7.70
  -7  -2   8   -4.80    8.90
  -7  -2   8   -1.80    9.00
  -7  -2   8    2.60   16.60
   6   2  -8   65.59    5.90
   6   2  -8   49.30   10.90
   6   2  -8   63.69   12.10
  -6  -2   8   68.69    9.50
  -6  -2   8   53.69    7.40
  -6  -2   8   72.19   13.40
  -6  -2   8   73.79    9.50
   5   2  -8   14.80    8.10
   5   2  -8   12.60    8.10
   5   2  -8   14.40    3.30
   5   2  -8   18.00    3.30
  -5  -2   8    6.30    7.00
  -5  -2   8   18.50    6.00
  -5  -2   8   11.60    5.90
  -5  -2   8   18.00    8.60
  -5  -2   8   15.50    4.70
   4   2  -8   31.70    6.90
   4   2  -8   23.70    6.20
   4   2  -8   26.40    6.60
   4   2  -8   38.70    7.40
  -4  -2   8   20.20    6.60
  -4  -2   8   32.90    5.00
  -4  -2   8   34.10    5.70
  -4  -2   8   30.60    5.40
  -4  -2   8   33.10    4.50
   3   2  -8  189.38   10.70
   3   2  -8  168.68    9.80
   3   2  -8  174.98    9.90
   3   2  -8  202.58    9.70
  -3  -2   8  173.28    8.40
  -3  -2   8  187.78    8.20
  -3  -2   8  188.18    7.30
  -3  -2   8  206.88    9.90
  -3  -2   8  170.68   10.30
  -3  -2   8  181.88    9.20
   2   2  -8   19.90    3.40
   2   2  -8   20.90    3.60
   2   2  -8   20.90    3.80
   2   2  -8   15.40    3.60
  -2  -2   8   22.40    2.90
  -2  -2   8   13.90    2.60
  -2  -2   8   23.50    4.00
  -2  -2   8   18.90    2.60
  -2  -2   8   19.60    3.40
   1   2  -8   78.49    5.30
  -1  -2   8   81.79    4.30
  -1  -2   8   76.39    5.10
  -1  -2   8   85.79    5.90
  -1  -2   8   78.19    4.10
  -1  -2   8   76.89    4.80
  -1  -2   8   67.59    4.40
   0   2  -8  587.04   19.80
   0  -2   8  652.43   21.10
   0  -2   8  596.14   19.00
   0  -2   8  584.14   19.50
   0  -2   8  603.14   19.00
   0  -2   8  577.24   19.20
   0  -2   8  573.04   19.60
  -1   2  -8   68.69    6.00
  -1   2  -8   65.79    5.30
   1  -2   8   54.19    5.30
   1  -2   8   66.79    5.90
   1  -2   8   61.49    4.00
   1  -2   8   59.29    4.00
   1  -2   8   56.49    4.20
  -2   2  -8  583.54   21.60
  -2   2  -8  594.34   19.10
  -2   2  -8  632.04   19.10
  -2   2  -8  586.04   21.30
   2  -2   8  594.94   21.30
   2  -2   8  594.24   21.40
   2  -2   8  579.04   20.10
   2  -2   8  591.44   20.80
   2  -2   8  611.84   22.00
   2  -2   8  589.44   19.60
  -3   2  -8   98.49    8.60
  -3   2  -8   94.09    6.00
  -3   2  -8  102.79    6.60
  -3   2  -8  106.69    8.70
   3  -2   8  105.89    9.00
   3  -2   8  104.79    6.80
   3  -2   8  104.49    7.20
   3  -2   8  105.49    9.20
   3  -2   8  103.89    7.60
   3  -2   8   87.69    8.40
  -4   2  -8  529.35   21.70
  -4   2  -8  518.55   18.90
  -4   2  -8  542.35   19.00
  -4   2  -8  522.05   22.90
  -4   2  -8  513.35   18.70
   4  -2   8  527.85   22.00
   4  -2   8  497.95   19.10
   4  -2   8  495.65   21.80
   4  -2   8  492.65   19.80
   4  -2   8  507.75   21.70
   4  -2   8  534.85   19.50
  -5   2  -8  446.36   18.90
  -5   2  -8  467.85   21.80
  -5   2  -8  493.25   18.80
  -5   2  -8  492.45   18.50
   5  -2   8  483.85   19.30
   5  -2   8  447.36   19.20
   5  -2   8  463.65   22.90
   5  -2   8  444.16   22.50
  -6   2  -8  188.28   13.00
  -6   2  -8  160.78   14.60
  -6   2  -8  170.38   12.30
   6  -2   8  167.68   16.20
   6  -2   8  161.38   14.90
   6  -2   8  181.18   12.30
  -7   2  -8  115.89   11.20
  -7   2  -8  106.39   14.00
  -7   2  -8  149.49   11.60
   7  -2   8  162.98   12.80
   7  -2   8   88.09   14.40
  -8   2  -8    3.20   10.60
  -8   2  -8   10.40   10.20
  -8   2  -8   -0.50   14.30
   8  -2   8    1.70    9.80
   8  -2   8    8.60   15.60
   8   1  -8   11.90    7.10
   8   1  -8   10.60   16.20
  -8  -1   8   18.10   10.80
  -8  -1   8   13.10    9.80
  -8  -1   8   23.50   12.50
   7   1  -8   -5.20   11.80
   7   1  -8   -4.10    4.90
   7   1  -8    0.60    5.40
  -7  -1   8   -1.10    7.60
  -7  -1   8    3.00   14.30
  -7  -1   8   -2.50    7.00
  -7  -1   8   10.70    8.70
   6   1  -8   22.90   10.00
   6   1  -8   24.00    9.80
   6   1  -8   15.80    3.80
   6   1  -8   34.50    4.00
  -6  -1   8   24.50    7.70
  -6  -1   8   20.20    3.70
  -6  -1   8   18.60    5.90
  -6  -1   8   23.50    7.00
  -6  -1   8   20.70   10.40
  -6  -1   8   24.40    7.50
   5   1  -8    1.80    8.90
   5   1  -8    6.20    6.30
   5   1  -8   -0.30    6.90
   5   1  -8   -2.50    7.20
  -5  -1   8    2.50    7.10
  -5  -1   8    7.20    5.70
  -5  -1   8   -0.20    4.00
  -5  -1   8    2.80    3.00
  -5  -1   8    2.80    4.90
  -5  -1   8    0.30    4.90
   4   1  -8   -0.70    4.90
   4   1  -8   -2.40    5.80
   4   1  -8    0.20    4.70
   4   1  -8    2.20    4.60
  -4  -1   8   -2.20    4.80
  -4  -1   8    0.20    3.40
  -4  -1   8   -0.30    3.00
  -4  -1   8   -2.10    3.60
  -4  -1   8    1.60    4.40
  -4  -1   8   -2.30    2.70
   3   1  -8   21.60    3.90
   3   1  -8    9.60    4.20
   3   1  -8   15.10    3.70
  -3  -1   8   16.00    2.80
  -3  -1   8   18.10    3.00
  -3  -1   8   16.80    3.20
  -3  -1   8    7.50    3.70
  -3  -1   8   18.10    2.70
   2   1  -8  143.19    7.80
   2   1  -8  128.09    5.40
  -2  -1   8  131.19    5.10
  -2  -1   8  125.49    7.30
  -2  -1   8  134.59    5.10
  -2  -1   8  128.59    6.70
  -1  -1   8  102.69    6.00
  -1  -1   8  105.89    6.30
   0   1  -8   78.39    4.10
   0   1  -8   86.99    4.40
   0  -1   8   84.79    5.10
   0  -1   8   79.49    3.50
   0  -1   8   81.99    4.00
   0  -1   8   72.89    3.40
  -1   1  -8  218.78    9.40
  -1   1  -8  223.28    9.10
   1  -1   8  209.38    8.20
   1  -1   8  222.58    8.20
   1  -1   8  230.88    9.20
   1  -1   8  223.18    9.00
   1  -1   8  212.58    9.30
  -2   1  -8  479.15   17.70
  -2   1  -8  470.05   15.10
  -2   1  -8  480.85   17.50
  -2   1  -8  463.15   15.10
   2  -1   8  469.35   16.60
   2  -1   8  469.05   17.60
   2  -1   8  443.16   17.20
   2  -1   8  476.25   16.20
   2  -1   8  464.15   16.20
  -3   1  -8   57.29    4.40
  -3   1  -8   47.50    5.80
  -3   1  -8   68.89    8.00
  -3   1  -8   49.50    4.40
   3  -1   8   53.09    4.90
   3  -1   8   49.40    6.40
   3  -1   8   62.89    5.40
   3  -1   8   58.79    5.60
   3  -1   8   72.69    7.50
  -4   1  -8   50.59    7.80
  -4   1  -8   47.30    5.00
  -4   1  -8   42.60    5.50
  -4   1  -8   53.79    9.50
  -4   1  -8   47.20    5.40
   4  -1   8   41.20    6.00
   4  -1   8   33.70    5.20
   4  -1   8   44.10    8.00
   4  -1   8   44.20    5.90
   4  -1   8   38.90    6.90
   4  -1   8   48.80    8.00
  -5   1  -8    7.40    5.50
  -5   1  -8    8.00    5.80
  -5   1  -8   16.80    5.20
  -5   1  -8    5.80    5.80
   5  -1   8    6.00    5.10
   5  -1   8   14.90    7.20
   5  -1   8    8.80    8.00
   5  -1   8   11.80    8.20
  -6   1  -8  262.67   18.40
  -6   1  -8  293.77   17.70
   6  -1   8  237.08   18.60
   6  -1   8  229.18   19.90
   6  -1   8  249.18   15.50
  -7   1  -8    8.30    9.10
  -7   1  -8    6.80   10.30
  -7   1  -8    7.20    7.90
   7  -1   8   11.20   12.60
   7  -1   8    1.40    7.70
  -8   1  -8   13.50   11.30
   8   0  -8  197.38   14.70
   8   0  -8  198.68   13.50
   8   0  -8  208.58   12.30
  -8   0   8  190.48   14.30
  -8   0   8  221.58   19.30
  -8   0   8  250.17   28.10
  -8   0   8  215.88   13.30
   7   0  -8   11.00   12.70
   7   0  -8   16.30    6.20
   7   0  -8   11.90    5.80
   7   0  -8   15.90    4.40
  -7   0   8   13.10    7.00
  -7   0   8   11.40    5.80
  -7   0   8   13.50    8.20
  -7   0   8   17.90   12.60
  -7   0   8   11.20    8.00
   6   0  -8  214.68   11.50
   6   0  -8  221.28   17.10
  -6   0   8  208.18   16.80
  -6   0   8  241.78   14.10
  -6   0   8  237.18   14.80
  -6   0   8  185.78   10.80
  -6   0   8  223.48   12.30
  -6   0   8  216.88   13.60
   5   0  -8    1.40    3.80
   5   0  -8    6.20    6.70
   5   0  -8    0.70    5.40
  -5   0   8    3.40    4.70
  -5   0   8    1.30    4.60
  -5   0   8    2.20    6.10
  -5   0   8    3.90    5.30
  -5   0   8    0.40    3.70
  -5   0   8    0.00    4.30
   4   0  -8   47.90    5.00
   4   0  -8   45.50    6.20
   4   0  -8   60.59    5.80
  -4   0   8   51.29    5.30
  -4   0   8   52.09    5.00
  -4   0   8   44.50    4.50
  -4   0   8   56.59    4.50
  -4   0   8   54.29    5.20
  -4   0   8   36.20    5.30
   3   0  -8   52.29    4.00
   3   0  -8   42.20    5.40
   3   0  -8   39.30    4.40
   3   0  -8   43.80    4.00
   3   0  -8   59.19    5.00
  -3   0   8   48.40    3.30
  -3   0   8   44.30    4.60
  -3   0   8   43.30    3.30
  -3   0   8   47.50    4.10
  -3   0   8   45.40    3.60
  -3   0   8   50.39    5.60
  -2   0   8  330.17   13.60
  -2   0   8  370.96   13.70
  -1   0   8   18.30    3.50
  -1   0   8   11.90    3.00
   0   0   8  682.73   21.10
   0   0   8  715.53   23.70
   0   0   8  666.83   20.90
   0   0   8  674.43   21.00
  -1   0  -8   86.49    6.20
  -1   0  -8   88.89    5.70
   1   0   8   97.79    6.40
   1   0   8   86.79    4.90
   1   0   8   98.29    4.80
   1   0   8   85.79    6.50
   1   0   8   78.09    5.40
  -2   0  -8   16.00    4.10
  -2   0  -8   14.10    2.10
  -2   0  -8   13.00    4.60
  -2   0  -8   12.60    2.10
   2   0   8   11.90    4.10
   2   0   8   16.00    3.20
   2   0   8   12.40    3.90
   2   0   8   12.50    3.30
   2   0   8   17.50    5.10
  -3   0  -8  201.28    9.10
  -3   0  -8  214.38    8.90
  -3   0  -8  226.88   13.20
  -3   0  -8  194.68   11.60
   3   0   8  223.28   12.70
   3   0   8  198.68   11.10
   3   0   8  209.18   12.10
   3   0   8  191.78   10.20
   3   0   8  207.48    9.90
  -4   0  -8   44.10    6.20
  -4   0  -8   52.59    8.20
  -4   0  -8   46.80    5.70
  -4   0  -8   42.90    5.00
   4   0   8   51.39    8.20
   4   0   8   54.49    8.50
   4   0   8   42.00    6.50
   4   0   8   43.10    7.10
   4   0   8   59.19    9.40
   4   0   8   35.00    5.50
  -5   0  -8   10.10    7.90
  -5   0  -8   13.50    6.40
  -5   0  -8   10.30    5.10
  -5   0  -8   42.40    7.20
   5   0   8   27.00    7.60
   5   0   8    6.70    8.60
   5   0   8   14.70   10.20
  -6   0  -8   45.30    7.70
  -6   0  -8   42.30    8.80
  -6   0  -8   46.40   11.00
   6   0   8   43.60   15.10
   6   0   8   42.10    8.10
   6   0   8   46.10   12.30
  -7   0  -8   10.60    8.50
  -7   0  -8    0.90   10.70
  -7   0  -8   12.70    9.40
   7   0   8    5.50   13.90
   8  -1  -8    4.00   14.50
   8  -1  -8    1.90    9.30
   8  -1  -8    9.30    6.60
  -8   1   8    8.60   10.40
  -8   1   8   14.70    9.10
  -8   1   8   13.90    8.30
  -8   1   8   11.40   18.20
   7  -1  -8    9.50    3.80
   7  -1  -8    5.00    3.80
   7  -1  -8    3.10   12.40
   7  -1  -8    5.30    7.20
  -7   1   8    8.70    6.60
  -7   1   8    7.90   11.70
  -7   1   8    7.10    6.50
  -7   1   8   10.00    8.00
  -7   1   8   11.10    8.60
   6  -1  -8    8.10    5.80
   6  -1  -8   -1.60    8.40
  -6   1   8   10.50    6.40
  -6   1   8    9.40    7.20
  -6   1   8   10.70    5.50
  -6   1   8   15.20    6.80
  -6   1   8   11.30    5.50
  -6   1   8   10.80    8.40
   5  -1  -8   -0.70    4.70
   5  -1  -8    0.50    6.20
   5  -1  -8    1.30    5.50
  -5   1   8    1.50    5.70
  -5   1   8    4.40    4.50
  -5   1   8    3.90    4.50
  -5   1   8   -0.70    5.40
  -5   1   8   10.80    4.90
  -5   1   8   -1.20    3.70
   4  -1  -8   17.00    5.10
   4  -1  -8   18.60    6.30
   4  -1  -8   14.90    4.50
   4  -1  -8   18.10    4.70
  -4   1   8   16.90    3.90
  -4   1   8   15.60    3.30
  -4   1   8   11.70    4.50
  -4   1   8   18.40    4.30
  -4   1   8   16.30    3.80
  -4   1   8   12.60    4.30
   3  -1  -8  233.18   11.10
   3  -1  -8  232.68    9.70
   3  -1  -8  243.08    9.20
   3  -1  -8  233.38    9.50
  -3   1   8  239.38   10.90
  -3   1   8  234.78    8.80
  -3   1   8  230.68    8.70
  -3   1   8  241.18    9.10
  -3   1   8  226.68   11.20
  -3   1   8  234.28    9.00
   2  -1  -8  226.28    7.20
   2  -1  -8  203.48   10.30
  -2   1   8  202.18   10.10
  -2   1   8  215.08   10.30
  -2   1   8  205.18    7.30
  -2   1   8  211.88    7.30
  -1   1   8  310.37   10.00
  -1   1   8  303.67   10.10
  -1   1   8  321.67   12.80
  -1   1   8  325.67   13.10
   0  -1  -8 1005.60   32.80
   0   1   8 1061.19   32.60
   0   1   8 1076.69   34.80
   0   1   8 1037.40   32.20
   0   1   8 1024.70   32.50
   0   1   8 1058.19   32.60
  -1  -1  -8  345.17   13.60
  -1  -1  -8  345.27   14.20
   1   1   8  351.46   14.30
   1   1   8  352.86   12.60
   1   1   8  355.46   13.50
   1   1   8  339.97   12.50
   1   1   8  383.26   13.70
   1   1   8  357.76   14.00
   1   1   8  348.17   14.70
  -2  -1  -8 1010.80   31.30
  -2  -1  -8  998.50   33.90
  -2  -1  -8  975.70   34.20
  -2  -1  -8  998.70   31.40
   2   1   8 1022.30   32.50
   2   1   8 1036.60   34.30
   2   1   8 1019.70   34.30
   2   1   8 1012.00   32.40
   2   1   8  992.00   33.90
   2   1   8  974.10   33.40
   2   1   8 1003.60   33.90
  -3  -1  -8  228.18   15.40
  -3  -1  -8  261.57   13.50
  -3  -1  -8  247.48   10.30
  -3  -1  -8  234.68   10.50
   3   1   8  249.58   14.10
   3   1   8  245.88   14.40
   3   1   8  237.98   11.40
   3   1   8  239.18   13.60
   3   1   8  253.47   12.00
   3   1   8  236.58   14.20
  -4  -1  -8  211.38   10.80
  -4  -1  -8  207.88   14.10
  -4  -1  -8  226.38   11.70
   4   1   8  215.08   15.50
   4   1   8  194.28   12.70
   4   1   8  210.68   14.10
   4   1   8  204.48   15.40
  -5  -1  -8    7.70    7.00
  -5  -1  -8    1.20    6.90
  -5  -1  -8   -3.70    6.90
  -5  -1  -8   -0.40    5.30
   5   1   8    4.40   10.10
   5   1   8    3.10    6.30
   5   1   8   -2.40   10.80
   5   1   8    5.60    9.20
  -6  -1  -8   60.59   11.10
  -6  -1  -8   75.89    8.90
  -6  -1  -8  106.19   11.30
   6   1   8   72.39   18.60
   6   1   8   74.79   10.00
   6   1   8   70.79   13.20
  -7  -1  -8   31.00    9.70
  -7  -1  -8   30.20   12.90
  -7  -1  -8   43.80   12.00
   7   1   8   21.60   15.00
   7   1   8   31.80   22.20
   7   1   8   42.60   11.10
   8  -2  -8   16.00    5.50
   8  -2  -8   -3.90   14.90
  -8   2   8   17.50    8.80
  -8   2   8   26.40   11.20
  -8   2   8    9.50   23.30
  -8   2   8   17.30   13.00
  -8   2   8   16.80   10.40
   7  -2  -8    4.40    3.60
   7  -2  -8    1.30   12.50
   7  -2  -8   -3.00    8.60
  -7   2   8    4.40   11.40
  -7   2   8   -2.50    6.70
  -7   2   8    3.80    8.90
  -7   2   8   -1.80    7.00
  -7   2   8    0.60    7.50
   6  -2  -8  187.68   14.30
   6  -2  -8  188.58   16.10
  -6   2   8  203.28   13.40
  -6   2   8  207.48   12.00
  -6   2   8  191.08   16.70
  -6   2   8  212.18   13.30
  -6   2   8  197.88   13.70
  -6   2   8  208.38   14.70
   5  -2  -8   25.50    7.20
   5  -2  -8   25.10    6.20
   5  -2  -8   18.10    6.50
  -5   2   8   25.80    6.40
  -5   2   8   15.10    7.10
  -5   2   8   24.60    5.50
  -5   2   8   26.20    4.70
  -5   2   8   24.20    5.90
  -5   2   8   22.30    5.50
   4  -2  -8   40.90    6.10
   4  -2  -8   54.09    6.10
   4  -2  -8   65.19    6.80
   4  -2  -8   60.19    6.40
  -4   2   8   60.29    5.90
  -4   2   8   64.69    5.90
  -4   2   8   50.69    6.30
  -4   2   8   61.89    5.10
  -4   2   8   48.30    6.30
  -4   2   8   61.59    5.30
   3  -2  -8   51.29    5.10
   3  -2  -8   33.20    5.40
   3  -2  -8   49.60    4.90
  -3   2   8   46.60    4.30
  -3   2   8   40.50    5.90
  -3   2   8   44.20    4.00
  -3   2   8   47.70    4.70
  -3   2   8   43.10    5.60
  -3   2   8   38.70    3.60
   2  -2  -8   14.70    4.20
   2  -2  -8   12.90    4.50
   2  -2  -8   17.00    3.50
  -2   2   8   15.60    2.90
  -2   2   8   16.80    2.90
  -2   2   8   16.70    2.60
  -2   2   8   13.50    2.70
  -2   2   8   15.50    4.50
  -2   2   8   10.90    3.80
   1  -2  -8   41.60    5.50
   1  -2  -8   42.50    5.60
  -1   2   8   46.40    3.50
  -1   2   8   44.10    4.20
  -1   2   8   49.00    3.40
  -1   2   8   51.19    5.80
  -1   2   8   48.90    4.10
   0  -2  -8   62.19    5.30
   0  -2  -8   71.19    6.70
   0   2   8   59.79    6.20
   0   2   8   73.99    5.60
   0   2   8   61.09    4.20
   0   2   8   61.19    5.10
   0   2   8   63.99    4.50
   0   2   8   58.09    5.00
  -1  -2  -8  279.37    9.40
  -1  -2  -8  263.17   13.80
  -1  -2  -8  275.77    9.40
  -1  -2  -8  282.57   12.60
   1   2   8  275.47   13.00
   1   2   8  285.17   13.40
   1   2   8  281.27   12.50
   1   2   8  271.87   12.40
   1   2   8  277.57   11.30
   1   2   8  270.67   11.00
   1   2   8  292.37   13.50
  -2  -2  -8   45.90    9.80
  -2  -2  -8   45.50    4.90
  -2  -2  -8   39.00    6.00
  -2  -2  -8   48.90    4.10
   2   2   8   43.50    6.70
   2   2   8   39.10    6.70
   2   2   8   42.80    6.50
   2   2   8   47.30    5.50
   2   2   8   19.70    6.60
   2   2   8   42.80    4.90
   2   2   8   36.50    7.20
  -3  -2  -8  306.97   12.80
  -3  -2  -8  305.67   13.30
  -3  -2  -8  305.57   18.60
   3   2   8  343.97   16.20
   3   2   8  301.57   16.70
   3   2   8  360.46   14.40
   3   2   8  326.17   15.00
   3   2   8  327.87   17.70
   3   2   8  295.37   16.80
  -4  -2  -8   65.99   11.40
  -4  -2  -8   65.49    6.60
  -4  -2  -8   60.79    9.40
   4   2   8   62.09   10.40
   4   2   8   71.79   10.80
   4   2   8   70.69   11.60
   4   2   8   69.49    9.40
  -5  -2  -8   32.40   10.00
  -5  -2  -8   21.70    6.50
   5   2   8   17.70   14.40
   5   2   8   33.50    8.60
   5   2   8   31.60   11.20
   5   2   8   28.90   12.50
   5   2   8   24.50    6.80
  -6  -2  -8   23.00    8.50
  -6  -2  -8   16.40   11.50
  -6  -2  -8   24.00   10.30
   6   2   8   14.60   13.60
   6   2   8   22.90   10.00
   6   2   8  -11.20   16.80
   6   2   8   17.90    9.20
   8  -3  -8   -1.30    5.10
   8  -3  -8    0.30   15.60
  -8   3   8    5.80   10.40
  -8   3   8   -2.50    9.10
  -8   3   8    3.90   11.30
  -8   3   8   -3.00   10.00
   7  -3  -8    3.70   11.50
   7  -3  -8    3.90   11.50
  -7   3   8   11.90   13.00
  -7   3   8   -3.50    8.60
  -7   3   8    2.30    7.10
  -7   3   8    6.10    9.40
  -7   3   8    3.60    8.10
   6  -3  -8   87.29   11.50
  -6   3   8   72.59   11.20
  -6   3   8   55.29    8.90
  -6   3   8   59.89    9.20
  -6   3   8   75.59    7.90
  -6   3   8   61.69    8.80
  -6   3   8   73.49   10.60
   5  -3  -8   17.40    6.90
   5  -3  -8   24.10    7.90
   5  -3  -8   14.50    7.70
  -5   3   8   29.20    6.30
  -5   3   8   31.90    5.50
  -5   3   8   27.20    6.10
  -5   3   8   18.40    6.50
  -5   3   8   28.60    7.10
  -5   3   8   32.10    7.50
   4  -3  -8  129.09    9.10
   4  -3  -8  121.09   10.90
   4  -3  -8  128.09   11.40
   4  -3  -8  103.99    9.40
  -4   3   8  151.38   10.70
  -4   3   8  128.89    9.10
  -4   3   8  112.29    7.60
  -4   3   8  128.09   10.00
  -4   3   8  110.79    8.90
  -4   3   8  131.99    7.90
   3  -3  -8    3.10    5.00
   3  -3  -8   -0.10    5.10
   3  -3  -8    0.90    4.20
   3  -3  -8    0.10    4.70
  -3   3   8    2.30    3.50
  -3   3   8    3.70    4.60
  -3   3   8    3.90    4.70
  -3   3   8    1.80    4.10
  -3   3   8    1.00    3.00
  -3   3   8    3.50    3.70
   2  -3  -8   28.30    4.80
   2  -3  -8   31.10    5.60
   2  -3  -8   19.60    6.10
   2  -3  -8   24.40    5.90
  -2   3   8   29.90    4.10
  -2   3   8   29.60    5.60
  -2   3   8   28.80    6.00
  -2   3   8   29.60    4.40
  -2   3   8   37.40    4.90
  -2   3   8   28.70    3.70
   1  -3  -8   16.00    6.00
   1  -3  -8   12.80    5.10
   1  -3  -8   22.40    4.40
   1  -3  -8   12.10    5.50
  -1   3   8   14.00    4.30
  -1   3   8   17.60    5.00
  -1   3   8   17.40    5.00
  -1   3   8   11.40    5.10
  -1   3   8   12.00    3.40
   0  -3  -8  135.19    5.10
   0  -3  -8  130.59   10.20
   0  -3  -8  136.99    5.20
   0  -3  -8  149.29    9.30
   0   3   8  156.78   10.40
   0   3   8  133.39    9.30
   0   3   8  141.09    9.00
   0   3   8  133.19    7.50
   0   3   8  134.39    8.20
   0   3   8  149.09    9.20
  -1  -3  -8  746.63   23.90
  -1  -3  -8  694.43   28.30
  -1  -3  -8  751.52   23.90
  -1  -3  -8  776.62   27.20
   1   3   8  744.93   27.10
   1   3   8  718.33   27.60
   1   3   8  709.93   27.40
   1   3   8  797.12   27.30
   1   3   8  750.82   25.40
   1   3   8  731.23   25.40
   1   3   8  743.63   26.80
  -2  -3  -8  589.54   23.70
  -2  -3  -8  545.15   20.20
  -2  -3  -8  584.24   20.10
   2   3   8  604.34   23.50
   2   3   8  600.44   21.40
   2   3   8  576.94   21.80
   2   3   8  579.44   23.70
   2   3   8  584.74   24.20
   2   3   8  600.24   25.60
  -3  -3  -8   22.20    4.80
  -3  -3  -8   22.60    7.80
  -3  -3  -8   36.20    6.20
   3   3   8   31.60    9.70
   3   3   8   23.50    9.00
   3   3   8   32.00    9.00
   3   3   8   21.40    5.70
   3   3   8   35.00   11.70
  -4  -3  -8   30.60    6.20
  -4  -3  -8   23.50    8.10
  -4  -3  -8   33.60    8.00
   4   3   8   46.80    7.60
   4   3   8   24.20   10.10
   4   3   8   31.30   10.90
   4   3   8   22.70   12.60
   4   3   8   26.60    7.80
  -5  -3  -8   63.69   12.30
  -5  -3  -8   60.89    8.40
   5   3   8   66.49   14.50
   5   3   8   34.60   17.90
   5   3   8   38.80    8.70
   5   3   8   53.29   10.20
  -6  -3  -8   13.30   14.00
  -6  -3  -8   11.00    8.80
   6   3   8   14.80    9.90
   6   3   8   25.00   11.40
   6   3   8   14.60   15.80
   6   3   8    4.60   20.90
   8  -4  -8   -6.70   17.10
   8  -4  -8    0.10    5.40
  -8   4   8   -3.90   14.00
  -8   4   8   -4.00    9.50
  -8   4   8   -3.10   12.60
  -8   4   8    3.80   11.80
   7  -4  -8   53.89   14.40
   7  -4  -8   28.30   13.80
   7  -4  -8   40.80    4.30
  -7   4   8   26.90   10.10
  -7   4   8   40.40   15.50
  -7   4   8   37.10   10.00
  -7   4   8   40.40    8.80
  -7   4   8   46.70   10.20
   6  -4  -8   64.29   12.30
   6  -4  -8   44.90   11.40
  -6   4   8   54.99    9.60
  -6   4   8   59.99    9.20
  -6   4   8   60.49   12.20
  -6   4   8   46.30    9.80
   5  -4  -8   61.69   10.50
   5  -4  -8   94.19   10.70
  -5   4   8   77.39   10.30
  -5   4   8   65.19    9.30
  -5   4   8   84.79    7.80
  -5   4   8   76.29   10.20
  -5   4   8   76.09   10.00
  -5   4   8   61.89    8.50
   4  -4  -8    7.40    7.60
   4  -4  -8    2.90    8.40
   4  -4  -8   11.20    6.90
  -4   4   8    2.80    5.60
  -4   4   8    5.60    6.50
  -4   4   8    7.50    5.30
  -4   4   8    5.10    7.40
  -4   4   8    5.80    5.40
  -4   4   8    5.70    4.40
   3  -4  -8   32.00    7.90
   3  -4  -8   38.10    6.80
   3  -4  -8   37.80    7.50
  -3   4   8   36.90    7.20
  -3   4   8   46.30    6.90
  -3   4   8   38.50    6.00
  -3   4   8   50.49    5.30
  -3   4   8   47.90    6.90
  -3   4   8   50.39    6.10
   2  -4  -8   17.70    7.80
   2  -4  -8   32.00    7.00
   2  -4  -8   45.50    6.50
  -2   4   8   46.20    5.60
  -2   4   8   36.30    6.30
  -2   4   8   24.50    5.90
  -2   4   8   47.00    6.10
  -2   4   8   32.80    6.30
  -2   4   8   32.60    4.70
   1  -4  -8   14.80    5.50
   1  -4  -8   15.50    7.90
   1  -4  -8   11.00    2.40
   1  -4  -8   12.10    2.30
   1  -4  -8   14.20    6.30
  -1   4   8    3.90    5.20
  -1   4   8    7.80    6.30
  -1   4   8   12.30    4.00
  -1   4   8    9.70    4.70
  -1   4   8    5.60    5.60
   0  -4  -8    1.80    2.80
   0  -4  -8    7.00    3.30
   0  -4  -8    5.70    9.20
   0  -4  -8    7.90    7.20
   0  -4  -8    7.90    5.60
   0   4   8    0.80    6.80
   0   4   8    4.30    5.10
   0   4   8    5.10    6.00
   0   4   8   -0.30    5.40
   0   4   8    4.40    3.90
   0   4   8   -1.60    4.70
  -1  -4  -8  184.08    9.20
  -1  -4  -8  159.58   12.30
  -1  -4  -8  147.89    8.20
   1   4   8  147.59   12.30
   1   4   8  172.58   15.90
   1   4   8  145.59   11.30
   1   4   8  153.38    9.90
   1   4   8  167.18   12.30
   1   4   8  145.29    9.80
  -2  -4  -8   -2.20    4.00
  -2  -4  -8    1.30    6.30
  -2  -4  -8    1.20    5.40
   2   4   8   10.60    7.30
   2   4   8    1.90    8.20
   2   4   8   -3.90    7.10
   2   4   8    7.80    9.30
   2   4   8    1.30    5.20
  -3  -4  -8   70.19    8.60
  -3  -4  -8   67.19    7.10
  -3  -4  -8   59.39   10.80
   3   4   8   71.39   13.20
   3   4   8   63.49   12.50
   3   4   8   63.29    9.20
   3   4   8   49.20    7.50
   3   4   8   50.99   10.30
  -4  -4  -8    1.60   10.00
   4   4   8   -2.10   13.70
   4   4   8    3.20   12.50
   4   4   8   -4.10   11.50
   4   4   8   -5.80    7.20
   4   4   8   -0.70    8.60
  -5  -4  -8   31.90   13.90
  -5  -4  -8   38.20    8.90
   5   4   8   11.30   18.60
   5   4   8   35.60   11.80
   5   4   8   25.50   14.50
   5   4   8   40.60   10.50
   7  -5  -8   18.20   15.50
   7  -5  -8   24.00    5.00
   7  -5  -8   15.60   16.60
   7  -5  -8   20.60    5.50
  -7   5   8   18.90   10.50
  -7   5   8   20.00   11.40
  -7   5   8   22.00    9.60
  -7   5   8   13.40   11.80
   6  -5  -8   43.00   14.10
   6  -5  -8   64.29   13.40
  -6   5   8   53.29    8.90
  -6   5   8   56.09   11.00
  -6   5   8   36.10    9.40
  -6   5   8   49.30   13.70
  -6   5   8   39.10    9.70
   5  -5  -8   12.10   11.30
   5  -5  -8    7.10    9.60
  -5   5   8    7.10    8.80
  -5   5   8    7.90    7.50
  -5   5   8    1.10    7.50
  -5   5   8    5.60   10.00
  -5   5   8    5.40    7.40
   4  -5  -8    7.50    9.00
   4  -5  -8    3.50    2.70
   4  -5  -8    3.80    2.70
   4  -5  -8    5.10    7.90
  -4   5   8    1.40    6.50
  -4   5   8    3.50    6.10
  -4   5   8    7.70    7.70
  -4   5   8   -4.50    7.10
  -4   5   8    2.40    5.30
  -4   5   8    9.30    8.20
   3  -5  -8  133.29   11.20
   3  -5  -8  110.99    5.80
   3  -5  -8  100.09   11.00
  -3   5   8  124.49    8.60
  -3   5   8  110.89   10.80
  -3   5   8   84.59    9.80
  -3   5   8  122.19   10.90
  -3   5   8  106.39    9.50
  -3   5   8  117.79   10.00
   2  -5  -8   73.09    4.90
   2  -5  -8   74.49    4.60
   2  -5  -8   68.49    9.70
   2  -5  -8   64.99    8.80
  -2   5   8   70.39    7.10
  -2   5   8   72.69    8.00
  -2   5   8   64.59    8.30
  -2   5   8   61.29    9.30
  -2   5   8   67.99    9.00
  -2   5   8   60.29    8.00
   1  -5  -8  297.77   16.50
   1  -5  -8  260.77   10.80
   1  -5  -8  268.27   15.90
  -1   5   8  278.47   13.30
  -1   5   8  277.47   16.20
  -1   5   8  278.67   16.50
  -1   5   8  254.37   16.00
  -1   5   8  258.17   14.90
   0  -5  -8  105.09   12.70
   0  -5  -8  112.99   12.30
   0  -5  -8  113.29    7.00
   0  -5  -8  116.89    7.60
   0   5   8  108.59   11.90
   0   5   8  110.79   10.70
   0   5   8  106.19   11.10
   0   5   8  106.69   10.50
   0   5   8   99.69    8.40
  -1  -5  -8  109.59    7.50
  -1  -5  -8   96.09   10.50
  -1  -5  -8  106.59    8.20
   1   5   8   89.69   10.50
   1   5   8  112.69   12.50
   1   5   8  108.99   11.20
   1   5   8   94.59   13.30
   1   5   8   94.49   12.80
  -2  -5  -8   33.70    9.90
  -2  -5  -8   28.90    6.20
  -2  -5  -8   25.00    7.60
   2   5   8   24.80    9.50
   2   5   8   25.90    8.30
   2   5   8   32.20   11.20
   2   5   8   20.90   12.60
   2   5   8   35.00    7.60
  -3  -5  -8   30.20   11.70
  -3  -5  -8   18.20    6.80
   3   5   8   32.50    8.70
   3   5   8   31.90   11.00
   3   5   8   15.70   15.80
   3   5   8   27.70    9.60
   3   5   8   20.20   13.10
  -4  -5  -8    4.60   12.50
  -4  -5  -8    4.80    7.70
   4   5   8   -0.20   12.50
   4   5   8    9.00   10.90
   4   5   8    5.90    9.00
   6  -6  -8   -1.70    5.00
   6  -6  -8   -2.50   10.10
   6  -6  -8    5.40   17.10
   6  -6  -8    3.20   14.10
  -6   6   8   -3.00   11.30
  -6   6   8   -5.60    9.70
  -6   6   8   -3.70    8.50
   5  -6  -8   68.19    6.80
   5  -6  -8   61.19    5.60
   5  -6  -8   79.49   15.40
   5  -6  -8   69.49   13.50
  -5   6   8   68.19   10.80
  -5   6   8   59.39    8.90
  -5   6   8   59.69   11.70
  -5   6   8   83.59   14.90
  -5   6   8   47.50   10.30
   4  -6  -8   -5.60   11.60
   4  -6  -8    3.50    8.30
   4  -6  -8    9.70   10.30
   4  -6  -8    3.60    4.20
  -4   6   8    6.40    8.70
  -4   6   8    0.10    6.60
  -4   6   8    0.40    7.70
  -4   6   8    6.00    8.20
  -4   6   8    2.40   10.40
   3  -6  -8  109.19    7.70
   3  -6  -8  123.39   12.60
   3  -6  -8  119.29    8.90
   3  -6  -8   89.09   13.60
  -3   6   8  119.49    9.70
  -3   6   8  104.89   13.00
  -3   6   8  106.09   11.00
  -3   6   8  106.49   11.40
  -3   6   8  102.49   12.20
   2  -6  -8    9.40    8.50
   2  -6  -8    8.00    4.60
   2  -6  -8   15.70   11.30
  -2   6   8    9.60    8.30
  -2   6   8   16.50   10.00
  -2   6   8    4.80    7.50
  -2   6   8    7.30    7.50
  -2   6   8   12.20    6.30
   1  -6  -8   40.80   12.20
   1  -6  -8   45.40   10.40
   1  -6  -8   34.00    6.60
   1  -6  -8   35.20    5.50
  -1   6   8   39.80    7.70
  -1   6   8   31.00   10.90
  -1   6   8   28.90    8.80
  -1   6   8   33.80   12.30
   0  -6  -8   -3.60   12.70
   0  -6  -8    4.40    8.90
   0  -6  -8    2.20    5.10
   0  -6  -8    5.30    6.60
   0   6   8   -5.70   10.40
   0   6   8    2.90    6.20
   0   6   8    6.80    8.70
   0   6   8   -0.40   12.20
   0   6   8    1.80    8.70
  -1  -6  -8   12.10    8.00
  -1  -6  -8    4.40    9.80
  -1  -6  -8   14.40    6.10
   1   6   8  -10.00   11.70
   1   6   8   26.20   14.50
   1   6   8   13.10    9.50
   1   6   8   19.30   10.00
   1   6   8   12.70    7.40
  -2  -6  -8    6.30    6.90
  -2  -6  -8    3.60   10.00
   2   6   8    7.80   14.80
   2   6   8    5.00   16.30
   2   6   8    1.40    8.20
   2   6   8   -2.00   10.40
   2   6   8    3.60    9.90
  -3  -6  -8   24.20   13.00
  -3  -6  -8   20.90    8.50
   3   6   8   20.30   12.50
   3   6   8   26.60   11.70
   5  -7  -8   35.20    6.60
   5  -7  -8   30.00   14.50
   5  -7  -8   28.00   19.40
  -5   7   8   36.40   12.60
  -5   7   8   42.70   12.00
  -5   7   8   19.40   12.20
  -5   7   8   27.30    9.80
   4  -7  -8    6.80   13.40
   4  -7  -8   11.00    5.60
   4  -7  -8   19.40   16.30
   4  -7  -8   14.30    7.20
  -4   7   8   11.40   10.40
  -4   7   8   14.90    8.90
  -4   7   8   -1.80   14.70
  -4   7   8   11.10   10.20
   3  -7  -8    2.00    5.40
   3  -7  -8    3.00    7.10
   3  -7  -8   10.60   15.40
   3  -7  -8   -6.00   11.50
  -3   7   8    4.40    7.90
  -3   7   8   -2.20   14.50
  -3   7   8    6.90    9.80
  -3   7   8   -0.30    9.60
  -3   7   8    7.40   10.50
   2  -7  -8    4.30   11.40
   2  -7  -8    3.60    6.00
   2  -7  -8   -3.30   15.50
  -2   7   8    6.30    8.80
  -2   7   8    8.70    9.60
  -2   7   8   -7.00   10.40
  -2   7   8    0.60   13.30
  -2   7   8   -0.30    7.80
   1  -7  -8   10.60   10.40
   1  -7  -8    1.90    6.20
   1  -7  -8   -1.60   14.00
  -1   7   8    4.80   15.50
  -1   7   8    7.10    8.00
  -1   7   8    0.60   10.70
  -1   7   8   -0.10   13.60
   0  -7  -8    4.00    6.90
   0  -7  -8    4.20   16.90
   0  -7  -8   -1.60    9.60
   0  -7  -8   -0.60   11.40
   0   7   8   24.20   17.40
   0   7   8   -0.20   11.10
   0   7   8    1.60   15.30
   0   7   8   -0.40    8.50
   0   7   8    1.60   10.80
  -1  -7  -8   -1.00   12.70
   1   7   8    4.80   11.60
   1   7   8   -1.60    8.90
   1   7   8    5.00   20.30
   1   7   8    9.10   12.00
  -2   8   8   22.40   12.40
   0   9  -9   11.20   13.60
   0   9  -9   18.70    9.50
   0   9  -9   28.20    9.70
   0  -9   9   12.40   10.60
   0  -9   9    6.50   12.80
  -1   9  -9   -4.90    9.00
  -1   9  -9   -2.30    9.30
  -1   9  -9   10.40   13.00
   1  -9   9    5.10    8.90
   1  -9   9   -2.00   11.60
  -2   9  -9   39.20   15.00
  -2   9  -9   33.50    9.70
  -2   9  -9   39.20   11.30
   2  -9   9   30.40   13.00
   2  -9   9   28.20   10.40
  -3   9  -9    4.70   11.40
  -3   9  -9    8.30   14.30
  -3   9  -9   11.70    9.80
   3  -9   9    4.60   12.30
   3  -9   9   13.50   11.40
   3   8  -9    5.60   14.40
   3   8  -9    1.70    9.20
  -3  -8   9    8.40   13.40
  -3  -8   9    2.10   10.00
   2   8  -9   19.30    8.40
   2   8  -9   20.30   16.20
   2   8  -9   17.00    8.50
  -2  -8   9   15.80    9.40
   1   8  -9   12.30    7.40
   1   8  -9   14.60    4.90
  -1  -8   9   11.20    8.20
  -1  -8   9   11.80   10.60
  -1  -8   9    7.20    8.10
   0   8  -9   -1.90    7.00
   0   8  -9   -0.50    6.90
   0   8  -9   -0.20    9.70
   0  -8   9    7.20   25.60
   0  -8   9    9.80    7.20
   0  -8   9    4.10   16.70
   0  -8   9  -11.80    9.70
   0  -8   9   -4.20    9.90
  -1   8  -9   -1.10    9.50
  -1   8  -9    1.10    6.50
  -1   8  -9    4.00    7.40
   1  -8   9    7.80   14.70
   1  -8   9    1.20    9.10
   1  -8   9    4.40    7.50
  -2   8  -9   -2.00   10.00
  -2   8  -9   -2.30    8.20
  -2   8  -9    8.30    7.00
   2  -8   9    3.50    6.90
   2  -8   9    9.00   14.70
   2  -8   9   10.60    9.60
  -3   8  -9    0.40   11.10
  -3   8  -9   -0.30    8.80
  -3   8  -9    4.30    7.30
   3  -8   9   -3.30   16.20
   3  -8   9    6.50   10.10
   3  -8   9    2.30    8.40
  -4   8  -9    4.40    7.70
  -4   8  -9   19.70   13.10
  -4   8  -9    2.40    9.90
   4  -8   9    7.30   11.70
   4  -8   9    9.80    9.20
  -5   8  -9   15.00   11.90
  -5   8  -9   -2.20    8.70
  -5   8  -9   -1.50   13.40
   5  -8   9    4.20    9.80
   5  -8   9   -3.50   12.80
   4   7  -9   12.00   13.40
  -4  -7   9   11.40    9.70
  -4  -7   9   11.10   12.60
  -4  -7   9    6.40    9.30
   3   7  -9   25.60   12.00
   3   7  -9    9.40    7.00
  -3  -7   9   13.10    7.30
  -3  -7   9   24.40   22.60
  -3  -7   9   19.90   10.20
  -3  -7   9   20.20    8.80
   2   7  -9   -0.90    6.00
   2   7  -9   11.40   11.10
   2   7  -9    2.40    7.80
   2   7  -9    9.90    6.50
  -2  -7   9   11.00    6.90
  -2  -7   9    1.40    8.40
  -2  -7   9   -6.00   22.60
  -2  -7   9   -1.00    4.40
  -2  -7   9   -2.70   14.20
   1   7  -9   30.50   12.00
   1   7  -9   42.60    8.20
   1   7  -9   36.90    4.50
   1   7  -9   42.30    6.80
  -1  -7   9   35.90   12.40
  -1  -7   9   25.30   17.00
  -1  -7   9   44.00    7.40
  -1  -7   9   37.80    7.60
  -1  -7   9   33.30    9.00
   0   7  -9   17.90    8.50
   0   7  -9   14.10    7.10
   0   7  -9   24.50    6.00
   0  -7   9    5.50    6.00
   0  -7   9   11.10   15.70
   0  -7   9   19.50    8.20
   0  -7   9   14.00    7.60
  -1   7  -9    7.20    8.20
  -1   7  -9    4.80    5.20
  -1   7  -9    4.30    6.20
  -1   7  -9   10.10    7.00
   1  -7   9   11.60    7.50
   1  -7   9    6.70    5.90
   1  -7   9   10.00   11.00
   1  -7   9    1.70    8.50
   1  -7   9   -2.10   11.50
  -2   7  -9   15.00    7.80
  -2   7  -9   11.70    8.40
  -2   7  -9   15.10    5.70
  -2   7  -9   13.80    7.00
   2  -7   9    1.90    7.80
   2  -7   9    6.30   11.40
   2  -7   9    5.90    6.00
   2  -7   9   -1.70   12.70
  -3   7  -9   -2.50    5.80
  -3   7  -9    2.50    9.30
  -3   7  -9   -3.70    7.30
   3  -7   9   -5.80    6.70
   3  -7   9    2.40    8.10
   3  -7   9   10.50   12.90
   3  -7   9  -10.60   21.40
  -4   7  -9  103.99   13.70
  -4   7  -9   91.49    9.30
  -4   7  -9  107.39   12.00
   4  -7   9  106.59   18.10
   4  -7   9  109.49   13.90
   4  -7   9   93.29    9.80
  -5   7  -9    9.10    7.60
  -5   7  -9    5.50    9.40
  -5   7  -9    3.20   10.50
   5  -7   9    3.20   11.50
   5  -7   9   -6.50   16.40
   5  -7   9   14.50    8.20
  -6   7  -9    1.40    8.60
  -6   7  -9    3.50   10.70
   6  -7   9   -2.80   13.00
   6  -7   9    6.10    9.90
   5   6  -9   27.90   15.10
   5   6  -9   37.20   11.00
   5   6  -9   48.30    8.50
  -5  -6   9   38.70   10.20
  -5  -6   9   27.00    9.80
   4   6  -9   23.70    6.70
   4   6  -9   32.40   11.60
   4   6  -9   29.80   10.30
  -4  -6   9   26.20   19.40
  -4  -6   9   22.50    7.90
  -4  -6   9   29.90   10.00
  -4  -6   9   38.50    8.60
   3   6  -9   29.60    6.90
   3   6  -9   25.70    7.70
   3   6  -9   24.10    5.80
   3   6  -9   27.30   11.70
   3   6  -9   24.20    9.30
  -3  -6   9   23.80   16.40
  -3  -6   9   26.70    6.60
  -3  -6   9   30.70    8.90
  -3  -6   9   33.20    7.30
   2   6  -9    3.20    7.50
   2   6  -9    1.10    4.60
   2   6  -9   -2.00    5.10
   2   6  -9    0.50    5.50
   2   6  -9   -9.30    9.20
  -2  -6   9    4.10    3.70
  -2  -6   9    4.80    4.60
  -2  -6   9    3.70    6.70
  -2  -6   9   -7.80   11.80
  -2  -6   9    1.60   13.10
   1   6  -9   27.10    5.60
   1   6  -9   42.40   10.50
   1   6  -9   29.50    3.80
   1   6  -9   30.20    8.20
   1   6  -9   31.80    5.10
  -1  -6   9   43.50   10.90
  -1  -6   9   32.30    8.00
  -1  -6   9   30.70    5.70
  -1  -6   9   29.20    6.50
  -1  -6   9   22.50   12.00
   0   6  -9  105.19    9.90
   0   6  -9  100.09    7.20
   0   6  -9  129.99    8.20
   0  -6   9  119.99   11.50
   0  -6   9  118.99    8.70
   0  -6   9  103.49    8.50
   0  -6   9   97.19   12.50
  -1   6  -9  113.09   10.80
  -1   6  -9  100.99    7.30
  -1   6  -9  115.39    8.00
   1  -6   9   96.59   13.40
   1  -6   9  118.69   11.20
   1  -6   9   67.99   10.70
   1  -6   9  126.79    8.90
  -2   6  -9  253.87   13.50
  -2   6  -9  270.57   12.40
  -2   6  -9  257.67   16.60
   2  -6   9  286.17   19.60
   2  -6   9  264.37   16.60
   2  -6   9  266.57   13.70
   2  -6   9  257.17   16.30
   2  -6   9  263.47   16.50
  -3   6  -9    4.20    4.80
  -3   6  -9    4.30    7.20
  -3   6  -9    4.60    6.40
   3  -6   9   11.70   10.30
   3  -6   9    0.10    5.80
   3  -6   9    2.70    6.90
   3  -6   9    3.40    9.70
  -4   6  -9   83.29    7.80
  -4   6  -9   97.59   11.70
   4  -6   9   69.19   13.90
   4  -6   9   96.59   12.20
   4  -6   9   79.99   13.50
   4  -6   9   70.69    8.30
  -5   6  -9    2.20    7.90
  -5   6  -9   -0.60    6.40
   5  -6   9    0.50    9.30
   5  -6   9    6.70   14.00
   5  -6   9   -1.60    6.60
  -6   6  -9    5.30    7.70
  -6   6  -9    1.60   11.00
  -6   6  -9    8.60    5.60
   6  -6   9    4.80    6.00
   6  -6   9    1.60   11.00
   6  -6   9    4.00    8.60
  -7   6  -9   11.10   15.40
  -7   6  -9   12.40    7.70
  -7   6  -9    9.40    9.60
   7  -6   9    0.50   10.70
   7  -6   9   -3.70   15.30
   6   5  -9    6.30   15.60
   6   5  -9   10.00    7.70
  -6  -5   9    3.20   10.40
  -6  -5   9    5.10   13.20
  -6  -5   9   14.30   10.00
   5   5  -9    7.60    5.90
   5   5  -9   21.40    7.20
   5   5  -9    6.80   12.20
  -5  -5   9   -5.40   16.90
  -5  -5   9   11.80    7.90
  -5  -5   9   19.80    9.30
  -5  -5   9   10.00    8.20
   4   5  -9   30.00   10.20
   4   5  -9    2.40   11.00
   4   5  -9   10.00    8.30
   4   5  -9   18.90    5.10
   4   5  -9   13.30    5.70
  -4  -5   9   21.10    6.80
  -4  -5   9   44.00   14.60
  -4  -5   9   27.00    7.20
  -4  -5   9   12.90    8.10
   3   5  -9    3.10    5.90
   3   5  -9    1.70    3.90
   3   5  -9    2.60    4.30
   3   5  -9    1.80    7.10
   3   5  -9   15.60    9.70
  -3  -5   9    2.60    5.00
  -3  -5   9    4.20   11.60
  -3  -5   9   -1.80    5.10
  -3  -5   9    2.60    6.50
   2   5  -9   -0.20    7.60
   2   5  -9    4.30    3.30
   2   5  -9    1.60    3.60
   2   5  -9    7.20    6.20
   2   5  -9    3.50    4.20
  -2  -5   9    4.30   11.10
  -2  -5   9   -4.90    5.70
  -2  -5   9   -2.60    4.30
  -2  -5   9   -1.10    5.30
  -2  -5   9    2.50    6.30
  -2  -5   9   -2.10    3.10
  -2  -5   9    4.30    7.80
   1   5  -9   12.20    3.40
   1   5  -9   10.10    7.40
   1   5  -9   13.90    7.50
   1   5  -9   12.80    3.10
   1   5  -9    8.00    6.10
   1   5  -9    8.40    3.90
  -1  -5   9   15.40    5.70
  -1  -5   9    8.40    4.10
  -1  -5   9   11.70    7.50
  -1  -5   9   14.40    2.90
  -1  -5   9   11.20    4.30
  -1  -5   9    6.90    8.70
  -1  -5   9    6.60    5.10
   0   5  -9   40.50    8.00
   0   5  -9   42.90    4.20
   0   5  -9   35.30    4.30
   0   5  -9   33.60    6.30
   0  -5   9    7.80    7.70
   0  -5   9   31.40    7.60
   0  -5   9   32.50    5.70
   0  -5   9   40.00    6.00
   0  -5   9   26.20    6.00
   0  -5   9   31.80    4.90
  -1   5  -9  307.07   11.90
  -1   5  -9  311.27   15.40
  -1   5  -9  291.27   16.90
  -1   5  -9  271.57   12.00
   1  -5   9  289.87   14.80
   1  -5   9  291.87   15.00
   1  -5   9  314.67   15.90
   1  -5   9  323.47   14.20
   1  -5   9  303.27   13.10
  -2   5  -9 1068.79   43.10
  -2   5  -9 1242.88   38.10
  -2   5  -9 1185.68   38.20
   2  -5   9 1197.48   41.20
   2  -5   9 1209.48   40.90
   2  -5   9 1144.99   41.40
   2  -5   9 1202.78   39.50
   2  -5   9 1227.68   39.30
   2  -5   9 1231.28   40.90
  -3   5  -9   13.30    6.60
  -3   5  -9   21.00    4.40
  -3   5  -9   22.40    5.50
   3  -5   9   20.70    9.50
   3  -5   9   13.10    6.40
   3  -5   9   17.60    7.00
   3  -5   9   16.40    5.20
   3  -5   9   18.60    8.60
  -4   5  -9   16.70    6.50
  -4   5  -9    6.50    4.90
  -4   5  -9   13.10    7.80
   4  -5   9    9.30    5.80
   4  -5   9    9.90    7.80
  -5   5  -9   63.89   11.10
  -5   5  -9   74.49    7.90
  -5   5  -9   76.39    5.80
   5  -5   9   60.49    5.70
   5  -5   9   62.59   10.70
   5  -5   9   72.09    8.80
   5  -5   9   76.99   13.60
  -6   5  -9   20.40   11.10
  -6   5  -9   25.20    7.30
  -6   5  -9   27.80    6.40
   6  -5   9   20.10   10.70
   6  -5   9   30.80    8.60
   6  -5   9   23.60    6.90
  -7   5  -9   21.70    8.00
  -7   5  -9    5.50    9.30
  -7   5  -9   28.40   12.90
   7  -5   9   -4.90    8.70
   7  -5   9    4.40   12.40
   7  -5   9    2.60   12.40
  -7  -4   9   41.90   17.20
   6   4  -9  176.48   18.40
   6   4  -9  176.58   12.60
   6   4  -9  200.58   11.60
  -6  -4   9  169.78   13.90
  -6  -4   9  211.28   21.70
  -6  -4   9  161.48   15.30
  -6  -4   9  184.78   13.10
   5   4  -9    3.20    5.00
   5   4  -9   -1.20   10.40
   5   4  -9    1.70    5.40
  -5  -4   9   -1.00   13.00
  -5  -4   9    4.10    7.30
  -5  -4   9    3.50    7.80
  -5  -4   9    3.10    6.30
   4   4  -9    6.60    3.60
   4   4  -9   -0.50    7.90
   4   4  -9    3.70    9.10
   4   4  -9   17.20    7.20
   4   4  -9    1.80    3.70
  -4  -4   9   -0.10   10.50
  -4  -4   9   -3.10    6.90
  -4  -4   9   -0.50    5.10
  -4  -4   9    5.70    6.90
  -4  -4   9    1.40    5.50
   3   4  -9   21.20    5.50
   3   4  -9   17.60    3.10
   3   4  -9   15.20    7.30
   3   4  -9   20.20    7.30
   3   4  -9   16.50    6.70
   3   4  -9   16.60    2.90
  -3  -4   9   21.60    5.00
  -3  -4   9   16.80    8.70
  -3  -4   9   17.00    5.80
  -3  -4   9   14.30    5.60
  -3  -4   9   18.20    4.80
   2   4  -9   13.40    4.10
   2   4  -9   11.50    2.30
   2   4  -9   11.80    6.00
   2   4  -9   18.10    6.20
   2   4  -9   12.40    5.20
   2   4  -9   13.80    2.30
  -2  -4   9   12.50    6.40
  -2  -4   9   14.40    4.10
  -2  -4   9   12.80    4.60
  -2  -4   9   16.90    4.90
  -2  -4   9   23.50    8.10
  -2  -4   9   11.20    3.70
  -2  -4   9   11.30    3.20
   1   4  -9    8.50    2.00
   1   4  -9    6.90    5.20
   1   4  -9   13.50    2.90
   1   4  -9   10.00    5.60
   1   4  -9    8.70    2.00
  -1  -4   9    9.30    4.30
  -1  -4   9   12.90    2.80
  -1  -4   9   14.20    6.80
  -1  -4   9    7.10    3.80
  -1  -4   9    3.60    5.30
  -1  -4   9    8.30    3.40
  -1  -4   9    3.20    3.80
   0   4  -9  120.89   10.00
   0   4  -9  107.39    8.40
   0   4  -9  113.19    5.10
   0   4  -9  116.79    5.20
   0  -4   9  120.69    7.20
   0  -4   9  109.99    7.70
   0  -4   9  107.29    8.10
   0  -4   9  116.89   10.00
   0  -4   9  111.49    8.60
   0  -4   9  117.69    7.60
  -1   4  -9   78.39    5.00
  -1   4  -9   94.19    8.10
  -1   4  -9   76.29    5.20
  -1   4  -9   89.39    7.60
   1  -4   9   82.89    6.00
   1  -4   9   77.29    7.40
   1  -4   9   88.09    6.50
   1  -4   9   78.39    7.50
   1  -4   9   76.29    7.30
   1  -4   9   88.79    7.60
  -2   4  -9   33.70    7.00
  -2   4  -9   42.80    6.10
  -2   4  -9   37.90    3.90
  -2   4  -9   28.70    4.00
   2  -4   9   26.30   10.20
   2  -4   9   32.30    6.10
   2  -4   9   35.80    5.40
   2  -4   9   27.30    7.10
   2  -4   9   34.10    4.80
   2  -4   9   28.50    6.60
  -3   4  -9  128.69    7.70
  -3   4  -9  147.49   12.50
  -3   4  -9  121.09    8.40
   3  -4   9  134.09   11.00
   3  -4   9  142.99    9.30
   3  -4   9  124.49    8.80
   3  -4   9   95.49    9.80
   3  -4   9  142.49   10.70
  -4   4  -9  210.08   10.70
  -4   4  -9  218.88   12.00
  -4   4  -9  220.48   14.80
   4  -4   9  217.38    9.40
   4  -4   9  200.58   12.20
   4  -4   9  209.98   16.00
  -5   4  -9   87.09    9.00
  -5   4  -9   73.89    6.50
  -5   4  -9   90.09   10.20
  -5   4  -9   85.99    8.00
   5  -4   9   89.49   13.00
   5  -4   9   78.79   11.20
   5  -4   9   84.89    7.10
   5  -4   9   93.79    9.20
  -6   4  -9   10.10    6.80
  -6   4  -9    8.80   10.50
  -6   4  -9    9.80    6.20
   6  -4   9    6.00    7.70
   6  -4   9    6.10    7.20
   6  -4   9    7.70    9.20
  -7   4  -9    3.50    8.10
  -7   4  -9    0.10    8.10
  -7   4  -9    6.60   12.90
   7  -4   9   -6.80    8.80
   7  -4   9    6.00   17.30
   7   3  -9    6.70   14.80
   7   3  -9   10.00    6.30
   7   3  -9    9.50    7.90
  -7  -3   9   15.10   10.90
  -7  -3   9   10.60    9.20
  -7  -3   9    9.70   10.70
   6   3  -9   41.20   12.50
   6   3  -9   52.99    5.50
  -6  -3   9   54.79    8.50
  -6  -3   9   57.09    9.90
  -6  -3   9   48.90   14.60
  -6  -3   9   50.19    9.80
   5   3  -9   -1.30    9.40
   5   3  -9    0.90    3.00
   5   3  -9    1.10    8.70
   5   3  -9    1.30    3.10
  -5  -3   9   -0.40    6.30
  -5  -3   9   -5.30    6.30
  -5  -3   9   -1.30    5.20
  -5  -3   9    4.20   10.30
   4   3  -9  150.38   11.50
   4   3  -9  170.88   12.30
   4   3  -9  173.78   13.90
   4   3  -9  170.78   11.50
  -4  -3   9  162.58   10.00
  -4  -3   9  183.98   11.80
  -4  -3   9  162.28   10.90
  -4  -3   9  195.68   12.90
  -4  -3   9  172.28   11.30
   3   3  -9    2.50    5.40
   3   3  -9    5.10    5.30
   3   3  -9   -1.20    5.40
   3   3  -9    6.90    4.80
  -3  -3   9    8.40    4.10
  -3  -3   9    5.30    2.10
  -3  -3   9    5.00    3.50
  -3  -3   9    8.30    6.40
  -3  -3   9    6.30    4.00
  -3  -3   9    8.40    4.50
   2   3  -9   33.10    4.50
   2   3  -9   25.90    5.30
   2   3  -9   37.10    5.50
  -2  -3   9   36.60    3.60
  -2  -3   9   43.10    4.30
  -2  -3   9   41.30    4.10
  -2  -3   9   32.50    4.20
  -2  -3   9   41.90    4.90
  -2  -3   9   36.50    5.00
  -2  -3   9   48.60    6.60
   1   3  -9   49.40    5.60
  -1  -3   9   50.79    4.10
  -1  -3   9   49.00    5.00
  -1  -3   9   67.29    6.30
  -1  -3   9   55.59    5.10
  -1  -3   9   51.89    4.80
  -1  -3   9   52.79    4.00
   0   3  -9   94.09    7.60
   0   3  -9  102.39    6.80
   0  -3   9   95.69    6.80
   0  -3   9   84.89    7.50
   0  -3   9  103.49    5.70
   0  -3   9   96.29    7.60
   0  -3   9  105.59    5.00
   0  -3   9  111.49    6.70
  -1   3  -9  146.19    9.40
  -1   3  -9  161.88    8.90
   1  -3   9  156.38    8.90
   1  -3   9  152.58    9.90
   1  -3   9  157.68    6.00
   1  -3   9  151.08    7.90
   1  -3   9  154.18    6.10
   1  -3   9  168.18    8.80
   1  -3   9  154.48    7.50
   1  -3   9  152.08    9.10
  -2   3  -9  140.99    6.50
  -2   3  -9  138.59   10.60
  -2   3  -9  141.09    9.40
  -2   3  -9  156.28    6.70
   2  -3   9  158.18   11.20
   2  -3   9  153.88    6.30
   2  -3   9  141.09    8.50
   2  -3   9  147.29    9.80
   2  -3   9  152.28    7.90
   2  -3   9  142.19    9.90
  -3   3  -9   30.40    4.20
  -3   3  -9   31.80    7.10
  -3   3  -9   24.60    5.30
   3  -3   9   26.60    6.90
   3  -3   9   23.90    4.40
   3  -3   9   26.40    6.10
   3  -3   9   27.80    6.30
   3  -3   9   24.90    5.00
   3  -3   9   25.10    3.70
  -4   3  -9   27.80    7.10
  -4   3  -9   17.60    5.00
  -4   3  -9   16.50    4.40
   4  -3   9   24.40    5.20
   4  -3   9   22.20    7.20
   4  -3   9   23.20    4.70
   4  -3   9   22.40    6.00
   4  -3   9   26.20    7.70
  -5   3  -9  148.69   10.50
  -5   3  -9  158.68   10.30
  -5   3  -9  155.38   13.80
  -5   3  -9  157.68   10.50
   5  -3   9  148.19   11.20
   5  -3   9  157.68   10.70
   5  -3   9  178.08   15.50
   5  -3   9  151.98   13.00
  -6   3  -9  296.67   17.40
  -6   3  -9  297.37   20.30
  -6   3  -9  295.97   15.70
   6  -3   9  289.77   24.70
   6  -3   9  321.57   17.10
   6  -3   9  273.67   20.60
   6  -3   9  270.97   17.10
  -7   3  -9   15.00    8.30
  -7   3  -9   22.80   13.20
  -7   3  -9   29.40    9.00
   7  -3   9   17.00    8.80
   7  -3   9   15.40   13.30
   7   2  -9   -1.50    5.50
   7   2  -9    1.20   12.40
   7   2  -9   -0.10    4.70
  -7  -2   9   -1.90   16.20
  -7  -2   9    1.40    9.50
  -7  -2   9    2.50    7.80
  -7  -2   9    3.30    9.00
   6   2  -9   19.30   10.30
  -6  -2   9   39.10    7.10
  -6  -2   9   33.40    8.40
  -6  -2   9   31.90    8.20
  -6  -2   9   44.40   12.50
   5   2  -9    6.00    7.90
   5   2  -9    3.60    9.50
  -5  -2   9   10.00    8.20
  -5  -2   9    3.60    5.70
  -5  -2   9    1.80    4.70
  -5  -2   9    1.50    5.70
   4   2  -9   49.10    7.70
   4   2  -9   41.30    6.90
   4   2  -9   53.19    8.00
  -4  -2   9   51.79    6.00
  -4  -2   9   54.29    7.50
  -4  -2   9   50.19    5.70
  -4  -2   9   47.10    6.60
  -4  -2   9   53.69    3.50
  -4  -2   9   47.50    5.10
   3   2  -9  119.19    8.20
   3   2  -9  132.69    7.60
   3   2  -9  120.99    8.80
   3   2  -9  125.39    8.60
  -3  -2   9  119.49    6.30
  -3  -2   9  110.59    8.50
  -3  -2   9  120.59    6.80
  -3  -2   9  126.49    8.40
  -3  -2   9  121.39    7.50
  -3  -2   9  116.79    6.90
   2   2  -9   79.19    5.00
   2   2  -9   76.39    6.10
   2   2  -9   84.49    6.10
  -2  -2   9   88.69    5.60
  -2  -2   9   70.79    4.90
  -2  -2   9   75.39    5.50
  -2  -2   9   71.29    5.50
  -2  -2   9   75.19    4.70
   1   2  -9  276.77   10.40
   1   2  -9  289.07   10.70
  -1  -2   9  293.87   11.00
  -1  -2   9  288.77    9.90
  -1  -2   9  283.57    9.90
  -1  -2   9  275.27   10.10
   0   2  -9   15.30    3.20
   0  -2   9   20.10    3.20
   0  -2   9   19.10    2.60
   0  -2   9   16.30    2.30
   0  -2   9   13.40    2.70
   0  -2   9   15.90    3.10
   0  -2   9   11.60    3.10
  -1   2  -9   73.19    5.70
  -1   2  -9   76.49    5.90
   1  -2   9   70.29    5.10
   1  -2   9   83.49    5.80
   1  -2   9   73.59    5.20
   1  -2   9   54.99    5.90
   1  -2   9   68.09    4.90
  -2   2  -9    4.70    1.70
  -2   2  -9    8.50    4.80
  -2   2  -9    3.70    3.60
  -2   2  -9    4.00    1.90
   2  -2   9    6.60    5.20
   2  -2   9    6.50    4.00
   2  -2   9    5.00    3.20
   2  -2   9    5.20    2.90
   2  -2   9    5.30    4.00
   2  -2   9    1.50    2.90
  -3   2  -9  114.69    9.70
  -3   2  -9  109.39    6.50
  -3   2  -9  134.89   10.00
   3  -2   9  114.19    7.60
   3  -2   9  118.29    8.00
   3  -2   9  119.39   10.10
   3  -2   9  111.89    7.80
   3  -2   9  127.19   10.30
   3  -2   9  114.29    9.40
  -4   2  -9   28.60    5.00
  -4   2  -9   29.90    4.60
  -4   2  -9   24.60    6.70
   4  -2   9   30.50    6.40
   4  -2   9   21.20    5.20
   4  -2   9   22.30    5.30
   4  -2   9   29.70    7.60
   4  -2   9   25.00    6.90
  -5   2  -9   -0.90    7.20
  -5   2  -9   -0.20    4.90
  -5   2  -9    0.70    5.20
  -5   2  -9    3.70    6.10
   5  -2   9    0.70    8.40
   5  -2   9    7.80    8.60
   5  -2   9    6.20    7.30
  -6   2  -9  460.25   24.40
  -6   2  -9  496.75   20.80
  -6   2  -9  493.15   22.00
   6  -2   9  431.96   25.20
   6  -2   9  475.65   28.20
   6  -2   9  490.45   21.50
  -7   2  -9   -2.70   11.20
  -7   2  -9   15.50    8.80
  -7   2  -9    4.70    8.10
   7  -2   9    9.00   13.00
   7  -2   9    0.90    9.10
   8   1  -9    6.10    5.10
   8   1  -9    4.10   17.60
  -8  -1   9    0.20   12.20
  -8  -1   9   -5.10   16.60
  -8  -1   9   -0.50    9.70
   7   1  -9    1.40   12.60
  -7  -1   9   -0.90    8.20
  -7  -1   9   -3.60    7.00
  -7  -1   9    4.10   13.90
  -7  -1   9   -5.10    8.90
   6   1  -9    2.20    9.80
   6   1  -9    9.00    9.10
  -6  -1   9    7.20    7.30
  -6  -1   9    7.40    3.80
  -6  -1   9    5.40    6.50
  -6  -1   9   15.50   10.20
  -6  -1   9    7.50    7.60
  -6  -1   9    7.30    5.90
   5   1  -9    8.50    7.70
   5   1  -9    5.60    6.60
   5   1  -9    6.20    7.00
  -5  -1   9    8.30    5.10
  -5  -1   9    7.50    7.20
  -5  -1   9    2.90    4.30
  -5  -1   9    3.50    5.20
  -5  -1   9    8.90    3.70
  -5  -1   9    8.70    5.90
   4   1  -9   37.70    6.00
   4   1  -9   45.20    7.10
   4   1  -9   38.50    6.40
   4   1  -9   40.30    5.80
  -4  -1   9   39.00    4.70
  -4  -1   9   41.80    6.10
  -4  -1   9   47.80    6.10
  -4  -1   9   49.10    5.30
  -4  -1   9   47.90    4.60
   3   1  -9   64.19    4.90
   3   1  -9   60.39    6.50
   3   1  -9   75.79    5.80
   3   1  -9   50.69    4.40
  -3  -1   9   54.69    5.70
  -3  -1   9   53.29    3.90
  -3  -1   9   55.19    4.80
  -3  -1   9   52.29    3.90
  -3  -1   9   63.39    4.50
  -2  -1   9 1761.92   53.99
  -2  -1   9 1738.43   54.19
  -2  -1   9 1677.43   51.99
  -2  -1   9 1735.83   51.99
  -1  -1   9   91.09    6.70
  -1  -1   9   94.99    7.10
   0  -1   9   76.59    4.00
   0  -1   9   98.69    5.80
   0  -1   9   86.49    3.80
   0  -1   9   77.99    3.90
  -1   1  -9  443.16   17.30
  -1   1  -9  515.75   17.80
   1  -1   9  522.75   17.30
   1  -1   9  513.15   17.80
   1  -1   9  526.15   16.80
   1  -1   9  506.35   18.00
   1  -1   9  515.45   16.70
  -2   1  -9   22.00    1.80
  -2   1  -9   20.60    1.80
  -2   1  -9   20.80    4.40
  -2   1  -9   29.90    5.30
   2  -1   9   26.10    4.70
   2  -1   9   24.50    3.70
   2  -1   9   12.70    3.90
   2  -1   9   26.50    5.20
  -3   1  -9   31.80    3.60
  -3   1  -9   36.00    7.80
  -3   1  -9   32.40    3.90
  -3   1  -9   45.30    6.80
   3  -1   9   34.60    4.70
   3  -1   9   42.90    5.40
   3  -1   9   41.10    6.30
   3  -1   9   34.30    6.70
   3  -1   9   30.70    4.90
   3  -1   9   44.20    6.80
  -4   1  -9   -2.00    3.50
  -4   1  -9   -0.40    5.00
  -4   1  -9   -1.60    4.20
   4  -1   9   -3.70    6.30
   4  -1   9    2.80    4.30
   4  -1   9   -0.90    6.40
   4  -1   9    0.50    5.30
   4  -1   9    4.00    5.60
  -5   1  -9   44.50    9.40
  -5   1  -9   36.80    5.90
  -5   1  -9   37.70    7.30
  -5   1  -9   21.60    6.50
   5  -1   9   19.30    8.80
   5  -1   9   34.00    8.30
   5  -1   9   30.00   10.00
   5  -1   9   27.60    6.40
  -6   1  -9   10.10    7.60
  -6   1  -9   16.00    9.50
   6  -1   9    9.80   13.70
   6  -1   9    5.70   11.00
   6  -1   9    4.80    7.00
  -7   1  -9   12.20   13.00
  -7   1  -9   11.50    9.50
  -7   1  -9   11.50    8.30
   7  -1   9   14.00    9.50
   7  -1   9   19.40   24.20
   8   0  -9    1.70   16.60
  -8   0   9    4.20   11.50
  -8   0   9    2.20    9.00
  -8   0   9    1.20    6.90
  -8   0   9    9.30   11.00
   7   0  -9    0.30   12.40
   7   0  -9   -1.00    6.30
  -7   0   9    3.90    7.10
  -7   0   9   -1.90    5.90
  -7   0   9    3.30   11.90
  -7   0   9    0.50    8.00
  -7   0   9    0.90    9.00
   6   0  -9    7.20    5.40
   6   0  -9    1.80    9.40
  -6   0   9    9.20    8.10
  -6   0   9    8.00    5.00
  -6   0   9   10.20    7.30
  -6   0   9   19.80    7.80
  -6   0   9    1.20    6.00
  -6   0   9   -1.00    5.30
   5   0  -9    1.50    5.70
   5   0  -9   -1.50    4.60
   5   0  -9    0.90    7.10
  -5   0   9   -1.00    4.70
  -5   0   9   -1.30    4.50
  -5   0   9    4.70    4.10
  -5   0   9    3.30    5.90
  -5   0   9   -0.90    4.20
  -5   0   9    1.20    5.40
   4   0  -9   39.60    7.10
   4   0  -9   36.60    5.30
   4   0  -9   31.60    5.00
   4   0  -9   26.10    4.70
  -4   0   9   32.10    4.90
  -4   0   9   28.10    5.40
  -4   0   9   26.50    3.70
  -4   0   9   25.50    3.90
  -4   0   9   30.10    4.50
  -4   0   9   27.30    4.20
   3   0  -9    4.10    2.60
   3   0  -9    6.60    4.70
  -3   0   9    8.00    2.30
  -3   0   9    8.50    2.20
  -3   0   9   10.70    4.20
  -3   0   9    3.50    3.40
  -2   0   9  488.35   17.80
  -2   0   9  470.65   17.70
  -1   0   9   60.19    5.20
  -1   0   9   59.09    5.40
   0   0   9  111.29    4.60
   0   0   9  106.99    4.50
   0   0   9  112.09    7.70
   0   0   9  107.19    4.60
  -1   0  -9   89.69    6.70
  -1   0  -9   83.49    5.90
   1   0   9   87.69    6.30
   1   0   9   88.49    6.90
   1   0   9   96.29    5.10
   1   0   9   83.29    5.80
   1   0   9   87.39    5.70
   1   0   9   85.39    5.10
  -2   0  -9   12.20    5.00
  -2   0  -9   13.00    1.70
  -2   0  -9   16.60    4.30
   2   0   9   14.70    3.40
   2   0   9    8.70    4.10
   2   0   9    9.80    3.60
   2   0   9    7.30    5.30
  -3   0  -9   17.70    6.80
  -3   0  -9   18.70    5.40
  -3   0  -9   19.60    3.30
   3   0   9   15.20    6.50
   3   0   9   17.40    4.70
   3   0   9   23.90    4.40
   3   0   9   15.70    5.40
   3   0   9   19.50    6.10
  -4   0  -9   62.49    8.10
  -4   0  -9   59.79    5.70
  -4   0  -9   59.99    6.30
   4   0   9   67.89    7.70
   4   0   9   64.49    9.80
   4   0   9   73.49    9.80
   4   0   9   88.79    7.70
   4   0   9   55.99    8.00
  -5   0  -9    6.10    5.10
  -5   0  -9    3.10    8.30
  -5   0  -9    8.80    6.60
   5   0   9    6.40    8.80
   5   0   9    3.30    5.80
   5   0   9    6.40   10.00
  -6   0  -9    3.10    9.20
  -6   0  -9    8.00    6.70
  -6   0  -9    1.90    8.20
   6   0   9   -2.40   15.30
   6   0   9   -0.60    7.20
   6   0   9   -6.40   11.60
  -7   0  -9    7.50   11.90
  -7   0  -9    8.60    8.90
  -7   0  -9    1.00   10.20
   7   0   9   -7.70   13.70
   8  -1  -9    3.50   15.50
   8  -1  -9    6.80   10.20
  -8   1   9    8.70   10.50
  -8   1   9    2.30    8.50
  -8   1   9   -1.80    8.70
  -8   1   9   14.10   11.30
   7  -1  -9   -2.70   11.40
   7  -1  -9    1.40    7.70
  -7   1   9    3.90    8.00
  -7   1   9    2.40   11.80
  -7   1   9   -5.90    9.00
  -7   1   9    5.20    7.00
   6  -1  -9   21.20    6.70
   6  -1  -9   16.80    9.20
  -6   1   9   14.10    7.90
  -6   1   9   18.70    5.90
  -6   1   9   20.50    6.70
  -6   1   9   27.30    6.30
  -6   1   9   18.80    8.30
  -6   1   9   23.50    7.10
   5  -1  -9   42.30    6.80
   5  -1  -9   47.20    6.50
   5  -1  -9   28.80    7.20
  -5   1   9   38.40    5.10
  -5   1   9   45.40    5.90
  -5   1   9   27.30    5.60
  -5   1   9   38.40    6.50
  -5   1   9   39.10    6.30
   4  -1  -9    4.10    4.60
   4  -1  -9   -2.60    6.10
   4  -1  -9   -2.70    3.90
  -4   1   9    1.80    3.30
  -4   1   9   -0.60    3.30
  -4   1   9    1.20    3.50
  -4   1   9   -4.30    4.30
  -4   1   9   -1.20    2.80
  -4   1   9   -2.40    4.40
   3  -1  -9  312.37   13.50
   3  -1  -9  300.47   10.40
  -3   1   9  277.37   10.40
  -3   1   9  296.57   13.10
  -3   1   9  289.57   10.40
  -3   1   9  295.57   13.40
  -2   1   9   26.00    2.10
  -2   1   9   20.80    4.30
  -2   1   9   34.40    5.20
  -2   1   9   23.10    2.20
  -1   1   9   97.69    4.20
  -1   1   9  115.49    8.20
  -1   1   9   98.19    4.30
  -1   1   9  117.19    7.80
   0  -1  -9  341.57   12.70
   0  -1  -9  340.27   12.30
   0   1   9  340.27   12.00
   0   1   9  343.57   14.70
   0   1   9  357.16   12.10
   0   1   9  350.76   12.20
   0   1   9  331.67   11.70
  -1  -1  -9  240.68   12.00
  -1  -1  -9  249.78   10.90
   1   1   9  246.38   11.10
   1   1   9  244.68   10.90
   1   1   9  260.27   12.40
   1   1   9  249.78    9.90
   1   1   9  246.88   10.00
   1   1   9  275.97   11.80
   1   1   9  243.08   12.50
  -2  -1  -9  902.61   27.60
  -2  -1  -9  887.81   27.60
  -2  -1  -9  881.31   30.70
  -2  -1  -9  888.41   31.40
   2   1   9  840.52   30.40
   2   1   9  903.11   31.50
   2   1   9  903.41   31.00
   2   1   9  879.31   31.00
   2   1   9  861.81   29.40
   2   1   9  906.11   30.80
   2   1   9  928.71   29.40
  -3  -1  -9  542.75   21.00
  -3  -1  -9  639.44   24.60
  -3  -1  -9  581.24   25.60
  -3  -1  -9  645.74   21.70
   3   1   9  639.14   24.80
   3   1   9  650.23   22.50
   3   1   9  647.84   24.60
   3   1   9  630.24   24.70
   3   1   9  629.34   23.20
   3   1   9  674.43   25.50
  -4  -1  -9  171.98   11.10
  -4  -1  -9  185.18   13.90
  -4  -1  -9  183.78   10.10
   4   1   9  185.18   14.50
   4   1   9  189.38   14.10
   4   1   9  195.38   16.50
  -5  -1  -9   13.10    5.80
  -5  -1  -9   23.60    7.80
  -5  -1  -9   12.20    8.60
   5   1   9    4.90    9.90
   5   1   9    8.60    6.80
   5   1   9   19.10   11.60
   5   1   9   10.90   13.60
  -6  -1  -9    0.90    7.40
  -6  -1  -9   -0.80   15.70
   6   1   9   -5.70   12.80
   6   1   9   -3.20    7.90
   6   1   9   21.10   22.00
  -7  -1  -9    4.20    9.80
  -7  -1  -9   -3.30   11.60
  -7  -1  -9    1.60   13.80
   7   1   9   -3.50   10.00
   8  -2  -9   13.40   16.80
  -8   2   9   19.80   10.20
  -8   2   9   17.20   11.10
  -8   2   9   14.30   11.80
  -8   2   9    8.60    8.80
   7  -2  -9    2.40   11.60
  -7   2   9   14.30    8.00
  -7   2   9   16.10   10.40
  -7   2   9   11.80    8.20
  -7   2   9    8.60    8.50
  -7   2   9    6.90   12.00
   6  -2  -9   10.80    8.90
   6  -2  -9   17.20    7.90
  -6   2   9   12.60    7.60
  -6   2   9   16.10    6.00
  -6   2   9   23.80    8.00
  -6   2   9   20.50    7.40
  -6   2   9    9.30    8.40
  -6   2   9   25.40    7.60
   5  -2  -9    3.60    6.10
   5  -2  -9    0.00    6.70
   5  -2  -9    0.40    6.70
   5  -2  -9    4.60    6.10
  -5   2   9   10.40    5.50
  -5   2   9    5.30    4.90
  -5   2   9    5.80    6.60
  -5   2   9    4.50    5.90
  -5   2   9    7.50    4.30
  -5   2   9    3.10    5.60
   4  -2  -9   -1.50    5.10
   4  -2  -9   -1.10    5.10
   4  -2  -9    2.60    4.80
  -4   2   9    0.00    3.80
  -4   2   9   -2.10    3.70
  -4   2   9    1.50    3.60
  -4   2   9    0.60    5.00
  -4   2   9   -1.30    4.70
  -4   2   9    1.00    4.90
   3  -2  -9   23.80    4.20
   3  -2  -9   19.20    4.30
   3  -2  -9   27.60    4.60
   3  -2  -9   12.80    5.20
  -3   2   9   19.10    5.30
  -3   2   9   27.00    3.40
  -3   2   9   19.30    3.30
  -3   2   9   25.80    5.70
  -3   2   9   20.50    3.40
  -3   2   9   22.30    3.40
   2  -2  -9   83.69    8.00
   2  -2  -9   58.09    5.40
   2  -2  -9   64.99    4.70
   2  -2  -9   67.89    5.90
  -2   2   9   57.89    6.70
  -2   2   9   68.49    4.70
  -2   2   9   69.79    6.80
  -2   2   9   70.89    4.40
   1  -2  -9  360.46   13.50
   1  -2  -9  350.66   14.30
  -1   2   9  361.56   13.00
  -1   2   9  369.56   15.90
  -1   2   9  376.26   13.00
  -1   2   9  364.46   12.70
  -1   2   9  383.06   15.40
  -1   2   9  350.16   12.60
   0  -2  -9  631.04   22.90
   0  -2  -9  640.24   22.40
   0   2   9  651.13   24.30
   0   2   9  666.73   22.30
   0   2   9  630.84   22.10
   0   2   9  641.34   21.40
   0   2   9  677.83   22.30
   0   2   9  678.13   22.20
  -1  -2  -9   11.20    6.80
  -1  -2  -9    2.20    4.10
   1   2   9    4.70    5.10
   1   2   9    6.20    3.20
   1   2   9    1.20    4.70
   1   2   9    1.10    3.70
   1   2   9    0.50    4.60
   1   2   9    7.80    5.60
  -2  -2  -9 2395.56   71.49
  -2  -2  -9 2258.47   74.99
  -2  -2  -9 2442.46   74.89
  -2  -2  -9 2376.16   71.49
   2   2   9 2424.16   75.29
   2   2   9 2360.36   74.19
   2   2   9 2364.66   73.19
   2   2   9 2288.07   74.49
   2   2   9 2311.07   72.89
   2   2   9 2332.67   74.79
   2   2   9 2336.07   74.59
  -3  -2  -9  245.68   10.80
  -3  -2  -9  232.18   11.40
   3   2   9  244.58   13.80
   3   2   9  267.07   16.10
   3   2   9  251.67   12.60
   3   2   9  253.67   16.30
   3   2   9  208.08   14.60
  -4  -2  -9    1.30    7.20
  -4  -2  -9   -3.60    4.60
  -4  -2  -9   -2.10    5.70
   4   2   9   -2.90    9.90
   4   2   9    2.00    5.40
   4   2   9   -6.20    6.60
   4   2   9    0.80   10.50
   4   2   9   -0.60    9.50
  -5  -2  -9   40.20    7.30
  -5  -2  -9   31.60    9.70
   5   2   9   36.00   12.00
   5   2   9   40.70   14.10
   5   2   9   43.80    9.70
   5   2   9   25.20   13.60
   5   2   9   42.60    8.70
  -6  -2  -9    3.20   12.00
  -6  -2  -9    6.30    8.20
   6   2   9   -5.40   10.20
   6   2   9   12.10   19.10
   6   2   9    4.90    9.10
   6   2   9   -6.80   13.70
  -8   3   9   16.90   12.50
  -8   3   9   11.90   11.20
  -8   3   9   23.00   10.40
  -8   3   9   21.90   11.40
   7  -3  -9    2.10   12.50
  -7   3   9   -3.70    7.60
  -7   3   9    8.30    9.60
  -7   3   9   11.80    9.10
  -7   3   9    4.90   12.50
  -7   3   9   -2.20    8.40
   6  -3  -9  193.58   14.50
   6  -3  -9  212.38   18.10
  -6   3   9  185.28   13.90
  -6   3   9  207.58   17.50
  -6   3   9  227.08   14.60
  -6   3   9  219.28   13.40
  -6   3   9  226.58   15.80
   5  -3  -9   61.49    9.20
   5  -3  -9   40.80    8.60
  -5   3   9   50.49    6.40
  -5   3   9   51.99    7.40
  -5   3   9   53.09    8.00
  -5   3   9   59.59    8.40
  -5   3   9   60.89    8.80
  -5   3   9   54.59    7.40
   4  -3  -9    4.40    5.70
   4  -3  -9    2.00    6.30
   4  -3  -9    3.80    6.40
  -4   3   9    3.40    5.00
  -4   3   9    1.10    4.20
  -4   3   9    3.40    5.50
  -4   3   9    8.30    4.80
  -4   3   9   -0.10    3.70
  -4   3   9    1.60    5.70
   3  -3  -9   53.39    7.00
   3  -3  -9   75.09    6.80
   3  -3  -9   42.40    6.80
   3  -3  -9   61.49    6.70
  -3   3   9   64.59    5.20
  -3   3   9   66.29    5.90
  -3   3   9   62.69    5.80
  -3   3   9   61.69    7.30
  -3   3   9   60.49    5.60
  -3   3   9   59.89    7.60
   2  -3  -9    9.10    5.90
   2  -3  -9    2.90    6.20
   2  -3  -9    5.90    4.30
   2  -3  -9    8.30    4.90
  -2   3   9    9.80    3.80
  -2   3   9    9.80    5.30
  -2   3   9   10.10    5.60
  -2   3   9   11.40    5.60
  -2   3   9    9.60    3.90
  -2   3   9   15.60    4.10
   1  -3  -9   24.60    4.80
   1  -3  -9   31.20    6.00
   1  -3  -9   15.40    6.90
  -1   3   9   31.10    5.60
  -1   3   9   27.80    4.40
  -1   3   9   23.00    4.70
  -1   3   9   34.60    6.10
  -1   3   9   35.40    4.10
   0  -3  -9   -2.00    7.00
   0  -3  -9   -1.30    4.40
   0   3   9   -0.20    5.60
   0   3   9   -0.50    3.90
   0   3   9    0.40    4.50
   0   3   9   -1.60    3.30
   0   3   9   -3.20    5.20
   0   3   9    0.50    3.90
  -1  -3  -9  692.73   21.70
  -1  -3  -9  661.13   27.10
  -1  -3  -9  694.73   25.70
  -1  -3  -9  685.23   21.70
   1   3   9  678.63   23.90
   1   3   9  704.13   24.30
   1   3   9  752.52   26.80
   1   3   9  700.63   26.80
   1   3   9  652.93   25.50
   1   3   9  683.83   25.60
  -2  -3  -9   20.40    6.40
  -2  -3  -9   25.40    4.50
  -2  -3  -9   21.60    3.90
   2   3   9   10.60    7.20
   2   3   9   21.20    9.10
   2   3   9   12.60    7.50
   2   3   9   18.30    6.20
   2   3   9   26.40    5.30
   2   3   9   27.50    7.40
  -3  -3  -9   85.49   10.20
  -3  -3  -9   89.39    7.70
  -3  -3  -9   83.29    6.70
   3   3   9   64.69   10.70
   3   3   9   82.69   12.40
   3   3   9   96.99   10.30
   3   3   9   64.59   10.10
  -4  -3  -9    0.00    7.60
  -4  -3  -9    7.80    9.00
  -4  -3  -9   -1.80    5.40
   4   3   9   -5.20    6.20
   4   3   9    6.70   12.00
   4   3   9    3.90   10.80
   4   3   9    1.10   11.70
   4   3   9    2.60    8.00
  -5  -3  -9    8.20    7.20
  -5  -3  -9   -5.40   10.60
   5   3   9   -3.20   13.30
   5   3   9   -2.70    8.10
   5   3   9    1.80    9.20
   5   3   9    5.50   16.00
   7  -4  -9    3.30   15.40
   7  -4  -9    9.00   16.70
  -7   4   9   21.40    8.60
  -7   4   9    6.70    9.60
  -7   4   9   10.00   10.60
   6  -4  -9   63.09   13.00
   6  -4  -9   78.59   12.80
  -6   4   9   80.79   10.80
  -6   4   9   78.49   12.10
  -6   4   9   76.49   11.30
  -6   4   9   67.79    9.80
  -6   4   9   85.69   11.30
   5  -4  -9    6.20    9.30
   5  -4  -9    5.00    8.70
  -5   4   9    1.10    6.90
  -5   4   9    9.30    7.00
  -5   4   9    4.80    7.80
  -5   4   9    7.60    5.70
  -5   4   9    5.00    7.70
  -5   4   9   -0.70    7.70
   4  -4  -9   48.50    8.70
   4  -4  -9   47.90    8.60
  -4   4   9   47.70    6.00
  -4   4   9   38.20    7.50
  -4   4   9   45.90    7.60
  -4   4   9   46.20    8.90
  -4   4   9   39.40    7.10
  -4   4   9   49.40    7.20
   3  -4  -9    8.10    6.30
   3  -4  -9    2.10    7.10
   3  -4  -9    5.00    7.90
  -3   4   9    4.70    4.20
  -3   4   9    3.60    5.80
  -3   4   9    5.30    5.10
  -3   4   9    1.80    5.50
  -3   4   9    4.00    6.60
  -3   4   9    3.00    6.50
   2  -4  -9   83.59    9.00
   2  -4  -9  113.29    9.20
  -2   4   9   93.09    9.30
  -2   4   9  129.19    8.10
  -2   4   9  103.99    7.30
  -2   4   9  108.59    8.70
  -2   4   9  101.49   11.10
  -2   4   9  101.19    9.20
   1  -4  -9   14.90    5.80
   1  -4  -9   -4.60    8.20
   1  -4  -9    6.40    7.50
  -1   4   9    4.90    6.50
  -1   4   9   15.70    5.30
  -1   4   9   19.80    6.20
  -1   4   9    5.70    4.10
  -1   4   9   25.20    7.30
   0  -4  -9   45.80    3.30
   0  -4  -9   47.40    7.80
   0  -4  -9   54.59    3.30
   0   4   9   40.20    7.50
   0   4   9   45.70    7.00
   0   4   9   52.59    7.90
   0   4   9   51.59    5.70
   0   4   9   53.89    8.60
   0   4   9   48.30    7.60
  -1  -4  -9  100.49    6.70
  -1  -4  -9   93.19    9.80
   1   4   9  102.79   10.80
   1   4   9  111.49    8.30
   1   4   9   97.99   10.40
   1   4   9  100.69    9.00
   1   4   9  100.39   10.30
  -2  -4  -9   -1.80    5.20
  -2  -4  -9    3.40    4.50
  -2  -4  -9    0.80    7.10
   2   4   9   -4.50    9.10
   2   4   9    0.90    8.60
   2   4   9   -1.70    7.10
   2   4   9   -5.10    7.50
  -3  -4  -9   63.89    7.00
  -3  -4  -9   68.69   11.70
   3   4   9   39.40   13.20
   3   4   9   35.00   11.70
   3   4   9   50.29   11.30
   3   4   9   57.59    8.40
   3   4   9   59.19   10.30
  -4  -4  -9    5.70   11.30
  -4  -4  -9   14.00    6.90
   4   4   9    8.30   12.40
   4   4   9    6.50   15.60
   4   4   9   11.20    8.00
   4   4   9   10.40   17.10
   4   4   9    9.70    9.50
  -5  -4  -9   35.30   14.40
  -5  -4  -9   -1.50    8.60
   5   4   9    2.40   14.90
   5   4   9   -4.90   11.80
   5   4   9   -3.20    9.30
   7  -5  -9   35.20   16.80
   7  -5  -9   10.90   18.20
  -7   5   9   15.90   10.90
  -7   5   9   23.40   10.10
  -7   5   9   20.80   12.10
  -7   5   9   23.00   11.30
   6  -5  -9    0.90   14.40
   6  -5  -9   -3.70   13.60
  -6   5   9   -1.30    9.30
  -6   5   9   -8.50    9.80
  -6   5   9   -4.40   13.10
  -6   5   9    4.00    7.90
  -6   5   9    2.70    8.70
   5  -5  -9   19.70   10.80
   5  -5  -9    9.80   11.40
  -5   5   9   16.50    8.30
  -5   5   9   21.50    8.00
  -5   5   9   20.10    8.60
  -5   5   9   16.80    9.80
  -5   5   9   18.60   10.40
   4  -5  -9   26.10    8.90
   4  -5  -9   20.50    9.70
  -4   5   9   19.90    8.30
  -4   5   9   20.80    8.80
  -4   5   9   17.90    9.00
  -4   5   9   17.90    6.40
  -4   5   9   29.60    7.50
   3  -5  -9   59.49   10.40
   3  -5  -9   93.19   10.50
  -3   5   9   76.89    9.40
  -3   5   9   82.69    7.60
  -3   5   9   88.79   10.30
  -3   5   9   87.09    9.30
  -3   5   9   81.39   10.20
  -3   5   9   74.29   10.30
   2  -5  -9   36.40   10.10
   2  -5  -9   42.10    8.40
  -2   5   9   26.80    6.10
  -2   5   9   25.90    8.10
  -2   5   9   23.40    8.00
  -2   5   9   37.60    8.20
  -2   5   9   32.30    8.00
   1  -5  -9    1.50    9.60
   1  -5  -9    0.20    2.70
   1  -5  -9    2.90    6.60
   1  -5  -9    0.40    2.90
  -1   5   9   -5.60    6.70
  -1   5   9   -1.50    7.50
  -1   5   9   11.40    9.20
  -1   5   9    2.80    5.20
  -1   5   9    7.70    7.40
   0  -5  -9   21.30    8.00
   0  -5  -9   22.10    4.20
   0   5   9   15.00    5.80
   0   5   9   16.20    8.70
   0   5   9   15.50    7.50
   0   5   9   21.60    9.10
  -1  -5  -9   49.30    9.80
  -1  -5  -9   44.50    6.90
  -1  -5  -9   61.09    6.10
   1   5   9   56.79    8.10
   1   5   9   51.29   10.70
   1   5   9   43.90    9.80
   1   5   9   45.60    9.40
   1   5   9   48.70   12.70
  -2  -5  -9   14.90    9.10
  -2  -5  -9   14.00    5.90
  -2  -5  -9   18.00    7.80
   2   5   9   11.80    9.40
   2   5   9   18.90   11.80
   2   5   9   20.30   13.70
   2   5   9   16.00    7.70
  -3  -5  -9  117.39    9.60
  -3  -5  -9   92.79   13.20
   3   5   9  107.19   16.70
   3   5   9   71.09   12.50
   3   5   9  100.19   16.60
   3   5   9  110.59   13.50
   3   5   9  123.69   11.90
  -4  -5  -9   13.60    8.30
  -4  -5  -9   12.90   13.10
   4   5   9   15.40   10.10
   4   5   9   11.90   14.30
   4   5   9   19.60   11.90
   6  -6  -9    5.40   18.10
   6  -6  -9    1.50   15.30
  -6   6   9    6.40   10.80
  -6   6   9  -12.40   12.50
  -6   6   9    3.50    9.50
  -6   6   9    0.70   11.00
   5  -6  -9  170.68   17.40
   5  -6  -9  112.49   17.30
  -5   6   9  108.79   14.20
  -5   6   9  126.39   16.30
  -5   6   9  135.29   13.30
  -5   6   9  152.88   12.10
  -5   6   9  130.39   14.00
   4  -6  -9  102.79   15.40
  -4   6   9   96.19   11.70
  -4   6   9   89.29   20.60
  -4   6   9   99.09   10.20
  -4   6   9  107.49   11.60
  -4   6   9   80.49   12.50
   3  -6  -9   92.69   13.30
   3  -6  -9   93.49   14.00
  -3   6   9   79.09   10.50
  -3   6   9   92.89   11.90
  -3   6   9   81.19    9.30
  -3   6   9   87.69   12.70
   2  -6  -9   31.30   12.90
   2  -6  -9   43.20    4.70
   2  -6  -9   52.59   11.20
   2  -6  -9   45.80    4.30
  -2   6   9   42.30   10.10
  -2   6   9   36.00    9.10
  -2   6   9   52.49    8.10
  -2   6   9   41.00   10.00
  -2   6   9   54.09   11.40
   1  -6  -9    5.90    8.90
   1  -6  -9    3.90   12.00
   1  -6  -9    5.30    4.80
   1  -6  -9    7.10    5.60
  -1   6   9   -0.30    6.90
  -1   6   9   12.60   11.30
  -1   6   9   15.40   12.50
  -1   6   9    8.70    9.00
   0  -6  -9   16.90   10.00
   0  -6  -9   17.70    6.80
   0  -6  -9   21.30    5.50
   0   6   9   35.50   14.10
   0   6   9   26.40    7.60
   0   6   9   22.30   12.30
   0   6   9   26.50    9.70
   0   6   9   12.90    9.40
  -1  -6  -9    1.60    7.90
  -1  -6  -9   -1.30    6.30
  -1  -6  -9   -1.60   10.60
   1   6   9    0.20   13.90
   1   6   9    1.80    9.80
   1   6   9    2.60   13.80
   1   6   9    2.30    7.70
   1   6   9   -4.80    9.50
  -2  -6  -9    3.80    7.20
  -2  -6  -9    5.00   12.70
   2   6   9    7.00   11.40
   2   6   9   -5.40   18.10
   2   6   9   11.90    9.40
   2   6   9    7.10   19.00
   4  -7  -9    3.40   14.20
   4  -7  -9  -26.20   17.90
  -4   7   9    4.60   10.60
  -4   7   9   16.70    9.60
  -4   7   9   -1.00   12.70
  -4   7   9    1.60   10.80
   3  -7  -9   26.70   16.60
   3  -7  -9   14.60    4.80
   3  -7  -9   12.70   13.00
   3  -7  -9   12.40    6.00
  -3   7   9    9.00   12.10
  -3   7   9   20.30    8.90
  -3   7   9   19.90   10.50
   2  -7  -9  -15.80   16.30
   2  -7  -9    0.40    9.40
   2  -7  -9   -1.70    6.80
   2  -7  -9    1.70   12.00
  -2   7   9    1.00    8.70
  -2   7   9    6.20   10.00
  -2   7   9   -5.90   16.10
  -2   7   9    7.30   13.20
   1  -7  -9   49.90    9.00
   1  -7  -9   49.10    7.30
   1  -7  -9   69.59   14.80
   1  -7  -9   33.50   18.10
  -1   7   9   41.70   17.60
  -1   7   9   74.09   18.30
  -1   7   9   48.20   11.90
  -1   7   9   40.60   10.00
   0  -7  -9    3.70   12.00
   0  -7  -9    2.30    7.20
   0   7   9    2.40    9.60
   0   7   9   16.00   20.50
   0   7   9   -3.40   12.20
   0   9 -10   23.40   10.10
   0  -9  10   23.90   11.10
   0  -9  10   38.00   13.90
  -1   9 -10    4.40    9.20
  -1   9 -10    6.00   13.60
   1  -9  10    3.50    9.80
   1  -9  10   -0.20   12.40
  -2   9 -10   13.10    9.60
  -2   9 -10    7.10   14.10
  -2   9 -10    3.70   10.60
   2  -9  10    7.70   10.50
   2  -9  10    6.40   13.00
   2   8 -10   -0.20   14.60
  -2  -8  10    6.90    9.30
  -2  -8  10   -7.00   10.70
   1   8 -10    7.90    7.60
  -1  -8  10   18.40   23.60
  -1  -8  10   -5.40    8.70
  -1  -8  10    0.70   10.40
  -1  -8  10    7.10    8.90
   0   8 -10    1.70    7.00
   0   8 -10   -1.30   10.60
   0  -8  10    6.90   10.70
   0  -8  10   -0.60    8.30
   0  -8  10   -3.50   10.20
   0  -8  10  -22.20   23.90
  -1   8 -10   13.30   11.40
  -1   8 -10   16.00    7.40
   1  -8  10   10.10    9.40
   1  -8  10    0.70   17.80
   1  -8  10    9.70    8.00
  -2   8 -10    1.50   10.90
  -2   8 -10    3.10    7.20
   2  -8  10    4.90    8.60
   2  -8  10    2.30   10.10
  -3   8 -10   29.50   13.40
  -3   8 -10    9.50    7.70
  -3   8 -10   12.80   10.00
   3  -8  10   31.30   12.40
   3  -8  10   20.70    9.50
  -4   8 -10   -3.20   12.40
  -4   8 -10    1.60    8.00
   4  -8  10   -4.50   12.50
  -5   8 -10    4.20   13.20
  -5   8 -10   -3.90    9.10
   5  -8  10    1.30   10.00
   4   7 -10   53.69   15.10
   4   7 -10   64.39    9.50
  -4  -7  10   74.09   15.00
  -4  -7  10   69.69   14.60
   3   7 -10    1.20    8.90
   3   7 -10    4.40   12.30
   3   7 -10   -2.10    6.80
   3   7 -10    3.00    9.20
  -3  -7  10    4.40   10.90
  -3  -7  10    4.90   35.20
  -3  -7  10   -0.20    7.20
  -3  -7  10   -1.00    8.70
   2   7 -10   35.90    6.70
   2   7 -10   35.70   13.80
   2   7 -10   39.60    7.00
   2   7 -10   32.30   12.30
  -2  -7  10   30.50   20.50
  -2  -7  10   36.90    8.50
  -2  -7  10   35.80   10.30
  -2  -7  10   29.80    5.00
   1   7 -10    1.40    5.50
   1   7 -10    7.90    7.20
  -1  -7  10    4.60    7.00
  -1  -7  10    2.10    8.10
  -1  -7  10    0.30   16.40
  -1  -7  10    1.70    7.00
  -1  -7  10   11.10   11.90
   0   7 -10   22.50    9.10
   0   7 -10   23.90    7.30
   0   7 -10   25.40    5.80
   0  -7  10   27.10    7.00
   0  -7  10   12.00   16.90
   0  -7  10   24.30    8.60
   0  -7  10   12.20   11.70
   0  -7  10   23.50    8.60
  -1   7 -10   10.30    8.50
  -1   7 -10    7.20    8.70
  -1   7 -10   20.20    5.90
   1  -7  10   16.10    6.70
   1  -7  10    6.00   12.50
   1  -7  10   16.60    9.70
   1  -7  10   32.00   12.80
   1  -7  10   16.90    8.40
  -2   7 -10    9.00    5.70
  -2   7 -10    9.60    7.80
  -2   7 -10    1.00    8.80
   2  -7  10    2.50    7.60
   2  -7  10    1.20   12.40
   2  -7  10    8.80    6.50
   2  -7  10    5.50   13.10
  -3   7 -10   19.10   10.50
  -3   7 -10   26.20    6.60
   3  -7  10   25.80    9.50
   3  -7  10   21.70   14.40
   3  -7  10   22.00   14.90
   3  -7  10   21.80    8.00
  -4   7 -10   22.00   11.20
  -4   7 -10   14.50    6.90
   4  -7  10   18.00    8.50
   4  -7  10   15.10   15.40
   4  -7  10   30.50   11.20
  -5   7 -10    2.00    7.90
  -5   7 -10    5.10   12.00
   5  -7  10    3.60   13.90
   5  -7  10    0.00    8.00
  -6   7 -10   -2.90   12.20
  -6   7 -10    1.20    9.20
   6  -7  10    3.40    9.70
   5   6 -10   34.30   15.90
   5   6 -10   26.40    7.80
  -5  -6  10   28.00   13.10
  -5  -6  10   32.60   10.50
  -5  -6  10   37.80   10.50
   4   6 -10   46.90    7.10
   4   6 -10   34.20    7.70
   4   6 -10   37.00   11.90
  -4  -6  10   54.89    9.30
  -4  -6  10   40.50   19.40
  -4  -6  10   31.80    8.60
  -4  -6  10   48.80   11.90
   3   6 -10    4.50    9.60
   3   6 -10    4.20    5.10
   3   6 -10    0.00    5.70
   3   6 -10   -1.60    7.20
  -3  -6  10    8.90   15.80
  -3  -6  10    2.70    8.00
  -3  -6  10   -0.20    5.90
  -3  -6  10    4.90    6.60
   2   6 -10   30.80    9.60
   2   6 -10   19.50   11.30
   2   6 -10   36.30    5.80
   2   6 -10   30.80    5.10
   2   6 -10   35.20    5.70
  -2  -6  10   28.20    4.60
  -2  -6  10   35.60    8.30
  -2  -6  10   30.20   11.30
  -2  -6  10   40.40    7.30
   1   6 -10   57.09    5.60
   1   6 -10   54.29    4.00
   1   6 -10   49.99    5.80
   1   6 -10   44.50   10.50
  -1  -6  10   51.59   13.00
  -1  -6  10   58.39    8.50
  -1  -6  10   46.60    6.60
  -1  -6  10   56.29    7.40
   0   6 -10  245.88   10.90
   0   6 -10  248.68   15.50
   0   6 -10  241.68   11.40
   0  -6  10  209.88   19.10
   0  -6  10  239.68   13.10
   0  -6  10  235.68   15.10
   0  -6  10  219.68   14.80
   0  -6  10  217.88   13.90
  -1   6 -10   26.90    4.80
  -1   6 -10   31.10    7.90
  -1   6 -10   35.10    5.60
   1  -6  10   37.00    8.00
   1  -6  10   44.90   10.40
   1  -6  10   15.60    9.60
   1  -6  10   32.00    6.30
   1  -6  10   42.10    8.00
  -2   6 -10   58.99    6.90
  -2   6 -10   75.19    6.50
  -2   6 -10   83.29   10.50
   2  -6  10   60.79   11.90
   2  -6  10   74.49    9.30
   2  -6  10   67.09   11.60
   2  -6  10   61.99    7.70
  -3   6 -10    7.30    7.90
  -3   6 -10    1.20    4.80
   3  -6  10   11.70   10.20
   3  -6  10    1.40   10.30
   3  -6  10    8.10    6.00
   3  -6  10    7.10    7.30
  -4   6 -10    1.90    5.80
  -4   6 -10    9.30    8.10
  -4   6 -10    7.80    8.70
   4  -6  10   11.90   12.20
   4  -6  10    5.40    9.40
   4  -6  10    5.40    7.20
   4  -6  10    1.10   15.30
  -5   6 -10    9.20    6.70
  -5   6 -10    4.80    9.20
   5  -6  10   18.10    8.30
   5  -6  10    4.30   10.60
   5  -6  10   16.40   14.40
  -6   6 -10    4.60   11.00
  -6   6 -10   -2.50    8.10
   6  -6  10   -7.10   12.40
   6  -6  10   12.10   10.80
   6   5 -10   -4.30    6.60
   6   5 -10    2.50   15.40
  -6  -5  10  -10.20   10.10
  -6  -5  10   -3.30   11.30
  -6  -5  10   -6.80   10.30
   5   5 -10    3.90    6.00
   5   5 -10    6.80   12.40
  -5  -5  10   16.00    8.30
  -5  -5  10    6.10    8.30
  -5  -5  10   17.20   17.70
  -5  -5  10   10.30    9.90
   4   5 -10   -8.80    8.30
   4   5 -10   -3.10    4.00
   4   5 -10   -3.10    9.40
  -4  -5  10    4.80    6.40
  -4  -5  10    1.00    6.60
  -4  -5  10   11.60   13.60
  -4  -5  10   -1.50    7.40
   3   5 -10    4.30    7.40
   3   5 -10    0.90    9.50
   3   5 -10    4.40    3.60
   3   5 -10    3.50    3.50
   3   5 -10    7.30    6.40
  -3  -5  10    2.10    5.20
  -3  -5  10    0.50    5.30
  -3  -5  10   11.40   13.10
  -3  -5  10   -0.70    6.60
   2   5 -10   17.70    3.50
   2   5 -10   18.90    4.90
   2   5 -10   21.00    3.30
   2   5 -10   28.70    7.90
  -2  -5  10   19.70    6.70
  -2  -5  10   19.50   10.60
  -2  -5  10   23.80    4.10
  -2  -5  10   19.40    6.50
  -2  -5  10   18.90    5.30
  -2  -5  10   25.50    8.60
  -2  -5  10   24.10    7.20
   1   5 -10   61.99    4.30
   1   5 -10   59.79    4.20
  -1  -5  10   72.99   10.60
  -1  -5  10   65.49    4.30
  -1  -5  10   59.19    6.40
  -1  -5  10   68.49    7.70
  -1  -5  10   76.69    9.10
  -1  -5  10   70.79    6.60
  -1  -5  10   52.99    8.90
   0   5 -10 1195.78   42.20
   0   5 -10 1202.08   41.50
   0   5 -10 1206.88   37.80
   0   5 -10 1207.78   37.80
   0  -5  10 1234.78   42.30
   0  -5  10 1188.68   40.20
   0  -5  10 1213.68   41.40
   0  -5  10 1227.28   40.10
   0  -5  10 1253.17   41.40
   0  -5  10 1267.77   39.90
  -1   5 -10  275.47   14.60
  -1   5 -10  252.17   10.40
   1  -5  10  248.08   15.60
   1  -5  10  274.37   12.50
   1  -5  10  264.87   14.90
   1  -5  10  279.17   14.70
   1  -5  10  248.78   15.00
  -2   5 -10  395.06   15.00
  -2   5 -10  371.56   18.30
  -2   5 -10  376.96   14.50
   2  -5  10  406.16   18.40
   2  -5  10  410.66   18.20
   2  -5  10  375.96   19.40
   2  -5  10  373.16   17.30
   2  -5  10  395.56   16.20
   2  -5  10  384.06   19.30
  -3   5 -10   27.60    7.10
  -3   5 -10   45.40    5.50
  -3   5 -10   38.20    5.90
   3  -5  10   43.00    8.60
   3  -5  10   31.50   10.00
   3  -5  10   37.80    6.10
   3  -5  10   50.79   10.30
  -4   5 -10    4.30    4.90
  -4   5 -10    8.50    7.00
   4  -5  10    7.90   11.00
   4  -5  10    8.50    7.90
   4  -5  10    2.10    5.70
  -5   5 -10   52.59   11.10
  -5   5 -10   53.79    7.20
   5  -5  10   59.99    5.40
   5  -5  10   51.79    8.30
   5  -5  10   39.80   10.10
   5  -5  10   56.19   13.90
  -6   5 -10   24.80    8.30
  -6   5 -10   16.80   10.60
   6  -5  10   21.00    7.10
   6  -5  10   30.20    9.50
   6  -5  10   20.90   11.40
  -7   5 -10    5.00   14.80
  -7   5 -10    4.40    8.60
  -7   5 -10    6.00    9.60
   7  -5  10   11.90   10.80
   7  -5  10    6.50   13.30
   6   4 -10   13.50    4.70
   6   4 -10   12.30    5.00
   6   4 -10    3.30   13.60
  -6  -4  10   18.70   10.20
  -6  -4  10    8.90   10.50
  -6  -4  10   18.70    9.00
  -6  -4  10   19.60   19.10
   5   4 -10   -1.30   11.20
  -5  -4  10   -0.90   12.60
  -5  -4  10   -1.90    8.00
  -5  -4  10    0.40    7.10
  -5  -4  10   -1.00    6.80
   4   4 -10   15.20    8.40
   4   4 -10   23.60    9.30
   4   4 -10   20.10    8.10
  -4  -4  10   26.60    6.60
  -4  -4  10   28.80   10.70
  -4  -4  10   16.40    7.60
  -4  -4  10   15.70    5.90
  -4  -4  10   28.10    7.30
   3   4 -10   20.80    7.60
   3   4 -10   32.10    6.30
   3   4 -10   34.60    7.20
  -3  -4  10   26.70    5.60
  -3  -4  10   20.60    6.10
  -3  -4  10   26.70    8.80
  -3  -4  10   41.90    6.70
  -3  -4  10   29.50    5.50
   2   4 -10    3.60    6.40
   2   4 -10    6.00    6.10
   2   4 -10    9.10    4.30
   2   4 -10    9.20    5.70
  -2  -4  10   13.00    7.90
  -2  -4  10    4.10    6.20
  -2  -4  10    5.90    4.60
  -2  -4  10    6.70    3.90
  -2  -4  10   10.80    5.10
  -2  -4  10   10.20    3.80
  -2  -4  10    8.80    3.30
   1   4 -10  102.29    9.80
  -1  -4  10   88.19    6.30
  -1  -4  10   87.89    7.40
  -1  -4  10   91.89    6.70
  -1  -4  10   91.39    5.90
  -1  -4  10   86.79    7.50
  -1  -4  10  106.99    9.10
  -1  -4  10   93.09    6.80
   0   4 -10 1173.88   39.00
   0   4 -10 1178.18   38.50
   0  -4  10 1192.68   38.40
   0  -4  10 1137.49   37.20
   0  -4  10 1094.79   38.60
   0  -4  10 1202.68   37.20
   0  -4  10 1140.49   38.30
   0  -4  10 1133.89   38.10
  -1   4 -10   30.00    2.70
  -1   4 -10   32.60    5.90
  -1   4 -10   36.40    7.80
  -1   4 -10   31.10    2.70
   1  -4  10   30.30    5.50
   1  -4  10   31.10    6.40
   1  -4  10   38.20    6.40
   1  -4  10   36.20    6.80
   1  -4  10   38.60    4.60
   1  -4  10   33.60    5.20
  -2   4 -10 1845.32   61.99
  -2   4 -10 2056.09   62.09
  -2   4 -10 2027.30   65.69
  -2   4 -10 2052.89   65.39
   2  -4  10 2024.60   64.79
   2  -4  10 2016.70   65.19
   2  -4  10 2071.39   65.69
   2  -4  10 2111.59   63.69
   2  -4  10 2082.69   65.39
   2  -4  10 2075.19   63.79
  -3   4 -10   25.90    4.30
  -3   4 -10   25.80    4.80
  -3   4 -10   22.70    6.10
   3  -4  10   22.60    2.70
   3  -4  10   26.80    6.50
   3  -4  10   20.90    5.20
   3  -4  10   29.80    7.40
  -4   4 -10   -4.80    5.40
  -4   4 -10    1.90    4.20
  -4   4 -10   -1.90    6.30
   4  -4  10    4.70    7.30
   4  -4  10    1.90    5.00
   4  -4  10    0.20    8.10
   4  -4  10    0.40    3.70
  -5   4 -10   -6.60    5.30
  -5   4 -10    0.80    8.30
  -5   4 -10    0.80    7.10
   5  -4  10   -2.00    5.30
   5  -4  10    1.20    8.00
   5  -4  10   -3.40    6.60
   5  -4  10    2.60   10.70
  -6   4 -10   43.60   10.80
  -6   4 -10   55.99    7.80
  -6   4 -10   59.79    8.30
   6  -4  10   46.30   11.20
   6  -4  10   63.59   10.10
   6  -4  10   51.59    8.80
  -7   4 -10    3.00   14.10
  -7   4 -10   -2.90    9.00
  -7   4 -10   -1.90    8.50
   7  -4  10    3.20    9.80
   7  -4  10    5.80   13.60
   7   3 -10    4.00   15.70
  -7  -3  10   -6.40   10.40
  -7  -3  10   11.80   11.00
  -7  -3  10   -2.30    9.10
   6   3 -10   37.50   15.50
  -6  -3  10   79.99   10.90
  -6  -3  10   72.39   10.50
  -6  -3  10   80.29   15.60
  -6  -3  10   70.59    9.20
   5   3 -10   18.20    9.60
   5   3 -10    5.50   10.00
  -5  -3  10   12.30    7.10
  -5  -3  10   12.40    7.90
  -5  -3  10   14.10   10.30
  -5  -3  10    9.70    5.90
   4   3 -10   23.30    7.10
   4   3 -10   21.30    7.50
  -4  -3  10   30.40    6.20
  -4  -3  10   34.30    8.60
  -4  -3  10   23.10    5.10
  -4  -3  10   34.10    6.70
  -4  -3  10   30.80    6.20
   3   3 -10   44.90    6.60
   3   3 -10   59.19    7.00
   3   3 -10   45.60    6.30
  -3  -3  10   58.89    5.60
  -3  -3  10   50.29    7.60
  -3  -3  10   51.09    3.90
  -3  -3  10   51.79    5.90
  -3  -3  10   48.90    5.20
  -3  -3  10   51.39    6.00
  -3  -3  10   44.60    4.00
   2   3 -10   84.79    6.70
   2   3 -10   81.49    7.10
   2   3 -10   95.59    7.10
   2   3 -10   85.79    6.40
  -2  -3  10  127.49    8.10
  -2  -3  10   85.19    6.30
  -2  -3  10   79.69    7.00
  -2  -3  10   88.79    6.10
  -2  -3  10   85.49    5.70
  -2  -3  10   81.09    5.80
  -2  -3  10   83.69    6.30
   1   3 -10   33.60    4.90
   1   3 -10   38.40    4.50
  -1  -3  10   46.20    6.80
  -1  -3  10   37.00    4.20
  -1  -3  10   38.10    6.60
  -1  -3  10   40.90    3.90
  -1  -3  10   35.50    4.90
  -1  -3  10   39.80    5.00
  -1  -3  10   35.80    3.90
   0   3 -10  155.18    8.70
   0   3 -10  165.18    9.50
   0  -3  10  177.18    7.80
   0  -3  10  170.28    7.30
   0  -3  10  174.18    8.70
   0  -3  10  173.28    8.10
   0  -3  10  167.98   10.10
   0  -3  10  172.08    9.40
   0  -3  10  162.88    8.70
  -1   3 -10  253.37   11.50
  -1   3 -10  248.18   12.40
   1  -3  10  249.58   11.60
   1  -3  10  245.68    9.20
   1  -3  10  238.38   11.70
   1  -3  10  252.57   12.00
   1  -3  10  249.88    9.10
   1  -3  10  241.38   10.60
   1  -3  10  259.97   11.40
   1  -3  10  265.97   13.40
  -2   3 -10  134.59    5.70
  -2   3 -10  132.59    9.50
  -2   3 -10  138.79   11.00
  -2   3 -10  146.79    5.90
   2  -3  10  132.49   10.10
   2  -3  10  123.49    8.50
   2  -3  10  131.39    8.00
   2  -3  10  147.69   10.60
   2  -3  10  138.69    6.80
  -3   3 -10    7.10    7.30
  -3   3 -10    6.10    3.10
  -3   3 -10    4.80    5.10
  -3   3 -10    6.00    4.20
   3  -3  10    4.70    5.00
   3  -3  10    1.00    3.30
   3  -3  10    3.60    4.10
   3  -3  10    9.80    6.20
   3  -3  10    4.10    5.60
  -4   3 -10  170.58   13.30
  -4   3 -10  166.58    9.40
  -4   3 -10  158.48   10.10
   4  -3  10  172.98   10.10
   4  -3  10  144.39   12.90
   4  -3  10  175.78   11.20
   4  -3  10  200.78   13.80
   4  -3  10  128.59   17.10
  -5   3 -10   45.60    6.60
  -5   3 -10   52.09   10.40
  -5   3 -10   56.79    7.80
   5  -3  10   61.79   12.40
   5  -3  10   50.09    7.90
   5  -3  10   47.00   10.40
   5  -3  10   65.29    7.70
  -6   3 -10    5.30    7.00
  -6   3 -10    4.40   10.60
   6  -3  10   16.50    7.50
   6  -3  10    5.10   11.00
   6  -3  10    6.00    8.60
   6  -3  10    9.30   14.40
  -7   3 -10   -1.60    8.80
  -7   3 -10    3.70    8.70
  -7   3 -10    7.40   14.00
   7  -3  10    2.60   13.60
   7   2 -10    4.10   13.60
  -7  -2  10    6.20   10.70
  -7  -2  10    7.70    8.50
  -7  -2  10   10.30    9.80
   6   2 -10   15.40   10.50
  -6  -2  10   22.20    7.00
  -6  -2  10   17.30    7.90
  -6  -2  10   36.00    8.70
  -6  -2  10   30.50   11.80
   5   2 -10    6.90    8.40
   5   2 -10   11.40    8.40
  -5  -2  10    4.80    8.10
  -5  -2  10    6.60    5.80
  -5  -2  10    0.40    4.70
   4   2 -10    3.30    5.90
   4   2 -10    3.00    6.20
   4   2 -10    4.60    6.00
   4   2 -10    7.10    6.60
  -4  -2  10    2.60    5.10
  -4  -2  10    3.20    3.80
  -4  -2  10    4.30    4.50
  -4  -2  10    0.70    5.80
  -4  -2  10   -0.50    3.00
  -4  -2  10   -0.70    4.50
   3   2 -10   33.30    6.00
   3   2 -10   35.80    5.20
   3   2 -10   34.60    4.80
  -3  -2  10   35.70    3.90
  -3  -2  10   41.70    4.50
  -3  -2  10   45.10    5.80
  -3  -2  10   46.30    5.30
  -3  -2  10   35.20    4.00
  -3  -2  10   37.80    4.20
   2   2 -10  129.99    7.00
  -2  -2  10  129.69    6.10
  -2  -2  10  125.89    8.00
  -2  -2  10  131.99    7.40
  -2  -2  10  120.79    6.20
  -1  -2  10   14.10    2.40
  -1  -2  10   10.40    2.20
  -1  -2  10   17.40    3.50
  -1  -2  10   13.70    3.50
   0   2 -10  236.38    9.30
   0   2 -10  237.48    9.80
   0  -2  10  229.98    8.70
   0  -2  10  236.78    9.20
   0  -2  10  232.88    8.80
   0  -2  10  215.08    9.80
   0  -2  10  234.48    9.60
  -1   2 -10   19.90    4.50
  -1   2 -10   16.70    3.70
   1  -2  10   14.30    3.60
   1  -2  10   16.20    3.90
   1  -2  10   12.20    3.70
   1  -2  10   14.80    4.30
   1  -2  10   14.20    3.60
   1  -2  10   15.40    3.10
   1  -2  10    7.50    5.10
   1  -2  10   14.20    3.00
  -2   2 -10  815.22   27.20
  -2   2 -10  768.42   27.40
   2  -2  10  768.62   27.00
   2  -2  10  772.62   25.70
   2  -2  10  750.42   28.30
   2  -2  10  774.92   25.70
   2  -2  10  769.22   25.80
   2  -2  10  788.82   27.00
  -3   2 -10  380.96   14.40
  -3   2 -10  401.56   19.30
  -3   2 -10  427.26   18.00
  -3   2 -10  424.06   14.30
   3  -2  10  426.66   18.30
   3  -2  10  397.66   17.90
   3  -2  10  412.36   16.20
   3  -2  10  420.46   16.20
   3  -2  10  430.16   16.60
  -4   2 -10  475.25   18.10
  -4   2 -10  495.05   21.60
  -4   2 -10  487.35   17.70
   4  -2  10  520.55   19.50
   4  -2  10  513.75   19.40
   4  -2  10  445.06   22.00
   4  -2  10  532.25   22.70
   4  -2  10  445.16   20.00
  -5   2 -10  248.68   17.80
  -5   2 -10  273.27   13.30
  -5   2 -10  270.27   17.70
   5  -2  10  274.17   18.80
   5  -2  10  243.38   15.90
   5  -2  10  299.07   15.10
   5  -2  10  263.27   20.40
  -6   2 -10    8.40    8.50
  -6   2 -10   12.50    6.80
  -6   2 -10   16.10    8.80
   6  -2  10   16.10    7.50
   6  -2  10   12.20   11.40
   6  -2  10   10.60   14.70
  -7   2 -10   20.60    9.00
  -7   2 -10   20.50   14.10
  -7   2 -10   26.10   10.10
   7  -2  10    3.40   14.80
   7   1 -10   -0.30   12.90
  -7  -1  10   -0.40    8.80
  -7  -1  10   -0.80   13.80
  -7  -1  10    1.10    7.60
  -7  -1  10    3.00    9.10
   6   1 -10    2.60    9.10
  -6  -1  10   -1.60    6.30
  -6  -1  10   -1.00    9.40
  -6  -1  10    2.90    4.10
  -6  -1  10    7.80    7.50
  -6  -1  10   -3.60    5.50
  -6  -1  10   -3.40    7.90
   5   1 -10   -3.10    7.10
   5   1 -10    6.70    6.70
   5   1 -10    6.90    7.40
  -5  -1  10    4.10    5.20
  -5  -1  10    3.50    6.60
  -5  -1  10    3.20    4.10
  -5  -1  10    0.80    4.50
  -5  -1  10   10.10    5.50
   4   1 -10  134.19    7.80
   4   1 -10  102.09    9.40
   4   1 -10  129.89    9.20
  -4  -1  10  126.49    7.80
  -4  -1  10  126.89    9.40
  -4  -1  10  119.79    8.00
  -4  -1  10  117.69    8.00
  -4  -1  10  115.49    8.70
   3   1 -10   64.79    4.10
   3   1 -10   75.09    7.50
  -3  -1  10   75.29    6.80
  -3  -1  10   67.79    4.80
  -3  -1  10   64.79    4.30
  -2  -1  10   89.59    6.40
  -2  -1  10   90.89    6.60
  -2  -1  10   81.89    3.90
  -2  -1  10   79.59    3.70
  -1  -1  10   44.60    5.00
  -1  -1  10   56.89    5.00
   0  -1  10  175.08    6.70
   0  -1  10  173.88    6.20
   0  -1  10  198.78    8.90
   0  -1  10  173.18    9.70
   0  -1  10  178.48    6.60
  -1   1 -10   80.69    6.90
   1  -1  10   72.59    5.90
   1  -1  10   84.69    5.80
   1  -1  10   79.39    5.40
   1  -1  10   79.39    6.60
   1  -1  10   74.09    5.10
  -2   1 -10   56.99    5.90
  -2   1 -10   64.09    6.90
   2  -1  10   55.99    5.00
   2  -1  10   65.69    5.40
   2  -1  10   64.29    6.30
   2  -1  10   73.69    7.00
   2  -1  10   68.59    6.20
  -3   1 -10    9.70    7.00
  -3   1 -10    9.60    3.10
  -3   1 -10    7.30    2.80
  -3   1 -10   12.20    5.60
   3  -1  10   11.10    5.10
   3  -1  10    7.80    4.00
   3  -1  10    9.40    6.20
   3  -1  10    5.60    4.80
   3  -1  10    7.30    5.40
  -4   1 -10  423.26   19.80
  -4   1 -10  397.16   16.10
  -4   1 -10  440.86   15.80
   4  -1  10  396.16   19.90
   4  -1  10  418.76   20.30
   4  -1  10  434.36   17.60
   4  -1  10  428.06   18.50
  -5   1 -10   15.60    5.50
  -5   1 -10   12.60    8.10
  -5   1 -10   16.90    8.10
   5  -1  10   21.00   10.00
   5  -1  10    5.30    9.50
   5  -1  10   18.20    6.40
  -6   1 -10    3.70    8.00
  -6   1 -10    8.90   11.00
  -6   1 -10   -3.70    7.40
   6  -1  10   -4.70   13.90
   6  -1  10    5.60   11.60
   6  -1  10    5.60    7.80
  -7   1 -10   31.30   13.90
  -7   1 -10   49.99   11.60
  -7   1 -10   54.89   10.20
   7  -1  10   31.30   15.40
   7  -1  10   41.80   10.50
  -8   0  10   56.69   12.40
  -8   0  10   50.09   10.90
  -8   0  10   32.20    8.10
  -8   0  10   36.10   12.90
   7   0 -10    2.00    7.00
   7   0 -10    6.50   12.90
  -7   0  10   -2.70   11.90
  -7   0  10    4.90    6.20
  -7   0  10   -3.20    8.00
  -7   0  10   -2.10    9.90
  -7   0  10   -6.00    7.10
   6   0 -10   15.40    9.50
   6   0 -10   13.60   10.60
   6   0 -10   24.60    6.40
  -6   0  10   20.40    8.00
  -6   0  10   21.60    5.80
  -6   0  10   22.10    8.50
  -6   0  10   28.20    7.20
  -6   0  10   19.60    6.10
  -6   0  10   23.20    8.40
   5   0 -10   16.60    6.30
   5   0 -10    7.60    7.40
   5   0 -10   21.10   11.40
  -5   0  10   13.90    4.50
  -5   0  10   16.70    5.30
  -5   0  10   14.70    8.30
  -5   0  10   14.30    5.20
  -5   0  10   15.70    5.30
  -5   0  10   15.60    6.30
   4   0 -10  313.97   12.40
   4   0 -10  317.47   16.80
   4   0 -10  309.47   13.80
   4   0 -10  308.87   12.90
  -4   0  10  322.97   12.10
  -4   0  10  310.87   12.10
  -4   0  10  316.57   15.50
  -4   0  10  326.97   14.00
  -3   0  10   16.90    2.60
  -3   0  10   20.30    5.00
  -3   0  10   15.00    2.50
  -3   0  10   22.40    4.70
  -2   0  10  414.86   16.40
  -2   0  10  411.06   16.40
  -1   0  10   18.20    4.10
  -1   0  10   21.30    4.30
   0   0  10   17.60    2.30
   0   0  10   15.60    2.30
   0   0  10   11.30    4.20
   0   0  10   20.70    2.00
  -1   0 -10  179.38    9.50
   1   0  10  186.18    8.10
   1   0  10  205.18    9.10
   1   0  10  179.38   10.40
   1   0  10  201.38    9.60
   1   0  10  182.38    8.50
   1   0  10  182.28   10.80
   1   0  10  190.38    8.20
  -2   0 -10   13.10    5.80
  -2   0 -10   12.70    4.60
   2   0  10   14.90    5.60
   2   0  10   11.10    4.10
   2   0  10   11.60    3.60
   2   0  10   19.90    5.50
   2   0  10   13.40    4.60
  -3   0 -10    2.60    5.30
  -3   0 -10    3.90    2.80
  -3   0 -10    2.20    3.00
  -3   0 -10   -0.80    7.20
   3   0  10    2.00    4.10
   3   0  10    3.40    6.80
   3   0  10    1.30    5.10
   3   0  10    6.50    5.80
   3   0  10   -1.10    6.00
  -4   0 -10   45.40    8.50
  -4   0 -10   53.09    5.40
  -4   0 -10   46.10    6.00
   4   0  10   49.60    9.60
   4   0  10   49.70    7.00
   4   0  10   53.89    9.40
  -5   0 -10   39.30    9.40
  -5   0 -10   30.70    7.30
  -5   0 -10   33.80    6.30
   5   0  10   30.00    7.40
   5   0  10   32.90   10.80
   5   0  10   33.30   12.00
  -6   0 -10   34.60    8.00
  -6   0 -10   31.10   11.70
   6   0  10   44.10   25.70
   6   0  10   26.40    8.60
   6   0  10   15.40   12.70
  -7   0 -10   -4.50    9.30
  -7   0 -10   10.10   14.60
  -8   1  10    4.70    9.70
  -8   1  10    1.40    9.50
  -8   1  10    2.20   12.70
  -8   1  10    1.90   10.80
   7  -1 -10    3.80   12.10
   7  -1 -10   -3.90    8.30
  -7   1  10    4.40    7.20
  -7   1  10    4.10    8.20
  -7   1  10   -3.80    7.40
  -7   1  10    3.30   11.50
  -7   1  10    6.50    9.70
   6  -1 -10   -3.60    8.80
   6  -1 -10    7.30    7.70
  -6   1  10    7.50    6.60
  -6   1  10   18.00    6.70
  -6   1  10    9.60    6.00
  -6   1  10    9.20    8.10
  -6   1  10   13.80    7.50
  -6   1  10   11.80    8.10
   5  -1 -10   45.30    7.40
   5  -1 -10   57.39    7.60
   5  -1 -10   39.70    7.70
  -5   1  10   61.69    5.90
  -5   1  10   63.19    6.50
  -5   1  10   70.39    6.70
  -5   1  10   52.89    7.00
  -5   1  10   55.69    8.40
  -5   1  10   56.59    6.50
   4  -1 -10    8.10    5.50
   4  -1 -10    6.40    5.00
  -4   1  10    2.60    5.20
  -4   1  10    2.30    3.60
  -4   1  10   11.30    5.20
  -4   1  10   11.00    3.50
  -3   1  10   41.70    3.50
  -3   1  10   43.90    6.00
  -3   1  10   40.60    3.40
  -3   1  10   40.70    6.00
  -2   1  10  566.24   20.60
  -2   1  10  517.05   16.70
  -2   1  10  525.95   16.70
  -2   1  10  532.35   20.30
  -1   1  10  139.49    5.60
  -1   1  10  139.89    5.70
  -1   1  10  149.99    9.40
  -1   1  10  145.79    9.60
   0  -1 -10  507.55   17.70
   0  -1 -10  514.05   17.50
   0   1  10  510.95   17.10
   0   1  10  521.85   20.40
   0   1  10  546.95   17.30
  -1  -1 -10  121.19    8.10
  -1  -1 -10  117.59    9.50
   1   1  10  146.79   10.30
   1   1  10  125.49    7.50
   1   1  10  138.09    7.20
   1   1  10  117.59    8.70
   1   1  10  128.89    7.90
   1   1  10  130.19    7.90
   1   1  10  121.99    8.90
  -2  -1 -10   16.20    5.10
  -2  -1 -10   12.50    6.60
   2   1  10   14.10    4.50
   2   1  10   14.60    4.00
   2   1  10   17.70    6.40
   2   1  10   11.60    6.00
   2   1  10    8.90    5.30
   2   1  10   11.70    5.20
   2   1  10   18.60    6.90
  -3  -1 -10   16.90    3.40
  -3  -1 -10   18.60    6.00
  -3  -1 -10   25.00    4.10
   3   1  10   20.20    6.10
   3   1  10   15.50    7.90
   3   1  10   21.80    7.10
   3   1  10   15.30    8.30
   3   1  10   26.20    6.60
  -4  -1 -10  163.58   10.70
  -4  -1 -10  173.18   14.70
  -4  -1 -10  150.68    9.60
   4   1  10  168.98   14.20
   4   1  10  148.19   14.60
   4   1  10  175.48   13.40
   4   1  10  155.38   13.50
  -5  -1 -10   39.70    6.90
  -5  -1 -10   47.30   10.80
  -5  -1 -10   53.49    8.90
   5   1  10   55.99   14.90
   5   1  10   47.10   12.20
   5   1  10   46.20   14.10
   5   1  10   52.29    8.40
  -6  -1 -10   29.10    8.70
   6   1  10   21.80   18.90
   6   1  10   40.50   24.50
   6   1  10   29.50    9.80
  -8   2  10   28.70   13.30
  -8   2  10   30.70   11.00
  -8   2  10   32.50   10.30
   7  -2 -10   -7.40   11.90
  -7   2  10    8.00   10.20
  -7   2  10    1.50    7.60
  -7   2  10   -0.20    8.50
  -7   2  10   11.40   11.40
  -7   2  10    9.10   11.10
   6  -2 -10   -4.60    8.90
  -6   2  10    0.10    7.20
  -6   2  10    6.70    7.90
  -6   2  10    9.80    8.10
  -6   2  10   -2.00    5.70
  -6   2  10    5.30    7.20
   5  -2 -10   11.90    6.80
   5  -2 -10   16.40    7.20
   5  -2 -10   16.10    7.20
  -5   2  10   13.90    6.20
  -5   2  10   26.00    7.90
  -5   2  10   14.80    4.90
  -5   2  10   19.30    5.60
  -5   2  10   13.60    6.60
   4  -2 -10   14.50    5.50
   4  -2 -10   17.00    7.00
   4  -2 -10   13.60    6.80
   4  -2 -10   11.30    5.40
  -4   2  10   14.80    4.20
  -4   2  10    8.30    6.50
  -4   2  10   19.60    4.30
  -4   2  10   15.80    5.90
  -4   2  10    9.60    4.40
   3  -2 -10   89.59    8.00
   3  -2 -10   73.79    8.20
  -3   2  10   96.29    8.60
  -3   2  10  108.09    6.00
  -3   2  10  103.39    8.70
  -3   2  10   88.99    6.30
  -2   2  10    5.90    2.90
  -2   2  10    4.20    5.00
  -2   2  10    6.30    2.70
  -2   2  10    3.50    4.90
   1  -2 -10  135.39    8.90
   1  -2 -10  140.89    7.60
  -1   2  10  134.69    7.00
  -1   2  10  144.49   10.00
  -1   2  10  162.68   11.10
  -1   2  10  141.69    6.70
   0  -2 -10  272.87   13.70
   0   2  10  279.27   12.10
   0   2  10  302.57   11.70
   0   2  10  304.47   14.80
   0   2  10  279.87   12.20
   0   2  10  295.27   11.30
   0   2  10  299.67   12.00
  -1  -2 -10  464.35   18.40
   1   2  10  472.15   18.40
   1   2  10  481.15   18.40
   1   2  10  461.45   17.00
   1   2  10  479.45   20.30
   1   2  10  451.35   17.40
   1   2  10  479.15   18.50
   1   2  10  470.35   20.10
  -2  -2 -10  292.27    9.60
  -2  -2 -10  291.27   14.80
  -2  -2 -10  268.67    9.60
  -2  -2 -10  278.27   20.20
   2   2  10  285.27   13.80
   2   2  10  261.17   14.90
   2   2  10  305.57   17.10
   2   2  10  263.17   12.40
   2   2  10  279.57   14.90
   2   2  10  266.77   15.50
  -3  -2 -10   31.50    5.10
  -3  -2 -10   25.70    8.00
   3   2  10   18.60    8.20
   3   2  10   29.40    9.30
   3   2  10   31.90    6.20
   3   2  10   27.80    7.30
   3   2  10   33.00    9.70
  -4  -2 -10    5.00    8.40
  -4  -2 -10    4.00    4.90
  -4  -2 -10   13.00    6.40
   4   2  10   -0.50    6.00
   4   2  10    6.50   12.00
   4   2  10    0.00    8.10
   4   2  10    2.70   10.90
   4   2  10   -0.50   10.00
  -5  -2 -10   -5.70   10.80
  -5  -2 -10    3.50    6.40
   5   2  10   -1.30   12.50
   5   2  10   -0.90    7.80
   5   2  10    4.20    9.60
   5   2  10    1.50   14.80
   5   2  10   -3.80   14.20
  -6  -2 -10    6.50   12.30
  -6  -2 -10    1.50    8.50
   6   2  10    4.10    9.70
   6   2  10   32.80   13.80
   6   2  10   10.30   16.00
   7  -3 -10    2.80   13.50
   7  -3 -10    7.90   13.30
  -7   3  10    1.30   12.70
  -7   3  10   10.80    9.20
  -7   3  10   -3.50    8.10
  -7   3  10    9.30    9.90
   6  -3 -10   15.50   10.20
   6  -3 -10   10.70   10.30
  -6   3  10   14.60    8.50
  -6   3  10   12.30    6.90
  -6   3  10    9.20    8.70
  -6   3  10   14.60    7.70
  -6   3  10   25.40    9.50
   5  -3 -10   16.40    8.30
   5  -3 -10   -0.70    8.10
  -5   3  10   -1.40    5.20
  -5   3  10    3.60    7.10
  -5   3  10   -3.10    6.40
  -5   3  10   -0.20    6.40
  -5   3  10   -2.10    6.30
  -5   3  10    0.00    5.60
   4  -3 -10    3.50    6.30
   4  -3 -10    6.80    6.50
   4  -3 -10    8.00    6.80
  -4   3  10    4.80    5.00
  -4   3  10    2.70    6.40
  -4   3  10    0.60    4.20
  -4   3  10   -0.30    5.20
  -4   3  10    4.70    4.60
  -4   3  10    7.20    7.10
   3  -3 -10    5.60    6.30
   3  -3 -10    5.90    5.60
  -3   3  10    4.00    4.00
  -3   3  10    6.00    4.30
  -3   3  10    4.90    3.70
  -3   3  10    5.70    6.10
  -3   3  10    7.40    4.40
  -3   3  10    5.70    6.20
   2  -3 -10  149.09    8.50
  -2   3  10  133.99   10.40
  -2   3  10  134.49    8.40
  -2   3  10  101.49    9.10
  -2   3  10  127.39    8.30
  -2   3  10  139.49    7.70
  -2   3  10  149.49    8.30
   1  -3 -10  648.54   26.00
   1  -3 -10  721.63   24.90
  -1   3  10  664.73   25.50
  -1   3  10  716.13   24.00
  -1   3  10  744.93   24.50
  -1   3  10  723.13   23.80
  -1   3  10  740.13   27.50
   0  -3 -10  784.22   27.20
   0  -3 -10  722.43   28.10
   0   3  10  739.93   25.90
   0   3  10  770.72   25.60
   0   3  10  733.63   26.60
   0   3  10  731.73   26.70
   0   3  10  803.12   26.70
  -1  -3 -10   50.79    7.30
   1   3  10   59.99    8.20
   1   3  10   52.89    6.70
   1   3  10   44.20    6.90
   1   3  10   45.30    7.30
   1   3  10   55.49    6.00
   1   3  10   47.10    8.30
  -2  -3 -10   15.50    6.80
  -2  -3 -10   16.90    3.90
  -2  -3 -10   19.40    3.50
   2   3  10   23.70    8.30
   2   3  10    7.00    6.80
   2   3  10   11.30    7.30
   2   3  10   20.20    8.30
   2   3  10   14.90    5.30
  -3  -3 -10   83.39    6.60
  -3  -3 -10   78.29   10.60
  -3  -3 -10   89.79    7.30
   3   3  10   67.49   10.80
   3   3  10   87.69   13.40
   3   3  10   72.29   11.20
   3   3  10   66.69    9.70
   3   3  10   92.49    8.70
  -4  -3 -10    8.70    8.00
  -4  -3 -10    4.70    5.90
  -4  -3 -10    7.70    9.60
   4   3  10    2.70   13.20
   4   3  10    0.80   11.20
   4   3  10   25.50    9.70
   4   3  10   14.70   14.20
   4   3  10   12.70    7.60
  -5  -3 -10    4.00   12.80
  -5  -3 -10    8.00    7.60
   5   3  10   11.50    9.60
   5   3  10    8.60   14.90
   5   3  10    7.30   17.70
   5   3  10   -0.40   10.40
   7  -4 -10   25.40   15.40
  -7   4  10   19.00    9.50
  -7   4  10   22.90   10.50
  -7   4  10   30.60   11.80
  -7   4  10   21.20   11.50
   6  -4 -10    1.50   11.80
   6  -4 -10    5.00   11.90
  -6   4  10    4.20    7.30
  -6   4  10    4.60    8.10
  -6   4  10    3.50   10.40
  -6   4  10   -6.90    9.00
  -6   4  10    1.60    9.50
   5  -4 -10   21.20   10.00
   5  -4 -10    3.80    9.20
  -5   4  10   15.30    6.40
  -5   4  10    9.00    8.20
  -5   4  10   10.20    8.20
  -5   4  10   14.40    7.90
  -5   4  10    1.60    6.50
  -5   4  10   11.50    8.30
   4  -4 -10    6.60    7.90
   4  -4 -10   11.90    8.40
  -4   4  10    8.70    5.30
  -4   4  10    1.00    7.60
  -4   4  10    9.40    5.90
  -4   4  10   11.10    7.20
  -4   4  10    7.30    6.80
   3  -4 -10   40.70    8.20
   3  -4 -10   32.90    7.40
   3  -4 -10   14.00    8.80
  -3   4  10   25.90    6.50
  -3   4  10   21.70    6.20
  -3   4  10   22.70    5.10
  -3   4  10   38.70    6.20
  -3   4  10   22.60    7.30
  -3   4  10   25.20    7.70
   2  -4 -10    2.70    7.10
   2  -4 -10    6.60    6.20
   2  -4 -10   -2.10    8.00
  -2   4  10   -0.60    4.50
  -2   4  10    0.80    4.90
  -2   4  10    2.50    6.00
  -2   4  10   -2.80    5.40
  -2   4  10    4.00    7.10
  -2   4  10    5.20    5.60
   1  -4 -10  191.98   12.70
   1  -4 -10  180.98   12.20
  -1   4  10  179.08   11.70
  -1   4  10  174.18   10.20
  -1   4  10  189.78   12.50
  -1   4  10  196.18   11.90
  -1   4  10  178.38   14.10
  -1   4  10  199.48   11.90
   0  -4 -10    3.20    6.30
   0   4  10   -1.10    8.00
   0   4  10    0.70    4.80
   0   4  10    1.90    6.90
   0   4  10    1.40    5.90
   0   4  10    0.90    6.40
   0   4  10   -0.30    6.00
  -1  -4 -10   25.20    3.20
  -1  -4 -10   26.10    3.30
  -1  -4 -10   28.10    7.90
   1   4  10   25.10    8.60
   1   4  10   28.00   10.00
   1   4  10   25.90    6.20
   1   4  10   27.80    7.60
   1   4  10   23.70    8.60
  -2  -4 -10    3.10    5.60
  -2  -4 -10   -1.90    5.10
  -2  -4 -10    2.70    7.60
   2   4  10   -2.80    9.30
   2   4  10   -0.60    8.10
   2   4  10   -2.60    6.20
   2   4  10    3.70    8.50
   2   4  10   -1.20    9.90
  -3  -4 -10   21.00    6.00
  -3  -4 -10   16.40    7.50
  -3  -4 -10   21.90    9.70
   3   4  10    3.50   14.10
   3   4  10    5.20    9.80
   3   4  10   15.50    7.30
   3   4  10   16.40   12.80
   3   4  10   25.20   10.40
  -4  -4 -10   44.00    7.90
  -4  -4 -10   38.90   12.70
   4   4  10   43.50   19.30
   4   4  10   38.70   12.00
   4   4  10   51.29   19.90
   4   4  10   46.90   10.20
   6  -5 -10    8.20   13.60
   6  -5 -10  -10.10   14.00
  -6   5  10    3.60   10.30
  -6   5  10   -6.40    8.30
  -6   5  10    2.60    9.40
  -6   5  10    0.50   11.10
   5  -5 -10   36.70   12.60
   5  -5 -10   36.40   11.90
  -5   5  10   52.89   11.30
  -5   5  10   36.70   11.10
  -5   5  10   46.50    8.40
  -5   5  10   29.90   10.30
  -5   5  10   32.60    9.00
   4  -5 -10   35.70    9.70
   4  -5 -10   27.40   11.30
  -4   5  10   28.60   10.00
  -4   5  10   29.30    8.00
  -4   5  10   29.30    7.20
  -4   5  10   36.90    9.90
  -4   5  10   27.30    8.70
   3  -5 -10  164.38   12.90
   3  -5 -10  119.49   12.40
  -3   5  10  120.79   11.60
  -3   5  10  115.49   12.60
  -3   5  10  129.69   12.30
  -3   5  10  133.19   11.90
  -3   5  10  133.29   10.80
  -3   5  10  138.69    9.80
   2  -5 -10   44.00   10.70
   2  -5 -10   49.90    9.20
  -2   5  10   50.99    8.10
  -2   5  10   41.70    9.20
  -2   5  10   38.60    9.10
  -2   5  10   50.79    9.10
  -2   5  10   37.90    7.00
  -2   5  10   50.69    9.70
   1  -5 -10   99.99   10.70
   1  -5 -10  110.79   12.80
  -1   5  10  124.89   12.00
  -1   5  10  114.79    9.30
  -1   5  10  125.99   12.80
  -1   5  10  126.19   12.70
   0  -5 -10   40.90    9.50
   0   5  10   47.10   12.00
   0   5  10   53.89   10.90
   0   5  10   49.00   10.30
   0   5  10   40.90    8.80
  -1  -5 -10   76.09   11.80
  -1  -5 -10   73.29    8.00
  -1  -5 -10   71.59    5.90
   1   5  10   78.59   10.50
   1   5  10   63.19   11.00
   1   5  10   56.99   13.80
   1   5  10   71.99    8.80
   1   5  10   71.59   12.60
  -2  -5 -10    0.80   10.80
  -2  -5 -10    1.10    5.60
  -2  -5 -10    6.60    7.30
   2   5  10    5.10    7.90
   2   5  10    5.70   10.30
   2   5  10    2.60    9.80
   2   5  10   13.60   14.20
   2   5  10    2.80   12.20
  -3  -5 -10   -4.80   12.40
  -3  -5 -10    3.80    7.10
  -3  -5 -10    6.00   11.00
   3   5  10   -1.70   20.90
   3   5  10   -1.20   16.70
   3   5  10   -2.00   11.30
   3   5  10    1.40    9.20
   5  -6 -10   71.39   15.50
   5  -6 -10   46.80   16.90
  -5   6  10   55.79   13.50
  -5   6  10   43.40    9.90
  -5   6  10   54.19   11.70
  -5   6  10   56.89   12.40
   4  -6 -10    4.70   11.80
   4  -6 -10   13.00   15.20
  -4   6  10    3.00    8.80
  -4   6  10   -7.90    7.70
  -4   6  10    2.90   10.70
  -4   6  10   -5.70   12.30
  -4   6  10   -2.80   10.30
   3  -6 -10   23.00   11.10
   3  -6 -10   30.90   13.70
  -3   6  10   16.80   10.30
  -3   6  10   33.70    9.80
  -3   6  10   25.60   11.80
  -3   6  10   26.10    7.90
  -3   6  10   27.40   10.80
   2  -6 -10    5.30   13.60
   2  -6 -10    8.60   10.10
  -2   6  10   15.90    8.90
  -2   6  10    3.70    9.50
  -2   6  10    2.10    7.40
  -2   6  10    2.90   11.00
  -2   6  10   11.90    9.70
   1  -6 -10    6.50   14.40
   1  -6 -10    5.80   10.30
  -1   6  10    3.50    8.40
  -1   6  10   -0.10   13.00
  -1   6  10    6.60    7.70
  -1   6  10    5.10   12.00
  -1   6  10    4.40   10.10
   0  -6 -10   -0.10    7.50
   0  -6 -10    0.20   10.40
   0  -6 -10    3.70    4.70
   0   6  10   11.70   15.20
   0   6  10    0.90    7.70
   0   6  10   -3.00   10.80
   0   6  10   -2.90    9.70
   0   6  10   -2.60   13.00
  -1  -6 -10   39.50   12.90
  -1  -6 -10   37.30    6.60
  -1  -6 -10   35.10    8.80
   1   6  10   54.79   12.10
   1   6  10   29.00   20.80
   1   6  10   45.30    9.90
   1   6  10   26.80   13.30
  -2  -6 -10   34.60    7.90
  -2  -6 -10   46.80   14.60
   2   6  10   31.20   13.10
   2   6  10   47.40   13.30
   2   6  10   38.90   12.80
   3  -7 -10   55.69   20.10
   3  -7 -10   -9.60   13.60
  -3   7  10    4.10   11.70
  -3   7  10    0.20   11.10
  -3   7  10    4.70   13.20
  -3   7  10    5.70    9.30
   2  -7 -10    8.50   18.70
   2  -7 -10    2.60   14.10
  -2   7  10   -2.60    9.20
  -2   7  10   -5.60   12.80
  -2   7  10   -8.00   11.10
  -2   7  10   20.20   11.50
   1  -7 -10   -5.20   13.00
   1  -7 -10   -1.10    5.30
  -1   7  10   -1.70   13.40
  -1   7  10   11.50   11.90
  -1   7  10   -1.80    9.60
  -1   7  10    7.30   12.20
   2   8 -11   -0.80    8.10
  -2  -8  11    0.90   12.60
  -2  -8  11   -2.70   11.80
   1   8 -11   -2.60   10.10
   1   8 -11    7.90   12.00
   1   8 -11    2.10    7.50
  -1  -8  11    5.30    9.00
   0   8 -11   -3.80    7.00
   0   8 -11    0.40    9.80
   0   8 -11    1.00   11.50
   0  -8  11    0.40   11.70
   0  -8  11   -5.40   24.20
   0  -8  11   -0.50   10.30
   0  -8  11    0.00    8.50
  -1   8 -11    0.40   11.00
  -1   8 -11   -4.40    6.90
   1  -8  11    1.80   10.50
   1  -8  11   -2.50   19.60
   1  -8  11    7.40    8.50
  -2   8 -11    5.30   12.60
  -2   8 -11    6.30    7.40
   2  -8  11    2.30   10.50
   2  -8  11   -0.50   18.10
   2  -8  11    8.20    9.10
  -3   8 -11   -2.00    7.60
  -3   8 -11   -3.30   24.70
   3  -8  11    0.20   11.80
   3  -8  11    3.90    9.60
  -4   8 -11  149.79   12.40
  -4   8 -11  150.68   18.20
   4  -8  11  131.79   17.30
   4  -8  11  159.88   14.60
   3   7 -11   15.00    9.50
   3   7 -11   11.00   13.90
   3   7 -11   11.30    6.80
   3   7 -11   22.30    9.90
  -3  -7  11   16.40    8.00
  -3  -7  11   19.80    9.40
  -3  -7  11    0.90   10.70
   2   7 -11   11.40    7.40
   2   7 -11   17.30   12.20
   2   7 -11   17.10    7.00
   2   7 -11   17.40    6.00
  -2  -7  11    7.20   19.80
  -2  -7  11   17.10   10.00
  -2  -7  11    6.80    8.20
  -2  -7  11   11.70    4.90
   1   7 -11    3.30    9.90
   1   7 -11    1.60    5.50
   1   7 -11    3.10    6.50
  -1  -7  11   -0.60    8.50
  -1  -7  11    2.60    7.20
  -1  -7  11   -5.30    7.70
  -1  -7  11    5.30   16.80
   0   7 -11    6.80    9.40
   0   7 -11   -0.20    6.30
   0   7 -11    3.70    5.20
   0  -7  11   -0.40    8.40
   0  -7  11    1.70    8.90
   0  -7  11    4.40    6.80
   0  -7  11    6.60   17.50
  -1   7 -11   -0.40    8.80
  -1   7 -11   -2.40    6.80
  -1   7 -11   -2.60    5.10
   1  -7  11    6.40    7.20
   1  -7  11  -10.90   12.50
   1  -7  11    7.90    8.40
   1  -7  11   -5.40   13.40
  -2   7 -11   91.89   15.20
  -2   7 -11  100.89    8.20
  -2   7 -11   80.89   12.30
   2  -7  11   94.29   12.20
   2  -7  11   49.80   15.20
   2  -7  11  103.09   15.80
   2  -7  11   97.69   10.10
  -3   7 -11    2.30    8.80
  -3   7 -11    6.30    6.30
  -3   7 -11    5.50    9.80
   3  -7  11   -8.40   15.30
   3  -7  11    0.70    9.90
   3  -7  11   -0.30    7.80
  -4   7 -11   -1.20   10.80
  -4   7 -11    4.20   12.30
   4  -7  11    4.20   10.40
   4  -7  11   -6.70    7.90
  -5   7 -11   99.99   17.20
  -5   7 -11   86.29   10.40
   5  -7  11  106.49   16.30
   4   6 -11   10.80    5.20
   4   6 -11   13.60   11.70
  -4  -6  11   18.40   10.60
  -4  -6  11    7.10   23.80
  -4  -6  11   10.40    8.60
  -4  -6  11    1.40    8.60
   3   6 -11   19.60    4.60
   3   6 -11   19.00    4.90
   3   6 -11   23.50    7.90
   3   6 -11   16.90   10.30
  -3  -6  11   15.70   15.80
  -3  -6  11   27.60    6.80
  -3  -6  11   14.80    8.80
  -3  -6  11   18.40    7.70
   2   6 -11   78.29    5.70
   2   6 -11   90.59    7.10
   2   6 -11   84.69    5.60
   2   6 -11   91.09   11.50
  -2  -6  11   94.49    9.30
  -2  -6  11   83.59   10.60
  -2  -6  11   64.89   12.60
  -2  -6  11   94.89    6.90
  -2  -6  11   73.19   15.10
  -2  -6  11   91.79    6.40
   1   6 -11   76.39    5.40
   1   6 -11   70.89    5.40
  -1  -6  11   90.09    8.60
  -1  -6  11   68.09   13.40
  -1  -6  11   76.19    7.90
  -1  -6  11   65.19    9.30
  -1  -6  11   91.09   12.00
   0   6 -11  106.59    7.00
   0  -6  11  112.89   10.50
   0  -6  11  103.69   12.30
   0  -6  11  128.99    9.40
   0  -6  11   88.49   13.90
   0  -6  11  117.39    9.90
  -1   6 -11    9.90    4.00
  -1   6 -11    8.40    7.50
  -1   6 -11    9.70    4.90
   1  -6  11   15.40    8.50
   1  -6  11    0.10    9.70
   1  -6  11    7.90    7.00
   1  -6  11   11.10    5.90
   1  -6  11    6.60    8.70
  -2   6 -11  170.88   13.10
  -2   6 -11  135.29    8.80
  -2   6 -11  138.49    9.10
   2  -6  11  148.69   12.30
   2  -6  11  137.49   14.40
   2  -6  11  147.19   10.90
   2  -6  11   90.29   13.40
  -3   6 -11   -0.60    7.90
  -3   6 -11   -2.60    6.50
  -3   6 -11   -2.30    5.00
   3  -6  11   -2.30   11.00
   3  -6  11    0.50    6.10
   3  -6  11   -0.40    8.10
   3  -6  11    1.00   11.10
  -4   6 -11    1.30    8.50
  -4   6 -11    1.30    5.90
  -4   6 -11    0.70    8.10
   4  -6  11   -0.40   12.70
   4  -6  11   12.20   15.00
   4  -6  11   -2.00    6.70
   4  -6  11    7.30    9.70
  -5   6 -11   29.80    7.70
  -5   6 -11   35.70   11.70
   5  -6  11   37.20    9.40
   5  -6  11   19.60   11.30
  -6   6 -11    5.60   12.90
  -6   6 -11    3.10    9.00
   6  -6  11    9.00   12.40
   6  -6  11    7.00   10.40
   5   5 -11   -8.60   12.40
  -5  -5  11    0.00    8.80
  -5  -5  11   -6.90    9.50
  -5  -5  11    4.60    8.70
   4   5 -11    3.90   10.60
   4   5 -11   25.30    9.60
  -4  -5  11   -3.60    8.10
  -4  -5  11    3.10    6.90
  -4  -5  11   -2.10    6.90
   3   5 -11    3.10    6.70
   3   5 -11    2.70    8.20
  -3  -5  11   12.50    5.80
  -3  -5  11    4.20    5.80
  -3  -5  11    3.20    7.00
  -3  -5  11    2.90   10.90
   2   5 -11   61.09    6.30
   2   5 -11   54.29    9.90
   2   5 -11   61.29    8.90
  -2  -5  11   65.69    5.80
  -2  -5  11   72.59   11.80
  -2  -5  11   63.69    6.80
  -2  -5  11   70.79    5.40
  -2  -5  11   52.09    7.90
  -2  -5  11   69.69   11.30
  -2  -5  11   58.19    8.10
   1   5 -11  102.29    9.20
  -1  -5  11   96.19    9.60
  -1  -5  11  101.49    7.80
  -1  -5  11   77.89    7.40
  -1  -5  11   84.89   10.90
  -1  -5  11   91.89    5.80
  -1  -5  11   93.69    8.90
  -1  -5  11   94.29   10.60
   0   5 -11  421.06   19.40
   0  -5  11  448.16   19.20
   0  -5  11  469.25   19.50
   0  -5  11  432.46   19.10
   0  -5  11  477.75   17.70
   0  -5  11  454.35   21.40
  -1   5 -11   90.89    5.30
  -1   5 -11   89.29    8.90
  -1   5 -11   75.49    5.40
   1  -5  11   85.69    7.30
   1  -5  11   72.19    9.10
   1  -5  11   74.79    8.00
   1  -5  11   65.09    9.20
   1  -5  11   74.79    8.40
   1  -5  11   72.59    9.20
  -2   5 -11   42.00    5.50
  -2   5 -11   35.70    4.30
  -2   5 -11   32.80    7.40
   2  -5  11   26.20    7.20
   2  -5  11   43.80    6.30
   2  -5  11   25.90   10.40
   2  -5  11   34.10    9.40
  -3   5 -11   25.50    4.80
  -3   5 -11   23.80    5.70
  -3   5 -11   33.10    8.00
   3  -5  11   28.10   12.00
   3  -5  11   31.10    8.60
   3  -5  11   27.70    6.20
   3  -5  11   22.30    9.70
  -4   5 -11   48.50    7.80
  -4   5 -11   45.70   10.70
  -4   5 -11   47.90    6.40
   4  -5  11   41.30    9.60
   4  -5  11   56.49   13.40
   4  -5  11   49.90    7.40
  -5   5 -11    2.50   14.70
  -5   5 -11   -3.00    6.30
  -5   5 -11   -3.20    8.60
   5  -5  11    7.40    7.80
   5  -5  11    4.60    4.50
   5  -5  11   11.30   13.40
   5  -5  11    4.90    9.70
  -6   5 -11   24.50    8.30
  -6   5 -11    8.50   11.10
   6  -5  11   18.50   10.20
   6  -5  11   20.90   23.40
   6  -5  11   15.30   12.30
   6   4 -11   -6.80   13.70
  -6  -4  11  -10.70    9.80
  -6  -4  11    4.00   10.40
  -6  -4  11    0.00    8.70
   5   4 -11   -1.00   10.30
  -5  -4  11    1.30   12.30
  -5  -4  11    8.00    8.10
  -5  -4  11    4.50    8.30
   4   4 -11   22.50    8.40
   4   4 -11   10.00    8.30
  -4  -4  11   15.10    6.80
  -4  -4  11   14.00    6.20
  -4  -4  11   26.10   10.50
  -4  -4  11   15.40    8.10
  -4  -4  11   14.70    6.80
   3   4 -11    3.10    6.00
   3   4 -11    3.20    7.60
   3   4 -11    6.50    6.40
  -3  -4  11    5.60    6.10
  -3  -4  11    3.60    4.70
  -3  -4  11    4.50    8.20
  -3  -4  11    5.30    5.80
  -3  -4  11   10.10    5.10
   2   4 -11   -0.20    5.40
   2   4 -11    2.40    6.20
   2   4 -11    2.70    4.70
   2   4 -11   -3.50    6.30
  -2  -4  11   -1.20    7.30
  -2  -4  11   -1.00    4.70
  -2  -4  11    2.50    5.00
  -2  -4  11    3.80    4.10
  -2  -4  11    2.70    4.00
  -2  -4  11    1.90    3.60
   1   4 -11    5.60    4.70
   1   4 -11    3.50    5.90
  -1  -4  11   10.40    7.20
  -1  -4  11   10.00    4.80
  -1  -4  11    7.80    3.90
  -1  -4  11    9.00    3.20
  -1  -4  11    6.90    4.50
  -1  -4  11    7.10    5.10
  -1  -4  11   11.20    5.90
   0   4 -11  260.07   13.80
   0   4 -11  254.17   12.90
   0  -4  11  256.07    9.00
   0  -4  11  260.37   11.40
   0  -4  11  248.58   13.80
   0  -4  11  261.87   12.80
   0  -4  11  253.17   12.00
   0  -4  11  241.68   13.90
   0  -4  11  257.17   12.50
  -1   4 -11   83.39    8.80
  -1   4 -11   93.99    8.00
   1  -4  11   77.99    8.10
   1  -4  11   85.99    6.60
   1  -4  11   68.69    7.80
   1  -4  11   90.19    8.00
   1  -4  11   77.19    8.80
   1  -4  11  100.39    7.30
  -2   4 -11   73.79    9.60
  -2   4 -11   88.29    8.30
  -2   4 -11   80.99    4.90
  -2   4 -11   80.99    5.00
   2  -4  11   89.49    8.90
   2  -4  11   86.49    7.00
   2  -4  11   86.09   11.00
   2  -4  11   84.99    8.60
   2  -4  11   90.39    7.60
   2  -4  11   86.29    9.20
  -3   4 -11  110.39   10.00
  -3   4 -11  120.19    8.00
  -3   4 -11  127.69    7.40
   3  -4  11  114.39    5.90
   3  -4  11  119.49   11.30
   3  -4  11  137.69    9.10
   3  -4  11  136.69   10.20
   3  -4  11  166.48   13.60
  -4   4 -11   83.39    7.50
  -4   4 -11   70.59    9.70
  -4   4 -11   72.79    6.60
   4  -4  11   65.99   11.10
   4  -4  11   76.79   10.10
   4  -4  11   65.99    5.70
  -5   4 -11   11.10    7.90
  -5   4 -11    5.60    8.40
  -5   4 -11    9.20    6.10
   5  -4  11   14.60    7.30
   5  -4  11    7.60    6.10
   5  -4  11    4.50    9.60
   5  -4  11   16.20   12.50
  -6   4 -11    9.20   10.70
  -6   4 -11    6.90    7.50
   6  -4  11    6.60    8.30
   6  -4  11    8.10   10.50
   6  -4  11    7.60   12.00
   6   3 -11   42.10   13.40
  -6  -3  11   42.00    9.90
  -6  -3  11   37.90   14.30
  -6  -3  11   36.50    8.40
  -6  -3  11   31.50   10.00
   5   3 -11    1.30    9.20
  -5  -3  11   -0.70    7.10
  -5  -3  11    5.30    7.00
  -5  -3  11   -1.90    5.80
  -5  -3  11   -2.90   10.10
   4   3 -11   35.30    8.70
   4   3 -11   40.30    8.40
   4   3 -11   37.60    7.80
  -4  -3  11   39.20    6.80
  -4  -3  11   34.30    6.90
  -4  -3  11   40.70    8.40
  -4  -3  11   33.50    6.40
  -4  -3  11   34.20    5.70
   3   3 -11    1.00    5.70
   3   3 -11   -0.50    6.40
   3   3 -11    2.40    5.00
   3   3 -11   -0.20    5.70
  -3  -3  11    6.50    5.00
  -3  -3  11   -0.20    3.70
  -3  -3  11   -0.90    4.50
  -3  -3  11    1.80    4.40
  -3  -3  11    2.80    3.20
  -3  -3  11    2.30    3.90
  -3  -3  11    3.70   10.80
   2   3 -11  105.49    8.80
  -2  -3  11   99.89    7.10
  -2  -3  11  112.59    7.50
  -2  -3  11  113.19    7.40
  -2  -3  11  112.69    7.00
  -2  -3  11  114.79    7.50
  -2  -3  11  106.89    8.80
  -2  -3  11  131.19    8.60
   1   3 -11  164.48    9.30
  -1  -3  11  155.08   10.30
  -1  -3  11  146.99    7.90
  -1  -3  11  152.78    9.70
  -1  -3  11  181.08    8.50
  -1  -3  11  162.38    7.80
  -1  -3  11  166.98    8.30
  -1  -3  11  149.19    8.30
   0   3 -11  383.06   14.90
   0  -3  11  354.76   14.20
   0  -3  11  344.07   13.90
   0  -3  11  368.66   13.20
   0  -3  11  373.46   16.30
   0  -3  11  346.87   13.60
   0  -3  11  373.86   14.80
   0  -3  11  373.66   13.40
  -1   3 -11   58.69    6.00
  -1   3 -11   68.69    7.10
   1  -3  11   79.99   12.90
   1  -3  11   85.89    6.80
   1  -3  11   61.09    5.50
   1  -3  11   62.39    6.20
   1  -3  11   66.29    6.60
   1  -3  11   71.09    4.60
   1  -3  11   66.09    5.40
   1  -3  11   68.19    4.70
  -2   3 -11    4.20    4.70
  -2   3 -11    6.80    6.30
   2  -3  11    0.40    4.40
   2  -3  11    0.40    5.20
   2  -3  11    2.40    3.20
   2  -3  11   -0.10    7.10
   2  -3  11    3.40    3.80
   2  -3  11   -0.20    5.80
  -3   3 -11  196.78   12.80
  -3   3 -11  189.78    8.10
  -3   3 -11  188.58    8.30
   3  -3  11  182.48   10.80
   3  -3  11  186.88    9.60
   3  -3  11  185.18   12.70
   3  -3  11  189.68   13.20
   3  -3  11  176.18   13.40
  -4   3 -11  168.68    9.60
  -4   3 -11  200.88   10.70
  -4   3 -11  164.68   14.30
   4  -3  11  158.38   12.60
   4  -3  11  181.18   15.50
   4  -3  11  173.08   12.10
   4  -3  11  162.18   10.70
  -5   3 -11    3.70    8.00
  -5   3 -11    1.60    5.50
  -5   3 -11    1.10    7.70
   5  -3  11    0.00    7.20
   5  -3  11   -5.40   10.80
   5  -3  11    0.10    9.40
   5  -3  11   -0.30    6.60
  -6   3 -11    2.70    7.30
  -6   3 -11    4.20   10.40
   6  -3  11   -0.90    7.60
   6  -3  11    3.40   16.00
   6  -3  11    3.60   11.50
  -7   3 -11   -3.00    9.10
  -7   3 -11    0.90   13.20
   7  -3  11    4.60   10.80
   7   2 -11   -5.40   14.50
  -7  -2  11    6.50    9.10
  -7  -2  11    1.90   11.00
  -7  -2  11    1.30    9.90
   6   2 -11    6.30   10.70
  -6  -2  11   21.70    9.10
  -6  -2  11   11.60    7.00
  -6  -2  11   10.50    8.00
  -6  -2  11   20.10   11.70
   5   2 -11   21.10    8.50
   5   2 -11   14.50    8.80
  -5  -2  11    9.60    7.20
  -5  -2  11   18.10    5.50
  -5  -2  11   14.10    7.90
  -5  -2  11   16.10    6.40
   4   2 -11   71.99    9.00
   4   2 -11   70.39    7.30
   4   2 -11   71.99    7.70
  -4  -2  11   76.59    6.60
  -4  -2  11   63.79    6.50
  -4  -2  11   90.19    7.60
  -4  -2  11   82.99    5.90
  -4  -2  11   79.29    6.30
  -4  -2  11   80.89    8.10
   3   2 -11  135.39    7.60
   3   2 -11  137.49    9.80
   3   2 -11  140.09    8.20
   3   2 -11  148.09    8.60
  -3  -2  11  127.09    7.80
  -3  -2  11  141.59    8.40
  -3  -2  11  136.19    7.40
  -3  -2  11  140.49    9.90
  -2  -2  11   76.39    5.20
  -2  -2  11   80.49    6.50
  -2  -2  11   82.39    6.30
  -2  -2  11   69.29    5.10
  -1  -2  11   16.80    3.90
  -1  -2  11   16.60    4.50
  -1  -2  11   21.00    2.70
  -1  -2  11   17.20    2.70
   0   2 -11    3.10    2.80
   0  -2  11    0.80    2.60
   0  -2  11    1.70    3.00
   0  -2  11   -0.10    2.40
   0  -2  11    1.50    3.20
  -1   2 -11  331.67   14.00
   1  -2  11  337.17   13.10
   1  -2  11  343.37   16.20
   1  -2  11  318.97   13.10
   1  -2  11  312.47   12.90
   1  -2  11  331.87   12.30
   1  -2  11  331.47   12.50
   1  -2  11  332.67   13.40
   1  -2  11  329.17   12.80
  -2   2 -11   10.10    6.60
  -2   2 -11    7.70    4.60
   2  -2  11    2.70    3.60
   2  -2  11    7.20    5.10
   2  -2  11    7.80    7.10
   2  -2  11    8.70    4.80
   2  -2  11    0.70    4.10
   2  -2  11    3.70    4.20
  -3   2 -11   -1.30    2.40
  -3   2 -11    0.30    2.50
  -3   2 -11    1.90    5.40
  -3   2 -11    3.30    8.40
   3  -2  11   -2.70    4.80
   3  -2  11    3.40    6.60
   3  -2  11    0.80    5.80
   3  -2  11   -1.40    5.20
   3  -2  11   -1.90    4.40
  -4   2 -11  429.66   16.20
  -4   2 -11  434.76   16.60
  -4   2 -11  440.26   23.20
   4  -2  11  448.56   19.00
   4  -2  11  459.75   21.60
   4  -2  11  432.26   21.80
   4  -2  11  455.55   18.70
  -5   2 -11   11.20    8.30
  -5   2 -11   11.80    6.80
  -5   2 -11   10.80    5.40
   5  -2  11   10.30    8.60
   5  -2  11    1.40    6.40
   5  -2  11    9.60    9.40
   5  -2  11   13.90   11.30
  -6   2 -11   25.20   10.50
  -6   2 -11   26.30    7.60
   6  -2  11   21.00   15.70
   6  -2  11   23.10    8.60
   6  -2  11   21.50   12.10
  -7   2 -11    3.60   14.20
  -7   2 -11    2.00    9.20
   7  -2  11   -1.00   10.50
   7   1 -11    0.90   12.60
  -7  -1  11   -3.70    9.00
  -7  -1  11   -7.30    9.60
  -7  -1  11   -4.50    7.70
   6   1 -11    5.50    9.70
  -6  -1  11    7.00    8.40
  -6  -1  11   11.30    8.80
  -6  -1  11    8.20    6.40
  -6  -1  11   10.20    7.20
  -6  -1  11    3.20    8.60
  -6  -1  11   18.20    5.10
   5   1 -11   12.00    7.00
   5   1 -11    5.40    7.10
   5   1 -11    4.90    7.10
  -5  -1  11   20.00    5.30
  -5  -1  11   14.10    5.40
  -5  -1  11   15.00    7.30
  -5  -1  11   15.90    5.80
  -5  -1  11   10.60    5.00
  -5  -1  11    9.70    6.00
   4   1 -11  351.36   19.00
   4   1 -11  374.66   13.60
   4   1 -11  375.46   14.60
   4   1 -11  375.86   15.10
  -4  -1  11  348.67   13.80
  -4  -1  11  339.57   16.90
  -4  -1  11  370.26   14.10
  -4  -1  11  373.06   15.00
  -3  -1  11   14.20    4.50
  -3  -1  11    4.20    2.60
  -3  -1  11    1.90    4.60
  -3  -1  11   11.40    2.90
  -2  -1  11  180.08   10.10
  -2  -1  11  183.98   10.20
  -1  -1  11  239.68   11.10
  -1  -1  11  228.88   11.60
   0  -1  11   60.29    4.20
   0  -1  11   76.69    7.20
   0  -1  11   61.29    4.00
   0  -1  11   71.89    5.90
  -1   1 -11  172.58    9.40
   1  -1  11  164.68    7.80
   1  -1  11  170.18    9.20
   1  -1  11  169.08    8.00
   1  -1  11  157.28    7.70
   1  -1  11  177.98   10.10
  -2   1 -11   15.70    6.20
  -2   1 -11   15.00    4.90
   2  -1  11   22.30    5.20
   2  -1  11   11.30    4.40
   2  -1  11   16.10    4.90
   2  -1  11   21.20    5.80
   2  -1  11   15.10    3.90
  -3   1 -11   93.69    8.60
  -3   1 -11   84.79    4.40
  -3   1 -11  104.39   12.00
   3  -1  11   78.69    8.60
   3  -1  11   83.89    7.10
   3  -1  11   91.69    8.20
   3  -1  11  107.89    9.60
   3  -1  11   93.49    7.90
  -4   1 -11   54.29    5.80
   4  -1  11   78.79    7.70
   4  -1  11   44.30    9.50
   4  -1  11   52.19    8.60
   4  -1  11   57.79    9.70
  -5   1 -11   -2.90    5.20
  -5   1 -11    5.60    6.70
  -5   1 -11   -3.00    9.00
   5  -1  11    2.80    6.70
   5  -1  11    4.70   11.10
   5  -1  11    1.20   10.00
  -6   1 -11    4.40    7.00
  -6   1 -11    0.20   10.50
   6  -1  11   -0.40   12.80
   6  -1  11    3.00   16.00
   6  -1  11   -6.40    8.30
   7   0 -11   -3.50   12.50
  -7   0  11   -1.80    8.60
  -7   0  11   -1.30   10.30
  -7   0  11    2.90   11.80
  -7   0  11   -1.10    7.60
  -7   0  11    1.60    7.30
   6   0 -11   -1.70    9.80
  -6   0  11    0.60    8.30
  -6   0  11    5.40    6.60
  -6   0  11   -0.20    7.70
  -6   0  11   -0.80    5.80
  -6   0  11   -2.70    8.10
  -6   0  11    1.50    5.70
   5   0 -11   -5.80    5.90
   5   0 -11    2.30    6.30
  -5   0  11   -2.10    4.40
  -5   0  11   -5.00    6.80
  -5   0  11    0.20    4.50
  -5   0  11    1.40    5.10
  -5   0  11    0.60    5.40
  -5   0  11    1.40    5.10
   4   0 -11   82.49    4.70
  -4   0  11   84.99    7.50
  -4   0  11   89.79    6.50
  -4   0  11   68.99    7.70
  -3   0  11    7.10    2.50
  -3   0  11    5.80    2.40
  -3   0  11   10.00    4.80
  -3   0  11   13.10    4.90
  -2   0  11   -1.80    4.30
  -2   0  11    1.80    4.30
  -1   0  11   25.30    4.70
  -1   0  11   33.70    5.50
   0   0  11    1.60    2.20
   0   0  11   -1.70    4.20
   0   0  11    0.20    2.10
   0   0  11    9.00    4.00
  -1   0 -11    6.90    4.60
   1   0  11   12.00    5.50
   1   0  11    6.90    4.50
   1   0  11    9.00    3.50
   1   0  11    7.00    3.40
   1   0  11   10.90    3.20
   1   0  11    9.60    5.30
   1   0  11    7.90    4.30
  -2   0 -11  148.69   10.10
  -2   0 -11  143.69   13.00
   2   0  11  165.78   11.50
   2   0  11  162.38    9.50
   2   0  11  164.28   11.80
   2   0  11  178.18   10.60
   2   0  11  172.98    9.00
   2   0  11  165.18   10.10
  -3   0 -11    9.90    6.20
  -3   0 -11   14.00    2.40
   3   0  11   10.30    7.30
   3   0  11   10.70    4.90
   3   0  11   17.60    7.50
   3   0  11   12.90    6.90
   3   0  11   14.00    6.60
  -4   0 -11   -0.20    3.80
  -4   0 -11    1.10    4.60
  -4   0 -11    1.80    6.90
   4   0  11   -0.90    5.70
   4   0  11    0.20    8.50
   4   0  11   -0.50    8.30
  -5   0 -11   17.00    7.60
  -5   0 -11   22.80   10.40
  -5   0 -11   25.00    6.20
   5   0  11   28.70    8.20
   5   0  11   22.80   13.30
   5   0  11   23.20   11.60
  -6   0 -11   44.90   13.40
  -6   0 -11   38.30   12.30
   6   0  11   51.79   24.10
   7  -1 -11   -1.20    9.80
   7  -1 -11   -1.90   12.70
  -7   1  11   -3.20    8.20
  -7   1  11    3.50   11.00
  -7   1  11   -5.20    7.80
  -7   1  11   -6.50    7.40
  -7   1  11   -0.60   11.50
   6  -1 -11   -3.70    7.80
   6  -1 -11    3.90    9.60
  -6   1  11   -0.90    7.70
  -6   1  11   -3.50    8.50
  -6   1  11   -0.20    7.00
  -6   1  11   -2.10    6.40
  -6   1  11   -2.80    6.20
  -6   1  11    3.90    9.00
   5  -1 -11   57.19    8.40
   5  -1 -11   88.09    7.80
   5  -1 -11   66.99    8.40
  -5   1  11   88.29    7.30
  -5   1  11   83.29    9.70
  -5   1  11   76.19    6.60
  -5   1  11   78.09    8.50
   4  -1 -11   40.20    3.60
   4  -1 -11   48.30    3.70
  -4   1  11   33.80    4.70
  -4   1  11   53.49    4.70
  -4   1  11   39.60    6.70
  -4   1  11   54.09   10.10
  -3   1  11   45.20    3.60
  -3   1  11   46.30    6.60
  -3   1  11   60.69    7.50
  -3   1  11   49.00    3.90
  -2   1  11  239.98    8.40
  -2   1  11  241.98    8.50
  -2   1  11  252.77   13.00
  -2   1  11  261.97   13.40
  -1   1  11  368.56   15.30
  -1   1  11  321.17   11.30
  -1   1  11  319.77   11.30
  -1   1  11  373.86   16.00
   0  -1 -11  733.13   23.90
   0   1  11  737.53   23.80
   0   1  11  732.43   23.50
   0   1  11  759.22   27.40
  -1  -1 -11  497.85   18.80
  -1  -1 -11  417.96   17.50
   1   1  11  474.85   17.00
   1   1  11  444.86   17.60
   1   1  11  493.05   20.30
   1   1  11  477.45   20.00
   1   1  11  495.25   17.90
  -2  -1 -11   36.60    6.30
  -2  -1 -11   37.20    8.30
   2   1  11   24.80    7.40
   2   1  11   36.40    7.70
   2   1  11   39.70    6.70
   2   1  11   31.00    7.40
   2   1  11   22.40    8.00
   2   1  11   21.70    5.50
  -3  -1 -11   31.50    3.60
  -3  -1 -11   34.30    7.70
  -3  -1 -11   37.40    3.40
   3   1  11   34.00    8.60
   3   1  11   26.80    7.30
   3   1  11   34.80    7.50
   3   1  11   28.70    9.30
  -4  -1 -11    8.20    4.60
  -4  -1 -11   15.90    5.60
  -4  -1 -11   11.30    8.20
   4   1  11   13.20   10.30
   4   1  11    6.20   11.60
   4   1  11   11.90    8.40
   4   1  11   13.60   10.40
  -5  -1 -11    6.70   10.00
  -5  -1 -11    7.90    8.40
  -5  -1 -11    7.30    6.00
   5   1  11   14.70   14.50
   5   1  11   15.60   15.80
   5   1  11    9.30    9.40
   5   1  11   13.30    8.20
   5   1  11    6.00   11.80
  -6  -1 -11    5.10    8.10
  -6  -1 -11   10.40   14.70
   6   1  11   -8.50   11.60
   6   1  11   -3.50   14.10
   6   1  11    4.50   11.60
   7  -2 -11    7.40   13.30
  -7   2  11    4.30    9.50
  -7   2  11   -2.50    8.80
  -7   2  11   -3.70   11.80
  -7   2  11   13.40    8.30
  -7   2  11   -1.80   12.80
   6  -2 -11   -4.90    9.60
   6  -2 -11   -2.40    9.10
  -6   2  11    2.00    6.60
  -6   2  11   -0.40    6.20
  -6   2  11   -1.10    8.80
  -6   2  11   -1.50    8.60
  -6   2  11    2.40    8.20
   5  -2 -11   14.20    7.80
   5  -2 -11   19.30    7.00
   5  -2 -11   16.40    7.30
  -5   2  11   22.40    5.50
  -5   2  11   20.90    6.40
  -5   2  11   27.10    8.00
  -5   2  11   20.00    7.40
  -5   2  11   19.30    5.40
   4  -2 -11    9.10    5.30
   4  -2 -11   14.80    4.60
  -4   2  11   17.90    6.60
  -4   2  11   13.40    6.60
  -4   2  11   16.00    4.30
  -4   2  11   21.00    4.90
  -3   2  11   98.49    9.10
  -3   2  11   91.19    6.70
  -3   2  11  101.39    6.40
  -2   2  11  559.74   18.60
  -2   2  11  542.25   18.40
  -2   2  11  606.74   23.10
  -2   2  11  534.35   22.30
  -1   2  11   63.79    7.50
  -1   2  11   62.79    8.00
  -1   2  11   54.99    4.40
  -1   2  11   62.79    4.90
   0  -2 -11 1315.97   42.60
   0   2  11 1296.47   41.60
   0   2  11 1325.97   41.60
   0   2  11 1319.27   45.20
   0   2  11 1354.76   41.80
   0   2  11 1294.87   41.50
  -1  -2 -11  155.68   10.70
  -1  -2 -11  188.08   11.90
   1   2  11  165.58   10.00
   1   2  11  169.58   12.80
   1   2  11  155.08   10.60
   1   2  11  177.38   10.60
   1   2  11  150.08    9.10
   1   2  11  147.19   10.40
  -2  -2 -11   36.70    7.10
   2   2  11   49.00    8.70
   2   2  11   29.30    5.50
   2   2  11   34.90    8.00
   2   2  11   25.80    8.50
   2   2  11   40.00    7.10
   2   2  11   32.90    7.40
  -3  -2 -11   32.70    8.00
  -3  -2 -11   37.80    4.10
  -3  -2 -11   34.10    4.50
   3   2  11   27.40    9.80
   3   2  11   42.30    6.80
   3   2  11   33.70   10.80
   3   2  11   18.80    8.00
  -4  -2 -11    6.90    5.20
  -4  -2 -11    8.20    6.60
  -4  -2 -11    8.40    8.50
   4   2  11   13.40   11.80
   4   2  11    3.60   13.60
   4   2  11   10.80    7.00
   4   2  11   14.80    9.00
   4   2  11    5.40   11.10
  -5  -2 -11   -1.30    6.60
  -5  -2 -11   -4.00   10.80
  -5  -2 -11   -1.00   10.20
   5   2  11   -3.20   18.30
   5   2  11    2.10   14.20
   5   2  11    7.20   17.90
   5   2  11   -1.40   10.80
   5   2  11    1.90    8.10
   7  -3 -11    0.60   14.00
   7  -3 -11   -3.70   14.20
  -7   3  11    7.90    9.00
  -7   3  11   19.90   10.00
  -7   3  11   15.20   10.90
   6  -3 -11   15.50   10.80
   6  -3 -11   -0.90   10.60
  -6   3  11    5.90    8.50
  -6   3  11    3.90    8.80
  -6   3  11    2.50    7.10
  -6   3  11    3.60    7.10
  -6   3  11    6.40    9.40
   5  -3 -11    5.60    8.20
  -5   3  11   15.40    9.00
  -5   3  11   10.20    5.80
  -5   3  11   14.90    6.00
  -5   3  11   10.70    7.90
  -5   3  11   17.30    6.50
  -5   3  11   12.50    7.90
   4  -3 -11   -0.40    6.20
   4  -3 -11    0.70    6.90
   4  -3 -11    3.00    6.50
  -4   3  11    2.20    6.80
  -4   3  11    2.00    5.40
  -4   3  11    2.10    7.30
  -4   3  11   -4.70    4.40
   3  -3 -11   65.09    6.40
   3  -3 -11   28.40    6.90
   3  -3 -11   58.39    6.60
  -3   3  11   48.30    8.30
  -3   3  11   52.89    6.00
  -3   3  11   43.60    7.90
  -3   3  11   58.69    5.50
   2  -3 -11   13.30    6.90
   2  -3 -11   13.00    5.20
  -2   3  11    8.70    7.00
  -2   3  11    8.20    4.60
  -2   3  11    5.60    6.00
  -2   3  11    7.90    4.00
   1  -3 -11  267.87   18.50
  -1   3  11  352.96   14.70
  -1   3  11  396.56   18.70
  -1   3  11  387.06   14.30
  -1   3  11  380.26   14.60
  -1   3  11  370.96   17.70
  -1   3  11  366.76   14.50
   0  -3 -11   -0.90    7.60
   0  -3 -11    3.20    5.50
   0   3  11    0.80    5.10
   0   3  11    1.10    4.10
   0   3  11   -3.50    6.50
   0   3  11    5.80    7.10
   0   3  11    2.80    5.10
   0   3  11    0.10    4.90
  -1  -3 -11  148.69   12.10
   1   3  11  148.89   11.70
   1   3  11  142.89   11.70
   1   3  11  146.59   10.00
   1   3  11  148.39   12.30
   1   3  11  157.88   11.70
   1   3  11  146.89    9.90
  -2  -3 -11   -1.60    7.20
   2   3  11    2.20    8.00
   2   3  11    8.90    7.70
   2   3  11   -1.00    5.50
   2   3  11    0.90    7.30
   2   3  11   -7.40    9.80
  -3  -3 -11    7.20    8.70
  -3  -3 -11   12.60    5.30
  -3  -3 -11    5.40    7.20
   3   3  11    2.50    6.70
   3   3  11    9.40   11.30
   3   3  11    1.20    9.80
   3   3  11    9.90    8.60
  -4  -3 -11   28.90    8.60
  -4  -3 -11   20.90   11.50
  -4  -3 -11   32.70    6.50
   4   3  11   40.10   16.90
   4   3  11   27.60   15.20
   4   3  11   26.20   12.90
   4   3  11   26.90   10.60
   4   3  11   35.50    8.70
   6  -4 -11    9.60   12.60
   6  -4 -11   -5.10   12.70
  -6   4  11    5.00   13.60
  -6   4  11   18.20    8.30
  -6   4  11    9.20   10.30
  -6   4  11   10.50    8.50
  -6   4  11   18.80   11.00
   5  -4 -11    1.90   10.10
   5  -4 -11   -1.50    9.90
  -5   4  11    7.40    8.80
  -5   4  11    4.40   11.10
  -5   4  11    0.50    9.20
  -5   4  11    1.60    6.50
  -5   4  11    1.70   11.20
  -5   4  11   -1.50    6.80
   4  -4 -11   91.29   10.40
   4  -4 -11   80.89   10.10
  -4   4  11   80.59   10.60
  -4   4  11   80.89    7.90
  -4   4  11   65.39    8.30
  -4   4  11   73.89    9.10
  -4   4  11   73.49    7.60
  -4   4  11   72.69   10.90
   3  -4 -11   11.40    8.00
   3  -4 -11   20.50    7.10
  -3   4  11   22.10    5.60
  -3   4  11   22.10    6.40
  -3   4  11   17.90    8.10
  -3   4  11   15.00    5.70
  -3   4  11   12.90    6.80
  -3   4  11   15.40    8.00
   2  -4 -11   45.40    7.60
   2  -4 -11   46.90    9.70
  -2   4  11   40.20    9.00
  -2   4  11   38.80    8.70
  -2   4  11   48.80    7.30
  -2   4  11   42.10    6.10
  -2   4  11   46.30    6.60
   1  -4 -11   54.59    8.40
  -1   4  11   62.19   12.30
  -1   4  11   60.29    6.50
  -1   4  11   54.89    9.30
  -1   4  11   49.30    7.50
  -1   4  11   37.40    7.80
  -1   4  11   66.69    7.60
   0  -4 -11    5.80    7.00
   0   4  11    1.10    6.80
   0   4  11    4.50    9.20
   0   4  11    6.30    7.10
   0   4  11    2.00    5.30
   0   4  11    5.00    7.70
  -1  -4 -11   39.60    9.00
   1   4  11   37.20    9.40
   1   4  11   37.90    6.90
   1   4  11   21.50    9.40
   1   4  11   31.40    8.20
   1   4  11   32.90   11.10
  -2  -4 -11   27.50    4.10
  -2  -4 -11   29.70    4.50
  -2  -4 -11   28.00    9.90
   2   4  11   22.60    7.40
   2   4  11   28.00   11.60
   2   4  11   37.00   13.10
   2   4  11   20.90    9.10
   2   4  11   12.90    9.40
  -3  -4 -11    3.80    5.50
  -3  -4 -11    2.50   10.50
  -3  -4 -11    2.40    7.40
   3   4  11   -1.60    8.20
   3   4  11   -0.90   16.30
   3   4  11   -2.60   13.60
   3   4  11    1.90   10.90
   3   4  11    3.20   10.40
  -4  -4 -11   46.10    8.40
  -4  -4 -11   54.29   15.20
   4   4  11   37.60   14.80
   4   4  11   57.99   14.20
   6  -5 -11   20.00   16.10
  -6   5  11   12.90    9.90
  -6   5  11   10.40   10.30
  -6   5  11   -1.40   14.70
  -6   5  11    0.70   12.30
   5  -5 -11   61.29   13.80
   5  -5 -11   72.99   13.30
  -5   5  11   63.29    9.50
  -5   5  11   49.10    9.60
  -5   5  11   53.79   12.40
  -5   5  11   61.69   12.00
  -5   5  11   48.40   12.80
   4  -5 -11   19.10   12.10
   4  -5 -11   24.40   10.60
  -4   5  11   13.70    7.40
  -4   5  11   12.50   10.30
  -4   5  11   21.40    9.40
  -4   5  11   22.00    8.00
  -4   5  11   26.40   10.20
   3  -5 -11    6.30    9.30
  -3   5  11    0.40    6.20
  -3   5  11   -0.60    9.00
  -3   5  11    4.00    9.00
  -3   5  11    3.50    7.30
  -3   5  11    0.00    8.50
   2  -5 -11   -7.60   10.50
   2  -5 -11    5.50    8.50
  -2   5  11   16.30    7.50
  -2   5  11    3.00    6.50
  -2   5  11    6.00    8.50
  -2   5  11   -0.60    8.50
  -2   5  11    8.30    9.50
   1  -5 -11   52.49   10.10
  -1   5  11   39.20    8.30
  -1   5  11   48.60    7.70
  -1   5  11   36.70   10.40
  -1   5  11   36.00    9.60
  -1   5  11   29.60    9.70
   0  -5 -11   12.60    9.50
   0   5  11   15.40   10.10
   0   5  11   12.20    6.90
   0   5  11   12.20   10.30
   0   5  11    8.30   13.10
   0   5  11    6.60    8.40
  -1  -5 -11  113.99   14.00
   1   5  11   83.69    9.90
   1   5  11  103.49   12.10
   1   5  11   95.59   14.10
   1   5  11   96.99   12.90
   1   5  11  108.09   16.20
  -2  -5 -11   36.80   13.00
  -2  -5 -11   28.10    9.10
   2   5  11   32.60   17.50
   2   5  11   46.70   20.80
   2   5  11   45.60    9.70
   2   5  11   28.70   11.70
   4  -6 -11   34.20   13.30
   4  -6 -11   15.40   15.70
  -4   6  11   28.40   12.00
  -4   6  11   29.80   10.20
  -4   6  11   25.60    9.40
  -4   6  11    6.60   12.40
   3  -6 -11    3.50   11.90
  -3   6  11   -0.50    9.20
  -3   6  11    4.80   12.10
  -3   6  11    1.60    8.00
  -3   6  11    5.60   10.70
   2  -6 -11   18.40   15.40
   2  -6 -11   -0.20   11.40
  -2   6  11    8.90    8.30
  -2   6  11   11.60   13.60
  -2   6  11    8.90    9.60
  -2   6  11    2.30   11.00
  -1   6  11    0.90   11.20
  -1   6  11   -2.60    9.30
  -1   6  11    2.70   10.00
  -1   6  11    0.60    8.50
   0  -6 -11    2.20   11.70
   0   6  11   -6.60   11.80
   0   6  11   -2.70   17.70
   0   6  11    4.40    8.30
   0   6  11    0.10   10.40
  -1  -6 -11    5.10   13.50
   1   6  11   -4.40   12.70
   1   6  11    9.60   12.90
   1   6  11   -0.20    9.10
   1   8 -12   -1.60    7.10
   1   8 -12    9.90   13.20
  -1  -8  12   -7.30    9.20
  -1  -8  12    0.90   11.20
   0   8 -12   10.50    7.10
   0   8 -12   17.10   12.40
   0  -8  12   15.50   19.80
   0  -8  12   10.50    9.80
  -1   8 -12   36.90    7.50
  -1   8 -12   34.00   10.40
  -1   8 -12   22.40   13.10
   1  -8  12   30.70    9.70
   1  -8  12   33.30   19.90
  -2   8 -12    5.50   10.90
  -2   8 -12    3.30    7.20
  -2   8 -12   11.40   13.70
   2  -8  12   -0.90   11.60
   2  -8  12   -0.20    9.70
   3  -8  12   13.30   13.10
   3   7 -12    9.50   14.60
   3   7 -12    2.60    4.80
  -3  -7  12    1.10    7.80
  -3  -7  12   -3.10    9.50
   2   7 -12    8.70    5.30
   2   7 -12    6.20    4.70
  -2  -7  12    5.50    8.20
  -2  -7  12   11.30    8.80
  -2  -7  12   14.30   10.50
  -2  -7  12    7.90    4.70
  -2  -7  12   20.10   29.00
   1   7 -12    5.00    4.70
   1   7 -12   -3.20    9.70
  -1  -7  12    2.50   17.20
  -1  -7  12   12.70    8.20
  -1  -7  12    0.60    9.00
  -1  -7  12    6.20    8.40
   0   7 -12    9.40    8.50
   0   7 -12    3.40    5.60
   0   7 -12    5.70    9.70
   0  -7  12   -0.80   16.80
   0  -7  12   18.90   10.00
   0  -7  12    6.10    7.50
   0  -7  12    2.40    8.60
  -1   7 -12   10.20    6.30
  -1   7 -12   12.80    5.30
  -1   7 -12   -0.20   10.00
   1  -7  12   -0.30   15.30
   1  -7  12    8.60    7.50
   1  -7  12   11.20    9.40
  -2   7 -12    1.70    7.40
  -2   7 -12    3.50    5.40
  -2   7 -12    2.00   10.20
   2  -7  12    5.10    8.80
   2  -7  12   -2.60    7.40
   2  -7  12  -10.30   14.20
  -3   7 -12    4.40    8.90
  -3   7 -12   -5.20   10.50
  -3   7 -12    3.60    6.30
   3  -7  12   13.40   11.00
   3  -7  12  -12.40    7.90
   3  -7  12    7.00   18.10
  -4   7 -12    1.90   12.70
  -4   7 -12   -0.80    7.20
   4  -7  12   22.40    9.40
   4  -7  12   -4.30   19.50
  -5   7 -12    8.30    8.60
   5  -7  12    8.70   10.80
   4   6 -12    2.90   12.70
  -4  -6  12    4.10    8.80
  -4  -6  12    4.20    8.80
  -4  -6  12   -2.20   10.50
   3   6 -12   17.90    8.80
   3   6 -12   32.30   12.10
  -3  -6  12   20.00   15.80
  -3  -6  12   12.00    7.90
  -3  -6  12   15.80    9.10
  -3  -6  12   19.90    7.10
  -2  -6  12  119.79    7.60
  -2  -6  12  106.29   10.10
  -2  -6  12  126.69    8.70
  -2  -6  12  124.39    8.30
  -2  -6  12  105.49   15.80
  -2  -6  12  131.99   12.20
   1   6 -12    6.40    7.70
  -1  -6  12   14.20    8.10
  -1  -6  12   29.90   11.80
  -1  -6  12   19.50    8.10
  -1  -6  12   15.10    7.20
  -1  -6  12   14.00   12.50
   0   6 -12   82.79   10.40
   0  -6  12   62.69   12.10
   0  -6  12   67.79    9.90
   0  -6  12   73.39    9.60
   0  -6  12   61.99    7.90
   0  -6  12   76.49   14.40
  -1   6 -12    1.30    3.50
  -1   6 -12    0.80    3.90
   1  -6  12    4.80    7.20
   1  -6  12   -8.70   10.10
   1  -6  12    5.80   10.10
  -2   6 -12   -3.10    5.00
  -2   6 -12   -4.10    7.90
   2  -6  12    2.00    6.30
   2  -6  12   -4.40   11.00
   2  -6  12    3.90   11.10
   2  -6  12   -0.60    8.20
  -3   6 -12   -2.30    5.00
  -3   6 -12    3.80    6.30
  -3   6 -12    0.70    8.40
   3  -6  12    1.50    6.80
   3  -6  12    1.30    9.20
   3  -6  12    1.20   12.10
  -4   6 -12   17.80   11.50
  -4   6 -12   12.30    6.50
  -4   6 -12   13.40    8.50
   4  -6  12   -0.50   10.30
   4  -6  12   22.60   15.30
   4  -6  12   13.50    7.50
  -5   6 -12    8.50    7.90
  -5   6 -12   16.80   12.60
   5  -6  12   -2.00   22.40
   5  -6  12   15.20    9.50
   5   5 -12    4.80   12.70
  -5  -5  12    0.80   10.30
  -5  -5  12   -0.40    9.30
  -5  -5  12    2.50    9.20
   4   5 -12   16.20   14.00
   4   5 -12    6.10    9.70
  -4  -5  12   15.10    9.00
  -4  -5  12   12.50    8.00
  -4  -5  12   19.50   13.50
  -4  -5  12   11.10    7.60
   3   5 -12   85.59    9.30
   3   5 -12   84.29   11.30
  -3  -5  12   87.49    8.80
  -3  -5  12   86.79    8.30
  -3  -5  12   79.29   12.80
  -3  -5  12   93.99   10.10
  -2  -5  12  848.22   27.40
  -2  -5  12  800.92   27.60
  -2  -5  12  793.92   32.00
  -2  -5  12  834.52   29.10
  -2  -5  12  805.82   30.30
  -2  -5  12  856.71   30.00
   1   5 -12  114.39    9.90
  -1  -5  12  102.49   10.30
  -1  -5  12  103.69    9.10
  -1  -5  12  119.29    8.70
  -1  -5  12  116.29    6.40
  -1  -5  12  131.39   11.30
  -1  -5  12  104.09    8.80
  -1  -5  12  100.49   11.50
   0   5 -12  107.49    9.90
   0  -5  12  116.99    9.20
   0  -5  12  123.79   11.40
   0  -5  12  111.89    9.50
   0  -5  12  118.29    8.40
   0  -5  12  106.89   11.90
  -1   5 -12   -0.20    6.40
   1  -5  12   -1.20    8.30
   1  -5  12    5.00    6.20
   1  -5  12    4.80    7.90
   1  -5  12    4.60    5.00
   1  -5  12    6.10    6.70
  -2   5 -12    5.70    6.90
  -2   5 -12    3.10    3.10
  -2   5 -12    2.20    2.90
   2  -5  12   -1.30    9.70
   2  -5  12    0.90    5.40
   2  -5  12   -1.50    7.00
   2  -5  12    1.60   11.70
   2  -5  12    5.50    8.00
  -3   5 -12   39.60    8.80
  -3   5 -12   49.60    5.60
   3  -5  12   62.59   10.10
   3  -5  12   90.09   12.30
   3  -5  12   44.50   11.80
  -4   5 -12   18.50    6.60
  -4   5 -12   10.60    5.30
  -4   5 -12   13.40    9.10
   4  -5  12    4.80    9.40
   4  -5  12   11.20    7.00
   4  -5  12   28.50   20.40
  -5   5 -12    3.40   10.70
  -5   5 -12   -0.40    6.50
  -5   5 -12   36.20    9.70
   5  -5  12    8.40    4.60
   5  -5  12    0.80    8.00
   5  -5  12   10.40   11.40
   5  -5  12    9.00   15.00
  -6   5 -12   52.49    9.80
  -6   5 -12   42.60   13.40
   6  -5  12   59.19   19.60
   6  -5  12   36.20   13.30
   6   4 -12    0.40   17.00
  -6  -4  12    5.50   10.70
  -6  -4  12    9.80   10.90
  -6  -4  12    7.90    9.60
   5   4 -12   -4.40   10.70
  -5  -4  12    1.50   12.20
  -5  -4  12   -0.10    7.60
  -5  -4  12   -1.20    8.10
  -5  -4  12    6.40    8.50
   4   4 -12   -6.00    8.70
   4   4 -12    4.20    7.70
  -4  -4  12    0.20    6.20
  -4  -4  12    2.10    6.90
  -4  -4  12   -2.60    8.60
  -4  -4  12    0.50    7.00
  -4  -4  12    7.10   10.10
   3   4 -12   77.99    8.50
   3   4 -12   78.59    9.60
   3   4 -12   93.19    9.60
  -3  -4  12   79.79    5.20
  -3  -4  12   67.59    5.40
  -3  -4  12   81.79    7.30
  -3  -4  12   75.09   10.00
  -3  -4  12   76.79    8.00
  -3  -4  12   80.09    8.60
  -3  -4  12   67.79    7.40
   2   4 -12  760.92   28.30
  -2  -4  12  747.33   26.60
  -2  -4  12  774.62   26.30
  -2  -4  12  827.42   30.70
  -2  -4  12  736.73   27.60
  -2  -4  12  777.22   27.00
  -2  -4  12  775.12   26.20
  -2  -4  12  759.22   26.30
   1   4 -12   13.30    5.20
   1   4 -12    9.20    6.30
  -1  -4  12   10.60    7.40
  -1  -4  12   14.30    6.20
  -1  -4  12    9.20    5.10
  -1  -4  12   11.50    4.80
  -1  -4  12    8.00    6.20
  -1  -4  12   10.40    3.60
  -1  -4  12   12.10    4.40
   0   4 -12 1072.99   37.30
   0   4 -12 1090.99   36.90
   0  -4  12 1075.89   36.30
   0  -4  12 1109.69   34.00
   0  -4  12 1066.39   35.90
   0  -4  12 1098.09   38.00
   0  -4  12 1095.79   34.00
   0  -4  12 1129.29   35.80
   0  -4  12 1168.68   37.40
   0  -4  12 1102.39   36.60
  -1   4 -12    5.40    6.60
  -1   4 -12   12.10    5.60
   1  -4  12   13.50    6.10
   1  -4  12    6.90    6.80
   1  -4  12    3.70    5.80
   1  -4  12   12.00    8.10
   1  -4  12    5.40    4.60
   1  -4  12   14.90    5.60
  -2   4 -12    1.20    5.90
   2  -4  12    4.10    4.70
   2  -4  12    8.70    7.60
   2  -4  12    3.40    6.00
   2  -4  12    0.80    6.70
   2  -4  12   -4.00   10.40
  -3   4 -12    2.50    6.70
  -3   4 -12    4.00    3.30
  -3   4 -12    7.20    3.50
   3  -4  12    5.50    3.20
   3  -4  12    5.70    2.90
   3  -4  12    8.50    7.30
   3  -4  12    0.60    5.20
   3  -4  12    9.00    8.80
  -4   4 -12   44.00    9.30
  -4   4 -12   52.19    5.90
  -4   4 -12   49.99    6.40
   4  -4  12   47.50   11.10
   4  -4  12   57.79    8.10
   4  -4  12   54.19   10.10
   4  -4  12   53.09    6.90
  -5   4 -12    1.60    9.20
  -5   4 -12    3.70    9.70
  -5   4 -12    3.20    6.00
   5  -4  12   -3.80   13.20
   5  -4  12    1.30    9.60
   5  -4  12    3.80    6.80
   5  -4  12   -4.30    7.80
  -6   4 -12    7.30    9.90
  -6   4 -12    5.70   11.70
   6  -4  12   10.40    9.60
   6  -4  12    5.20   13.90
   6   3 -12   10.60   12.80
  -6  -3  12    9.90   10.30
  -6  -3  12   11.80    8.40
  -6  -3  12    3.30    9.10
   5   3 -12   22.00    9.70
  -5  -3  12   31.00    8.60
  -5  -3  12   27.30   10.40
  -5  -3  12   23.70    6.80
   4   3 -12    1.80    9.20
   4   3 -12    2.80    6.50
   4   3 -12   11.70    7.60
  -4  -3  12    5.60    7.80
  -4  -3  12   -0.70    6.30
  -4  -3  12   12.20    5.30
  -4  -3  12    5.80    6.30
  -4  -3  12    5.20    5.60
   3   3 -12   -0.60    6.50
   3   3 -12    0.20    6.70
  -3  -3  12   -1.40    5.00
  -3  -3  12    3.60    6.20
  -3  -3  12   -1.20    4.30
  -3  -3  12   -0.10    3.90
  -3  -3  12    3.70    4.90
  -3  -3  12   -0.20    5.50
  -3  -3  12    3.30    4.30
   2   3 -12   81.19    6.60
   2   3 -12   70.59    5.90
  -2  -3  12   76.89    6.50
  -2  -3  12   67.29    5.70
  -2  -3  12   69.99    6.60
  -2  -3  12   72.59    7.20
  -2  -3  12   67.69    6.00
   1   3 -12  124.19    8.60
   1   3 -12  123.89    7.80
  -1  -3  12  145.09    9.60
  -1  -3  12  131.69    7.70
  -1  -3  12  121.59    7.70
  -1  -3  12  122.39    9.10
  -1  -3  12  128.39    7.30
   0   3 -12  115.09    8.80
   0  -3  12  121.99    7.10
   0  -3  12  116.29    9.80
   0  -3  12  115.99    7.00
   0  -3  12  100.89    7.60
   0  -3  12  116.09    7.20
   0  -3  12  110.79    8.20
   0  -3  12  112.29    9.20
  -1   3 -12   47.10    6.80
  -1   3 -12   38.00    5.70
   1  -3  12   55.89    6.10
   1  -3  12   44.30    4.90
   1  -3  12   50.59    4.50
   1  -3  12   46.80    4.70
   1  -3  12   39.80    5.50
   1  -3  12   37.70    5.40
   1  -3  12   34.90    6.20
   1  -3  12   49.30    8.50
  -2   3 -12  172.98   11.40
  -2   3 -12  163.58   13.90
   2  -3  12  176.78    8.60
   2  -3  12  168.38   10.80
   2  -3  12  185.58   12.30
   2  -3  12  184.08   10.10
   2  -3  12  168.28   10.80
   2  -3  12  186.98   12.00
   2  -3  12  161.18    8.80
  -3   3 -12  108.89   10.50
   3  -3  12   92.09    8.80
   3  -3  12  100.89   10.00
   3  -3  12  106.29    9.90
   3  -3  12  100.59    7.20
   3  -3  12  103.89    8.20
  -4   3 -12    5.20    7.70
  -4   3 -12    3.90    4.70
  -4   3 -12    0.60    4.70
   4  -3  12   -2.70    5.70
   4  -3  12    0.90    8.60
   4  -3  12   -6.40    8.80
  -5   3 -12   -1.50    7.30
  -5   3 -12    6.10    9.20
  -5   3 -12   -1.20    5.50
   5  -3  12    5.40   12.20
   5  -3  12   -4.40    9.20
   5  -3  12   -1.90   10.60
   5  -3  12   -1.50    6.90
  -6   3 -12   23.40    7.90
  -6   3 -12   11.10   13.10
   6  -3  12   22.10    9.30
   6  -3  12   14.70   18.70
  -7  -2  12    8.90   13.50
   6   2 -12   -2.80   11.70
  -6  -2  12    8.00   11.10
  -6  -2  12   11.90    9.40
  -6  -2  12    5.10    8.00
  -6  -2  12   -3.80    8.40
   5   2 -12    1.00    8.10
  -5  -2  12    9.10    7.70
  -5  -2  12    0.50    4.00
  -5  -2  12    5.60    5.60
  -5  -2  12    6.10    6.00
  -5  -2  12    0.70    7.30
   4   2 -12   36.50    6.00
   4   2 -12   37.40    6.10
  -4  -2  12   43.70    6.10
  -4  -2  12   40.00    5.10
  -4  -2  12   31.90    7.10
  -4  -2  12   37.90    5.30
  -3  -2  12    3.20    4.20
  -3  -2  12    0.30    5.10
  -3  -2  12   -1.00    4.20
  -3  -2  12   -1.30    3.20
  -2  -2  12   27.80    5.30
  -2  -2  12   24.00    3.20
  -2  -2  12   17.10    4.90
  -2  -2  12   21.00    3.30
  -1  -2  12   10.40    4.10
  -1  -2  12    7.40    2.80
  -1  -2  12    5.40    2.50
  -1  -2  12    3.30    4.60
   0  -2  12  451.95   15.10
   0  -2  12  435.56   15.20
   0  -2  12  427.96   14.30
   0  -2  12  454.65   16.60
  -1   2 -12  124.49    8.90
   1  -2  12  116.29    7.70
   1  -2  12  122.29    8.00
   1  -2  12  105.39    9.70
   1  -2  12  115.29    7.30
   1  -2  12  116.39    7.60
   1  -2  12  117.89    8.80
   1  -2  12  119.59    7.60
   1  -2  12  123.09    7.40
  -2   2 -12  829.32   29.30
  -2   2 -12  822.42   30.00
   2  -2  12  838.92   28.60
   2  -2  12  833.92   29.00
   2  -2  12  829.82   28.30
   2  -2  12  837.02   28.00
   2  -2  12  867.31   29.30
  -3   2 -12  330.07   16.40
   3  -2  12  304.37   14.90
   3  -2  12  324.07   17.10
   3  -2  12  312.07   15.50
   3  -2  12  345.07   14.80
   3  -2  12  327.37   16.60
  -4   2 -12   11.40    4.80
  -4   2 -12   18.80    4.20
   4  -2  12    7.30    6.10
   4  -2  12   18.40    9.30
   4  -2  12   10.70    9.00
   4  -2  12   17.10   11.10
  -5   2 -12   17.90    9.60
  -5   2 -12   25.30    7.20
  -5   2 -12   27.10    6.00
   5  -2  12   36.20    8.00
   5  -2  12   22.70   13.00
   5  -2  12   14.90   10.80
  -6   2 -12   12.10    7.60
  -6   2 -12    4.90   11.70
  -6   2 -12    8.60   12.80
   6  -2  12   16.60    9.60
   6  -2  12   21.30   19.40
   7   1 -12    2.20   13.50
  -7  -1  12    3.80    8.80
  -7  -1  12    2.60    9.50
   6   1 -12   47.30   11.00
  -6  -1  12   78.39    9.90
  -6  -1  12   73.89   11.30
  -6  -1  12   91.59   14.00
  -6  -1  12   68.89   11.10
  -6  -1  12   76.19    8.40
  -6  -1  12   74.39    7.80
   5   1 -12   35.60    7.40
   5   1 -12   26.30    6.80
   5   1 -12   28.80    7.80
  -5  -1  12   36.30    8.80
  -5  -1  12   33.30    6.00
  -5  -1  12   34.00    5.70
  -5  -1  12   32.80    6.80
  -4  -1  12   14.90    4.50
  -4  -1  12   16.70    5.50
  -4  -1  12   18.30    6.70
  -4  -1  12   21.70    4.20
  -3  -1  12    3.60    5.30
  -3  -1  12    1.60    2.50
  -3  -1  12    3.20    4.70
  -3  -1  12    2.90    2.80
  -2  -1  12   26.50    5.40
  -2  -1  12   20.50    5.20
  -1  -1  12   18.40    4.60
  -1  -1  12   27.30    5.40
   0  -1  12   20.60    4.70
   0  -1  12   15.80    2.70
   0  -1  12   22.70    5.50
   0  -1  12   17.80    2.80
  -1   1 -12   11.30    3.80
  -1   1 -12    4.80    4.60
   1  -1  12    7.40    5.10
   1  -1  12    7.00    3.50
   1  -1  12    8.20    3.40
  -2   1 -12  413.16   18.00
  -2   1 -12  413.86   16.70
   2  -1  12  394.56   17.60
   2  -1  12  386.86   15.80
   2  -1  12  416.76   15.50
   2  -1  12  376.56   16.30
   2  -1  12  400.16   17.40
  -3   1 -12   33.20    7.10
   3  -1  12   19.30    8.00
   3  -1  12   26.50    7.30
   3  -1  12   19.50    5.40
   3  -1  12   28.30    6.80
   3  -1  12   26.30    7.40
  -4   1 -12   20.00    9.40
  -4   1 -12   15.20    4.30
   4  -1  12    9.20    8.80
   4  -1  12   14.00    6.90
   4  -1  12    9.20    9.10
  -5   1 -12   42.50   11.10
  -5   1 -12   46.50    6.40
   5  -1  12   36.80    8.50
   5  -1  12   51.49   13.90
   5  -1  12   24.40   11.70
  -6   1 -12   -3.80   12.90
  -6   1 -12   -0.20    7.70
  -6   1 -12    3.60   11.90
   6  -1  12   -3.60   13.80
   6  -1  12    1.30    9.20
   7   0 -12    4.10   12.60
  -7   0  12    5.50   12.70
  -7   0  12    9.70    8.60
  -7   0  12    9.80    8.30
  -7   0  12    4.80    8.10
  -6   0  12  203.28   13.60
  -6   0  12  177.08   14.40
  -6   0  12  182.68   12.60
  -6   0  12  192.18   12.80
  -6   0  12  185.78   12.80
  -6   0  12  175.18   13.90
   5   0 -12   18.60    6.30
   5   0 -12   21.70    5.70
   5   0 -12   24.00    7.40
  -5   0  12   14.00    6.50
  -5   0  12   14.80    8.20
  -5   0  12   28.50    6.40
  -5   0  12   22.50    5.30
  -4   0  12  114.19    8.90
  -4   0  12  105.29    6.90
  -4   0  12   87.99    9.40
  -3   0  12    1.20    2.40
  -3   0  12   -0.40    5.00
  -3   0  12    0.30    2.40
  -3   0  12   -0.80    4.80
  -2   0  12    8.80    5.30
  -2   0  12    8.20    5.00
  -1   0  12   86.59    7.40
  -1   0  12   73.09    7.40
   0   0  12    3.30    4.50
   0   0  12    8.20    2.60
   0   0  12   10.10    5.70
  -1   0 -12   -0.60    3.80
  -1   0 -12    3.80    4.80
   1   0  12   -0.10    4.50
   1   0  12    2.80    3.50
   1   0  12    1.10    3.70
   1   0  12    2.90    4.40
   1   0  12    4.50    5.60
   1   0  12    4.00    6.30
   1   0  12    4.40    3.40
  -2   0 -12   11.90    5.70
  -2   0 -12   14.40    7.10
   2   0  12   15.10    7.40
   2   0  12   12.80    5.40
   2   0  12   18.40    6.80
   2   0  12   13.70    5.50
   2   0  12    8.30    6.70
   2   0  12   13.70    4.70
   2   0  12   13.30    6.50
  -3   0 -12   53.19    8.40
   3   0  12   52.99    9.80
   3   0  12   46.80    6.70
   3   0  12   63.79    8.80
   3   0  12   54.49    9.90
   3   0  12   50.29    8.10
  -4   0 -12   42.20    4.50
  -4   0 -12   45.90    5.00
  -4   0 -12   48.70    9.80
   4   0  12   32.10   10.50
   4   0  12   52.79    8.00
   4   0  12   50.09   12.90
   4   0  12   53.39   10.80
  -5   0 -12   -0.50    5.70
  -5   0 -12    1.30    7.50
  -5   0 -12   -4.00    9.40
   5   0  12    3.10    7.90
   5   0  12    0.10   12.80
   5   0  12   -0.80   11.70
   5   0  12  -11.10   15.60
  -6   0 -12    9.80   13.80
  -6   0 -12    2.60    7.60
   6   0  12    4.10   15.00
   7  -1 -12    2.50   13.60
  -7   1  12    3.10    8.10
  -7   1  12    1.10   11.80
  -7   1  12   12.20    9.50
  -7   1  12    4.80    8.50
   6  -1 -12   -1.90    9.80
  -6   1  12    2.70    8.70
  -6   1  12   -0.30    8.00
  -6   1  12    0.50    5.80
  -6   1  12    0.30    6.40
  -6   1  12   -0.70    9.40
   5  -1 -12    5.00    4.80
   5  -1 -12    6.40    5.10
  -5   1  12    2.50    4.90
  -5   1  12    0.60    6.10
  -5   1  12   -0.90    7.00
  -5   1  12    2.10    7.40
  -4   1  12  169.18    8.50
  -4   1  12  160.08    9.50
  -4   1  12  192.38   13.10
  -4   1  12  146.39   11.90
  -3   1  12   41.80    3.80
  -3   1  12   36.80    7.00
  -3   1  12   42.00    3.70
  -3   1  12   43.10    8.40
  -2   1  12  108.99    9.00
  -2   1  12  119.79    9.60
  -2   1  12   99.09    4.90
  -2   1  12  105.19    5.10
  -1   1  12    7.50    2.50
  -1   1  12    7.50    2.70
  -1   1  12    7.50    5.20
  -1   1  12    8.00    6.30
   0   1  12   12.60    3.40
   0   1  12   17.00    3.00
   0   1  12   15.80    6.10
   0   1  12   14.60    3.70
  -1  -1 -12   48.90    7.00
   1   1  12   49.70    5.60
   1   1  12   53.69    5.40
   1   1  12   50.89    6.60
   1   1  12   37.10    5.30
   1   1  12   41.50    7.80
  -2  -1 -12  109.49    9.20
   2   1  12   95.99    9.30
   2   1  12  113.09    9.90
   2   1  12  123.09    8.80
   2   1  12   95.89    9.80
   2   1  12  109.39    9.20
  -3  -1 -12   42.10    8.50
   3   1  12   38.10    9.80
   3   1  12   38.40    8.80
   3   1  12   48.00   10.60
   3   1  12   40.60    9.20
  -4  -1 -12   71.89   10.80
  -4  -1 -12   78.39    5.70
   4   1  12   91.09   12.20
   4   1  12   67.99   12.20
   4   1  12   69.09   14.10
   4   1  12   60.79   13.10
   4   1  12  106.19   10.10
  -5  -1 -12    0.20    6.10
  -5  -1 -12   -0.10   10.70
  -5  -1 -12   -1.90    8.40
   5   1  12    1.50   10.40
   5   1  12   -3.40   17.50
   5   1  12   -1.50   22.60
   5   1  12   -7.10   13.20
   5   1  12   -1.30    8.70
   7  -2 -12   18.50   13.40
  -7   2  12   18.40   12.50
  -7   2  12   15.10   10.70
  -7   2  12   17.10    9.40
  -7   2  12    7.90    8.80
   6  -2 -12    2.10    9.10
   6  -2 -12    1.70   11.50
  -6   2  12   11.40    8.80
  -6   2  12   10.30    9.00
  -6   2  12    5.40    9.30
  -6   2  12    5.40    6.30
  -6   2  12    7.90    6.90
   5  -2 -12   64.19    6.80
  -5   2  12   84.09   11.00
  -5   2  12   63.29    9.90
  -5   2  12   73.89    7.10
  -5   2  12   72.09    8.00
  -4   2  12   12.60    9.40
  -4   2  12   16.50    4.60
  -4   2  12   16.50    7.70
  -4   2  12   16.00    5.30
  -3   2  12   16.70    3.70
  -3   2  12    8.20    6.50
  -3   2  12   14.80    4.70
  -2   2  12  519.65   18.00
  -2   2  12  539.25   22.60
  -2   2  12  566.04   24.90
  -2   2  12  537.35   18.10
  -1   2  12  460.45   23.30
  -1   2  12  428.66   15.70
  -1   2  12  457.65   20.90
  -1   2  12  461.45   16.60
   0  -2 -12  276.47   12.60
   0  -2 -12  274.37   14.30
   0   2  12  303.37   16.50
   0   2  12  266.67   12.10
   0   2  12  258.27   11.40
  -1  -2 -12   25.20    5.90
  -1  -2 -12   28.00    8.50
   1   2  12   21.40    5.60
   1   2  12   22.80    5.00
   1   2  12   22.70    7.70
   1   2  12   22.30    7.50
   1   2  12   25.80    5.90
   1   2  12   26.50    6.00
  -2  -2 -12    4.30    6.90
   2   2  12    3.80    9.10
   2   2  12   -0.50    7.10
   2   2  12   -0.60    7.10
   2   2  12    0.80    5.20
   2   2  12   -0.80    7.20
  -3  -2 -12   -0.70    8.10
   3   2  12    1.30    9.50
   3   2  12   -4.20   11.80
   3   2  12    2.00    6.10
   3   2  12   -1.20    7.90
   3   2  12   -1.30    9.60
  -4  -2 -12    4.00    6.00
  -4  -2 -12    6.50    9.60
   4   2  12   12.60   13.50
   4   2  12    4.70   10.10
   4   2  12    8.20    7.80
   4   2  12   -6.50   14.30
   4   2  12    6.30   11.90
  -5  -2 -12   63.09    8.30
  -5  -2 -12   74.59   14.40
   5   2  12   67.59   11.20
   5   2  12   41.20   16.20
   5   2  12   75.49   14.70
   6  -3 -12    2.20   10.70
  -6   3  12   -4.90    7.50
  -6   3  12    1.00   16.30
  -6   3  12   -6.70    9.80
  -6   3  12    1.20    7.90
   5  -3 -12   21.00    8.80
   5  -3 -12   15.30    8.00
  -5   3  12   16.20    9.80
  -5   3  12   17.30    6.50
  -5   3  12   18.00    9.50
   4  -3 -12   99.39    7.60
   4  -3 -12  103.59    8.80
  -4   3  12   93.69   11.00
  -4   3  12   99.09    7.70
  -4   3  12  103.19    8.30
  -4   3  12  108.99   11.80
   3  -3 -12  371.06   15.10
  -3   3  12  361.96   19.40
  -3   3  12  367.96   19.70
  -3   3  12  370.06   14.60
  -3   3  12  370.06   15.50
  -2   3  12  585.94   25.30
  -2   3  12  644.64   26.40
  -2   3  12  617.54   21.30
  -2   3  12  589.14   21.70
   1  -3 -12  106.89    8.10
   1  -3 -12   85.29    8.90
  -1   3  12   99.19    7.70
  -1   3  12   87.39    9.60
  -1   3  12   85.39    9.90
  -1   3  12   87.79    6.80
   0  -3 -12    7.70    8.70
   0  -3 -12    0.70    5.80
   0   3  12    7.70    7.70
   0   3  12   -0.10    5.40
   0   3  12    4.20    4.60
   0   3  12    2.30    5.10
   0   3  12    2.20    7.40
   0   3  12    3.60    5.70
  -1  -3 -12   65.09    8.70
   1   3  12   74.39   11.00
   1   3  12   80.59    9.80
   1   3  12   57.59    8.60
   1   3  12   72.29    9.00
   1   3  12   68.39    7.40
   1   3  12   76.59   10.50
  -2  -3 -12    4.80    8.00
   2   3  12    5.50    9.10
   2   3  12    3.40    8.70
   2   3  12    4.90   10.80
   2   3  12    0.20    7.30
  -3  -3 -12    5.00    9.80
   3   3  12   21.00   14.30
   3   3  12    7.20    7.60
   3   3  12   10.00   10.50
   3   3  12   -3.90    9.80
   3   3  12   -1.10   12.20
  -4  -3 -12    6.60    6.10
  -4  -3 -12    6.20   13.00
   4   3  12   11.50   11.70
   4   3  12   -1.90    9.10
   6  -4 -12  -11.10   12.50
  -6   4  12    1.10   10.80
  -6   4  12    4.30   11.80
  -6   4  12   -6.00    8.30
  -6   4  12    5.60    8.80
   5  -4 -12   23.10   10.80
  -5   4  12   18.80    7.80
  -5   4  12   25.20   12.50
  -5   4  12   25.60    7.90
  -5   4  12   20.70   10.90
   4  -4 -12    8.20    8.80
   4  -4 -12    3.40    8.70
  -4   4  12    1.60    5.70
  -4   4  12   -2.30    6.10
  -4   4  12    2.50    8.80
  -4   4  12    0.90    8.50
  -4   4  12   -1.10    9.20
   3  -4 -12  143.79   11.40
   3  -4 -12  110.09   10.50
  -3   4  12  167.48   14.40
  -3   4  12  139.09    9.20
  -3   4  12  135.29   15.60
  -3   4  12  146.39   13.20
  -3   4  12  117.79   10.70
  -2   4  12    7.40    5.70
  -2   4  12    5.40    8.70
  -2   4  12   -5.10    7.90
  -2   4  12    2.60    5.70
  -2   4  12    4.60    5.60
  -2   4  12   -5.90    8.60
   1  -4 -12    3.40    7.40
  -1   4  12   -2.70    7.60
  -1   4  12    8.40    7.60
  -1   4  12   -1.40    8.50
  -1   4  12    1.30    5.90
  -1   4  12    3.70    5.50
   0  -4 -12    6.70    7.60
   0   4  12    2.20    7.70
   0   4  12   -2.30    6.70
   0   4  12    2.50    6.00
   0   4  12    6.10    9.40
   0   4  12   -2.60   10.30
  -1  -4 -12    0.60    8.80
   1   4  12    0.50    9.60
   1   4  12   -1.90    8.90
   1   4  12    1.00    6.50
   1   4  12   -1.80    7.50
   1   4  12   -0.90   11.90
  -2  -4 -12   29.60   10.50
   2   4  12   29.00   11.20
   2   4  12   21.70   14.90
   2   4  12   25.70    9.60
   2   4  12   19.20   12.60
   2   4  12   26.10    8.50
  -3  -4 -12    0.60    4.50
  -3  -4 -12    4.20   12.10
   3   4  12    0.60    9.30
   3   4  12   -4.60   11.80
   3   4  12    2.80   12.10
   5  -5 -12   52.09   14.80
  -5   5  12   47.50   13.30
  -5   5  12   48.60    9.60
  -5   5  12   47.70   13.10
  -5   5  12   47.80   10.10
   4  -5 -12   21.60   11.40
   4  -5 -12   12.60   12.30
  -4   5  12   12.00    8.00
  -4   5  12   19.40   10.90
  -4   5  12   11.50   11.90
  -4   5  12   15.40    8.70
  -4   5  12   11.00    9.50
   3  -5 -12   81.59   11.70
   3  -5 -12   70.49   12.70
  -3   5  12   68.09   12.70
  -3   5  12   80.29    9.30
  -3   5  12   71.69    8.80
  -3   5  12   61.29   11.60
   2  -5 -12   46.60   10.80
  -2   5  12   43.90    8.50
  -2   5  12   27.80    9.90
  -2   5  12   37.80    8.30
  -2   5  12   34.30   11.20
  -2   5  12   34.20    9.40
   1  -5 -12   94.19   12.40
  -1   5  12   94.59   11.90
  -1   5  12   85.59   11.60
  -1   5  12   88.69   13.40
  -1   5  12   81.59   10.30
  -1   5  12  101.19    9.80
   0  -5 -12   -4.20   10.10
   0   5  12   -2.00    7.20
   0   5  12   -6.50   10.40
   0   5  12    6.70   13.90
   0   5  12    5.80   12.80
  -1  -5 -12    1.30   11.80
   1   5  12    0.00    8.30
   1   5  12    1.80   16.30
   1   5  12    2.70   11.90
   1   5  12    3.30   10.10
   3  -6 -12    1.80   16.50
   3  -6 -12    3.30   16.80
  -3   6  12   -3.40    8.90
  -3   6  12    5.80   12.10
  -3   6  12  -11.80   12.50
   2  -6 -12    4.20   13.60
  -2   6  12   -3.50    9.70
  -2   6  12   -2.70   11.90
  -2   6  12    2.30   11.30
  -2   6  12    1.20    8.80
   1  -6 -12   31.40   14.00
  -1   6  12   24.60   13.30
  -1   6  12   29.90   10.10
  -1   6  12   39.00   10.70
  -1   6  12   17.90   11.60
  -1   8 -13    7.20   14.10
  -1   8 -13    2.30    6.50
   1  -8  13    6.90    9.90
   1  -8  13    5.50   11.30
  -2   8 -13  216.28   14.20
   2  -8  13  218.18   17.90
   2   7 -13    5.70   12.00
  -2  -7  13    3.70   10.60
  -2  -7  13    4.20    5.50
  -2  -7  13   -2.00    9.10
   1   7 -13    9.40   11.20
  -1  -7  13   -0.40    8.40
  -1  -7  13    0.30    9.70
  -1  -7  13   -4.60   10.40
   0   7 -13   55.09   11.90
   0  -7  13   38.40    9.40
   0  -7  13   62.89   11.20
   0  -7  13   35.40   17.60
  -1   7 -13   -5.20   10.40
  -1   7 -13    1.80    4.70
  -1   7 -13    2.40    4.30
   1  -7  13    0.60    8.00
   1  -7  13   -1.00   16.00
   1  -7  13   -1.70    9.30
  -2   7 -13    1.40    5.50
  -2   7 -13   -2.20   11.40
  -2   7 -13    3.00    6.50
   2  -7  13    2.70   10.50
   2  -7  13   -0.60    8.30
   2  -7  13   -0.30   16.00
  -3   7 -13  112.59   10.70
  -3   7 -13  101.39   14.50
  -3   7 -13  109.79    8.80
   3  -7  13  126.39   15.70
   3  -7  13  116.19   12.10
  -4   7 -13   29.40    8.50
  -4   7 -13   29.10   12.60
   4  -7  13   22.70   10.60
   4  -7  13   22.00   13.50
  -4  -6  13   39.60   10.10
   3   6 -13   32.40    9.80
  -3  -6  13   34.50    9.00
  -3  -6  13   29.00   10.20
  -3  -6  13   37.80    8.20
   2   6 -13   38.80   10.30
  -2  -6  13   39.90    6.00
  -2  -6  13   22.60   14.20
  -2  -6  13   41.40    8.30
  -2  -6  13   33.10    7.10
  -2  -6  13   49.40    9.90
  -2  -6  13   41.20    5.80
   1   6 -13    1.20    8.70
  -1  -6  13   -2.00    8.00
  -1  -6  13   12.40    7.00
  -1  -6  13    7.80    7.80
  -1  -6  13    2.50   12.80
   0   6 -13   96.09   11.40
   0  -6  13   81.29   11.50
   0  -6  13   77.49   14.20
   0  -6  13  101.39   10.80
  -1   6 -13    8.90    8.80
   1  -6  13   -6.30   10.80
   1  -6  13    6.00    7.90
   1  -6  13    0.60    6.60
  -2   6 -13    1.60    8.70
   2  -6  13    5.10    8.70
   2  -6  13   -1.50    7.10
   2  -6  13   -5.60   11.80
  -3   6 -13   80.99   12.70
  -3   6 -13   80.69    7.30
   3  -6  13   70.79   15.00
   3  -6  13   70.39    9.60
   3  -6  13   85.29   12.40
  -4   6 -13   17.20    6.40
  -4   6 -13   18.10   11.20
  -4   6 -13   19.70    8.50
   4  -6  13   26.50    8.90
   4  -6  13   13.10   11.20
   4  -6  13   27.40   17.20
  -5   6 -13   15.60   13.60
  -5   6 -13    6.40    7.90
   5  -6  13    6.80   11.60
   5  -6  13   10.50   13.00
   4   5 -13   81.29   13.40
  -4  -5  13   81.19   11.00
  -4  -5  13  117.39   20.30
  -4  -5  13   74.59   10.30
  -4  -5  13   93.59   10.30
   3   5 -13   15.80    8.40
  -3  -5  13   20.60    8.10
  -3  -5  13   11.60    6.80
  -3  -5  13   20.60    7.50
  -3  -5  13   20.00   11.40
   2   5 -13   86.19   10.00
  -2  -5  13  100.69    8.80
  -2  -5  13  105.29   10.20
  -2  -5  13  105.99    7.80
  -2  -5  13   94.49    7.80
  -2  -5  13  122.79   10.20
  -2  -5  13  115.49   12.40
  -2  -5  13   96.29    8.50
   1   5 -13   75.89    9.00
  -1  -5  13   49.70    9.60
  -1  -5  13   74.79    8.70
  -1  -5  13   69.59    4.80
  -1  -5  13   67.39   11.10
  -1  -5  13   62.09    8.70
  -1  -5  13   62.39    7.40
  -1  -5  13   73.49    8.40
   0   5 -13   71.29    8.90
   0  -5  13   63.09   10.70
   0  -5  13   87.79    8.50
   0  -5  13   67.99   10.00
   0  -5  13   81.39    8.70
   0  -5  13   71.29    9.90
   0  -5  13   79.39    7.60
  -1   5 -13   -3.80    6.60
   1  -5  13    0.90    7.80
   1  -5  13    4.50    7.10
   1  -5  13    1.40    5.60
   1  -5  13    0.80    8.50
   1  -5  13   -0.10    7.50
  -2   5 -13   24.50    8.00
   2  -5  13   29.20   10.50
   2  -5  13   30.90    8.40
   2  -5  13   23.70    9.60
   2  -5  13   33.00    6.90
  -3   5 -13    3.40    8.20
  -3   5 -13    1.70    3.20
  -3   5 -13    0.10    3.50
   3  -5  13   -4.20   10.70
   3  -5  13    2.60    6.70
   3  -5  13   10.90    8.50
  -4   5 -13   52.09    6.20
  -4   5 -13   49.70    6.90
  -4   5 -13   48.70   11.10
   4  -5  13   28.10   10.80
   4  -5  13   44.40    9.10
   4  -5  13   49.70   14.30
  -5   5 -13   13.70    7.10
  -5   5 -13   17.10   12.20
   5  -5  13   21.60    9.90
   5  -5  13    9.70   13.40
   5   4 -13   -0.80   10.80
  -5  -4  13   -2.20    7.80
  -5  -4  13    6.80    9.40
  -5  -4  13    0.10    8.60
   4   4 -13   56.79   10.10
  -4  -4  13   63.69    8.70
  -4  -4  13   55.99   10.90
  -4  -4  13   49.30    8.00
  -3  -4  13   -0.60    5.50
  -3  -4  13    4.70    4.40
  -3  -4  13    6.60    8.00
  -3  -4  13    1.90    5.90
  -3  -4  13    3.60    5.80
  -3  -4  13    6.70    5.00
   2   4 -13  328.37   16.70
  -2  -4  13  322.57   15.90
  -2  -4  13  318.87   15.50
  -2  -4  13  328.97   14.40
  -2  -4  13  321.57   14.20
  -2  -4  13  310.37   14.10
  -2  -4  13  320.57   14.30
  -2  -4  13  334.37   15.10
   1   4 -13   36.90    7.70
  -1  -4  13   31.00    6.00
  -1  -4  13   35.00    5.40
  -1  -4  13   31.70    7.90
  -1  -4  13   32.40    5.50
  -1  -4  13   36.60    4.90
  -1  -4  13   34.90    7.60
  -1  -4  13   26.70    7.40
   0   4 -13   17.80    5.70
   0   4 -13   16.80    6.90
   0  -4  13   18.30    3.50
   0  -4  13   20.80    8.60
   0  -4  13   18.00    5.00
   0  -4  13   10.70    8.60
   0  -4  13   21.00    6.00
   0  -4  13   16.90    6.80
   0  -4  13   15.80    3.60
  -1   4 -13   80.59    8.10
   1  -4  13   80.89    6.90
   1  -4  13   51.19    7.60
   1  -4  13   81.39    8.10
   1  -4  13   89.89    7.90
  -2   4 -13  130.09   10.60
   2  -4  13  138.09   10.80
   2  -4  13  142.39   10.30
   2  -4  13  138.59    9.40
   2  -4  13  145.59   11.40
   2  -4  13  121.29   11.40
  -3   4 -13   37.00    8.60
   3  -4  13   54.39    7.60
   3  -4  13   49.99    4.30
   3  -4  13   47.60   10.30
   3  -4  13   40.50    4.50
   3  -4  13   46.90    9.20
   3  -4  13   48.40   10.80
  -4   4 -13    1.30    4.10
  -4   4 -13    0.80    8.60
  -4   4 -13    0.10    5.60
   4  -4  13    4.90   11.50
   4  -4  13    0.70    7.30
   4  -4  13    5.20    8.80
   4  -4  13    6.10    7.60
  -5   4 -13   23.20    8.30
  -5   4 -13   22.00   12.30
  -5   4 -13   27.30    6.60
   5  -4  13   28.00   12.20
   5  -4  13   30.60    8.20
   5  -4  13   21.30   15.20
   5  -4  13   20.10    9.10
   6   3 -13   19.50   18.20
  -6  -3  13   14.90   10.90
  -6  -3  13   14.50    9.40
  -6  -3  13   15.30    9.00
   5   3 -13    2.70    9.20
  -5  -3  13   -4.20    7.00
  -5  -3  13    0.70    8.40
  -5  -3  13   -3.80    6.70
  -5  -3  13    5.70    9.30
   4   3 -13  134.39   10.00
  -4  -3  13  135.19    9.80
  -4  -3  13  136.49   11.00
  -4  -3  13  123.29    8.80
  -4  -3  13  132.89    9.10
  -4  -3  13  129.49    8.50
  -3  -3  13   96.59    6.90
  -3  -3  13   83.59    6.90
  -3  -3  13   65.19    7.90
  -3  -3  13   94.59    7.30
  -3  -3  13   75.89    7.50
  -2  -3  13  378.16   16.20
  -2  -3  13  391.06   14.90
  -2  -3  13  389.76   17.50
  -2  -3  13  394.56   16.30
  -1  -3  13   32.80    6.20
  -1  -3  13   48.80    5.50
  -1  -3  13   40.80    5.00
  -1  -3  13   39.50    7.70
  -1  -3  13   49.90    4.80
   0   3 -13    0.00    4.10
   0   3 -13    0.90    4.80
   0  -3  13    0.90    4.10
   0  -3  13    4.50    4.00
   0  -3  13    3.60    7.60
   0  -3  13   -0.70    6.50
   0  -3  13   -0.50    4.60
  -1   3 -13  111.79    8.80
   1  -3  13   98.49    7.30
   1  -3  13   65.49    6.60
   1  -3  13  111.19    7.90
   1  -3  13  105.29    7.80
   1  -3  13   95.09    7.20
   1  -3  13  102.39    7.40
   1  -3  13   97.59    7.70
  -2   3 -13   35.80    6.90
   2  -3  13   37.70    5.40
   2  -3  13   36.60    5.00
   2  -3  13   32.70    5.60
   2  -3  13   31.60    6.60
   2  -3  13   31.80    7.00
   2  -3  13   31.90    7.00
  -3   3 -13   13.10    7.10
   3  -3  13    5.60    7.80
   3  -3  13    8.30    7.60
   3  -3  13    5.10    5.40
   3  -3  13   11.50    5.90
   3  -3  13    1.90    7.70
  -4   3 -13   -0.50    9.30
   4  -3  13    7.10    9.30
   4  -3  13    1.30    7.00
   4  -3  13    8.60   10.10
   4  -3  13    6.30    7.20
  -5   3 -13    2.70   10.70
  -5   3 -13    5.80    6.90
  -5   3 -13    5.80    5.50
   5  -3  13   -9.70   13.40
   5  -3  13   -2.50    9.20
   5  -3  13    6.40    8.40
   5  -3  13   -2.40   10.70
  -6   3 -13   18.10   12.80
  -6   3 -13   10.40    7.90
   6  -3  13   17.10   16.00
   6   2 -13   11.10   10.90
  -6  -2  13   35.50    8.40
  -6  -2  13   27.30   10.60
  -6  -2  13   41.30   10.10
   5   2 -13   36.40    8.10
  -5  -2  13   40.40    9.50
  -5  -2  13   37.40    6.80
  -5  -2  13   50.79    6.00
  -4  -2  13   98.39    7.10
  -4  -2  13  114.09   11.70
  -4  -2  13   94.09    7.70
  -4  -2  13   93.69    7.80
  -3  -2  13   -1.60    5.10
  -3  -2  13   -1.20    3.40
  -2  -2  13    5.20    5.20
  -2  -2  13   -6.10    4.90
  -2  -2  13    2.00    3.10
  -2  -2  13    0.90    2.90
  -1  -2  13  327.57   14.10
  -1  -2  13  327.47   15.20
  -1  -2  13  317.07   11.20
  -1  -2  13  296.27   11.40
   0  -2  13    7.70    5.30
   0  -2  13   15.10    4.80
   0  -2  13   14.80    3.80
   0  -2  13   14.10    3.50
  -1   2 -13   16.40    5.40
  -1   2 -13   11.80    4.50
   1  -2  13    8.50    4.90
   1  -2  13   12.30    4.60
   1  -2  13    9.60    3.80
   1  -2  13   13.20    4.60
   1  -2  13    8.10    5.30
  -2   2 -13  244.88   14.90
  -2   2 -13  237.18   12.90
   2  -2  13  224.58   13.20
   2  -2  13  236.78   11.60
   2  -2  13  230.78   13.90
   2  -2  13  227.08   12.40
  -3   2 -13    7.60    6.70
   3  -2  13   10.10    5.70
   3  -2  13   -0.50    6.30
   3  -2  13   -1.80    7.00
   3  -2  13    5.10    7.10
  -4   2 -13   41.00    9.50
   4  -2  13   62.79    8.60
   4  -2  13   39.00   12.50
   4  -2  13   38.10    9.10
   4  -2  13   29.70   10.10
  -5   2 -13    0.10   10.30
  -5   2 -13    0.20    6.50
  -5   2 -13   -2.60    5.30
   5  -2  13    2.50    8.00
   5  -2  13    0.10   11.50
   5  -2  13    4.40   14.40
  -6   2 -13   -3.40    7.60
  -6   2 -13   -0.40   14.60
   6  -2  13   -2.00   12.70
   6   1 -13   66.09   11.30
  -6  -1  13   82.19   18.60
  -6  -1  13   74.19    8.00
  -6  -1  13   68.39   12.00
  -6  -1  13   75.79    8.80
   5   1 -13    5.30    5.20
  -5  -1  13   -1.50    6.30
  -5  -1  13    7.90    8.40
  -5  -1  13   -1.20    6.30
  -5  -1  13    7.60    5.60
  -4  -1  13  105.89    8.70
  -4  -1  13   97.89    6.70
  -4  -1  13   98.09    6.40
  -4  -1  13   77.39    9.00
  -3  -1  13   55.79    4.00
  -3  -1  13   51.89    4.20
  -3  -1  13   58.89    7.20
  -3  -1  13   57.49    7.60
  -2  -1  13   87.59    8.30
  -2  -1  13   87.89    8.00
  -1  -1  13  172.58   11.00
  -1  -1  13  176.08   12.00
   0  -1  13   83.99    5.50
   0  -1  13   83.19    5.70
   0  -1  13   76.59    7.20
   0  -1  13   70.19    8.30
  -1   1 -13  106.89    7.70
  -1   1 -13  102.69    8.90
   1  -1  13   98.09    6.50
   1  -1  13  122.89    7.50
   1  -1  13  126.29   10.30
   1  -1  13  112.29    9.10
   1  -1  13   92.99   10.20
   1  -1  13  100.89    7.90
  -2   1 -13   56.59    6.90
  -2   1 -13   53.19    8.60
   2  -1  13   55.29   13.10
   2  -1  13   57.49    6.50
   2  -1  13   50.49    7.60
   2  -1  13   55.79    6.00
   2  -1  13   44.50   10.10
  -3   1 -13   34.10    7.90
   3  -1  13   38.80    8.80
   3  -1  13   38.80    8.50
   3  -1  13   35.50    8.10
   3  -1  13   19.10   11.20
   3  -1  13   40.50    6.60
  -4   1 -13   12.00    9.00
   4  -1  13    9.70    7.00
   4  -1  13   10.80   10.40
   4  -1  13    8.30   10.80
  -5   1 -13   -2.00    6.50
  -5   1 -13    9.20   11.00
   5  -1  13   -1.30   14.70
   5  -1  13   -4.90   12.20
   5  -1  13   -0.80    8.30
   6   0 -13    0.70    9.10
  -6   0  13    7.70    7.00
  -6   0  13    7.90   10.00
  -6   0  13    8.50    7.90
  -6   0  13    9.90   10.70
  -5   0  13    4.30    7.90
  -5   0  13   -0.10    5.10
  -5   0  13   -1.70    7.10
  -5   0  13   -0.90    6.40
  -4   0  13   16.80    5.00
  -4   0  13   13.00    3.90
  -4   0  13   26.40    7.60
  -4   0  13   14.00    6.90
  -3   0  13   24.30    3.10
  -3   0  13   26.70    6.70
  -3   0  13   17.10    6.90
  -2   0  13    3.70    5.50
  -2   0  13    0.40    5.60
  -1   0  13   -3.90    5.00
  -1   0  13   -0.70    5.60
   0   0  13  221.88    9.10
   0   0  13  240.08   13.00
   0   0  13  223.08    9.30
  -1   0 -13   26.20    4.80
   1   0  13   30.10    7.90
   1   0  13   36.30    5.60
   1   0  13   27.70    4.60
   1   0  13   25.60    5.10
   1   0  13   26.80    7.20
  -2   0 -13    4.00    7.80
  -2   0 -13    1.10    5.60
   2   0  13    5.40    5.60
   2   0  13    1.30    5.70
   2   0  13    5.10    7.30
   2   0  13   -0.20    6.90
   2   0  13   -0.70    6.70
   2   0  13    5.80    4.80
  -3   0 -13   37.50    8.40
   3   0  13   40.10    9.10
   3   0  13   50.49    9.60
   3   0  13   48.60    8.80
   3   0  13   52.49    7.30
   3   0  13   32.60   10.60
   3   0  13   31.60    9.70
   4   0  13   44.70    8.50
   4   0  13   22.90   14.50
   4   0  13   12.40   11.10
   4   0  13   47.00   14.90
  -5   0 -13   18.90   12.70
   5   0  13   13.60    9.30
   5   0  13    1.20   18.30
   5   0  13    2.80   13.20
   6  -1 -13   38.80   11.20
  -6   1  13   44.00   10.10
  -6   1  13   44.80   11.60
  -6   1  13   30.60    7.70
  -6   1  13   32.30    9.80
  -5   1  13   17.10    8.20
  -5   1  13   19.40    6.70
  -5   1  13   21.60    9.20
  -5   1  13   13.40    5.50
  -4   1  13  112.19    7.80
  -4   1  13  137.49   12.00
  -4   1  13  135.09    8.30
  -4   1  13  127.09   10.90
  -3   1  13  208.28    8.70
  -3   1  13  208.98    8.50
  -3   1  13  215.78   14.50
  -3   1  13  221.08   14.70
  -2   1  13  299.97   10.50
  -2   1  13  299.97   10.50
  -2   1  13  274.67   19.20
  -2   1  13  379.26   24.40
  -1   1  13  209.78   14.30
  -1   1  13  193.38    8.20
  -1   1  13  205.08   13.20
  -1   1  13  181.38    7.80
   0   1  13   16.20    6.30
   0   1  13    6.80    4.00
   0   1  13   10.60    6.70
   0   1  13    9.00    3.60
  -1  -1 -13   44.50    7.30
  -1  -1 -13   30.00    5.60
   1   1  13   30.30    8.00
   1   1  13   31.70    4.90
   1   1  13   39.60    5.90
   1   1  13   32.70    5.00
   1   1  13   42.70   10.20
  -2  -1 -13    9.80    6.50
   2   1  13    3.30    7.20
   2   1  13    9.70    7.20
   2   1  13    7.30    5.40
   2   1  13    3.90    8.50
   2   1  13   11.80    6.60
   2   1  13    6.40    7.90
  -3  -1 -13    5.10    7.70
   3   1  13    8.20    6.60
   3   1  13   11.70   11.20
   3   1  13    3.80    9.20
   3   1  13    6.20    9.00
   3   1  13    6.00    9.70
  -4  -1 -13    0.10    9.60
   4   1  13   -1.00   11.80
   4   1  13    5.50   12.50
   4   1  13    5.50   14.70
   4   1  13    0.70    8.00
   4   1  13   10.90   10.80
  -5  -1 -13   27.00   11.00
  -5  -1 -13    8.00   13.90
   5   1  13    3.90   12.60
   5   1  13   27.60   10.80
   6  -2 -13    3.20    7.60
  -6   2  13    8.90   11.70
  -6   2  13    5.60    7.40
  -6   2  13    0.40   10.00
  -6   2  13    9.30   11.50
  -5   2  13   24.40    9.30
  -5   2  13   19.70    7.30
  -5   2  13   12.20    6.00
  -5   2  13   11.90    9.00
  -4   2  13  237.78   17.30
  -4   2  13  233.98   16.60
  -4   2  13  221.28   11.20
  -4   2  13  251.37   12.10
  -3   2  13   26.60    8.40
  -3   2  13   39.20    8.40
  -3   2  13   42.70    4.70
  -2   2  13  376.86   18.80
  -2   2  13  360.56   13.70
  -2   2  13  353.86   13.30
  -2   2  13  349.87   19.00
  -1   2  13   44.80    8.50
  -1   2  13   50.49    8.70
  -1   2  13   50.49    5.50
  -1   2  13   55.29    5.00
   0  -2 -13   72.09    6.60
   0   2  13   72.79    6.50
   0   2  13   69.19    6.00
   0   2  13   78.59   10.00
   0   2  13   73.39    6.80
  -1  -2 -13    8.90    6.10
   1   2  13   26.90    7.10
   1   2  13   20.70    6.00
   1   2  13   19.00    8.60
   1   2  13   14.30    5.70
   1   2  13   25.80    5.60
  -2  -2 -13   25.50    8.10
   2   2  13   26.70    6.70
   2   2  13   13.30   10.10
   2   2  13   30.60    8.80
   2   2  13   19.70    9.10
   2   2  13   17.10    7.50
  -3  -2 -13    1.60    9.30
   3   2  13   -0.90   10.70
   3   2  13    4.80   13.30
   3   2  13   -1.00   10.30
   3   2  13    7.20    7.10
   3   2  13   10.80    9.90
  -4  -2 -13   15.60   12.00
   4   2  13    2.10   17.00
   4   2  13   12.80   13.00
   4   2  13   11.40   10.90
   4   2  13   19.80    9.10
   6  -3 -13    3.80    9.50
  -6   3  13   -7.00   11.50
  -6   3  13    7.10    8.60
  -6   3  13    2.90   11.60
   5  -3 -13   52.49    6.40
  -5   3  13   75.59   12.70
  -5   3  13   47.10    7.90
  -5   3  13   46.70    9.70
  -5   3  13   54.79   11.90
  -4   3  13   26.90    9.30
  -4   3  13   32.60    6.40
  -4   3  13   30.20    7.40
  -4   3  13   23.90    9.80
  -3   3  13  150.78    9.60
  -3   3  13  138.89   12.70
  -3   3  13  153.08    9.40
  -3   3  13  141.99   12.70
  -2   3  13    1.60    5.80
  -2   3  13    3.00    8.50
  -2   3  13    7.60    4.70
  -2   3  13    1.70    8.10
   1  -3 -13  124.69   11.10
  -1   3  13  141.59    9.50
  -1   3  13  143.69   13.30
  -1   3  13  140.19    9.30
  -1   3  13  135.19   12.40
   0   3  13    3.30    5.60
   0   3  13    3.50    5.20
   0   3  13   -1.50    8.30
   0   3  13   -1.30    7.60
   0   3  13    3.40    7.80
  -1  -3 -13    4.20    7.90
   1   3  13   -0.30   15.20
   1   3  13    8.00    7.50
   1   3  13    5.10    6.30
   1   3  13    8.20    9.30
   1   3  13   10.10   12.80
   1   3  13    9.70    8.40
  -2  -3 -13   45.30   10.40
   2   3  13   36.90    9.10
   2   3  13   59.99   11.00
   2   3  13   42.80   13.20
   2   3  13   50.89   11.40
   2   3  13   44.90    8.10
  -3  -3 -13    2.70   11.00
   3   3  13   -4.60    7.90
   3   3  13    2.70   10.90
   3   3  13   -4.20   16.10
   3   3  13   10.20   12.10
   5  -4 -13   60.79   10.70
  -5   4  13   45.50   12.60
  -5   4  13   58.79    9.40
  -5   4  13   59.99   12.50
   4  -4 -13   39.00    9.80
  -4   4  13   43.80   10.60
  -4   4  13   43.60    7.90
  -4   4  13   34.40   12.10
  -4   4  13   48.70   14.80
   3  -4 -13   22.20    8.30
  -3   4  13   11.00    6.60
  -3   4  13   13.70    9.90
  -3   4  13    2.40    9.90
  -3   4  13    8.90    8.30
   2  -4 -13    5.70    7.90
  -2   4  13    6.80    9.70
  -2   4  13    6.90    8.40
  -2   4  13   12.60    9.50
  -2   4  13    3.00    6.20
  -1   4  13    7.50    9.80
  -1   4  13    6.50    6.40
  -1   4  13    7.60    6.90
  -1   4  13    8.00    6.00
  -1   4  13    5.20    9.60
  -1   4  13    3.80    8.60
   0  -4 -13   49.10   10.20
   0   4  13   42.40    8.90
   0   4  13   49.50    7.90
   0   4  13   49.90   11.80
   0   4  13   51.49   12.10
  -1  -4 -13    7.70   10.20
   1   4  13   13.40   10.60
   1   4  13    8.50    8.70
   1   4  13    8.90   14.00
   1   4  13    9.20    7.30
  -2  -4 -13   60.59   14.00
   2   4  13   40.80   17.40
   2   4  13   52.69   10.00
   2   4  13   48.50   13.80
   2   4  13   48.90   11.30
  -4   5  13    1.30   12.60
  -4   5  13   -5.10   12.00
  -4   5  13    0.90    8.50
  -3   5  13   26.50    8.00
  -3   5  13   22.30   12.00
  -3   5  13   32.00    8.70
  -3   5  13   35.30   13.30
   2  -5 -13    9.40   10.80
  -2   5  13    8.90   11.70
  -2   5  13    8.40    8.20
  -2   5  13    3.10   11.10
  -2   5  13    4.90    8.00
   1  -5 -13   47.50   12.40
  -1   5  13   37.50   13.10
  -1   5  13   49.99   12.30
  -1   5  13   56.49    9.70
  -1   5  13   57.19    9.50
   0  -5 -13   27.60   12.40
   0   5  13   23.40    8.60
   0   5  13   38.20   15.70
   0   5  13   23.60   13.20
   1   7 -14    6.90   12.10
  -1  -7  14    5.30   10.40
  -1  -7  14    2.30    9.40
   0   7 -14   -2.20   12.00
   0  -7  14    1.30   10.30
   0  -7  14    4.80    9.10
  -1   7 -14   15.60   12.40
   1  -7  14    5.10    9.00
   1  -7  14   -1.90    9.90
  -2   7 -14   -5.80   11.70
   2  -7  14   -0.30    9.30
   2  -7  14   -9.30   11.00
  -3   7 -14   -4.60   13.70
  -3   7 -14    4.40    6.80
   3  -7  14   -4.20    9.80
   3  -7  14    7.20   12.40
  -3  -6  14    2.70    7.80
  -3  -6  14    2.60    9.00
  -3  -6  14    3.30   10.00
   2   6 -14   50.89   11.40
  -2  -6  14   49.50    9.50
  -2  -6  14   60.19    7.60
  -2  -6  14   54.09    6.00
  -2  -6  14   65.49   10.50
   1   6 -14    2.70    9.30
  -1  -6  14   -1.00    8.50
  -1  -6  14   -1.00   13.60
  -1  -6  14   -5.50    7.30
   0   6 -14   12.80    9.70
   0  -6  14    0.90    7.90
   0  -6  14    5.70    7.20
   0  -6  14    7.20   12.70
  -1   6 -14   14.00    9.60
   1  -6  14    0.40   12.50
   1  -6  14   -1.10    7.10
   1  -6  14    7.70    9.00
   2  -6  14   16.40    8.30
   2  -6  14   -4.40   19.30
   2  -6  14   15.50   10.10
  -3   6 -14    9.00   11.20
   3  -6  14    0.80   10.30
   3  -6  14   14.50    9.00
  -4   6 -14   66.49   14.60
   4  -6  14   40.10   20.40
   4   5 -14  387.06   24.60
  -4  -5  14  364.06   20.90
  -4  -5  14  389.36   20.90
  -4  -5  14  423.96   20.80
  -3  -5  14   21.10    5.00
  -3  -5  14   22.80   13.40
  -3  -5  14   26.10    4.70
  -3  -5  14   25.80    7.70
  -3  -5  14   20.30    7.90
  -3  -5  14   27.50    8.60
   2   5 -14    9.50    7.70
  -2  -5  14    0.90    9.10
  -2  -5  14    3.40    5.80
  -2  -5  14    2.50    5.60
  -2  -5  14    6.20    6.70
  -2  -5  14    8.00    6.90
  -2  -5  14    2.80    7.70
   1   5 -14    7.70    7.60
  -1  -5  14   -1.50    7.90
  -1  -5  14    1.20    3.80
  -1  -5  14    6.30    7.00
  -1  -5  14    8.60   14.60
  -1  -5  14    1.80    6.00
   0   5 -14    8.50    7.30
   0  -5  14   20.10    6.50
   0  -5  14   11.40    9.60
  -1   5 -14   16.50    7.80
   1  -5  14   18.90    8.00
   1  -5  14   23.70    6.60
   1  -5  14    4.90    9.20
  -2   5 -14    2.10    7.90
   2  -5  14    2.60    8.00
   2  -5  14    1.00    7.50
   2  -5  14    5.70    9.80
  -3   5 -14    2.30    9.10
   3  -5  14    9.60    9.50
   3  -5  14   16.30   12.80
   3  -5  14    3.00    7.30
  -4   5 -14   34.20   11.90
   4  -5  14   45.30    9.60
   4  -5  14   47.30   11.80
  -5   5 -14   -4.90    6.70
   5  -5  14   -3.40   10.60
  -5  -4  14   44.90   10.20
  -5  -4  14   14.70   10.40
  -5  -4  14   30.60    9.50
  -4  -4  14  270.97   18.00
  -4  -4  14  322.37   21.00
  -4  -4  14  318.47   16.50
   3   4 -14    1.40    6.50
  -3  -4  14    3.10    6.30
  -3  -4  14    3.90    9.80
  -3  -4  14    1.70    5.80
  -3  -4  14    2.00    6.60
   2   4 -14  298.37   14.40
   2   4 -14  293.27   16.10
  -2  -4  14  302.57   14.10
  -2  -4  14  304.47   16.90
  -2  -4  14  325.37   14.40
  -2  -4  14  322.77   15.50
  -2  -4  14  319.87   15.00
   1   4 -14   -1.30    5.40
   1   4 -14    4.20    6.70
  -1  -4  14    4.10    5.10
  -1  -4  14    4.60    8.50
  -1  -4  14   -0.80    4.90
  -1  -4  14   -1.00    6.10
  -1  -4  14    2.10    5.70
   0   4 -14   14.30    7.60
   0  -4  14   11.10    7.40
   0  -4  14   18.90    5.40
   0  -4  14   16.00    6.30
   0  -4  14   11.60    4.00
   0  -4  14   11.70    4.30
   0  -4  14    9.30    6.60
   0  -4  14   15.40    5.90
  -1   4 -14    5.00    6.00
   1  -4  14    7.60    6.50
   1  -4  14    6.70    5.40
   1  -4  14    5.20    3.30
   1  -4  14    9.70    7.10
   1  -4  14    4.70    3.30
   1  -4  14    2.80    7.40
  -2   4 -14   10.50    7.20
   2  -4  14    9.40    7.50
   2  -4  14   12.80    9.60
   2  -4  14   10.90    8.20
   2  -4  14   12.70    8.00
   2  -4  14   11.70    5.90
  -3   4 -14   12.40    8.60
   3  -4  14   28.00   10.30
   3  -4  14   20.00    8.90
   3  -4  14   12.70   12.80
   3  -4  14   17.60    4.30
   3  -4  14   20.90    4.80
  -4   4 -14    6.30    9.70
   4  -4  14   -1.10   10.30
   4  -4  14    3.10    8.20
   4  -4  14    4.70    6.20
  -5   4 -14    9.40   12.30
   5  -4  14    0.30    9.30
   5  -4  14   10.30   22.20
   5   3 -14    7.70    9.70
  -5  -3  14    8.60    7.80
  -5  -3  14    9.10    9.50
  -4  -3  14    8.10    7.80
  -4  -3  14    3.50    5.50
  -4  -3  14    0.50    8.70
  -4  -3  14    2.70    6.30
  -3  -3  14   34.80    7.60
  -3  -3  14   47.00    8.30
  -3  -3  14   36.00    6.50
  -3  -3  14   39.10    5.60
  -3  -3  14   37.00    6.40
  -2  -3  14   64.29    7.40
  -2  -3  14   53.39    8.80
  -2  -3  14   52.59    7.20
  -2  -3  14   68.39    9.00
  -2  -3  14   55.59    6.00
  -1  -3  14  111.89   11.20
  -1  -3  14  106.79    7.50
  -1  -3  14  121.79    8.20
  -1  -3  14  119.19    9.70
  -1  -3  14  114.09    7.30
   0  -3  14  105.19    7.60
   0  -3  14  107.09    7.40
   0  -3  14   85.99    5.60
   0  -3  14  106.79    6.80
   0  -3  14   89.99    7.00
  -1   3 -14   52.69    7.60
  -1   3 -14   49.80    6.60
   1  -3  14   51.79    7.00
   1  -3  14   55.49    6.40
   1  -3  14   49.10    8.80
   1  -3  14   51.19    6.90
   1  -3  14   49.70    6.00
   1  -3  14   54.99    6.70
  -2   3 -14    0.70    6.20
   2  -3  14    0.90    7.20
   2  -3  14   -0.10    5.30
   2  -3  14    0.90    4.60
   2  -3  14    6.20    6.40
   2  -3  14   -0.60    7.80
   2  -3  14   -1.00    5.50
  -3   3 -14    9.40    8.00
   3  -3  14    9.80    6.50
   3  -3  14    3.30    6.70
   3  -3  14   13.00    8.80
  -4   3 -14   16.30   10.00
   4  -3  14   18.10    8.10
   4  -3  14   20.80   13.50
   4  -3  14   18.90   10.60
  -5   3 -14   45.20   13.10
   5  -3  14   41.70   10.40
   5  -3  14   41.80   13.60
  -6  -2  14   22.20   11.20
  -5  -2  14    5.40    6.50
  -5  -2  14    6.30    9.10
  -4  -2  14    6.50    5.10
  -4  -2  14   -1.00    7.90
  -4  -2  14    0.40    6.00
  -3  -2  14    9.00    4.10
  -3  -2  14    4.30    6.00
  -3  -2  14   12.50    7.10
  -2  -2  14  108.09    6.50
  -2  -2  14  115.29    9.20
  -2  -2  14  117.29    7.00
  -2  -2  14  116.19    9.40
  -1  -2  14    0.40    5.20
  -1  -2  14    0.90    3.00
  -1  -2  14    4.20    3.40
  -1  -2  14   -2.60    5.70
   0  -2  14  798.52   27.60
   0  -2  14  793.92   29.80
   0  -2  14  785.92   25.70
  -1   2 -14  223.88   11.90
  -1   2 -14  204.48   10.70
   1  -2  14  209.98   11.20
   1  -2  14  208.38   12.00
   1  -2  14  224.58   10.70
   1  -2  14  233.68   13.30
   1  -2  14  222.08   10.20
  -2   2 -14    1.40    5.70
   2  -2  14    1.40    7.10
   2  -2  14   -1.00    7.00
   2  -2  14   -1.20    5.30
   2  -2  14    2.20    6.20
  -3   2 -14   16.80    7.90
   3  -2  14   11.20    8.80
   3  -2  14   13.30    8.30
   3  -2  14   19.40    6.70
   3  -2  14   11.60   11.10
  -4   2 -14    4.50    9.50
   4  -2  14    9.30   11.00
   4  -2  14    7.00   10.80
   4  -2  14    8.80    7.70
   4  -2  14    1.40   10.70
  -5   2 -14   -1.80   11.70
   5  -2  14   -1.90    9.00
   5  -2  14    3.00   13.10
  -6  -1  14    2.20    8.00
  -6  -1  14   -2.60   10.50
  -6  -1  14   -9.90    7.50
  -5  -1  14    0.00    7.30
  -5  -1  14    4.90    6.10
  -5  -1  14    3.50    7.20
  -5  -1  14   -3.00    9.40
  -4  -1  14    2.40    6.60
  -4  -1  14    6.00    4.40
  -4  -1  14    1.90    4.90
  -4  -1  14    6.70    7.50
  -3  -1  14    2.40    6.40
  -3  -1  14    1.10    3.00
  -3  -1  14    7.20    7.70
  -2  -1  14   -4.50    5.90
  -2  -1  14   -3.20    6.00
  -1  -1  14    6.90    5.80
  -1  -1  14   11.60    6.30
   0  -1  14  245.28   10.20
   0  -1  14  262.07   15.50
   0  -1  14  274.57   14.00
   0  -1  14  244.08   10.30
   1  -1  14   12.80    3.90
   1  -1  14   16.10    5.10
   1  -1  14   16.80    7.30
   1  -1  14   16.00    4.30
   1  -1  14    6.10    6.00
   1  -1  14   17.10    4.50
   1  -1  14    9.30    7.30
   2  -1  14   23.30    8.90
   2  -1  14   26.30    6.80
   2  -1  14   23.10    6.00
   2  -1  14   14.50    7.30
   2  -1  14   20.70    5.60
   2  -1  14   18.70    8.70
  -3   1 -14    8.70    7.70
   3  -1  14    5.20    9.00
   3  -1  14    9.60    6.60
   3  -1  14   11.00    8.40
  -4   1 -14    6.60    9.90
   4  -1  14   16.00    8.10
   4  -1  14    2.00   11.40
   4  -1  14    1.00   10.70
  -5   1 -14   60.89   14.40
   5  -1  14   66.59   11.10
   5  -1  14   39.40   14.40
  -6   0  14   15.80    7.60
  -6   0  14    4.00    9.10
  -6   0  14    3.30   12.30
  -5   0  14   -1.40    8.60
  -5   0  14    2.50    7.40
  -5   0  14   -2.80    8.00
  -5   0  14    3.90    5.60
  -4   0  14    1.80    7.80
  -4   0  14   -0.70    7.20
  -4   0  14    3.70    4.00
  -4   0  14    1.80    4.80
  -3   0  14    8.10    6.90
  -3   0  14    9.20    7.10
  -2   0  14   13.00    7.40
  -2   0  14    5.90    7.20
  -1   0  14    0.30    6.20
  -1   0  14    3.20    6.10
   0   0  14   -3.90    5.90
   0   0  14   -3.00    3.80
   0   0  14   -0.50    3.50
   0   0  14   -2.10    6.70
   1   0  14   22.10    8.10
   1   0  14   38.80    5.20
   1   0  14   32.20    5.00
   1   0  14   35.20    5.90
  -2   0 -14    5.90    7.60
   2   0  14   46.90    9.40
   2   0  14   45.80    8.90
   2   0  14   48.80    6.80
   2   0  14   29.10    7.80
   2   0  14   41.80    6.80
   2   0  14   49.00    9.70
  -3   0 -14    6.30    7.60
   3   0  14    0.40    9.30
   3   0  14    6.70    8.90
   3   0  14   -2.40   10.60
   3   0  14   -6.20    6.60
   3   0  14   -3.00    8.50
  -4   0 -14    5.20   10.30
   4   0  14   12.90   12.10
   4   0  14    3.30   17.90
   4   0  14   12.80    8.30
   4   0  14   -7.30   14.50
  -6   1  14   37.70   12.10
  -6   1  14   40.10    8.40
  -6   1  14   35.40   11.10
  -5   1  14   18.50    6.30
  -5   1  14   19.10    9.50
  -5   1  14   13.00    9.50
  -5   1  14   12.50    7.60
  -4   1  14    4.20    8.60
  -4   1  14    2.30    4.30
  -4   1  14    7.20    8.80
  -3   1  14    8.60    3.40
  -3   1  14    4.30    7.70
  -3   1  14    9.90    3.60
  -3   1  14   11.30    7.40
  -2   1  14   19.90    3.20
  -2   1  14   11.10    6.90
  -2   1  14   17.80    7.70
  -1   1  14   25.20    3.80
  -1   1  14   22.00    8.10
  -1   1  14   44.00    7.90
  -1   1  14   35.80    4.20
   0   1  14   28.00    4.80
   0   1  14   21.70    5.10
   0   1  14   25.80    7.50
   0   1  14   27.00    8.40
  -1  -1 -14   40.30    7.80
  -1  -1 -14   27.80    6.10
   1   1  14   46.30    6.00
   1   1  14   26.00    6.50
   1   1  14   20.80    8.20
   1   1  14   29.10    6.60
  -2  -1 -14  118.89   10.20
   2   1  14  129.49    9.20
   2   1  14  117.99   11.40
   2   1  14  113.59   10.60
   2   1  14   92.59   11.20
   2   1  14   77.29    9.10
   2   1  14  129.29   12.50
  -3  -1 -14    3.00    8.90
   3   1  14   -3.00   10.00
   3   1  14    4.50    7.60
   3   1  14    5.30   12.40
   3   1  14   -4.20   10.20
   3   1  14   -2.20    9.60
  -4  -1 -14   42.80   12.30
   4   1  14   47.50   17.90
   4   1  14   23.90   13.60
   4   1  14   50.09   10.40
   4   1  14   63.19   14.60
  -5   2  14    0.70    6.50
  -5   2  14    8.40   10.20
  -5   2  14    6.80    9.90
  -4   2  14  383.16   16.40
  -4   2  14  411.06   22.40
  -4   2  14  412.96   22.00
  -4   2  14  381.26   15.60
  -3   2  14  287.07   18.30
  -3   2  14  287.77   12.50
  -3   2  14  271.97   11.80
  -3   2  14  296.87   18.70
  -2   2  14  133.39   12.60
  -2   2  14  118.59    7.80
  -2   2  14   86.19   10.80
  -2   2  14  116.29    7.90
  -1   2  14   18.50    8.00
  -1   2  14   16.30    9.40
  -1   2  14   16.60    5.10
  -1   2  14   14.90    5.20
   0   2  14   -0.50    6.90
   0   2  14    3.90    6.10
   0   2  14    8.60    5.10
   0   2  14    6.10    8.70
  -1  -2 -14    7.60   11.00
   1   2  14   10.80    8.30
   1   2  14    3.20    7.70
   1   2  14    6.20    9.00
   1   2  14    0.30    5.70
  -2  -2 -14   -2.10    8.30
   2   2  14    1.70    7.20
   2   2  14    8.00   10.90
   2   2  14    0.20    6.90
   2   2  14   -2.40    8.30
   2   2  14    3.10    9.70
  -3  -2 -14   73.49   12.50
   3   2  14   52.79   15.90
   3   2  14   70.49   13.60
   3   2  14   80.59   10.10
   3   2  14   32.90   11.20
  -5   3  14   77.49   13.10
  -5   3  14  113.49   10.10
  -5   3  14  114.29   14.60
  -4   3  14  299.67   17.20
  -4   3  14  315.97   15.40
  -4   3  14  355.66   22.30
  -4   3  14  302.87   21.40
  -3   3  14  109.59   12.50
  -3   3  14  113.79    8.00
  -3   3  14  108.19   13.10
  -3   3  14   98.99    8.90
  -2   3  14    0.90    6.60
  -2   3  14    1.50    5.60
  -2   3  14    3.10   10.00
  -2   3  14   -3.70    8.80
  -1   3  14   38.10    6.20
  -1   3  14   27.70    9.30
  -1   3  14   39.80   11.00
  -1   3  14   31.10    7.70
   0  -3 -14    0.30    7.40
   0   3  14    0.20    8.20
   0   3  14    2.50    6.00
   0   3  14    1.30   10.60
  -1  -3 -14    9.40    8.80
   1   3  14   15.40   11.80
   1   3  14    5.20    7.30
   1   3  14   11.80   11.20
   1   3  14   10.30    7.10
   1   3  14    9.10    8.30
  -2  -3 -14    2.10   10.30
   2   3  14    0.20   11.90
   2   3  14   -7.80   13.30
   2   3  14   -3.40    7.70
   2   3  14   -5.70    8.60
  -4   4  14    4.00    7.80
  -4   4  14    3.00   12.60
  -4   4  14    7.20   11.60
  -3   4  14    5.50   11.50
  -3   4  14   -1.30    7.20
  -2   4  14   -3.70    7.00
  -2   4  14   -2.80   10.10
  -2   4  14   17.70   18.10
   1  -4 -14   -4.00    9.50
  -1   4  14   -2.10    6.90
  -1   4  14   -0.30   11.20
   0  -4 -14   -1.30    9.50
   0   4  14    1.50    7.60
   0   4  14    1.90    7.40
   0   4  14   -1.50   12.00
  -1  -4 -14    5.30   13.40
   1   4  14   11.10    9.20
   1   4  14    3.10   14.90
   1   4  14   13.90    8.60
   1   4  14    6.90   13.10
   2   6 -15   34.30   13.60
  -2  -6  15   54.99   10.10
  -2  -6  15   45.50   10.20
  -2  -6  15   37.50    8.00
   1   6 -15    7.00   10.50
  -1  -6  15    0.90    8.70
  -1  -6  15   12.70    8.30
   0   6 -15    3.90    9.90
   0  -6  15    0.30    8.10
   0  -6  15    3.80    9.40
  -1   6 -15   80.69   12.40
   1  -6  15   84.19   10.30
   1  -6  15   83.19   12.00
  -2   6 -15   27.20   11.60
   2  -6  15   27.00    9.00
   2  -6  15   22.00   11.00
  -3   6 -15   10.50   11.90
   3  -6  15  -11.40   11.10
   3  -6  15   -3.20    9.30
  -3  -5  15   30.20    8.10
  -3  -5  15   24.50    6.10
  -3  -5  15   32.80    8.30
  -3  -5  15   18.90   14.60
  -2  -5  15   32.10   10.00
  -2  -5  15   27.20    9.70
  -2  -5  15   48.10    8.40
  -2  -5  15   35.70    6.80
  -2  -5  15   38.30    7.80
  -1  -5  15   -1.10    9.00
  -1  -5  15    1.60   10.50
  -1  -5  15    6.80    6.70
  -1  -5  15    3.70    4.30
  -1  -5  15   -3.10    7.00
  -1  -5  15    0.50    9.50
  -1  -5  15    1.40    7.30
   0   5 -15    1.70    7.60
   0  -5  15   -0.10    6.60
   0  -5  15   -3.00    9.50
   0  -5  15    5.90    9.40
   0  -5  15    4.80   12.80
  -1   5 -15   -0.60    8.20
   1  -5  15   -3.80    6.90
   1  -5  15    2.00    8.20
   1  -5  15   -6.60   10.20
  -2   5 -15  117.99   12.10
   2  -5  15  109.19   11.80
   2  -5  15   48.30   11.60
   2  -5  15  101.79   10.00
  -3   5 -15   32.00   11.00
   3  -5  15   21.60    8.70
   3  -5  15   20.60   10.60
  -4   5 -15  129.09   15.70
   4  -5  15  124.29   15.10
   4  -5  15  144.99   13.40
  -4  -4  15  190.08   12.70
  -4  -4  15  200.18   14.10
  -3  -4  15    8.30    6.70
  -3  -4  15    6.60    8.80
  -3  -4  15    6.80    6.40
  -3  -4  15    0.60    8.10
  -3  -4  15    5.00    7.50
  -2  -4  15   -3.60    7.20
  -2  -4  15    1.60    6.60
  -2  -4  15   -4.00    9.90
  -2  -4  15   -1.40    6.20
  -2  -4  15    2.80    5.70
  -1  -4  15   21.20    5.90
  -1  -4  15   16.30    7.50
  -1  -4  15   20.70    5.80
  -1  -4  15   25.40   10.90
  -1  -4  15   21.20    7.10
   0   4 -15   98.99    9.60
   0   4 -15  100.19    8.40
   0  -4  15   95.99    7.80
   0  -4  15   94.59    6.50
   0  -4  15   96.19    9.00
   0  -4  15  100.59    7.00
   0  -4  15   93.59    8.20
   1  -4  15   44.90    7.00
   1  -4  15   21.70    8.00
   1  -4  15   44.40    8.60
   1  -4  15   40.80    4.80
   1  -4  15   46.40    4.80
   1  -4  15   53.89    7.90
  -2   4 -15    5.60    8.20
   2  -4  15    8.30    8.40
   2  -4  15    3.90    6.70
   2  -4  15    3.10    4.20
   2  -4  15    4.20    4.10
   2  -4  15   -4.70    8.10
  -3   4 -15    6.70    9.20
   3  -4  15    3.50   10.80
   3  -4  15    3.30    9.80
   3  -4  15    2.10    5.40
   3  -4  15    9.00    7.60
   3  -4  15    4.10    4.70
  -4   4 -15   86.49   13.80
   4  -4  15   54.99   13.50
   4  -4  15   97.29   11.60
  -5  -3  15   23.40    8.70
  -5  -3  15   27.20   10.70
  -4  -3  15  250.87   14.40
  -4  -3  15  228.88   13.60
  -4  -3  15  245.68   16.30
  -4  -3  15  218.68   14.90
  -3  -3  15    2.80    7.60
  -3  -3  15    8.10    6.60
  -3  -3  15    3.10    6.40
  -3  -3  15    5.80    8.70
  -3  -3  15   -0.10    5.20
  -2  -3  15   -2.70    6.50
  -2  -3  15    0.10    9.40
  -2  -3  15   -1.50    6.50
  -2  -3  15   -2.60    5.40
  -2  -3  15   -2.20    4.60
  -1  -3  15   21.00    5.60
  -1  -3  15   12.00    5.90
  -1  -3  15   26.60    7.30
   0  -3  15   -2.00    7.00
   0  -3  15   -2.20    6.10
   0  -3  15    0.50    4.50
   0  -3  15   -2.50    5.40
   0  -3  15    2.00    5.20
  -1   3 -15   12.50    7.30
  -1   3 -15   24.20    6.20
   1  -3  15   23.50    7.10
   1  -3  15    9.40    6.10
   1  -3  15   16.20    5.60
   1  -3  15   18.50    6.30
   1  -3  15   14.10    5.50
  -2   3 -15    2.80    7.10
   2  -3  15    4.80    8.00
   2  -3  15    3.90    6.90
   2  -3  15   -4.10    5.40
   2  -3  15    4.10    6.10
   2  -3  15    4.00    8.00
   2  -3  15    5.20    6.40
  -3   3 -15    2.00    8.50
   3  -3  15    3.90    9.50
   3  -3  15   -3.20    7.20
   3  -3  15   -2.90    6.20
  -4   3 -15   26.60   11.30
   4  -3  15   20.60   12.00
   4  -3  15   22.10    9.10
  -5  -2  15   14.40   10.40
  -5  -2  15    8.90    7.20
  -5  -2  15    1.00    7.10
  -4  -2  15    7.20    7.10
  -4  -2  15   -6.60    8.60
  -4  -2  15    6.90    5.70
  -3  -2  15  113.99    9.90
  -3  -2  15  112.59    8.00
  -3  -2  15   99.49   11.90
  -2  -2  15   42.80    4.60
  -2  -2  15   40.50    8.00
  -2  -2  15   37.90    7.80
  -2  -2  15   43.30    4.40
  -1  -2  15   45.50    4.80
  -1  -2  15   49.99    4.60
  -1  -2  15   35.30    7.10
   0  -2  15   41.60    8.20
   0  -2  15   49.30    8.40
   0  -2  15   62.69    5.50
   0  -2  15   62.89    5.90
   0  -2  15   56.19    7.30
   1  -2  15    4.70    5.80
   1  -2  15    8.20    6.00
   1  -2  15    6.30    4.90
   1  -2  15    0.90    7.60
   1  -2  15    4.70    3.90
   1  -2  15    4.50    7.60
   2  -2  15   58.99    7.90
   2  -2  15   56.79    7.20
   2  -2  15   62.19   11.70
   2  -2  15   32.00    8.00
   2  -2  15   58.49    7.30
  -3   2 -15   -1.90    8.20
   3  -2  15   -2.20    8.50
   3  -2  15   -1.10    9.60
   3  -2  15   -3.20    7.10
   3  -2  15   -3.20    9.10
  -4   2 -15   -3.30   10.60
   4  -2  15    3.80   11.90
   4  -2  15    6.20    8.50
  -5  -1  15    8.30    9.00
  -5  -1  15    8.40   10.50
  -5  -1  15   10.30    6.40
  -4  -1  15   40.90    8.80
  -4  -1  15   49.60    9.90
  -4  -1  15   42.80    6.10
  -4  -1  15   43.80    5.50
  -3  -1  15   90.09    9.90
  -3  -1  15   91.09   10.30
  -2  -1  15  142.79   11.20
  -1  -1  15   91.69    9.80
  -1  -1  15   80.19    5.30
  -1  -1  15   65.19    8.50
   0  -1  15   20.90    7.70
   0  -1  15   27.30    7.00
   0  -1  15   22.60    4.70
   0  -1  15   32.80    9.10
   0  -1  15   28.10    4.50
   1  -1  15   88.09   11.70
   1  -1  15   69.09    7.20
   1  -1  15   75.39    6.80
   1  -1  15   81.29   11.00
   1  -1  15   68.69    8.60
  -2   1 -15    6.10    6.60
   2  -1  15    1.40    6.80
   2  -1  15   39.10    8.50
   2  -1  15    5.80    9.10
   2  -1  15   14.10    6.00
  -3   1 -15   25.80    9.20
   3  -1  15    9.80   10.10
   3  -1  15   17.20   11.80
   3  -1  15    9.80    9.90
   3  -1  15   19.30    8.90
   3  -1  15   25.60    7.90
  -4   1 -15    5.70   11.10
   4  -1  15   14.80    9.20
   4  -1  15    7.30   12.20
   4  -1  15   10.90   15.50
  -5   0  15    6.20   10.00
  -5   0  15   17.80    6.50
  -4   0  15    0.50    4.90
  -4   0  15    3.70    8.90
  -4   0  15    3.70    4.40
  -4   0  15    2.00    8.20
  -3   0  15    8.40    9.70
  -3   0  15    5.50    7.70
  -2   0  15  169.88   12.90
  -2   0  15  158.38   12.20
  -1   0  15   33.80    8.00
  -1   0  15   39.90    9.10
   0   0  15    2.00    4.20
   0   0  15    9.10    7.20
   0   0  15    5.60    5.30
   0   0  15    8.90    7.50
   1   0  15   26.20    7.70
   1   0  15   23.80    8.70
   1   0  15   35.50    5.90
   1   0  15   31.10    6.80
  -2   0 -15   10.50    7.90
   2   0  15    6.30    6.70
   2   0  15   11.00    6.60
   2   0  15   17.50    9.10
   2   0  15   14.60    8.60
   2   0  15   19.30    9.70
   2   0  15   14.20    6.40
  -3   0 -15   23.30    9.60
   3   0  15   11.10   10.40
   3   0  15   27.20   10.40
   3   0  15   33.40   13.00
   3   0  15   37.70    8.50
  -4   0 -15    7.30   11.90
   4   0  15    5.20   12.80
   4   0  15    4.90   17.30
   4   0  15    3.00   12.90
  -5   1  15   81.59   12.30
  -5   1  15   90.79   14.50
  -5   1  15   99.69    8.50
  -4   1  15   81.89    7.80
  -4   1  15   88.49    6.40
  -4   1  15   97.09   12.30
  -4   1  15   68.09   11.10
  -3   1  15   45.80    4.50
  -3   1  15   43.80   10.20
  -3   1  15   48.10    9.90
  -2   1  15   40.00    4.00
  -2   1  15   31.70    9.30
  -2   1  15   32.90    8.80
  -1   1  15   23.30    8.40
  -1   1  15   20.70    9.00
  -1   1  15   17.70    4.50
  -1   1  15   19.60    4.20
   0   1  15    0.40    8.70
   0   1  15    4.90    4.70
   0   1  15   -1.60    7.60
   0   1  15    2.90    5.60
   1   1  15    1.70    5.60
   1   1  15    4.20    5.70
   1   1  15   15.20    7.40
   1   1  15    8.60    9.20
   2   1  15    3.10    7.00
   2   1  15    1.10    7.30
   2   1  15    5.00   10.00
   2   1  15    3.10   10.10
  -3  -1 -15   19.50   11.00
   3   1  15   19.30   11.70
   3   1  15   31.30   14.40
   3   1  15   39.60    9.20
   3   1  15   21.30   11.00
  -5   2  15    7.80    7.40
  -5   2  15   11.10   12.20
  -5   2  15   19.50   11.90
  -4   2  15   51.79    6.70
  -4   2  15   45.60   11.60
  -4   2  15   53.29   11.60
  -3   2  15   14.50    9.70
  -3   2  15    7.10    4.90
  -3   2  15   11.20    9.90
  -3   2  15    5.90    5.70
  -2   2  15   46.30    6.20
  -2   2  15   49.40   11.00
  -2   2  15   47.30    5.70
  -2   2  15   39.60   10.10
  -1   2  15   14.60    6.30
  -1   2  15   17.60    5.30
  -1   2  15   11.00    9.40
   0   2  15   41.50   11.90
   0   2  15   29.40    6.30
   0   2  15   44.50    8.00
   0   2  15   34.60    9.90
  -1  -2 -15   15.60    8.10
   1   2  15    4.60    9.50
   1   2  15    9.40    8.70
   1   2  15   11.90    6.50
   1   2  15   17.10   12.70
  -2  -2 -15   20.80   10.00
   2   2  15   10.20   11.70
   2   2  15   18.00   12.40
   2   2  15   13.30    8.20
   2   2  15   17.60    8.20
  -4   3  15    0.60   11.80
  -4   3  15   -6.00   11.20
  -4   3  15   16.50    7.30
  -3   3  15   62.79   15.60
  -3   3  15   69.79   12.50
  -3   3  15   75.99    8.00
  -2   3  15    4.90    6.50
  -2   3  15   -5.10   10.60
  -2   3  15   -5.50    9.90
  -1   3  15   -0.40    6.20
  -1   3  15    0.80   10.60
  -1   3  15   12.40   10.80
   0   3  15   26.80   10.70
   0   3  15   50.79    7.80
   0   3  15   48.00   12.50
   1   3  15    5.80   12.10
   1   3  15   13.20   12.50
   1   3  15    3.40    8.30
   0  -6  16    7.30   10.10
   0  -6  16    6.10    8.80
   1  -6  16   16.90    9.60
  -2  -5  16   10.50    8.50
  -2  -5  16    8.30    6.80
  -2  -5  16    9.70    8.30
   1   5 -16    4.20    9.40
  -1  -5  16   -2.00    7.60
  -1  -5  16   -1.20    8.20
   0   5 -16    2.80    8.50
   0  -5  16    1.90    7.70
  -1   5 -16   13.30    9.10
   1  -5  16   -2.10   11.70
   1  -5  16    6.00    8.90
  -2   5 -16   13.90   10.70
   2  -5  16    9.40    9.00
   2  -5  16   14.00    9.80
   3  -5  16    3.10    9.50
  -3  -4  16   -0.40    7.60
  -3  -4  16    7.00    8.50
  -3  -4  16   -1.20    7.50
  -2  -4  16   21.70    8.00
  -2  -4  16   19.60    9.20
  -2  -4  16   23.60    7.20
  -2  -4  16   17.70    8.20
  -2  -4  16   20.20   12.40
  -1  -4  16    2.90    6.20
  -1  -4  16   -0.80    6.20
  -1  -4  16   -1.10    8.00
   0  -4  16    4.50    6.20
   0  -4  16    4.30    5.30
   0  -4  16   -0.30    8.00
   0  -4  16    0.60    8.80
  -1   4 -16   23.00    7.90
   1  -4  16   36.30    7.50
   1  -4  16   37.60    9.90
   1  -4  16   26.80    5.50
   1  -4  16   32.20    5.30
  -2   4 -16    2.20    8.60
   2  -4  16    6.80    7.60
   2  -4  16    1.70    8.80
   2  -4  16    1.10    4.70
   2  -4  16    1.20    9.10
  -3   4 -16    8.00   11.00
   3  -4  16    3.80    8.80
   3  -4  16    2.80   10.90
   3  -4  16    3.10    5.50
  -4  -3  16   10.80   10.00
  -4  -3  16   26.60    7.70
  -4  -3  16   23.30    8.40
  -3  -3  16   91.59   12.20
  -3  -3  16   77.59    7.50
  -3  -3  16   72.59    9.60
  -3  -3  16   65.49   12.50
  -2  -3  16   28.10    6.60
  -2  -3  16   23.50    5.70
  -2  -3  16   34.80    8.20
  -2  -3  16   31.90    8.60
  -1  -3  16    7.50    6.00
  -1  -3  16    8.80    7.70
  -1  -3  16   -0.60    5.20
  -1  -3  16    5.10    6.80
   0  -3  16    0.90    5.10
   0  -3  16   -2.90    6.50
   0  -3  16   -1.80    6.70
   0  -3  16   -3.10    8.10
   0  -3  16    4.50    7.60
   1  -3  16   16.30    6.30
   1  -3  16   16.70    7.70
   1  -3  16   25.20    8.20
   1  -3  16   22.10    6.30
  -2   3 -16   12.30    8.90
   2  -3  16   12.90    8.30
   2  -3  16   21.90    7.60
   2  -3  16   15.70   10.00
   2  -3  16   13.80    6.70
   2  -3  16   12.40    7.90
  -3   3 -16   51.29   11.00
   3  -3  16   59.69    9.40
   3  -3  16   32.30   11.30
   3  -3  16   50.79    8.30
  -4  -2  16   23.30   10.70
  -4  -2  16   27.00    6.50
  -4  -2  16   20.50    8.70
  -3  -2  16    7.80    8.80
  -3  -2  16    7.60    8.30
  -3  -2  16    5.10    5.80
  -3  -2  16    7.20    4.70
  -2  -2  16  425.46   20.40
  -2  -2  16  447.76   21.20
  -2  -2  16  409.76   14.80
  -2  -2  16  407.76   15.00
  -1  -2  16   84.69   10.50
  -1  -2  16   83.09    5.80
  -1  -2  16   82.19    6.00
  -1  -2  16   71.19    8.80
   0  -2  16    0.70    5.30
   0  -2  16    0.30    7.90
   0  -2  16    3.10    6.50
   0  -2  16    3.10    5.70
   0  -2  16    3.10    8.80
   1  -2  16    1.00    6.10
   1  -2  16    9.80    7.00
   1  -2  16    5.40    8.60
   1  -2  16   -1.30    8.90
   1  -2  16   -0.40    6.90
  -2   2 -16    0.00    7.20
   2  -2  16   -0.40    7.20
   2  -2  16    5.50    7.00
   2  -2  16   12.50    8.80
   2  -2  16   -5.20    9.00
   2  -2  16   -5.20    9.70
   2  -2  16   10.50    9.90
  -3   2 -16    2.90    9.50
   3  -2  16   -3.20    8.10
   3  -2  16   -0.90   10.20
  -4  -1  16    0.10    9.60
  -4  -1  16   -3.80    9.70
  -4  -1  16    2.40    4.90
  -3  -1  16   16.00    8.90
  -3  -1  16   11.10    8.90
  -2  -1  16   89.29   10.60
  -2  -1  16  109.09   11.60
  -1  -1  16   -6.40   11.30
  -1  -1  16    0.50    3.50
  -1  -1  16    3.80    8.60
   0  -1  16   15.10    5.40
   0  -1  16   12.60    4.90
   0  -1  16   21.80    9.30
   0  -1  16    2.90    7.40
   1  -1  16    1.90    9.20
   1  -1  16   -1.70    6.60
   1  -1  16    4.00    5.80
   1  -1  16    0.90    8.80
  -2   1 -16    6.30    7.30
   2  -1  16   11.60    8.10
   2  -1  16    9.30    7.00
   2  -1  16    8.30   10.90
   2  -1  16   22.30    8.30
   2  -1  16   15.30    9.50
  -3   1 -16   20.90    9.80
   3  -1  16    1.70   10.40
   3  -1  16   12.30   11.70
   3  -1  16   17.90   12.70
   3  -1  16   16.40    8.90
  -4   0  16   17.30   10.90
  -4   0  16   11.20    9.40
  -4   0  16   15.70    4.90
  -3   0  16   -1.00    8.90
  -3   0  16   -0.70    9.00
  -2   0  16   -0.80    8.90
  -2   0  16    1.70    8.40
  -1   0  16    5.20    3.50
  -1   0  16    2.40    8.40
  -1   0  16   11.80    9.30
   0   0  16   23.30    6.00
   0   0  16   16.60    8.60
   0   0  16   27.50   10.30
   1   0  16    5.80    9.60
   1   0  16   -1.00    8.20
   1   0  16   -2.40    7.60
  -2   0 -16   21.70    8.50
   2   0  16   16.20    7.70
   2   0  16   19.10   11.80
   2   0  16   17.10   10.00
   2   0  16   14.00   12.90
   3   0  16  186.68   18.20
   3   0  16  146.39   16.20
  -4   1  16   -1.30   10.70
  -4   1  16   -7.80   10.50
  -4   1  16    1.90    5.30
  -3   1  16   17.70   10.40
  -3   1  16   12.20    9.80
  -2   1  16    3.80    8.90
  -2   1  16    4.80    9.50
  -1   1  16   19.10    6.00
  -1   1  16   14.60    4.60
  -1   1  16   14.30    9.40
  -1   1  16   28.40   10.50
   0   1  16   95.19    7.40
   0   1  16  118.49   14.10
   0   1  16   87.39   11.50
   0   1  16   81.09    8.50
   1   1  16    6.90    6.40
   1   1  16   -5.60   12.70
   1   1  16   -2.70    9.20
   2   1  16   27.00   13.20
   2   1  16   37.00   13.70
  -3   2  16   13.30   11.50
  -3   2  16   11.90    5.80
  -2   2  16    3.50   10.40
  -2   2  16    4.70    5.60
  -2   2  16   11.40   10.80
  -1   2  16    3.60   10.00
  -1   2  16   32.80   18.90
  -1   2  16   12.40    6.00
   0   2  16   -1.10   11.20
   0   2  16    7.70   10.10
   0   2  16    5.90    6.70
   1   2  16   48.80   14.30
   1   2  16   37.50    8.60
  -2  -4  17   34.20   10.30
  -2  -4  17   30.00    8.00
  -2  -4  17   35.80    9.10
  -1  -4  17   19.60    7.60
  -1  -4  17    9.20    7.30
  -1  -4  17   21.80    9.70
   0  -4  17   15.70    7.60
   0  -4  17   20.00   10.30
   1  -4  17   -1.20    5.70
   1  -4  17   -1.40    7.70
   2  -4  17   65.59   10.20
  -3  -3  17    4.40    9.70
  -3  -3  17   -8.30    9.20
  -3  -3  17    5.30    6.70
  -2  -3  17    5.50    6.00
  -2  -3  17    2.70    9.40
  -2  -3  17    1.30    8.50
  -1  -3  17    8.70    9.10
  -1  -3  17    5.50    8.10
  -1  -3  17    6.00    5.80
   0  -3  17    0.50    6.30
   0  -3  17   -0.70    9.30
   0  -3  17    6.30    7.70
   1  -3  17    0.10    9.90
   1  -3  17   -0.90    6.90
   1  -3  17    6.10    6.90
   2  -3  17   35.10    9.40
   2  -3  17   30.90    8.20
  -3  -2  17   49.99    5.80
  -3  -2  17   40.10   10.50
  -3  -2  17   26.60   10.30
  -2  -2  17   11.30    9.40
  -2  -2  17   15.00   10.00
  -1  -2  17    1.60    9.30
  -1  -2  17    4.20    4.80
  -1  -2  17    5.10    8.20
   0  -2  17   38.80    8.60
   0  -2  17   58.79   11.20
   0  -2  17   32.30    6.10
   1  -2  17   -0.30    8.30
   1  -2  17    7.00   10.10
   1  -2  17    0.00    6.60
   2  -2  17    2.30    8.20
   2  -2  17    1.30    8.80
   2  -2  17    2.80    8.80
   2  -2  17    3.10   11.20
  -3  -1  17   41.50   10.70
  -3  -1  17   28.20   10.80
  -2  -1  17   18.50   10.00
  -1  -1  17   45.00    9.80
  -1  -1  17   62.09   11.40
   0  -1  17    3.90    5.50
   0  -1  17    5.90    8.80
   0  -1  17    1.60    9.70
   1  -1  17   29.60   11.30
   1  -1  17   46.10   10.00
   1  -1  17   44.60    7.60
   2  -1  17    4.80    9.50
   2  -1  17    8.40   12.10
   2  -1  17   10.40    8.40
  -3   0  17   18.10   11.10
  -3   0  17   11.10   10.80
  -2   0  17    5.30   10.50
  -2   0  17    4.60    9.40
  -1   0  17    1.00   10.70
  -1   0  17   10.80    9.40
   0   0  17    9.90    9.40
   0   0  17    4.50   10.60
   1   0  17   23.60   10.50
   1   0  17   30.20   11.70
  -2   1  17   21.80   11.20
  -2   1  17    9.80   11.40
  -1   1  17    3.70    5.30
  -1   1  17   -3.00   10.20
   0   1  17   -1.00    6.40
   0   1  17    0.90   10.50
   0   1  17    0.10   11.90
  -1  -2  18    2.20   10.60
  -1  -2  18   -2.30    9.90
   0  -2  18    4.60    9.20
   0  -2  18    9.90   11.60
  -1  -1  18    6.40    9.80
   0   0   0    0.00    0.00

_computing_structure_solution     'SHELXT 2018/2 (Sheldrick, 2018)'
;
_shelx_hkl_checksum              18800
loop_
_space_group_symop_operation_xyz
'x, y, z'
'-x, -y, -z'
loop_
_atom_site_label
_atom_site_type_symbol
_atom_site_fract_x
_atom_site_fract_y
_atom_site_fract_z
_atom_site_U_iso_or_equiv
_atom_site_adp_type
_atom_site_occupancy
_atom_site_site_symmetry_order
_atom_site_calc_flag
_atom_site_refinement_flags_posn
_atom_site_refinement_flags_adp
_atom_site_refinement_flags_occupancy
_atom_site_disorder_assembly
_atom_site_disorder_group
F1 F 0.44136(12) 0.68861(13) 0.14645(6) 0.0508(3) Uani 1 1 d . . . . .
N1 N 0.73162(14) 0.25280(12) 0.49866(7) 0.0217(2) Uani 1 1 d . . . . .
C1 C 1.00866(18) 0.79410(18) 0.76258(9) 0.0324(3) Uani 1 1 d . . . . .
H1 H 0.996325 0.895684 0.734726 0.039 Uiso 1 1 calc R U . . .
F2 F 0.30995(12) 0.37601(14) 0.01332(5) 0.0549(3) Uani 1 1 d . . . . .
N2 N 0.64516(14) 0.20627(13) 0.40763(7) 0.0241(2) Uani 1 1 d . . . . .
C2 C 1.0887(2) 0.8206(2) 0.85821(10) 0.0407(4) Uani 1 1 d . . . . .
H2 H 1.131436 0.940338 0.895529 0.049 Uiso 1 1 calc R U . . .
N3 N 0.63104(13) 0.36243(13) 0.38060(7) 0.0212(2) Uani 1 1 d . . . . .
F3 F 0.33178(13) 0.05538(12) 0.06174(6) 0.0588(3) Uani 1 1 d . . . . .
C3 C 1.10745(19) 0.6742(2) 0.90030(10) 0.0413(4) Uani 1 1 d . . . . .
H3 H 1.161299 0.693187 0.966426 0.050 Uiso 1 1 calc R U . . .
N4 N 0.83139(14) 0.73775(13) 0.56755(7) 0.0256(2) Uani 1 1 d . . . . .
C4 C 1.04731(19) 0.5010(2) 0.84547(10) 0.0376(3) Uani 1 1 d . . . . .
H4 H 1.060936 0.400092 0.873670 0.045 Uiso 1 1 calc R U . . .
C5 C 0.96660(18) 0.47325(18) 0.74881(9) 0.0304(3) Uani 1 1 d . . . . .
H5 H 0.925611 0.353228 0.711671 0.037 Uiso 1 1 calc R U . . .
N5 N 0.74088(15) 0.68872(13) 0.47260(7) 0.0250(3) Uani 1 1 d . . . . .
C6 C 0.94526(16) 0.61832(16) 0.70608(8) 0.0240(3) Uani 1 1 d . . . . .
C7 C 0.85465(16) 0.59314(15) 0.60534(8) 0.0206(3) Uani 1 1 d . . . . .
C12 C 0.45606(19) 0.5299(2) 0.17106(10) 0.0348(3) Uani 1 1 d . . . . .
C11 C 0.53702(17) 0.52868(18) 0.26305(9) 0.0285(3) Uani 1 1 d . . . . .
H11 H 0.584608 0.638198 0.309586 0.034 Uiso 1 1 calc R U . . .
C10 C 0.54672(16) 0.36244(17) 0.28542(8) 0.0244(3) Uani 1 1 d . . . . .
C9 C 0.70960(16) 0.50771(15) 0.45485(8) 0.0199(3) Uani 1 1 d . . . . .
C8 C 0.77432(15) 0.43662(14) 0.53183(8) 0.0189(3) Uani 1 1 d . . . . .
C13 C 0.38786(19) 0.3721(2) 0.10266(9) 0.0388(4) Uani 1 1 d . . . . .
C15 C 0.47824(18) 0.20016(18) 0.21951(9) 0.0313(3) Uani 1 1 d . . . . .
H15 H 0.484947 0.087257 0.236500 0.038 Uiso 1 1 calc R U . . .
C16 C 0.76902(19) 0.10594(16) 0.54533(10) 0.0312(3) Uani 1 1 d . . . . .
H16A H 0.727346 -0.009839 0.498709 0.047 Uiso 1 1 calc R U . . .
H16B H 0.699252 0.102347 0.603573 0.047 Uiso 1 1 calc R U . . .
H16C H 0.905513 0.126934 0.564984 0.047 Uiso 1 1 calc R U . . .
C14 C 0.40014(19) 0.2095(2) 0.12842(9) 0.0387(4) Uani 1 1 d . . . . .
loop_
_atom_site_aniso_label
_atom_site_aniso_U_11
_atom_site_aniso_U_22
_atom_site_aniso_U_33
_atom_site_aniso_U_23
_atom_site_aniso_U_13
_atom_site_aniso_U_12
F1 0.0549(6) 0.0672(6) 0.0429(5) 0.0334(4) 0.0024(4) 0.0233(5)
N1 0.0248(5) 0.0173(5) 0.0226(5) 0.0047(4) -0.0010(4) 0.0041(4)
C1 0.0302(7) 0.0349(8) 0.0279(7) -0.0010(6) -0.0026(5) 0.0056(6)
F2 0.0410(5) 0.1056(8) 0.0216(4) 0.0180(4) -0.0042(4) 0.0215(5)
N2 0.0268(6) 0.0194(5) 0.0247(5) 0.0033(4) -0.0017(4) 0.0040(4)
C2 0.0341(8) 0.0511(9) 0.0282(7) -0.0069(6) -0.0068(6) 0.0050(7)
N3 0.0240(5) 0.0207(5) 0.0190(5) 0.0041(4) -0.0011(4) 0.0059(4)
F3 0.0598(6) 0.0702(7) 0.0320(5) -0.0175(4) -0.0157(4) 0.0114(5)
C3 0.0283(7) 0.0736(11) 0.0190(7) 0.0023(7) -0.0034(5) 0.0120(7)
N4 0.0333(6) 0.0202(5) 0.0221(5) 0.0029(4) -0.0027(4) 0.0061(4)
C4 0.0331(8) 0.0569(9) 0.0291(7) 0.0176(7) 0.0015(6) 0.0166(7)
C5 0.0303(7) 0.0371(7) 0.0251(7) 0.0074(5) -0.0004(5) 0.0099(6)
N5 0.0343(6) 0.0181(5) 0.0217(5) 0.0034(4) -0.0024(4) 0.0056(4)
C6 0.0197(6) 0.0316(7) 0.0201(6) 0.0025(5) 0.0011(5) 0.0067(5)
C7 0.0219(6) 0.0193(6) 0.0202(6) 0.0027(5) 0.0011(5) 0.0049(5)
C12 0.0302(7) 0.0535(9) 0.0288(7) 0.0210(7) 0.0048(6) 0.0157(6)
C11 0.0266(7) 0.0358(7) 0.0258(7) 0.0103(5) 0.0027(5) 0.0094(5)
C10 0.0195(6) 0.0338(7) 0.0201(6) 0.0044(5) 0.0008(5) 0.0074(5)
C9 0.0215(6) 0.0205(6) 0.0176(6) 0.0032(4) 0.0009(4) 0.0054(5)
C8 0.0210(6) 0.0170(6) 0.0203(6) 0.0058(4) 0.0026(4) 0.0056(4)
C13 0.0261(7) 0.0734(11) 0.0189(7) 0.0116(7) -0.0004(5) 0.0144(7)
C15 0.0290(7) 0.0371(8) 0.0249(7) -0.0002(5) -0.0022(5) 0.0073(6)
C16 0.0415(8) 0.0187(6) 0.0345(7) 0.0095(5) -0.0035(6) 0.0078(5)
C14 0.0292(8) 0.0565(9) 0.0237(7) -0.0064(6) -0.0029(5) 0.0084(6)
loop_
_atom_type_symbol
_atom_type_description
_atom_type_scat_dispersion_real
_atom_type_scat_dispersion_imag
_atom_type_scat_source
C C 0.0033 0.0016 'International Tables Vol C Tables 4.2.6.8 and 6.1.1.4'
H H 0.0000 0.0000 'International Tables Vol C Tables 4.2.6.8 and 6.1.1.4'
N N 0.0061 0.0033 'International Tables Vol C Tables 4.2.6.8 and 6.1.1.4'
F F 0.0171 0.0103 'International Tables Vol C Tables 4.2.6.8 and 6.1.1.4'
loop_
_geom_angle_atom_site_label_1
_geom_angle_atom_site_label_2
_geom_angle_atom_site_label_3
_geom_angle
_geom_angle_site_symmetry_1
_geom_angle_site_symmetry_3
_geom_angle_publ_flag
N2 N1 C8 112.02(9) . . ?
N2 N1 C16 117.00(9) . . ?
C8 N1 C16 130.97(10) . . ?
C2 C1 C6 120.59(13) . . ?
C2 C1 H1 119.7 . . ?
C6 C1 H1 119.7 . . ?
N1 N2 N3 105.78(9) . . ?
C1 C2 C3 120.60(13) . . ?
C1 C2 H2 119.7 . . ?
C3 C2 H2 119.7 . . ?
N2 N3 C9 110.63(9) . . ?
N2 N3 C10 120.72(9) . . ?
C9 N3 C10 128.63(10) . . ?
C4 C3 C2 119.47(13) . . ?
C4 C3 H3 120.3 . . ?
C2 C3 H3 120.3 . . ?
C7 N4 N5 112.52(9) . . ?
C3 C4 C5 120.23(13) . . ?
C3 C4 H4 119.9 . . ?
C5 C4 H4 119.9 . . ?
C6 C5 C4 120.93(13) . . ?
C6 C5 H5 119.5 . . ?
C4 C5 H5 119.5 . . ?
C9 N5 N4 102.93(9) . . ?
C5 C6 C1 118.18(12) . . ?
C5 C6 C7 122.20(11) . . ?
C1 C6 C7 119.60(11) . . ?
N4 C7 C8 106.67(10) . . ?
N4 C7 C6 120.34(10) . . ?
C8 C7 C6 132.98(10) . . ?
F1 C12 C11 119.77(13) . . ?
F1 C12 C13 118.52(12) . . ?
C11 C12 C13 121.71(13) . . ?
C12 C11 C10 117.71(13) . . ?
C12 C11 H11 121.1 . . ?
C10 C11 H11 121.1 . . ?
C11 C10 C15 122.68(12) . . ?
C11 C10 N3 117.35(11) . . ?
C15 C10 N3 119.97(11) . . ?
N5 C9 N3 139.20(10) . . ?
N5 C9 C8 114.46(10) . . ?
N3 C9 C8 106.33(10) . . ?
N1 C8 C9 105.23(10) . . ?
N1 C8 C7 151.33(10) . . ?
C9 C8 C7 103.42(10) . . ?
F2 C13 C12 120.87(14) . . ?
F2 C13 C14 120.62(13) . . ?
C12 C13 C14 118.51(12) . . ?
C14 C15 C10 117.13(13) . . ?
C14 C15 H15 121.4 . . ?
C10 C15 H15 121.4 . . ?
N1 C16 H16A 109.5 . . ?
N1 C16 H16B 109.5 . . ?
H16A C16 H16B 109.5 . . ?
N1 C16 H16C 109.5 . . ?
H16A C16 H16C 109.5 . . ?
H16B C16 H16C 109.5 . . ?
F3 C14 C15 119.34(14) . . ?
F3 C14 C13 118.39(12) . . ?
C15 C14 C13 122.26(13) . . ?
loop_
_geom_bond_atom_site_label_1
_geom_bond_atom_site_label_2
_geom_bond_distance
_geom_bond_site_symmetry_2
_geom_bond_publ_flag
F1 C12 1.3488(16) . ?
N1 N2 1.3297(14) . ?
N1 C8 1.3687(15) . ?
N1 C16 1.4630(15) . ?
C1 C2 1.3797(18) . ?
C1 C6 1.4038(19) . ?
C1 H1 0.9500 . ?
F2 C13 1.3402(15) . ?
N2 N3 1.3430(13) . ?
C2 C3 1.386(2) . ?
C2 H2 0.9500 . ?
N3 C9 1.3732(15) . ?
N3 C10 1.4229(15) . ?
F3 C14 1.3467(16) . ?
C3 C4 1.378(2) . ?
C3 H3 0.9500 . ?
N4 C7 1.3488(14) . ?
N4 N5 1.3878(14) . ?
C4 C5 1.3932(18) . ?
C4 H4 0.9500 . ?
C5 C6 1.3862(17) . ?
C5 H5 0.9500 . ?
N5 C9 1.3376(15) . ?
C6 C7 1.4718(16) . ?
C7 C8 1.4230(16) . ?
C12 C11 1.3761(17) . ?
C12 C13 1.378(2) . ?
C11 C10 1.3838(17) . ?
C11 H11 0.9500 . ?
C10 C15 1.3850(18) . ?
C9 C8 1.3856(16) . ?
C13 C14 1.380(2) . ?
C15 C14 1.3750(18) . ?
C15 H15 0.9500 . ?
C16 H16A 0.9800 . ?
C16 H16B 0.9800 . ?
C16 H16C 0.9800 . ?
loop_
_geom_torsion_atom_site_label_1
_geom_torsion_atom_site_label_2
_geom_torsion_atom_site_label_3
_geom_torsion_atom_site_label_4
_geom_torsion
_geom_torsion_site_symmetry_1
_geom_torsion_site_symmetry_2
_geom_torsion_site_symmetry_3
_geom_torsion_site_symmetry_4
_geom_torsion_publ_flag
C8 N1 N2 N3 0.04(12) . . . . ?
C16 N1 N2 N3 -178.63(9) . . . . ?
C6 C1 C2 C3 -0.2(2) . . . . ?
N1 N2 N3 C9 0.23(12) . . . . ?
N1 N2 N3 C10 179.14(9) . . . . ?
C1 C2 C3 C4 0.8(2) . . . . ?
C2 C3 C4 C5 -0.6(2) . . . . ?
C3 C4 C5 C6 0.0(2) . . . . ?
C7 N4 N5 C9 0.29(13) . . . . ?
C4 C5 C6 C1 0.53(18) . . . . ?
C4 C5 C6 C7 -177.87(11) . . . . ?
C2 C1 C6 C5 -0.42(19) . . . . ?
C2 C1 C6 C7 178.02(11) . . . . ?
N5 N4 C7 C8 -0.29(13) . . . . ?
N5 N4 C7 C6 -178.99(10) . . . . ?
C5 C6 C7 N4 177.96(10) . . . . ?
C1 C6 C7 N4 -0.42(17) . . . . ?
C5 C6 C7 C8 -0.3(2) . . . . ?
C1 C6 C7 C8 -178.72(12) . . . . ?
F1 C12 C11 C10 179.15(10) . . . . ?
C13 C12 C11 C10 -0.51(19) . . . . ?
C12 C11 C10 C15 -0.21(18) . . . . ?
C12 C11 C10 N3 179.86(10) . . . . ?
N2 N3 C10 C11 179.90(9) . . . . ?
C9 N3 C10 C11 -1.41(17) . . . . ?
N2 N3 C10 C15 -0.04(17) . . . . ?
C9 N3 C10 C15 178.66(11) . . . . ?
N4 N5 C9 N3 -179.51(14) . . . . ?
N4 N5 C9 C8 -0.18(13) . . . . ?
N2 N3 C9 N5 178.97(13) . . . . ?
C10 N3 C9 N5 0.2(2) . . . . ?
N2 N3 C9 C8 -0.40(13) . . . . ?
C10 N3 C9 C8 -179.20(10) . . . . ?
N2 N1 C8 C9 -0.28(12) . . . . ?
C16 N1 C8 C9 178.15(11) . . . . ?
N2 N1 C8 C7 -178.58(19) . . . . ?
C16 N1 C8 C7 -0.1(3) . . . . ?
N5 C9 C8 N1 -179.15(9) . . . . ?
N3 C9 C8 N1 0.40(12) . . . . ?
N5 C9 C8 C7 0.01(13) . . . . ?
N3 C9 C8 C7 179.56(9) . . . . ?
N4 C7 C8 N1 178.48(19) . . . . ?
C6 C7 C8 N1 -3.1(3) . . . . ?
N4 C7 C8 C9 0.16(12) . . . . ?
C6 C7 C8 C9 178.63(12) . . . . ?
F1 C12 C13 F2 0.53(19) . . . . ?
C11 C12 C13 F2 -179.81(11) . . . . ?
F1 C12 C13 C14 -178.97(11) . . . . ?
C11 C12 C13 C14 0.7(2) . . . . ?
C11 C10 C15 C14 0.70(19) . . . . ?
N3 C10 C15 C14 -179.37(10) . . . . ?
C10 C15 C14 F3 179.93(11) . . . . ?
C10 C15 C14 C13 -0.5(2) . . . . ?
F2 C13 C14 F3 -0.10(19) . . . . ?
C12 C13 C14 F3 179.40(12) . . . . ?
F2 C13 C14 C15 -179.67(11) . . . . ?
C12 C13 C14 C15 -0.2(2) . . . . ?
