#------------------------------------------------------------------------------
#$Date: 2021-07-05 19:17:55 +0300 (Mon, 05 Jul 2021) $
#$Revision: 267021 $
#$URL: file:///home/coder/svn-repositories/cod/cif/7/12/83/7128341.cif $
#------------------------------------------------------------------------------
#
# This file is available in the Crystallography Open Database (COD),
# http://www.crystallography.net/
#
# All data on this site have been placed in the public domain by the
# contributors.
#
data_7128341
loop_
_publ_author_name
'Liang, Qiuming'
'Hayashi, Kasumi'
'Zeng, Yimin'
'Jimenez-Santiago, Jose L'
'Song, Datong'
_publ_section_title
;
 Constructing fused N-heterocycles from unprotected mesoionic
 N-heterocyclic olefins and organic azides <i>via</i> diazo transfer.
;
_journal_issue                   50
_journal_name_full
'Chemical communications (Cambridge, England)'
_journal_page_first              6137
_journal_page_last               6140
_journal_paper_doi               10.1039/d1cc02245h
_journal_volume                  57
_journal_year                    2021
_chemical_formula_sum            'C17 H15 Cl2 N5'
_chemical_formula_weight         360.24
_space_group_crystal_system      triclinic
_space_group_IT_number           2
_space_group_name_Hall           '-P 1'
_space_group_name_H-M_alt        'P -1'
_atom_sites_solution_hydrogens   geom
_audit_creation_method           SHELXL-2016/6
_audit_update_record
;
2021-04-08 deposited with the CCDC.	2021-05-19 downloaded from the CCDC.
;
_cell_angle_alpha                102.837(12)
_cell_angle_beta                 102.334(13)
_cell_angle_gamma                99.423(14)
_cell_formula_units_Z            2
_cell_length_a                   6.907(3)
_cell_length_b                   10.401(4)
_cell_length_c                   12.709(4)
_cell_measurement_reflns_used    26608
_cell_measurement_temperature    150(2)
_cell_measurement_theta_max      27.437
_cell_measurement_theta_min      3.122
_cell_volume                     848.0(6)
_computing_structure_refinement  'SHELXL-2016/6 (Sheldrick, 2016)'
_computing_structure_solution    'SHELXT 2018/2 (Sheldrick, 2018)'
_diffrn_ambient_temperature      150(2)
_diffrn_measured_fraction_theta_full 0.996
_diffrn_measured_fraction_theta_max 0.994
_diffrn_measurement_device_type  'Bruker Kappa Photon II'
_diffrn_measurement_method       'omega and phi scans'
_diffrn_radiation_type           MoK\a
_diffrn_radiation_wavelength     0.71073
_diffrn_reflns_av_R_equivalents  0.0620
_diffrn_reflns_av_unetI/netI     0.0757
_diffrn_reflns_Laue_measured_fraction_full 0.996
_diffrn_reflns_Laue_measured_fraction_max 0.994
_diffrn_reflns_limit_h_max       8
_diffrn_reflns_limit_h_min       -8
_diffrn_reflns_limit_k_max       13
_diffrn_reflns_limit_k_min       -13
_diffrn_reflns_limit_l_max       16
_diffrn_reflns_limit_l_min       -14
_diffrn_reflns_number            26608
_diffrn_reflns_point_group_measured_fraction_full 0.996
_diffrn_reflns_point_group_measured_fraction_max 0.994
_diffrn_reflns_theta_full        25.242
_diffrn_reflns_theta_max         27.437
_diffrn_reflns_theta_min         3.122
_exptl_absorpt_coefficient_mu    0.391
_exptl_absorpt_correction_T_max  0.7382
_exptl_absorpt_correction_T_min  0.6908
_exptl_absorpt_correction_type   multi-scan
_exptl_absorpt_process_details
;
 SADABS 2016/2: Krause, L., Herbst-Irmer, R., Sheldrick G.M. & Stalke D.,
 J. Appl. Cryst. 48 (2015) 3-10
;
_exptl_crystal_colour            'light yellow'
_exptl_crystal_density_diffrn    1.411
_exptl_crystal_description       block
_exptl_crystal_F_000             372
_exptl_crystal_size_max          0.300
_exptl_crystal_size_mid          0.200
_exptl_crystal_size_min          0.100
_refine_diff_density_max         0.315
_refine_diff_density_min         -0.430
_refine_diff_density_rms         0.055
_refine_ls_extinction_method     none
_refine_ls_goodness_of_fit_ref   1.079
_refine_ls_hydrogen_treatment    constr
_refine_ls_matrix_type           full
_refine_ls_number_parameters     218
_refine_ls_number_reflns         3838
_refine_ls_number_restraints     0
_refine_ls_restrained_S_all      1.079
_refine_ls_R_factor_all          0.0693
_refine_ls_R_factor_gt           0.0452
_refine_ls_shift/su_max          0.000
_refine_ls_shift/su_mean         0.000
_refine_ls_structure_factor_coef Fsqd
_refine_ls_weighting_details
'w=1/[\s^2^(Fo^2^)+(0.0298P)^2^+0.2421P] where P=(Fo^2^+2Fc^2^)/3'
_refine_ls_weighting_scheme      calc
_refine_ls_wR_factor_gt          0.1157
_refine_ls_wR_factor_ref         0.1261
_reflns_Friedel_coverage         0.000
_reflns_number_gt                2807
_reflns_number_total             3838
_reflns_threshold_expression     'I > 2\s(I)'
_cod_data_source_file            d1cc02245h2.cif
_cod_data_source_block           wl475
_cod_depositor_comments
'Adding full bibliography for 7128333--7128355.cif.'
_cod_original_cell_volume        848.0(5)
_cod_database_code               7128341
_shelx_shelxl_version_number     2016/6
_shelx_space_group_comment
;
The symmetry employed for this shelxl refinement is uniquely defined
by the following loop, which should always be used as a source of
symmetry information in preference to the above space-group names.
They are only intended as comments.
;
_shelx_estimated_absorpt_t_min   0.892
_shelx_estimated_absorpt_t_max   0.962
_shelx_res_file
;
TITL wl475_0m_a.res in P-1
    wl475.res
    created by SHELXL-2016/6 at 17:14:12 on 02-Jan-2021
CELL 0.71073 6.9069 10.4015 12.7090 102.837 102.334 99.423
ZERR 2.00 0.0027 0.0039 0.0040 0.012 0.013 0.014
LATT 1
SFAC C H N CL
UNIT 34 30 10 4
LIST 6 ! automatically inserted. Change 6 to 4 for CHECKCIF!!
TEMP -123.15
SIZE 0.100 0.200 0.300
ACTA
L.S. 8
FMAP 2
PLAN -4 0 0.00
HTAB
OMIT     0  -1   1
OMIT     0   0   1
OMIT     0   1   0
BOND $H
CONF
WGHT    0.029800    0.242100
FVAR       1.06972
CL1   4    0.571640    1.139814    0.775526    11.00000    0.10154    0.04917 =
         0.04007    0.01794    0.02682    0.02947
N1    3    0.290772    0.413100    0.607305    11.00000    0.02685    0.02288 =
         0.02685    0.00890    0.01040    0.00658
CL2   4    0.873585    1.037547    0.670096    11.00000    0.05489    0.04328 =
         0.05870    0.01722    0.01139    0.00328
N2    3    0.387641    0.464794    0.714351    11.00000    0.02911    0.02631 =
         0.02770    0.00970    0.00912    0.00704
N3    3    0.455288    0.597487    0.727982    11.00000    0.02514    0.02408 =
         0.02480    0.00851    0.00771    0.00498
N4    3    0.313703    0.682799    0.474278    11.00000    0.03130    0.02821 =
         0.02776    0.00993    0.00763    0.00596
N5    3    0.417481    0.736795    0.585904    11.00000    0.03206    0.02590 =
         0.02534    0.00898    0.00662    0.00340
C8    1    0.086464    0.538963    0.250719    11.00000    0.04303    0.03834 =
         0.02885    0.01062    0.01043    0.01370
AFIX  43
H8    2    0.137693    0.633796    0.268090    11.00000   -1.20000
AFIX   0
C9    1   -0.021973    0.468176    0.142293    11.00000    0.04954    0.05731 =
         0.02650    0.01294    0.00967    0.02540
AFIX  43
H9    2   -0.044683    0.515286    0.086353    11.00000   -1.20000
AFIX   0
C10   1   -0.097340    0.329919    0.114720    11.00000    0.03428    0.05670 =
         0.02831   -0.00126    0.00277    0.01670
AFIX  43
H10   2   -0.170813    0.281791    0.040384    11.00000   -1.20000
AFIX   0
C11   1   -0.063926    0.263359    0.196962    11.00000    0.03939    0.03885 =
         0.03917   -0.00279    0.00413    0.00379
AFIX  43
H11   2   -0.115353    0.168513    0.179239    11.00000   -1.20000
AFIX   0
C12   1    0.043778    0.333214    0.305136    11.00000    0.03734    0.03633 =
         0.03153    0.00724    0.00642    0.00676
AFIX  43
H12   2    0.065514    0.285315    0.360576    11.00000   -1.20000
AFIX   0
C13   1    0.120785    0.471923    0.334361    11.00000    0.02194    0.03229 =
         0.02621    0.00689    0.00910    0.00937
C14   1    0.236415    0.548355    0.448758    11.00000    0.02261    0.02814 =
         0.02654    0.01045    0.00933    0.00869
C15   1    0.292255    0.509622    0.549706    11.00000    0.02244    0.02313 =
         0.02569    0.00809    0.00989    0.00565
C16   1    0.399719    0.629252    0.627589    11.00000    0.02383    0.02574 =
         0.02421    0.00851    0.00834    0.00619
C17   1    0.560015    0.683650    0.836254    11.00000    0.02428    0.03300 =
         0.02373    0.00713    0.00668    0.00743
C18   1    0.601262    0.630050    0.927142    11.00000    0.03745    0.03443 =
         0.02978    0.01110    0.00926    0.00924
AFIX  43
H18   2    0.563757    0.535440    0.918149    11.00000   -1.20000
AFIX   0
C19   1    0.698509    0.717794    1.031416    11.00000    0.04794    0.04781 =
         0.02610    0.01156    0.00628    0.01518
AFIX  43
H19   2    0.726585    0.683198    1.094873    11.00000   -1.20000
AFIX   0
C20   1    0.754937    0.855137    1.043822    11.00000    0.05079    0.04489 =
         0.02855    0.00177    0.00169    0.01023
AFIX  43
H20   2    0.823287    0.914323    1.115435    11.00000   -1.20000
AFIX   0
C21   1    0.712165    0.906507    0.952330    11.00000    0.05868    0.03467 =
         0.03422    0.00386    0.00263    0.00483
AFIX  43
H21   2    0.749850    1.001110    0.961332    11.00000   -1.20000
AFIX   0
C22   1    0.614373    0.820526    0.847300    11.00000    0.04260    0.03286 =
         0.02711    0.00828    0.00440    0.00467
AFIX  43
H22   2    0.585335    0.855370    0.784033    11.00000   -1.20000
AFIX   0
C23   1    0.200224    0.268043    0.570336    11.00000    0.03705    0.02131 =
         0.03783    0.01030    0.00826    0.00377
AFIX 137
H23A  2    0.052189    0.253781    0.544558    11.00000   -1.50000
H23B  2    0.234732    0.227815    0.632747    11.00000   -1.50000
H23C  2    0.253076    0.225332    0.508930    11.00000   -1.50000
AFIX   0
C24   1    0.624404    1.065744    0.648155    11.00000    0.05546    0.03421 =
         0.02794    0.01059    0.00477    0.00282
AFIX  23
H24A  2    0.525595    0.978630    0.610807    11.00000   -1.20000
H24B  2    0.608008    1.126064    0.598149    11.00000   -1.20000
AFIX   0
HKLF 4 1 1 0 0 0 1 0 0 0 1




REM  wl475_0m_a.res in P-1
REM R1 =  0.0452 for    2807 Fo > 4sig(Fo)  and  0.0693 for all    3838 data
REM    218 parameters refined using      0 restraints

END

WGHT      0.0300      0.2418

REM Instructions for potential hydrogen bonds
HTAB C22 N5
EQIV $1 -x, -y+1, -z+1
HTAB C23 N4_$1
HTAB C24 N5
EQIV $2 -x+1, -y+2, -z+1
HTAB C24 N4_$2

REM Highest difference peak  0.315,  deepest hole -0.430,  1-sigma level  0.055
Q1    1   0.2718  0.5071  0.5006  11.00000  0.05    0.31
Q2    1   0.3478  0.5656  0.5837  11.00000  0.05    0.24
Q3    1   0.5927  0.6614  0.8774  11.00000  0.05    0.23
Q4    1   0.7215  1.1400  0.7970  11.00000  0.05    0.21
;
_shelx_res_checksum              54663
_shelx_hkl_file
;
  -2   0   0   82.69   12.20
  -2   0   0   51.49   12.00
  -2   0   0   74.59   12.10
  -2   0   0   93.99   12.30
  -2   0   0   57.59   12.10
   2   0   0   71.09   12.20
   2   0   0   79.59   12.10
   2   0   0   57.39   12.10
   2   0   0   65.29   12.00
   2   0   0   78.79   12.40
   2   0   0   79.59   12.20
  -3   0   0  157.68   25.60
  -3   0   0  142.89   25.60
  -3   0   0  139.99   25.70
  -3   0   0  159.98   25.50
  -3   0   0  143.39   25.70
  -3   0   0  143.99   25.60
   3   0   0  151.18   25.70
   3   0   0  150.58   26.00
   3   0   0  139.09   25.40
   3   0   0  155.88   25.70
   3   0   0  159.78   25.90
   3   0   0  145.79   25.40
  -4   0   0  462.55   84.09
  -4   0   0  500.45   84.09
  -4   0   0  497.95   83.89
  -4   0   0  523.55   83.99
  -4   0   0  519.55   84.09
  -4   0   0  506.65   84.09
   4   0   0  468.25   84.09
   4   0   0  506.85   83.89
   4   0   0  493.85   83.99
   4   0   0  455.35   84.29
   4   0   0  507.75   83.89
   4   0   0  506.65   84.09
  -5   0   0   11.00    5.40
  -5   0   0    7.00    7.00
  -5   0   0    4.40    9.20
  -5   0   0    7.10    5.00
  -5   0   0   12.80    5.40
  -5   0   0   18.60    7.20
   5   0   0    1.60    4.40
   5   0   0    9.80    7.40
   5   0   0    5.70    4.40
   5   0   0    2.80    9.20
   5   0   0    7.90    4.60
   5   0   0   10.90    5.20
  -6   0   0  352.56   65.79
  -6   0   0  382.06   66.79
  -6   0   0  415.56   66.09
  -6   0   0  379.96   66.49
   6   0   0  388.96   65.89
   6   0   0  408.96   65.69
   6   0   0  365.36   65.59
  -7   0   0  126.09   24.40
  -7   0   0  183.28   26.90
   7   0   0   94.69   23.80
   7   0   0  128.59   24.10
   7   0   0  141.89   23.80
  -8   0   0    7.10   16.50
  -8   0   0   12.30   18.40
   8   0   0    5.20   10.20
   8   0   0   -2.70   11.20
   8  -1   0   26.30   10.70
   8  -1   0   27.20   11.20
   8  -1   0    6.10   11.10
  -8   1   0   25.30   15.30
  -8   1   0   16.70   18.10
   7  -1   0    2.00    7.80
   7  -1   0    1.50    7.40
   7  -1   0   -6.20    7.70
   7  -1   0    0.30    7.40
  -7   1   0   12.20    9.10
  -7   1   0  -21.20   12.00
   6  -1   0   94.19   21.20
   6  -1   0  109.19   21.00
   6  -1   0  110.29   21.10
   6  -1   0  116.19   22.60
   6  -1   0  122.69   21.50
  -6   1   0  112.19   21.20
  -6   1   0  145.49   21.70
  -6   1   0  121.09   21.80
  -6   1   0  146.49   22.70
   5  -1   0   -7.50    4.30
   5  -1   0    0.20    6.40
   5  -1   0    1.60    4.10
   5  -1   0   -1.90    4.70
   5  -1   0   -0.10   10.00
   5  -1   0    4.00    4.00
  -5   1   0    0.70    5.30
  -5   1   0   -0.70    4.90
  -5   1   0   -3.70    4.40
  -5   1   0    1.20    6.10
  -5   1   0    1.10    6.00
   4  -1   0   39.60    8.80
   4  -1   0   46.60    9.90
   4  -1   0   53.69    9.30
   4  -1   0   54.69    8.80
   4  -1   0   61.99    9.70
   4  -1   0   36.30    8.50
  -4   1   0   43.60    9.00
  -4   1   0   45.60    9.20
  -4   1   0   43.90    8.70
  -4   1   0   51.09    8.80
  -4   1   0   46.50    9.10
  -4   1   0   40.70    9.20
   3  -1   0 3997.90  653.03
   3  -1   0 3923.11  652.93
   3  -1   0 3766.72  653.03
   3  -1   0 3920.81  653.03
   3  -1   0 3980.30  653.03
   3  -1   0 4032.90  653.03
  -3   1   0 3824.42  653.03
  -3   1   0 3891.71  653.03
  -3   1   0 3627.74  653.03
  -3   1   0 3917.51  653.03
  -3   1   0 3845.92  652.93
   2  -1   0   53.59   10.80
   2  -1   0   71.19   10.80
   2  -1   0   68.49   10.70
   2  -1   0   56.19   10.60
   2  -1   0   50.09   10.60
   2  -1   0   63.09   10.60
  -2   1   0   55.39   10.60
  -2   1   0   61.69   10.90
  -2   1   0   62.59   10.60
  -2   1   0   71.09   10.80
  -2   1   0   64.39   10.80
  -2   1   0   61.39   10.70
   1  -1   0   -0.50    1.10
   1  -1   0    1.80    1.20
   1  -1   0    0.20    0.90
   1  -1   0    1.40    0.60
   1  -1   0    0.90    1.00
   1  -1   0    1.50    1.10
  -1   1   0   -0.50    0.90
  -1   1   0   -0.10    1.60
  -1   1   0   -1.90    0.90
  -1   1   0    0.80    0.70
  -1   1   0    0.10    0.80
  -1   1   0    0.00    0.70
   0  -1   0   -0.10    0.50
   0  -1   0    0.70    0.50
   0  -1   0    0.10    0.30
   0  -1   0   -1.40    0.70
   0  -1   0    0.50    0.30
   0  -1   0   -0.20    0.60
   0   1   0    0.40    0.50
   0   1   0    1.20    0.50
   0   1   0    0.10    0.60
   0   1   0   -0.20    0.40
   0   1   0    0.90    0.70
   0   1   0    0.30    0.40
  -1  -1   0  101.19   16.80
  -1  -1   0   99.09   16.80
   1   1   0   96.69   16.80
   1   1   0   80.49   16.70
   1   1   0  107.29   16.80
   1   1   0  107.89   16.80
  -2  -1   0   68.89    9.50
  -2  -1   0   57.79    9.10
  -2  -1   0   44.40    9.10
  -2  -1   0   54.99    9.30
  -2  -1   0   49.90    9.20
  -2  -1   0   40.40    9.30
   2   1   0   46.50    9.20
   2   1   0   43.60    9.10
   2   1   0   56.59    9.30
   2   1   0   49.80    9.20
   2   1   0   61.99    9.20
  -3  -1   0  150.58   27.90
  -3  -1   0  163.58   27.80
  -3  -1   0  147.99   27.80
  -3  -1   0  185.48   27.70
  -3  -1   0  150.78   27.50
   3   1   0  156.88   27.60
   3   1   0  162.98   27.80
   3   1   0  175.68   27.80
  -4  -1   0  243.48   46.00
  -4  -1   0  254.27   45.90
  -4  -1   0  264.47   45.80
  -4  -1   0  247.48   45.60
  -4  -1   0  286.87   45.60
  -4  -1   0  293.87   45.90
   4   1   0  259.17   45.60
   4   1   0  280.67   46.30
   4   1   0  280.87   45.90
   4   1   0  277.27   45.80
   4   1   0  259.67   45.70
  -5  -1   0   -0.70    5.10
  -5  -1   0    0.50    5.90
  -5  -1   0   -3.00    5.40
  -5  -1   0    1.60    7.30
  -5  -1   0   -0.60    7.60
  -5  -1   0    5.70    6.30
   5   1   0   -8.60    7.80
   5   1   0    5.90    5.40
   5   1   0    2.00   10.30
   5   1   0   -2.50    4.30
   5   1   0    0.30    4.70
  -6  -1   0   -0.40   10.90
  -6  -1   0   -7.00    7.10
  -6  -1   0    5.20    8.20
   6   1   0    9.80    6.10
   6   1   0    5.20    6.50
  -7  -1   0   -5.30   10.10
  -7  -1   0    8.80   14.30
   7   1   0   12.20    9.00
   7   1   0   -1.70    8.80
   7   1   0   11.50    8.20
  -8  -1   0    4.00   14.50
  -8  -1   0  -31.00   25.00
   8   1   0    7.20   11.00
   8   1   0   -1.10   12.10
   8   1   0    3.80   15.20
   8  -2   0   33.90   12.20
   8  -2   0   40.20   12.80
   8  -2   0   47.40   11.70
   8  -2   0   32.80   13.30
  -8   2   0   32.10   13.90
  -8   2   0   50.99   18.70
   7  -2   0   14.10    7.80
   7  -2   0   14.20    8.20
   7  -2   0   13.30    8.60
   7  -2   0   17.80    9.20
  -7   2   0   18.10   10.10
  -7   2   0   16.50   11.70
   6  -2   0   11.50    6.50
   6  -2   0    9.30    6.70
   6  -2   0   38.60   10.60
   6  -2   0   21.70    6.10
   6  -2   0   14.50    7.60
  -6   2   0   33.30    8.30
  -6   2   0   30.40    7.80
  -6   2   0    7.20    8.90
  -6   2   0   12.90    7.20
   5  -2   0   58.99   11.80
   5  -2   0   49.90   11.60
   5  -2   0   60.59   15.80
   5  -2   0   72.89   11.20
   5  -2   0   64.29   12.60
   5  -2   0   63.09   11.50
  -5   2   0   71.09   13.00
  -5   2   0   48.20   11.20
  -5   2   0   56.99   12.30
  -5   2   0   55.39   12.00
  -5   2   0   80.19   12.20
  -5   2   0   44.80   11.40
   4  -2   0    4.00    3.70
   4  -2   0    2.50    3.20
   4  -2   0    0.90    4.00
   4  -2   0    1.30    3.20
   4  -2   0    0.20    2.50
   4  -2   0   -6.40    6.30
  -4   2   0   -2.10    3.20
  -4   2   0    0.70    2.90
  -4   2   0    2.10    4.20
  -4   2   0   -1.60    3.50
  -4   2   0   -5.50    4.50
  -4   2   0   -1.50    4.40
   3  -2   0 1050.69  185.48
   3  -2   0 1073.79  185.38
   3  -2   0 1084.49  185.48
   3  -2   0 1140.29  185.38
   3  -2   0 1091.29  185.48
   3  -2   0 1119.09  185.38
  -3   2   0 1087.49  185.38
  -3   2   0 1144.59  185.38
  -3   2   0 1114.99  185.48
  -3   2   0 1158.28  185.48
  -3   2   0 1062.49  185.38
  -3   2   0 1089.79  185.28
   2  -2   0   45.80    6.70
   2  -2   0   36.90    6.50
   2  -2   0   37.80    6.40
   2  -2   0   31.90    6.20
   2  -2   0   37.30    6.70
   2  -2   0   29.80    6.40
  -2   2   0   35.20    6.40
  -2   2   0   43.80    6.90
  -2   2   0   28.80    6.20
  -2   2   0   36.10    6.60
  -2   2   0   33.00    6.50
  -2   2   0   34.10    6.50
   1  -2   0  684.93  112.09
   1  -2   0  703.43  112.19
   1  -2   0  668.83  112.19
   1  -2   0  668.63  112.19
  -1   2   0  656.83  112.19
  -1   2   0  639.74  112.19
  -1   2   0  613.34  112.09
  -1   2   0  697.33  112.09
   0  -2   0  378.86   63.79
   0  -2   0  384.06   63.79
   0  -2   0  388.26   63.69
   0   2   0  370.36   63.79
   0   2   0  393.56   63.79
   0   2   0  353.06   63.69
   0   2   0  385.96   63.79
  -1  -2   0  814.52  131.69
  -1  -2   0  786.92  131.69
  -1  -2   0  765.12  131.69
  -1  -2   0  793.32  131.69
  -1  -2   0  770.22  131.69
   1   2   0  767.32  131.69
   1   2   0  757.82  131.69
   1   2   0  796.02  131.69
   1   2   0  792.92  131.69
  -2  -2   0  216.48   36.70
  -2  -2   0  217.78   36.40
  -2  -2   0  210.48   36.60
  -2  -2   0  208.88   36.70
  -2  -2   0  232.78   36.70
   2   2   0  206.08   36.60
   2   2   0  229.18   36.70
   2   2   0  224.78   36.70
   2   2   0  199.68   36.80
   2   2   0  210.98   36.70
  -3  -2   0  149.59   27.70
  -3  -2   0  162.38   28.00
  -3  -2   0  172.68   28.00
  -3  -2   0  165.68   27.50
  -3  -2   0  182.68   28.00
   3   2   0  135.69   27.70
   3   2   0  167.48   27.60
   3   2   0  158.58   27.80
   3   2   0  164.48   27.80
   3   2   0  158.58   27.90
  -4  -2   0  261.87   44.10
  -4  -2   0  260.97   44.80
  -4  -2   0  258.37   44.60
  -4  -2   0  261.27   44.30
  -4  -2   0  261.17   44.50
   4   2   0  279.57   44.40
   4   2   0  249.28   44.60
   4   2   0  248.78   44.20
   4   2   0  247.58   44.40
  -5  -2   0  142.49   35.50
  -5  -2   0  193.88   36.20
  -5  -2   0  169.68   35.80
  -5  -2   0  236.68   36.30
  -5  -2   0  194.48   35.40
   5   2   0  226.18   36.40
   5   2   0  255.37   36.20
   5   2   0  247.68   35.80
   5   2   0  219.58   35.90
  -6  -2   0   -1.20    7.40
  -6  -2   0    8.60    9.90
  -6  -2   0  -15.20    8.60
   6   2   0   -5.10    6.60
   6   2   0   -6.20    7.40
   6   2   0    0.80    6.80
  -7  -2   0   -8.80   11.30
   7   2   0   12.70    9.90
   7   2   0   35.00    9.80
   7   2   0   13.10    9.40
  -8  -2   0  145.89   25.10
   8   2   0  116.79   24.40
   8   2   0   82.99   24.40
   8   2   0  142.79   25.50
   8  -3   0   -2.60   10.90
   8  -3   0   13.90   10.60
   8  -3   0   12.10   10.50
   8  -3   0    5.80    9.30
  -8   3   0   -4.80   12.40
  -8   3   0   11.70   16.10
   7  -3   0    3.30    6.60
   7  -3   0   11.50    8.50
   7  -3   0   -2.80    7.90
   7  -3   0   -0.60    8.20
  -7   3   0   -1.20   11.20
  -7   3   0   -0.50    9.20
   6  -3   0   20.70    8.20
   6  -3   0   37.40   11.40
   6  -3   0   30.30    9.00
   6  -3   0   36.10    7.90
   6  -3   0   37.40    9.40
  -6   3   0   26.20    9.30
  -6   3   0   34.40   10.80
  -6   3   0   32.90    9.40
   5  -3   0  121.89   22.90
   5  -3   0   97.99   21.30
   5  -3   0  129.39   21.50
   5  -3   0  146.39   22.30
   5  -3   0  118.89   21.60
   5  -3   0  141.09   21.30
  -5   3   0  136.29   22.20
  -5   3   0  108.49   21.20
  -5   3   0   70.09   22.80
  -5   3   0  126.39   21.70
  -5   3   0  131.09   23.10
  -5   3   0  131.59   22.30
   4  -3   0   11.50    3.80
   4  -3   0   12.40    4.50
   4  -3   0   10.50    4.70
   4  -3   0   26.80    5.70
   4  -3   0   22.80    6.50
   4  -3   0   16.00    4.40
  -4   3   0   13.40    5.20
  -4   3   0   15.50    5.20
  -4   3   0   14.00    4.70
  -4   3   0   17.10    6.00
  -4   3   0   18.90    4.10
  -4   3   0   13.50    4.80
   3  -3   0  383.56   75.09
   3  -3   0  440.16   74.99
   3  -3   0  462.35   74.79
   3  -3   0  402.86   75.69
   3  -3   0  437.86   74.99
   3  -3   0  435.16   75.09
  -3   3   0  475.45   74.99
  -3   3   0  442.56   74.79
  -3   3   0  428.36   74.89
  -3   3   0  462.85   74.99
  -3   3   0  475.95   74.99
   2  -3   0   87.69   12.80
   2  -3   0   64.19   12.40
   2  -3   0   73.99   12.80
   2  -3   0   78.59   12.60
   2  -3   0   68.59   12.70
   2  -3   0  104.79   13.00
  -2   3   0   83.99   12.80
  -2   3   0   66.59   12.80
  -2   3   0   57.19   12.60
  -2   3   0   62.39   12.60
   1  -3   0    8.60    2.80
   1  -3   0    9.90    2.90
   1  -3   0    7.60    2.80
   1  -3   0   15.60    3.10
   1  -3   0    8.20    2.60
  -1   3   0   16.40    2.80
  -1   3   0   16.10    2.90
  -1   3   0   11.50    2.60
  -1   3   0   14.30    3.20
  -1   3   0   10.00    2.90
   0  -3   0    9.80    2.00
   0  -3   0    8.90    2.60
   0  -3   0    8.40    2.60
   0  -3   0    6.50    2.80
   0  -3   0    9.30    2.60
   0  -3   0    4.30    2.20
   0   3   0   10.90    2.70
   0   3   0    9.60    2.10
   0   3   0   23.60    3.20
   0   3   0   11.20    2.50
   0   3   0    4.20    2.30
   0   3   0    5.00    2.30
  -1  -3   0  937.41  158.38
  -1  -3   0  923.41  158.28
  -1  -3   0  984.40  158.38
  -1  -3   0  938.31  158.38
  -1  -3   0  937.11  158.38
  -1  -3   0  966.80  158.38
   1   3   0  928.21  158.38
   1   3   0  935.31  158.38
   1   3   0  894.51  158.38
   1   3   0  979.70  158.38
   1   3   0  930.01  158.38
  -2  -3   0  246.88   41.20
  -2  -3   0  213.68   41.10
  -2  -3   0  228.38   41.20
  -2  -3   0  247.78   41.20
  -2  -3   0  266.37   41.20
   2   3   0  246.28   41.20
   2   3   0  239.38   41.30
   2   3   0  246.98   41.20
   2   3   0  224.78   41.40
   2   3   0  259.47   41.10
  -3  -3   0   26.30    5.80
  -3  -3   0   27.90    6.20
  -3  -3   0   22.80    5.40
  -3  -3   0   30.90    6.50
  -3  -3   0   27.50    6.60
  -3  -3   0   22.10    6.50
   3   3   0   26.20    5.80
   3   3   0   33.70    6.80
   3   3   0   21.20    5.90
   3   3   0   22.90    5.90
   3   3   0   40.40    7.60
  -4  -3   0  499.65   83.69
  -4  -3   0  515.25   83.59
  -4  -3   0  516.65   83.89
  -4  -3   0  502.75   83.19
  -4  -3   0  495.35   83.49
  -4  -3   0  589.34   86.09
   4   3   0  479.05   83.59
   4   3   0  451.25   83.39
   4   3   0  496.75   83.49
   4   3   0  445.96   83.69
  -5  -3   0   72.19   16.20
  -5  -3   0   38.50   11.00
  -5  -3   0   70.79   10.80
  -5  -3   0   35.40    9.80
   5   3   0   30.40    9.90
   5   3   0   59.59   10.40
   5   3   0   44.50   12.70
   5   3   0   43.90   10.40
  -6  -3   0    7.50    8.10
  -6  -3   0   -2.10    7.30
  -6  -3   0    1.90   10.10
   6   3   0    6.30    7.70
   6   3   0    3.50    7.40
   6   3   0    0.70    7.20
  -7  -3   0   24.00   11.90
  -7  -3   0    5.80   10.40
   7   3   0    1.90   10.50
   7   3   0   18.40   10.20
   7   3   0   -6.80    9.40
   8  -4   0   -2.50   10.60
   8  -4   0    1.10   10.70
   8  -4   0    1.10    9.40
   8  -4   0   -1.60   11.70
  -8   4   0  -25.60   15.20
  -8   4   0   -4.10   11.40
   7  -4   0   72.69   14.70
   7  -4   0   89.39   15.80
   7  -4   0   86.89   16.10
   7  -4   0   83.69   15.70
  -7   4   0   37.60   17.50
  -7   4   0   62.59   15.90
   6  -4   0   94.59   17.50
   6  -4   0   58.19   15.80
   6  -4   0   91.09   14.50
   6  -4   0   79.99   15.00
   6  -4   0   87.59   15.30
  -6   4   0   75.09   16.70
  -6   4   0   69.29   14.80
  -6   4   0   64.69   14.90
   5  -4   0  235.48   37.30
   5  -4   0  174.08   37.00
   5  -4   0  201.98   36.90
   5  -4   0  175.18   37.10
   5  -4   0  194.98   37.90
   5  -4   0  299.67   38.00
  -5   4   0  266.97   37.70
  -5   4   0  229.78   37.90
  -5   4   0  204.68   37.40
  -5   4   0  204.98   37.20
  -5   4   0  218.58   37.00
  -5   4   0  260.97   37.60
   4  -4   0  190.98   31.70
   4  -4   0  176.58   31.90
   4  -4   0  184.88   32.20
   4  -4   0  191.98   32.20
   4  -4   0  209.08   32.30
   4  -4   0  229.18   32.70
  -4   4   0  176.98   32.00
  -4   4   0  154.78   31.90
  -4   4   0  186.68   32.40
  -4   4   0  191.68   32.40
  -4   4   0  169.08   31.80
  -4   4   0  189.08   32.10
   3  -4   0  224.38   37.20
   3  -4   0  229.18   36.90
   3  -4   0  201.28   37.30
   3  -4   0  224.78   37.60
   3  -4   0  218.88   37.10
   3  -4   0  216.78   37.30
  -3   4   0  193.78   37.30
  -3   4   0  199.08   37.20
  -3   4   0  226.88   37.40
  -3   4   0  240.68   37.50
   2  -4   0  237.08   40.20
   2  -4   0  260.97   40.30
   2  -4   0  228.08   40.30
   2  -4   0  235.98   40.10
   2  -4   0  228.58   40.40
   2  -4   0  239.98   40.30
  -2   4   0  227.68   40.30
  -2   4   0  234.28   40.30
  -2   4   0  230.48   40.30
  -2   4   0  247.28   40.40
   1  -4   0  969.20  168.78
   1  -4   0 1022.00  168.78
   1  -4   0  993.20  168.68
   1  -4   0  988.30  168.78
   1  -4   0 1024.60  168.68
   1  -4   0  963.50  168.78
  -1   4   0 1011.50  168.68
  -1   4   0 1011.60  168.78
  -1   4   0 1025.40  168.78
  -1   4   0  996.50  168.78
  -1   4   0 1021.20  168.78
   0  -4   0   12.00    4.40
   0  -4   0   24.70    5.00
   0  -4   0   27.80    4.70
   0  -4   0   28.00    5.00
   0  -4   0   21.80    4.70
   0  -4   0   24.90    4.30
   0   4   0   32.20    5.30
   0   4   0   22.20    4.80
   0   4   0   16.10    4.60
   0   4   0   20.90    4.40
   0   4   0   29.90    5.00
   0   4   0   20.70    4.30
  -1  -4   0 3854.81  637.04
  -1  -4   0 3720.43  637.24
  -1  -4   0 3973.00  637.14
  -1  -4   0 3722.43  637.14
  -1  -4   0 3729.53  637.14
  -1  -4   0 3698.13  637.14
   1   4   0 3763.92  637.14
   1   4   0 3707.23  637.14
   1   4   0 3901.61  637.14
   1   4   0 3930.21  637.24
   1   4   0 3682.83  637.14
  -2  -4   0   32.40    7.30
  -2  -4   0   39.30    7.80
  -2  -4   0   33.00    6.80
  -2  -4   0   42.30    7.80
  -2  -4   0   38.20    7.50
  -2  -4   0   39.10    7.60
   2   4   0   36.50    7.40
   2   4   0   40.70    8.00
   2   4   0   68.39    9.00
   2   4   0   37.60    7.40
   2   4   0   27.50    7.30
  -3  -4   0   40.30    8.50
  -3  -4   0   42.80    8.40
  -3  -4   0   36.00    8.20
  -3  -4   0   14.60    7.30
  -3  -4   0   40.80    7.60
  -3  -4   0   37.30    8.10
   3   4   0   34.70    7.30
   3   4   0   36.10    8.50
   3   4   0   36.30    9.40
   3   4   0   33.60    7.50
   3   4   0   31.50    7.50
  -4  -4   0    5.80    4.30
  -4  -4   0    6.00    5.90
  -4  -4   0    3.60    6.90
  -4  -4   0    1.40    4.60
  -4  -4   0    1.80    7.20
  -4  -4   0    4.30    5.90
   4   4   0    4.10    4.90
   4   4   0    5.00    8.10
   4   4   0    7.20    5.00
   4   4   0    4.30    5.30
   4   4   0   -0.10    8.90
  -5  -4   0  582.64   94.79
  -5  -4   0  548.65   95.19
   5   4   0  582.54   94.99
   5   4   0  581.94   95.29
   5   4   0  503.65   95.19
  -6  -4   0    1.60    8.50
  -6  -4   0   -2.30    9.70
  -6  -4   0  -11.30    7.40
   6   4   0   -6.10    8.20
   6   4   0   -6.00    8.30
   6   4   0   -3.40    9.00
  -7  -4   0   57.89   15.00
  -7  -4   0    6.40   18.40
   7   4   0   75.19   14.90
   7   4   0   55.79   15.50
   8  -5   0    9.10    9.20
   8  -5   0   12.00   11.40
   8  -5   0   33.40   11.30
  -8   5   0   -1.20   12.40
  -8   5   0   -6.20   16.10
   7  -5   0   -0.80    8.10
   7  -5   0    7.90    6.90
   7  -5   0    2.00    9.30
   7  -5   0   12.30    7.90
  -7   5   0    2.50   11.10
  -7   5   0    6.90    9.30
  -7   5   0  -16.40   12.70
   6  -5   0    8.60    6.70
   6  -5   0    1.40    5.00
   6  -5   0    4.40    6.70
   6  -5   0    4.20    6.90
  -6   5   0   13.10    6.60
  -6   5   0    5.30    7.20
  -6   5   0    2.90   10.00
   5  -5   0    1.40    5.00
   5  -5   0   -1.40    3.70
   5  -5   0    8.80    5.20
   5  -5   0    3.10    4.90
   5  -5   0   11.40   10.30
   5  -5   0   -3.20   13.80
  -5   5   0   13.50    6.70
  -5   5   0   -4.40    6.90
  -5   5   0   -1.20    5.70
  -5   5   0   -7.30    7.00
  -5   5   0   -6.40    6.00
   4  -5   0  126.39   20.20
   4  -5   0  150.08   21.70
   4  -5   0  119.59   20.60
   4  -5   0  119.39   20.80
   4  -5   0  117.89   20.60
   4  -5   0  120.89   20.90
  -4   5   0   95.69   20.40
  -4   5   0  114.29   21.10
  -4   5   0  120.59   20.80
  -4   5   0  139.39   21.20
  -4   5   0   78.39   20.60
   3  -5   0  362.36   56.49
   3  -5   0  323.27   56.49
   3  -5   0  286.17   56.79
   3  -5   0  338.67   56.19
   3  -5   0  327.97   56.39
   3  -5   0  341.97   56.49
  -3   5   0  326.77   56.59
  -3   5   0  341.77   56.49
  -3   5   0  313.77   56.39
  -3   5   0  334.17   56.49
  -3   5   0  347.97   56.69
   2  -5   0  339.67   62.89
   2  -5   0  372.56   62.99
   2  -5   0  369.46   62.99
   2  -5   0  361.86   63.09
  -2   5   0  377.06   62.99
  -2   5   0  382.76   62.99
  -2   5   0  373.06   62.79
  -2   5   0  385.66   62.89
  -2   5   0  383.36   62.99
   1  -5   0  170.18   26.80
   1  -5   0  144.79   27.00
   1  -5   0  167.78   27.20
   1  -5   0  166.38   27.00
   1  -5   0  138.39   26.70
   1  -5   0  155.58   27.10
  -1   5   0  157.68   26.70
  -1   5   0  182.28   28.50
  -1   5   0  144.89   26.90
  -1   5   0  146.89   27.00
  -1   5   0  168.58   27.20
   0  -5   0  908.61  150.08
   0  -5   0  837.72  150.18
   0  -5   0  868.21  150.18
   0  -5   0  890.21  149.99
   0  -5   0  861.51  150.18
   0   5   0  906.51  150.18
   0   5   0  894.81  150.18
   0   5   0  894.01  150.18
   0   5   0  935.01  150.08
   0   5   0  850.61  149.99
   0   5   0  963.40  150.28
  -1  -5   0    2.80    3.10
  -1  -5   0    5.30    3.60
  -1  -5   0    7.10    4.30
  -1  -5   0    6.70    4.10
  -1  -5   0   -1.70    3.50
  -1  -5   0    4.00    2.10
   1   5   0    5.80    4.80
   1   5   0    1.70    2.90
   1   5   0    1.30    3.20
   1   5   0   -3.80    3.00
   1   5   0   -0.20    3.10
  -2  -5   0  487.75   86.79
  -2  -5   0  600.04   86.89
  -2  -5   0  516.35   86.89
  -2  -5   0  519.45   86.49
  -2  -5   0  498.65   86.89
  -2  -5   0  552.94   86.79
   2   5   0  493.65   86.99
   2   5   0  524.75   86.79
   2   5   0  452.45   86.89
   2   5   0  485.45   86.79
   2   5   0  513.75   86.69
  -3  -5   0    4.80    3.30
  -3  -5   0   -1.00    5.50
  -3  -5   0   -1.80    5.60
  -3  -5   0    7.50    6.50
  -3  -5   0    5.50    4.60
  -3  -5   0    9.20    6.60
   3   5   0   10.60    5.00
   3   5   0   10.70    4.70
   3   5   0    5.50    4.80
   3   5   0    8.10    7.50
   3   5   0    3.00    8.90
  -4  -5   0    0.70    8.80
  -4  -5   0    4.50    5.60
  -4  -5   0   -7.30    7.20
  -4  -5   0    2.20    4.60
   4   5   0    4.30    9.80
   4   5   0    1.50    5.30
   4   5   0   -4.30    5.30
   4   5   0   -0.80    6.00
  -5  -5   0   69.79   10.70
  -5  -5   0   10.50   11.90
  -5  -5   0   50.99   11.30
   5   5   0   50.69   11.10
   5   5   0   34.70   11.00
   5   5   0   46.60   11.40
  -6  -5   0   -0.80    9.00
  -6  -5   0   -3.10   10.80
  -6  -5   0   -9.30    9.60
   6   5   0    7.10    9.90
   6   5   0    4.20    9.30
   6   5   0    7.20    9.20
  -7  -5   0   22.50   13.30
   7   5   0   11.30   12.10
   7   5   0   17.90   13.00
   8  -6   0   13.70    9.30
   8  -6   0  -10.60   12.20
   8  -6   0    1.40   12.70
   8  -6   0    9.80   20.60
  -8   6   0   -1.90   19.50
  -8   6   0  -10.60   13.20
   7  -6   0   23.90   10.20
   7  -6   0   29.80   10.40
   7  -6   0   27.20    8.10
   7  -6   0   22.50   10.00
  -7   6   0   23.80   10.50
  -7   6   0   12.10   14.90
   6  -6   0   13.40    7.80
   6  -6   0   22.60    8.40
   6  -6   0   20.80    7.80
   6  -6   0   21.80    6.60
  -6   6   0   15.00   10.60
  -6   6   0   38.50    9.50
   5  -6   0  185.28   31.30
   5  -6   0  157.38   30.40
   5  -6   0  169.88   30.90
   5  -6   0  175.78   31.50
   5  -6   0  187.38   31.20
  -5   6   0  247.68   34.80
  -5   6   0  165.68   31.20
  -5   6   0  189.88   31.60
   4  -6   0   34.20    9.20
   4  -6   0   38.90    7.10
   4  -6   0   27.40    8.10
   4  -6   0   37.20   11.00
   4  -6   0   36.40    8.20
   4  -6   0   26.80    7.90
  -4   6   0   42.90    8.60
  -4   6   0   37.80    9.10
  -4   6   0   34.90    8.40
  -4   6   0   29.90   10.60
   3  -6   0    3.90    3.00
   3  -6   0    5.10    4.40
   3  -6   0   -5.50    5.60
   3  -6   0    3.40    6.00
   3  -6   0    3.80    4.10
   3  -6   0    7.20    3.70
  -3   6   0    6.00    4.70
  -3   6   0    4.60    5.50
  -3   6   0    3.70    4.80
  -3   6   0   -3.60    3.90
  -3   6   0    9.60    5.00
   2  -6   0   28.40    7.40
   2  -6   0   24.60    6.60
   2  -6   0   33.30    7.10
   2  -6   0   26.30    6.60
   2  -6   0   26.50    6.20
  -2   6   0   32.40    7.00
  -2   6   0   25.00    7.00
  -2   6   0   29.70    6.60
  -2   6   0   33.10    7.20
  -2   6   0   45.30    6.70
   1  -6   0   49.99    8.40
   1  -6   0   45.50    8.40
   1  -6   0   48.10    8.80
   1  -6   0   50.19    8.40
   1  -6   0   47.70    8.80
   1  -6   0   33.30    7.80
  -1   6   0   40.00    8.20
  -1   6   0   44.90    8.60
  -1   6   0   33.10    7.80
  -1   6   0   32.10    8.90
  -1   6   0   39.80    8.50
   0  -6   0  128.59   23.50
   0  -6   0  131.99   23.80
   0  -6   0  138.29   23.40
   0  -6   0  111.09   23.60
   0  -6   0  162.18   24.10
   0  -6   0  131.39   23.80
   0   6   0  141.19   23.70
   0   6   0  142.59   24.00
   0   6   0  158.18   24.00
   0   6   0  124.69   23.70
   0   6   0  146.19   23.50
  -1  -6   0  182.78   26.70
  -1  -6   0  143.29   26.10
  -1  -6   0  189.68   27.00
  -1  -6   0  144.19   26.60
  -1  -6   0  151.08   26.70
  -1  -6   0  143.69   26.60
   1   6   0  170.38   26.60
   1   6   0  161.08   26.90
   1   6   0  139.19   26.40
   1   6   0  164.78   26.80
   1   6   0  124.89   26.40
  -2  -6   0  382.96   59.49
  -2  -6   0  389.06   59.99
  -2  -6   0  329.67   59.99
  -2  -6   0  387.96   60.09
  -2  -6   0  326.57   60.09
   2   6   0  306.67   60.29
   2   6   0  337.07   60.09
   2   6   0  337.97   59.79
   2   6   0  336.07   59.99
  -3  -6   0   38.60    7.80
  -3  -6   0   46.90    8.80
  -3  -6   0   40.40    9.70
  -3  -6   0   39.50   10.90
  -3  -6   0   19.40   10.20
  -3  -6   0   23.90    9.00
   3   6   0   40.90    9.40
   3   6   0   26.00   11.10
   3   6   0   39.90   12.50
   3   6   0   50.79    9.50
   3   6   0   43.60    8.90
  -4  -6   0  104.29   15.10
  -4  -6   0   18.60   16.90
  -4  -6   0   89.19   15.30
  -4  -6   0   72.69   16.10
   4   6   0   93.09   16.50
   4   6   0   95.69   17.10
   4   6   0   75.19   15.70
  -5  -6   0  107.59   16.80
  -5  -6   0   94.39   17.60
  -5  -6   0   22.30   18.10
  -5  -6   0   95.79   16.10
   5   6   0   97.39   17.50
   5   6   0   65.29   17.20
   5   6   0   95.69   17.20
  -6  -6   0   40.40   11.80
  -6  -6   0    5.50   14.10
  -6  -6   0   33.20   12.30
  -6  -6   0   25.70    9.20
   6   6   0   16.00   11.20
   6   6   0   12.10   11.60
   6   6   0   20.60   11.40
   8  -7   0    6.90   13.30
   8  -7   0   18.10   13.10
   8  -7   0   -5.00    9.70
   8  -7   0   14.70   12.40
  -8   7   0    6.50   13.30
  -8   7   0    4.40   19.20
   7  -7   0    8.20   10.00
   7  -7   0    2.30    7.10
   7  -7   0   -0.80    9.80
   7  -7   0    8.60    9.70
  -7   7   0  -11.70    9.20
  -7   7   0  -38.80   13.90
   6  -7   0   14.50    6.30
   6  -7   0   18.30    8.20
   6  -7   0   13.80    8.30
   6  -7   0    7.90    7.20
  -6   7   0    7.80    8.70
  -6   7   0   14.80   10.20
   5  -7   0   51.99   13.30
   5  -7   0   66.89   12.10
   5  -7   0   79.49   15.60
   5  -7   0   76.39   13.70
   5  -7   0   57.39   13.00
  -5   7   0   56.89   13.30
  -5   7   0   66.89   14.10
   4  -7   0   46.80   11.90
   4  -7   0   86.59   15.30
   4  -7   0   75.29   14.90
   4  -7   0   61.29   11.30
   4  -7   0   79.79   12.60
   4  -7   0   66.29   11.90
  -4   7   0   51.59   12.30
  -4   7   0   60.59   13.30
  -4   7   0   71.79   13.00
  -4   7   0   48.50   13.30
  -4   7   0   44.50   12.10
   3  -7   0  187.58   32.70
   3  -7   0  150.58   33.20
   3  -7   0  152.48   32.70
   3  -7   0  176.58   33.00
   3  -7   0  223.98   33.10
   3  -7   0  188.08   32.50
  -3   7   0  218.88   33.10
  -3   7   0  200.78   33.40
  -3   7   0  225.48   33.30
  -3   7   0  192.58   32.70
   2  -7   0  559.74   94.19
   2  -7   0  550.04   94.19
   2  -7   0  574.34   93.89
   2  -7   0  553.44   94.09
   2  -7   0  543.55   94.39
   2  -7   0  608.34   93.89
  -2   7   0  566.44   94.29
  -2   7   0  554.64   94.19
  -2   7   0  530.95   93.99
  -2   7   0  540.35   94.19
  -2   7   0  524.85   94.09
   1  -7   0  735.83  125.29
   1  -7   0  755.42  125.19
   1  -7   0  736.53  124.99
   1  -7   0  709.33  124.99
   1  -7   0  744.63  125.29
   1  -7   0  766.02  125.19
  -1   7   0  769.72  125.19
  -1   7   0  751.82  125.29
  -1   7   0  739.03  125.19
  -1   7   0  759.62  125.29
  -1   7   0  698.23  124.99
   0  -7   0  212.18   39.50
   0  -7   0  253.57   40.30
   0  -7   0  222.98   39.90
   0  -7   0  219.48   40.00
   0  -7   0  258.47   40.30
   0  -7   0  253.97   40.10
   0   7   0  211.38   39.60
   0   7   0  245.58   40.30
   0   7   0  221.48   40.10
   0   7   0  281.17   40.50
   0   7   0  218.08   40.00
  -1  -7   0   26.50    8.40
  -1  -7   0   25.20    8.00
  -1  -7   0   35.00    7.70
  -1  -7   0   42.90    7.60
  -1  -7   0   27.50    7.40
   1   7   0   32.30    8.00
   1   7   0   31.30    9.60
   1   7   0   28.70    7.00
   1   7   0   20.70    7.50
   1   7   0   27.50    7.50
  -2  -7   0  340.67   55.59
  -2  -7   0  324.77   55.59
  -2  -7   0  308.87   55.79
  -2  -7   0  320.97   56.09
  -2  -7   0  346.27   55.69
  -2  -7   0  336.47   54.89
   2   7   0  312.97   55.59
   2   7   0  287.07   55.69
   2   7   0  319.27   55.59
   2   7   0  326.97   55.39
  -3  -7   0  335.67   57.49
  -3  -7   0  364.56   56.59
  -3  -7   0  330.27   57.39
   3   7   0  332.07   58.79
   3   7   0  287.17   57.19
   3   7   0  321.37   57.39
  -4  -7   0  333.07   47.00
  -4  -7   0  263.27   45.90
  -4  -7   0  270.97   45.80
   4   7   0  285.27   46.80
   4   7   0  220.38   46.30
   4   7   0  237.78   46.50
  -5  -7   0   30.70   11.80
  -5  -7   0   34.80    8.80
  -5  -7   0   40.70   10.50
  -5  -7   0    6.20   11.30
   5   7   0   24.30   11.70
   5   7   0   29.70   11.40
   5   7   0   37.60   11.50
  -6  -7   0   38.80   10.80
  -6  -7   0   28.70   14.00
   6   7   0   29.20   15.20
   6   7   0   18.50   13.50
   6   7   0   34.00   15.00
   7  -8   0   16.80   10.10
   7  -8   0   13.40   11.40
   7  -8   0   19.40   11.60
   7  -8   0   20.50    8.50
  -7   8   0   28.50   17.40
  -7   8   0   13.80   11.70
   6  -8   0   -8.10    7.40
   6  -8   0   -3.40    8.70
   6  -8   0   -4.20    6.00
   6  -8   0   -0.30    8.70
  -6   8   0   11.40    9.60
  -6   8   0   11.70   11.10
   5  -8   0   89.19   17.60
   5  -8   0   95.59   17.80
   5  -8   0   97.39   16.40
   5  -8   0   93.99   17.50
  -5   8   0  104.29   18.10
  -5   8   0   53.79   18.10
   4  -8   0  214.18   36.60
   4  -8   0  227.78   37.30
   4  -8   0  212.48   36.00
   4  -8   0  243.28   37.40
   4  -8   0  192.68   36.30
  -4   8   0  190.98   36.50
  -4   8   0  200.58   36.90
   3  -8   0  891.01  146.39
   3  -8   0  839.92  146.19
   3  -8   0  836.52  146.59
   3  -8   0  896.01  146.09
   3  -8   0  839.42  146.49
   3  -8   0  877.61  147.09
  -3   8   0  868.01  146.29
  -3   8   0  928.71  146.59
  -3   8   0  822.52  146.39
  -3   8   0  887.71  146.69
  -3   8   0  842.92  146.59
   2  -8   0   47.20   11.70
   2  -8   0   44.50   10.30
   2  -8   0   46.00    9.90
   2  -8   0   46.80    9.80
   2  -8   0   46.30    9.50
   2  -8   0   52.49   11.60
  -2   8   0   53.69   10.40
  -2   8   0   57.99   11.00
  -2   8   0   34.80   11.80
  -2   8   0   65.49   11.40
  -2   8   0   39.10    9.70
   1  -8   0  184.88   31.20
   1  -8   0  165.98   31.90
   1  -8   0  184.58   32.00
   1  -8   0  168.08   31.60
   1  -8   0  177.58   31.60
   1  -8   0  197.08   31.30
  -1   8   0  179.18   31.20
  -1   8   0  151.18   31.40
  -1   8   0  185.58   31.80
  -1   8   0  190.18   31.70
  -1   8   0  206.98   32.10
   0  -8   0    6.60    5.90
   0  -8   0   14.20    4.70
   0  -8   0   15.40    7.90
   0  -8   0   18.60    6.10
   0  -8   0   13.30    6.30
   0  -8   0   16.80    8.50
   0   8   0   15.10    6.40
   0   8   0   10.80    6.40
   0   8   0   10.40    8.40
   0   8   0   22.30    5.20
   0   8   0   11.70    7.30
  -1  -8   0   13.60    8.70
  -1  -8   0   12.70    6.20
  -1  -8   0    9.10    7.20
  -1  -8   0   22.00    4.90
  -1  -8   0   -2.20    6.20
   1   8   0   11.00   12.30
   1   8   0   15.80    9.50
   1   8   0   15.40    6.70
   1   8   0   11.80    6.30
   1   8   0    8.90    5.70
  -2  -8   0   44.20    7.60
  -2  -8   0   26.80    8.70
  -2  -8   0   31.00   10.10
   2   8   0   32.80    9.00
   2   8   0   29.20    9.00
   2   8   0   33.40   12.90
  -3  -8   0  206.18   40.90
  -3  -8   0  286.27   40.20
  -3  -8   0  186.18   40.90
   3   8   0  186.48   40.60
   3   8   0  301.47   41.40
   3   8   0  244.98   40.70
  -4  -8   0   26.50   11.80
  -4  -8   0   19.80    8.40
  -4  -8   0   17.90    7.10
  -4  -8   0   20.50   10.20
   4   8   0   25.90   10.60
   4   8   0    9.00    9.80
   4   8   0   11.90   10.40
  -5  -8   0   10.60   12.40
  -5  -8   0    1.50    8.00
  -5  -8   0   -3.00   13.20
   5   8   0   -3.10   13.10
   5   8   0    0.70   11.90
   7  -9   0   17.70   12.90
   7  -9   0   10.50   12.60
   7  -9   0   10.10    9.20
  -7   9   0   23.10   14.40
  -7   9   0   52.99   17.40
   6  -9   0   33.90   11.00
   6  -9   0   27.40   10.90
   6  -9   0   15.00   10.00
   6  -9   0   30.50    8.50
  -6   9   0   26.00   11.00
  -6   9   0   16.40   12.00
   5  -9   0   94.59   16.50
   5  -9   0   82.79   15.50
   5  -9   0   86.79   17.00
   5  -9   0   77.69   16.50
  -5   9   0   64.09   18.10
  -5   9   0   84.49   17.10
   4  -9   0   59.19   10.50
   4  -9   0   68.69   11.70
   4  -9   0   54.09   12.50
   4  -9   0   46.50   11.70
  -4   9   0   23.30   13.90
  -4   9   0   43.50   12.00
   3  -9   0   85.89   15.20
   3  -9   0   77.99   15.70
   3  -9   0   46.50   19.80
   3  -9   0   71.29   16.30
   3  -9   0   85.29   15.30
  -3   9   0  137.69   21.70
  -3   9   0   74.39   15.60
   2  -9   0    3.30    6.10
   2  -9   0    4.90    6.20
   2  -9   0    8.40    5.60
   2  -9   0   10.30    6.20
   2  -9   0   -6.20    9.10
  -2   9   0    1.80    6.20
  -2   9   0   13.90    6.40
  -2   9   0   11.20    9.40
   1  -9   0   31.30    9.30
   1  -9   0    9.20    7.00
   1  -9   0   23.80    7.10
   1  -9   0    5.20    8.70
   1  -9   0   20.20    6.00
  -1   9   0   21.40    7.20
  -1   9   0   14.70    6.70
  -1   9   0   22.80    8.30
   0  -9   0   97.59   18.60
   0  -9   0  108.79   23.00
   0  -9   0  126.69   19.10
   0  -9   0   36.90   18.50
   0  -9   0  124.79   18.10
   0   9   0  132.79   19.50
   0   9   0   86.99   18.00
   0   9   0  124.79   19.20
  -1  -9   0  217.08   32.30
  -1  -9   0  137.69   32.50
  -1  -9   0  188.48   33.20
   1   9   0  200.58   33.10
   1   9   0  196.68   32.90
  -2  -9   0   -9.10    8.70
  -2  -9   0    9.60    5.50
  -2  -9   0    3.50    7.00
   2   9   0   -2.70    6.90
   2   9   0    2.30    8.20
   2   9   0    9.70    8.00
  -3  -9   0   44.80   14.00
  -3  -9   0   70.99   12.40
  -3  -9   0   56.59   15.10
   3   9   0   56.19   13.90
   3   9   0   66.69   14.50
   3   9   0   69.29   14.70
  -4  -9   0   27.20   13.20
  -4  -9   0   30.00   12.50
  -4  -9   0   32.70    9.80
  -4  -9   0   57.19   11.50
   4   9   0   45.40   13.40
   4   9   0   24.10   12.40
   4   9   0   31.30   12.80
   7 -10   0   36.60   14.60
   6 -10   0  115.69   21.80
   6 -10   0  127.49   20.30
   6 -10   0  129.69   22.80
   6 -10   0   90.79   22.50
  -6  10   0   27.10   22.50
  -6  10   0  154.08   23.20
   5 -10   0    7.70    9.30
   5 -10   0   -7.90    9.30
   5 -10   0   -1.00    9.30
   5 -10   0    9.40    6.80
  -5  10   0   -2.80    9.80
  -5  10   0    1.50   14.50
   4 -10   0  129.79   28.10
   4 -10   0  162.18   28.20
   4 -10   0  169.28   27.40
   4 -10   0  152.78   27.90
   4 -10   0  178.98   28.90
  -4  10   0   94.89   29.90
  -4  10   0  196.88   29.20
   3 -10   0   10.10    7.40
   3 -10   0    7.30    6.30
   3 -10   0    9.90    7.70
  -3  10   0   -0.70   12.10
  -3  10   0   -1.70    8.20
   2 -10   0   64.59   14.50
   2 -10   0   88.79   14.90
   2 -10   0   59.59   13.60
   2 -10   0   69.19   14.30
  -2  10   0   79.09   19.60
  -2  10   0   56.29   16.20
   1 -10   0  143.19   23.20
   1 -10   0  115.49   22.90
   1 -10   0  121.29   22.80
   1 -10   0  130.29   22.20
  -1  10   0  123.49   25.10
  -1  10   0  117.89   23.30
  -1  10   0  109.89   22.50
   0 -10   0  154.38   26.50
   0 -10   0  116.49   26.90
   0 -10   0  127.29   26.70
   0  10   0  189.78   28.00
   0  10   0  185.28   27.30
  -1 -10   0   -4.80    8.60
  -1 -10   0    1.00    5.90
  -1 -10   0   -4.70    7.90
   1  10   0    9.10    9.10
   1  10   0   10.70    8.40
  -2 -10   0    6.30    9.20
  -2 -10   0    8.40   10.20
  -2 -10   0   -3.50    6.20
   2  10   0   -4.10    8.50
   2  10   0    4.30   10.10
  -3 -10   0   47.50    9.40
  -3 -10   0   15.00   13.90
  -3 -10   0   21.20   11.90
   3  10   0   28.70   12.40
   3  10   0   24.70   12.40
   3  10   0   16.80   11.60
  -4 -10   0   26.50    9.90
   4  10   0   35.60   13.90
   4  10   0    8.20   13.70
   6 -11   0   -6.40   12.60
   6 -11   0    6.10   13.60
   6 -11   0    4.40   12.80
   6 -11   0   -1.90    9.60
  -6  11   0    6.90   15.50
  -6  11   0   10.50   13.00
   5 -11   0  111.79   16.60
   5 -11   0   61.29   15.90
   5 -11   0   57.49   13.60
   5 -11   0   66.59   16.00
  -5  11   0   33.90   20.70
  -5  11   0   31.90   16.30
   4 -11   0    7.50   11.30
   4 -11   0   13.40   10.60
   4 -11   0   15.60    7.70
   4 -11   0    9.90   11.20
   4 -11   0   26.40   10.30
  -4  11   0   25.20   11.60
  -4  11   0   14.30   15.40
   3 -11   0   51.89   13.10
   3 -11   0   86.89   14.60
  -3  11   0   32.20   17.70
  -3  11   0   48.60   14.10
   2 -11   0   62.79   12.20
   2 -11   0   47.40   13.10
   2 -11   0   51.09   13.40
  -2  11   0   60.39   13.60
  -2  11   0   28.70   16.00
   1 -11   0   -2.50    8.90
   1 -11   0    4.00    7.00
   1 -11   0   -5.00    8.40
  -1  11   0   -6.50    9.50
  -1  11   0    5.10   10.60
   0 -11   0   11.00    9.70
   0 -11   0   14.40    7.80
   0 -11   0   18.60    9.40
   0  11   0   25.10   11.60
   0  11   0    9.00   10.10
  -1 -11   0    2.10    9.90
  -1 -11   0   -0.80    7.20
  -1 -11   0    4.70   10.40
   1  11   0  -12.60   11.30
   1  11   0   -1.50   10.70
  -2 -11   0   11.80   11.60
  -2 -11   0    7.00    8.20
   2  11   0    2.70   11.00
   2  11   0    8.60   12.40
  -3 -11   0    0.70    8.80
   3  11   0  -13.00   13.60
   5 -12   0   12.80   14.20
   5 -12   0   54.49   11.60
   5 -12   0   25.80   15.00
  -5  12   0    9.50   15.70
   4 -12   0   42.20   12.20
   4 -12   0   61.69   20.30
   4 -12   0   52.99   15.10
   4 -12   0   40.70   14.00
  -4  12   0   44.80   15.60
  -4  12   0   45.10   26.30
   3 -12   0   21.70   12.60
   3 -12   0   28.10   10.90
  -3  12   0   28.40   12.80
  -3  12   0   24.90   18.70
   2 -12   0   75.09   15.10
   2 -12   0   72.09   16.70
   2 -12   0   73.69   16.20
  -2  12   0   32.30   19.80
  -2  12   0   64.09   16.70
   1 -12   0    5.60   11.20
   1 -12   0    8.00    8.90
   1 -12   0    1.20   10.50
  -1  12   0   -1.30   11.60
  -1  12   0    3.80   12.30
   0 -12   0   11.60    9.20
   0 -12   0    5.40   11.90
   0  12   0   19.50   13.10
   0  12   0   16.90   11.80
  -1 -12   0   12.50   13.10
  -1 -12   0   22.00    9.70
  -1 -12   0   23.10   13.30
   1  12   0   21.00   14.00
   1  12   0   10.80   13.90
   3 -13   0   43.20   15.00
   2 -13   0  -11.30   13.20
   2 -13   0  -11.70   11.00
   2 -13   0    4.20   13.00
  -2  13   0    3.60   18.30
   1 -13   0    9.10   10.90
  -1  13  -1    1.90   19.60
  -1  13  -1   42.10   15.60
   1 -13   1   35.90   13.70
   1 -13   1   12.40   14.00
   1 -13   1   15.90   11.50
  -2  13  -1   11.00   14.10
  -2  13  -1   19.80   20.70
   2 -13   1   -7.80   10.90
   2 -13   1   26.50   11.70
   2 -13   1   34.00   13.30
  -3  13  -1   15.10   14.60
   3 -13   1   11.70   12.30
   3 -13   1    3.60   11.90
   2  12  -1   18.70   15.10
  -2 -12   1   24.90   12.40
   1  12  -1   29.00   13.40
   1  12  -1   13.50   13.90
  -1 -12   1   21.10   12.30
  -1 -12   1   27.30   10.40
  -1 -12   1    7.80   19.60
   0  12  -1    5.40   11.50
   0  12  -1   -0.60   12.70
   0 -12   1    3.40   10.10
   0 -12   1   -2.10    9.90
   0 -12   1    0.30    8.60
  -1  12  -1   15.30   11.80
  -1  12  -1    8.10   15.40
   1 -12   1    2.30    9.40
   1 -12   1    7.00   10.40
   1 -12   1    0.90    8.40
  -2  12  -1   80.29   14.50
  -2  12  -1   29.90   17.20
   2 -12   1   18.60   11.70
   2 -12   1   44.60   12.20
   2 -12   1   44.80   13.60
  -3  12  -1   -0.90   17.80
  -3  12  -1   62.79   13.90
   3 -12   1   44.30   12.60
   3 -12   1   41.30   11.70
   3 -12   1   31.90   12.70
  -4  12  -1   66.09   16.40
  -4  12  -1   20.30   20.80
   4 -12   1   58.79   13.10
   4 -12   1   58.59   14.10
   4 -12   1   37.70   15.10
  -5  12  -1   37.90   20.00
  -5  12  -1   39.30   16.60
   5 -12   1   40.30   12.00
   5 -12   1   50.99   14.60
   5 -12   1    2.30   14.20
   5 -12   1   38.90   13.80
   3  11  -1   -9.20   14.00
   3  11  -1  -16.10   13.10
  -3 -11   1    1.10   11.60
  -3 -11   1    8.10   13.70
  -3 -11   1   -6.60    9.40
   2  11  -1   29.10   12.40
   2  11  -1   33.80   13.30
  -2 -11   1    9.40   12.40
  -2 -11   1   19.50   10.80
  -2 -11   1   19.10    8.90
   1  11  -1   56.19   17.40
   1  11  -1  110.09   18.30
  -1 -11   1  108.79   16.20
  -1 -11   1   64.89   16.70
  -1 -11   1   66.09   16.80
   0  11  -1   -1.10    8.80
   0  11  -1    7.40   10.00
   0 -11   1    8.70    8.80
   0 -11   1   10.10    7.30
   0 -11   1    6.80    8.60
  -1  11  -1   10.20    9.30
  -1  11  -1    9.30   12.80
  -1  11  -1   11.20   10.50
   1 -11   1   12.80    7.50
   1 -11   1    3.10    8.10
   1 -11   1   19.20    8.90
  -2  11  -1   22.10   10.70
  -2  11  -1    8.60   13.50
   2 -11   1   44.80    9.60
   2 -11   1   30.10   10.40
   2 -11   1   20.60    9.30
  -3  11  -1  380.86   51.69
   3 -11   1  256.37   51.09
   3 -11   1  283.87   51.09
   3 -11   1  280.47   50.79
  -4  11  -1   29.70   10.40
  -4  11  -1    6.40   15.50
   4 -11   1    9.40    7.60
   4 -11   1    6.40    9.20
   4 -11   1    8.50   10.50
   4 -11   1    5.70   10.10
  -5  11  -1   15.50   14.90
  -5  11  -1   49.99   14.30
   5 -11   1   24.70   12.90
   5 -11   1   36.80   12.50
   5 -11   1   33.20   11.70
  -6  11  -1   21.00   15.00
  -6  11  -1   29.90   25.70
   6 -11   1   26.30   10.80
   6 -11   1    4.50   12.90
   6 -11   1   13.00   13.70
   6 -11   1   39.90   12.80
   4  10  -1  -15.90   11.60
   4  10  -1    2.10   11.70
   4  10  -1    7.90   12.90
  -4 -10   1    1.80   11.70
  -4 -10   1  -10.40   15.10
  -4 -10   1    4.50    9.20
   3  10  -1   21.80   11.80
   3  10  -1   15.20   10.60
   3  10  -1    4.40   10.70
  -3 -10   1    8.00    7.80
  -3 -10   1   -3.70   11.00
  -3 -10   1    5.90    9.50
   2  10  -1   78.69   19.60
   2  10  -1  121.79   20.10
  -2 -10   1  104.09   18.00
  -2 -10   1  108.39   19.40
  -2 -10   1   61.99   19.40
   1  10  -1    7.60    8.40
   1  10  -1    5.80    8.20
  -1 -10   1   -5.90    8.30
  -1 -10   1    8.70    6.30
  -1 -10   1    3.10    7.50
   0  10  -1   31.30   10.00
   0  10  -1   28.70   10.80
   0  10  -1   39.20   10.00
   0 -10   1   41.40   10.00
   0 -10   1   37.70    9.90
   0 -10   1   28.90    8.60
  -1  10  -1   42.90   11.10
  -1  10  -1   50.49   11.40
  -1  10  -1   58.29   11.00
   1 -10   1   30.30    9.90
   1 -10   1   71.29   11.40
   1 -10   1   24.50   10.30
  -2  10  -1   72.69   19.70
  -2  10  -1  109.99   18.60
   2 -10   1   95.39   18.30
   2 -10   1   77.79   17.90
   2 -10   1  113.49   18.70
   2 -10   1  103.29   17.90
  -3  10  -1   19.60   12.10
  -3  10  -1   -5.90    7.70
   3 -10   1   -0.90    6.50
   3 -10   1   -5.70    7.80
   3 -10   1   -2.80    7.20
   3 -10   1   -0.80    7.90
  -4  10  -1   -2.50   13.40
  -4  10  -1   19.20    9.30
   4 -10   1   -2.90    8.40
   4 -10   1   10.80    6.40
   4 -10   1   -3.20    7.20
   4 -10   1    7.90    8.50
   4 -10   1    4.10    8.30
  -5  10  -1   20.20   10.80
  -5  10  -1   15.20   12.00
   5 -10   1   11.90    9.60
   5 -10   1   22.60   10.00
   5 -10   1    8.30   10.10
   5 -10   1   16.90    7.80
  -6  10  -1   18.00   17.30
  -6  10  -1   51.69   16.10
   6 -10   1   61.59   14.20
   6 -10   1   62.99   17.80
   6 -10   1   65.79   13.30
   6 -10   1   58.29   14.60
   5   9  -1   45.20   15.60
   5   9  -1   45.90   14.20
  -5  -9   1   21.80   11.10
   4   9  -1    4.80   10.00
   4   9  -1   10.70   10.10
   4   9  -1   -9.10    9.90
  -4  -9   1   18.40   10.10
  -4  -9   1   17.20    7.80
  -4  -9   1    1.90   10.80
  -4  -9   1   -5.20   11.10
   3   9  -1   -6.80    8.60
   3   9  -1   11.70    8.20
   3   9  -1    7.30    8.10
  -3  -9   1    0.10    6.30
  -3  -9   1   11.30   10.50
  -3  -9   1    4.20    8.70
   2   9  -1   32.50    9.40
   2   9  -1   30.70    9.50
  -2  -9   1   32.50    7.90
  -2  -9   1   25.40    9.10
  -2  -9   1   29.50   10.10
   1   9  -1   -4.90    6.30
  -1  -9   1    1.90   10.40
  -1  -9   1   -2.30    6.40
  -1  -9   1    2.50    4.90
  -1  -9   1    2.00    5.70
   0   9  -1   99.89   18.40
   0   9  -1   92.79   17.70
   0   9  -1  126.19   18.50
   0  -9   1  102.59   17.50
   0  -9   1   96.19   18.40
   0  -9   1   70.99   17.70
   0  -9   1   92.69   19.00
   0  -9   1  101.19   18.40
  -1   9  -1  101.89   15.30
  -1   9  -1   87.39   14.70
  -1   9  -1   87.19   15.60
   1  -9   1   61.79   13.70
   1  -9   1   43.00   14.00
   1  -9   1   57.49   15.40
   1  -9   1   92.89   14.80
   1  -9   1   83.59   14.50
  -2   9  -1   10.10    6.20
  -2   9  -1    8.50    9.20
  -2   9  -1    5.20    9.10
  -2   9  -1   26.40    6.90
   2  -9   1    3.40    5.00
   2  -9   1    4.50    5.50
   2  -9   1    5.30    6.30
   2  -9   1    1.00    6.50
   2  -9   1   -3.20    9.00
  -3   9  -1   52.39   10.40
  -3   9  -1   18.20   11.30
   3  -9   1   51.99    9.90
   3  -9   1   43.70   12.20
   3  -9   1   47.00   10.10
   3  -9   1   28.80    9.60
  -4   9  -1    1.00    9.00
  -4   9  -1    7.90    7.50
   4  -9   1   -3.80    7.30
   4  -9   1   -1.50    6.90
   4  -9   1    3.70    6.80
   4  -9   1   -0.10    5.30
  -5   9  -1   64.29   20.30
  -5   9  -1  128.69   20.60
   5  -9   1   92.99   20.00
   5  -9   1  117.09   19.00
   5  -9   1   99.79   19.90
   5  -9   1  116.19   19.90
  -6   9  -1    6.10   12.80
  -6   9  -1   -3.50    9.70
   6  -9   1    0.00    9.80
   6  -9   1    6.00    9.50
   6  -9   1   13.00    7.30
   6  -9   1   12.70    9.40
  -7   9  -1   35.30   15.80
  -7   9  -1   17.80   19.00
   7  -9   1   48.40   11.60
   7  -9   1   37.40   13.60
   7  -9   1   43.00   14.50
   7  -9   1   23.60   14.10
   5   8  -1    7.50   11.40
   5   8  -1    7.70   10.60
   5   8  -1    9.90   11.60
  -5  -8   1   13.50   10.90
  -5  -8   1   -5.90   11.20
  -5  -8   1   16.90    8.40
  -5  -8   1    3.10   11.40
   4   8  -1   28.70    9.90
   4   8  -1   24.10    9.80
   4   8  -1   23.30   10.50
  -4  -8   1   21.10   12.60
  -4  -8   1   20.60    9.10
  -4  -8   1    4.90   10.30
  -4  -8   1   22.30    7.60
   3   8  -1   44.30   10.90
   3   8  -1   38.70   11.00
  -3  -8   1   70.79   12.30
  -3  -8   1   48.90    9.70
  -3  -8   1   34.80   10.90
   2   8  -1   64.29   11.60
   2   8  -1   38.30   11.60
   2   8  -1   49.70   11.70
  -2  -8   1   72.29   13.90
  -2  -8   1   62.69   10.80
  -2  -8   1   50.39   12.20
   1   8  -1  141.99   23.30
   1   8  -1  127.39   22.70
   1   8  -1  125.39   22.80
   1   8  -1  115.59   23.90
  -1  -8   1  135.29   23.80
  -1  -8   1  151.08   22.30
  -1  -8   1  154.08   23.20
  -1  -8   1  103.29   22.40
  -1  -8   1   99.19   22.80
   0   8  -1  109.69   25.00
   0   8  -1  177.88   25.10
   0   8  -1  144.49   26.20
   0   8  -1  152.78   25.70
   0   8  -1  132.69   25.30
   0  -8   1  142.79   25.70
   0  -8   1  132.39   25.20
   0  -8   1  186.38   26.20
   0  -8   1  152.18   25.40
   0  -8   1  137.69   25.40
   0  -8   1  134.29   24.80
  -1   8  -1    6.70    5.10
  -1   8  -1    9.60    6.20
  -1   8  -1    5.10    4.80
  -1   8  -1    4.70    8.00
   1  -8   1    8.80    5.00
   1  -8   1    3.50    4.40
   1  -8   1    7.00    4.80
   1  -8   1    3.50    6.60
   1  -8   1   12.70    7.00
   1  -8   1   14.60    5.20
  -2   8  -1   59.09   12.50
  -2   8  -1   73.19   12.20
  -2   8  -1   58.59   13.00
  -2   8  -1   66.99   13.00
  -2   8  -1   47.50   11.80
   2  -8   1   55.29   12.90
   2  -8   1   56.79   12.00
   2  -8   1   61.99   11.70
   2  -8   1   55.09   11.50
   2  -8   1   66.49   12.10
   2  -8   1   73.49   13.20
  -3   8  -1  361.36   65.89
  -3   8  -1  352.16   65.39
  -3   8  -1  382.56   65.39
  -3   8  -1  367.06   65.59
  -3   8  -1  428.36   65.89
   3  -8   1  385.46   65.39
   3  -8   1  392.76   66.39
   3  -8   1  367.66   64.99
   3  -8   1  383.66   65.19
   3  -8   1  413.06   65.99
   3  -8   1  394.86   65.49
  -4   8  -1   66.49   12.20
  -4   8  -1   22.60   12.30
   4  -8   1   53.29   10.80
   4  -8   1   74.09   13.70
   4  -8   1   77.19   11.90
   4  -8   1   58.79   12.10
   4  -8   1   44.20   11.60
  -5   8  -1    0.00    9.70
  -5   8  -1   13.50    7.50
   5  -8   1   -6.70    7.00
   5  -8   1   -3.10    6.60
   5  -8   1   -1.80    5.10
   5  -8   1   11.70    7.40
  -6   8  -1    2.20    8.80
  -6   8  -1    1.00   11.10
   6  -8   1    1.00    8.80
   6  -8   1    0.30    8.30
   6  -8   1    2.50    6.20
   6  -8   1   -0.20    8.40
  -7   8  -1   94.69   27.00
  -7   8  -1  125.39   24.90
   7  -8   1  135.89   23.70
   7  -8   1  140.39   24.40
   7  -8   1  126.59   22.90
   7  -8   1  104.39   23.90
   6   7  -1    3.80   11.60
   6   7  -1   16.10   12.60
   6   7  -1   10.00   14.80
  -6  -7   1  -16.20   13.60
  -6  -7   1   25.50   12.50
  -6  -7   1   -0.60    9.30
   5   7  -1   -0.80    9.00
   5   7  -1   -5.50    9.10
   5   7  -1   -0.20   10.00
  -5  -7   1   11.10    9.90
  -5  -7   1    0.90    9.10
  -5  -7   1   -1.60    7.00
  -5  -7   1    1.80    8.90
   4   7  -1   16.60    7.80
   4   7  -1   10.00    7.20
   4   7  -1    7.20    7.90
  -4  -7   1    3.30    5.30
  -4  -7   1    5.20    7.10
  -4  -7   1   -3.30    8.30
  -4  -7   1    2.20    6.80
   3   7  -1  284.57   44.20
   3   7  -1  264.77   44.10
   3   7  -1  229.28   44.00
  -3  -7   1  282.47   44.40
  -3  -7   1  263.67   43.60
  -3  -7   1  228.98   44.10
  -3  -7   1  236.38   44.50
   2   7  -1  132.59   22.20
   2   7  -1  147.99   22.70
   2   7  -1  160.38   24.20
   2   7  -1  111.49   22.10
   2   7  -1  121.39   22.90
  -2  -7   1  130.69   22.50
  -2  -7   1  126.79   22.90
  -2  -7   1  144.79   22.80
  -2  -7   1  124.19   22.50
  -2  -7   1  107.69   22.50
  -2  -7   1  104.99   21.70
   1   7  -1  142.39   29.00
   1   7  -1  169.18   29.50
   1   7  -1  166.08   29.80
   1   7  -1  144.89   29.20
   1   7  -1  183.18   29.50
  -1  -7   1  195.08   29.60
  -1  -7   1  190.48   29.40
  -1  -7   1  174.38   29.40
  -1  -7   1  172.78   29.50
  -1  -7   1  163.98   29.00
   0   7  -1   93.09   17.10
   0   7  -1   95.19   17.20
   0   7  -1  118.19   17.90
   0   7  -1   77.59   17.20
   0   7  -1   81.39   16.80
   0  -7   1   97.09   16.80
   0  -7   1   98.29   17.30
   0  -7   1   87.49   17.00
   0  -7   1  103.59   17.30
   0  -7   1  123.89   17.80
   0  -7   1   96.49   17.30
  -1   7  -1  187.18   31.80
  -1   7  -1  212.38   31.90
  -1   7  -1  201.08   31.50
  -1   7  -1  172.08   31.90
  -1   7  -1  183.88   31.70
   1  -7   1  192.28   31.80
   1  -7   1  189.68   31.60
   1  -7   1  173.38   31.50
   1  -7   1  179.18   31.90
   1  -7   1  164.88   31.40
   1  -7   1  164.28   31.60
  -2   7  -1  136.69   21.30
  -2   7  -1  118.99   21.70
  -2   7  -1  115.49   21.10
  -2   7  -1  111.19   21.50
  -2   7  -1  135.59   21.70
   2  -7   1   91.89   21.10
   2  -7   1  111.89   21.00
   2  -7   1  132.49   21.60
   2  -7   1  127.99   21.90
   2  -7   1  136.59   21.50
  -3   7  -1   76.39   15.20
  -3   7  -1   94.29   15.10
  -3   7  -1   68.39   16.00
  -3   7  -1   84.99   15.50
  -3   7  -1   77.69   14.80
   3  -7   1   83.09   14.20
   3  -7   1   51.69   14.40
   3  -7   1  102.39   14.80
   3  -7   1   82.19   15.10
   3  -7   1   93.79   16.10
   3  -7   1   72.59   14.60
  -4   7  -1  396.36   69.19
  -4   7  -1  387.16   69.49
  -4   7  -1  397.26   69.19
  -4   7  -1  401.36   69.49
  -4   7  -1  399.46   69.49
   4  -7   1  398.26   69.19
   4  -7   1  457.85   69.09
   4  -7   1  402.36   69.09
   4  -7   1  376.36   70.19
   4  -7   1  420.86   68.69
   4  -7   1  400.56   69.49
  -5   7  -1   56.59   12.00
  -5   7  -1   59.59   11.10
   5  -7   1   32.70   10.10
   5  -7   1   50.79   12.60
   5  -7   1   26.60   10.50
   5  -7   1   59.19   13.70
   5  -7   1   45.90    9.30
  -6   7  -1    0.60    9.90
  -6   7  -1   -0.60   10.20
   6  -7   1    6.40    7.60
   6  -7   1    6.20    6.00
   6  -7   1   12.40    8.20
   6  -7   1   10.80    8.10
  -7   7  -1   45.80   17.00
  -7   7  -1   24.30   12.90
   7  -7   1   45.90   12.50
   7  -7   1   42.60   11.80
   7  -7   1   29.50   12.20
   7  -7   1   38.50   12.00
  -8   7  -1    2.80   19.40
   8  -7   1    6.80   13.10
   8  -7   1   17.00   10.80
   8  -7   1   10.10   13.20
   8  -7   1   -0.90   11.40
   6   6  -1  146.59   24.40
   6   6  -1  152.18   24.00
   6   6  -1  121.19   24.10
  -6  -6   1  146.99   24.60
  -6  -6   1   30.10   24.70
   5   6  -1  904.71  149.49
   5   6  -1  811.52  149.49
   5   6  -1  874.21  149.69
  -5  -6   1  914.21  149.69
  -5  -6   1  836.72  148.99
  -5  -6   1  970.00  149.39
   4   6  -1    7.90    6.80
   4   6  -1   17.70    7.00
   4   6  -1    6.90   10.00
  -4  -6   1   11.90    6.70
  -4  -6   1   17.30    5.40
  -4  -6   1   10.80    6.20
   3   6  -1    0.40    8.70
   3   6  -1   20.60    8.80
   3   6  -1   10.10    6.00
   3   6  -1    9.10    6.00
   3   6  -1   12.60    5.80
  -3  -6   1   -3.00   10.80
  -3  -6   1    7.30    4.30
  -3  -6   1   16.00    5.70
  -3  -6   1    7.20    6.20
  -3  -6   1   16.20    6.90
  -3  -6   1   10.40    7.80
   2   6  -1   33.60    7.00
   2   6  -1   27.20    9.00
   2   6  -1   31.30    6.70
   2   6  -1   30.20    6.90
   2   6  -1   39.00    8.50
  -2  -6   1   27.90    7.30
  -2  -6   1   27.40    7.30
  -2  -6   1   33.90    7.80
  -2  -6   1   28.20    7.00
  -2  -6   1   14.30    5.80
  -2  -6   1   27.40    6.70
   1   6  -1  398.16   67.09
   1   6  -1  379.66   67.29
   1   6  -1  402.06   67.09
   1   6  -1  364.46   66.89
   1   6  -1  425.96   67.19
  -1  -6   1  383.66   66.99
  -1  -6   1  399.36   66.79
  -1  -6   1  401.46   67.19
  -1  -6   1  419.26   67.09
  -1  -6   1  386.96   67.29
  -1  -6   1  381.56   67.09
   0   6  -1  356.66   56.59
   0   6  -1  309.87   56.69
   0   6  -1  347.87   56.49
   0   6  -1  337.27   56.69
   0   6  -1  323.87   56.69
   0  -6   1  332.87   56.39
   0  -6   1  366.66   56.69
   0  -6   1  324.17   56.59
   0  -6   1  326.37   56.69
   0  -6   1  329.47   56.69
   0  -6   1  313.97   56.79
  -1   6  -1 3246.98  532.85
  -1   6  -1 3124.39  532.95
  -1   6  -1 3129.19  532.95
  -1   6  -1 2996.30  532.85
   1  -6   1 3196.28  532.95
   1  -6   1 3174.58  532.95
   1  -6   1 3352.56  532.95
   1  -6   1 3162.68  532.85
   1  -6   1 3201.68  532.85
   1  -6   1 3104.19  532.95
  -2   6  -1  660.53  119.89
  -2   6  -1  723.03  119.99
  -2   6  -1  713.53  119.99
  -2   6  -1  690.83  119.99
  -2   6  -1  711.13  119.99
   2  -6   1  736.23  119.99
   2  -6   1  667.63  119.99
   2  -6   1  749.73  119.89
   2  -6   1  752.02  120.09
  -3   6  -1   21.80    6.60
  -3   6  -1   33.10    6.80
  -3   6  -1   37.20    6.60
  -3   6  -1   17.80    6.30
  -3   6  -1   37.60    7.70
   3  -6   1   21.50    5.50
   3  -6   1   20.20    6.00
   3  -6   1   14.70    5.90
   3  -6   1   27.90    6.10
   3  -6   1   37.40    8.10
   3  -6   1   36.40    7.10
  -4   6  -1    7.90    6.50
  -4   6  -1    8.40    5.90
  -4   6  -1   11.10    5.10
  -4   6  -1    2.50    6.20
  -4   6  -1   13.70    5.70
   4  -6   1    0.70    6.50
   4  -6   1   -0.80    3.40
   4  -6   1   -2.10    4.50
   4  -6   1   -1.50    4.70
   4  -6   1   -3.10    4.60
   4  -6   1    2.30    8.70
  -5   6  -1   16.70    8.90
  -5   6  -1   25.50    7.40
  -5   6  -1   24.30    9.30
   5  -6   1    8.50    6.50
   5  -6   1   29.00    6.80
   5  -6   1   15.90    5.60
   5  -6   1   29.30    9.80
   5  -6   1   13.40    6.80
  -6   6  -1   23.10   12.40
  -6   6  -1   19.20    9.20
   6  -6   1   25.30    8.70
   6  -6   1   25.30    7.50
   6  -6   1   42.80    9.20
   6  -6   1   16.20    8.20
  -7   6  -1  156.08   29.30
  -7   6  -1  137.79   30.60
   7  -6   1  148.89   28.80
   7  -6   1  159.78   28.90
   7  -6   1  179.38   28.30
   7  -6   1  150.88   28.90
  -8   6  -1   10.60   13.70
  -8   6  -1  -17.50   16.70
   8  -6   1   -6.10    9.80
   8  -6   1    5.80   11.00
   8  -6   1   -7.30   11.90
   8  -6   1    6.90   13.10
   7   5  -1    8.50   11.80
   7   5  -1   -4.80   11.10
   7   5  -1   10.80   11.90
  -7  -5   1    6.20   12.30
  -7  -5   1  -11.40   17.40
   6   5  -1  127.99   22.90
   6   5  -1  138.19   22.50
   6   5  -1  141.69   22.70
  -6  -5   1  117.09   25.00
  -6  -5   1  115.99   22.20
  -6  -5   1   47.70   22.50
   5   5  -1    7.80    6.70
   5   5  -1    8.90    7.30
  -5  -5   1    4.10    7.10
  -5  -5   1   11.50    8.40
  -5  -5   1    5.00    6.50
   4   5  -1  141.59   22.20
   4   5  -1  139.09   22.10
   4   5  -1  107.29   21.60
   4   5  -1  111.19   23.30
   4   5  -1  124.09   23.00
  -4  -5   1  151.78   21.60
  -4  -5   1  113.39   21.80
  -4  -5   1   84.59   22.00
  -4  -5   1  112.99   22.70
   3   5  -1    4.50    4.40
   3   5  -1   20.10    7.80
   3   5  -1    0.40    4.80
   3   5  -1   -0.90    6.90
   3   5  -1   15.30    5.20
  -3  -5   1    8.60    5.90
  -3  -5   1    0.40    6.00
  -3  -5   1   10.10    3.60
  -3  -5   1    9.60    4.50
  -3  -5   1    5.80    5.00
  -3  -5   1    6.20    6.70
   2   5  -1   76.19   14.70
   2   5  -1  105.89   16.10
   2   5  -1   75.89   14.60
   2   5  -1   92.29   15.00
   2   5  -1   87.09   15.20
  -2  -5   1   82.49   14.90
  -2  -5   1   87.19   14.30
  -2  -5   1   85.19   14.80
  -2  -5   1   65.29   14.90
  -2  -5   1   78.49   14.70
  -2  -5   1   74.69   14.90
   1   5  -1  307.87   54.79
   1   5  -1  341.67   54.99
   1   5  -1  328.57   54.69
   1   5  -1  328.07   54.79
   1   5  -1  292.97   54.69
  -1  -5   1  337.47   54.89
  -1  -5   1  306.87   54.79
  -1  -5   1  318.37   54.49
  -1  -5   1  345.27   54.89
  -1  -5   1  302.47   54.79
  -1  -5   1  351.86   54.79
   0   5  -1  588.94  101.79
   0   5  -1  649.43  101.99
   0   5  -1  605.24  101.99
   0   5  -1  630.34  101.99
   0   5  -1  588.84  101.99
   0  -5   1  633.14  101.99
   0  -5   1  592.84  101.89
   0  -5   1  581.14  101.99
   0  -5   1  574.54  101.79
  -1   5  -1  330.07   54.59
  -1   5  -1  313.37   54.59
  -1   5  -1  308.17   54.59
  -1   5  -1  321.57   54.39
  -1   5  -1  331.17   54.59
   1  -5   1  317.47   54.59
   1  -5   1  328.87   54.49
   1  -5   1  315.67   54.59
   1  -5   1  331.17   54.69
  -2   5  -1   17.90    5.20
  -2   5  -1   12.90    4.10
  -2   5  -1   10.60    4.10
  -2   5  -1   16.90    4.20
  -2   5  -1   13.60    4.30
   2  -5   1   14.80    4.80
   2  -5   1   19.50    4.90
   2  -5   1    6.50    3.60
   2  -5   1   20.90    4.50
   2  -5   1    8.50    3.90
  -3   5  -1  164.08   26.80
  -3   5  -1  176.68   27.10
  -3   5  -1  180.38   27.10
  -3   5  -1  131.89   26.70
  -3   5  -1  191.68   27.40
   3  -5   1  134.89   26.80
   3  -5   1  134.19   27.10
   3  -5   1  154.08   26.60
   3  -5   1  135.29   26.80
   3  -5   1  178.48   27.10
   3  -5   1  160.38   26.80
  -4   5  -1   25.30    6.90
  -4   5  -1   41.70    7.70
  -4   5  -1   27.40    6.60
  -4   5  -1   29.30    7.50
   4  -5   1   28.70    5.90
   4  -5   1   19.80    7.50
   4  -5   1   31.00    8.90
   4  -5   1   28.00    6.50
   4  -5   1   12.40    6.10
   4  -5   1   30.30    7.00
  -5   5  -1  283.67   47.50
  -5   5  -1  272.67   47.40
  -5   5  -1  280.07   47.50
  -5   5  -1  295.67   47.40
  -5   5  -1  289.07   47.80
  -5   5  -1  287.97   47.20
   5  -5   1  261.87   46.90
   5  -5   1  295.77   47.60
   5  -5   1  245.28   48.10
   5  -5   1  266.17   47.20
   5  -5   1  254.57   47.50
   5  -5   1  267.27   47.30
  -6   5  -1  101.39   17.10
  -6   5  -1   40.00   19.70
  -6   5  -1   81.99   17.10
   6  -5   1   96.39   16.80
   6  -5   1  127.29   19.80
   6  -5   1   82.49   16.70
   6  -5   1   93.89   17.00
   6  -5   1   77.89   16.20
  -7   5  -1   20.20   10.80
  -7   5  -1    4.10   13.00
   7  -5   1   11.60    8.40
   7  -5   1   15.50    7.80
   7  -5   1    9.80    8.70
   7  -5   1    8.70    9.80
  -8   5  -1   19.70   17.40
  -8   5  -1   29.50   14.00
   8  -5   1   31.40   18.70
   8  -5   1   42.40   13.30
   8  -5   1   54.89   11.80
   8  -5   1   18.50   14.30
   7   4  -1   77.49   14.60
   7   4  -1   45.90   15.50
   7   4  -1   57.89   14.90
  -7  -4   1   11.80   15.30
  -7  -4   1   67.69   15.20
   6   4  -1   11.40    8.40
   6   4  -1    0.30    7.40
   6   4  -1   -1.90    7.20
  -6  -4   1    6.40    8.90
  -6  -4   1   -3.80    8.10
  -6  -4   1    0.00    9.90
   5   4  -1   -3.60    5.60
   5   4  -1   -3.90    6.20
   5   4  -1   -1.00    6.20
  -5  -4   1  -12.90    6.90
  -5  -4   1   -2.40    5.90
  -5  -4   1    8.00    7.30
   4   4  -1   71.99   14.80
   4   4  -1   73.19   14.00
   4   4  -1   49.99   15.00
   4   4  -1   59.59   13.60
   4   4  -1   80.79   13.80
  -4  -4   1   51.29   13.60
  -4  -4   1   77.09   13.40
  -4  -4   1   91.99   14.10
  -4  -4   1   82.59   14.70
  -4  -4   1   83.89   14.70
  -4  -4   1   74.29   14.10
   3   4  -1   25.80    8.50
   3   4  -1   56.79    9.90
   3   4  -1   38.60    8.80
   3   4  -1   72.59   10.50
   3   4  -1   56.39    9.10
  -3  -4   1   45.40    9.00
  -3  -4   1   44.10    9.30
  -3  -4   1   56.79    9.50
  -3  -4   1   38.90    8.60
  -3  -4   1   42.40    9.30
   2   4  -1 2664.13  465.25
   2   4  -1 2726.33  465.25
   2   4  -1 2772.92  465.25
   2   4  -1 2783.72  465.25
   2   4  -1 2843.52  465.25
  -2  -4   1 2912.11  465.25
  -2  -4   1 2706.73  465.25
  -2  -4   1 2747.12  465.25
  -2  -4   1 2692.63  465.25
  -2  -4   1 2818.62  465.15
  -2  -4   1 2765.52  465.25
   1   4  -1  648.44  108.89
   1   4  -1  691.23  108.89
   1   4  -1  628.94  108.79
   1   4  -1  632.04  108.89
  -1  -4   1  617.74  108.89
  -1  -4   1  616.24  108.69
  -1  -4   1  649.93  108.79
  -1  -4   1  642.44  108.89
  -1  -4   1  670.53  108.89
  -1  -4   1  665.43  108.89
   0   4  -1  995.10  170.28
   0   4  -1  944.51  170.28
   0   4  -1 1033.10  170.18
   0   4  -1 1045.70  170.28
   0   4  -1  985.80  170.28
   0  -4   1  978.90  170.28
   0  -4   1 1019.80  170.18
   0  -4   1 1046.30  170.28
   0  -4   1 1033.80  170.28
   0  -4   1 1059.59  170.28
   0  -4   1  989.40  170.28
  -1   4  -1  504.85   85.99
  -1   4  -1  517.65   86.09
  -1   4  -1  497.05   86.09
  -1   4  -1  497.85   85.99
  -1   4  -1  515.95   86.09
   1  -4   1  478.75   85.99
   1  -4   1  530.85   86.09
   1  -4   1  543.85   86.09
   1  -4   1  514.85   85.99
   1  -4   1  502.15   85.99
  -2   4  -1  802.12  134.89
  -2   4  -1  805.62  134.89
  -2   4  -1  771.62  134.79
  -2   4  -1  844.62  134.89
   2  -4   1  776.12  134.79
   2  -4   1  786.52  134.89
   2  -4   1  780.62  134.89
   2  -4   1  803.92  134.89
   2  -4   1  818.32  134.89
   2  -4   1  820.32  134.89
  -3   4  -1 1272.77  217.28
  -3   4  -1 1296.17  217.28
  -3   4  -1 1283.77  217.28
  -3   4  -1 1230.98  217.28
  -3   4  -1 1291.67  217.28
   3  -4   1 1311.77  217.28
   3  -4   1 1302.07  217.28
   3  -4   1 1304.67  217.28
   3  -4   1 1253.77  217.28
   3  -4   1 1320.97  217.38
   3  -4   1 1328.87  217.18
  -4   4  -1  231.38   40.90
  -4   4  -1  221.78   40.50
  -4   4  -1  220.58   40.70
  -4   4  -1  244.08   41.00
  -4   4  -1  207.98   40.90
  -4   4  -1  246.08   40.70
   4  -4   1  230.18   40.60
   4  -4   1  250.67   41.40
   4  -4   1  241.88   41.00
   4  -4   1  234.28   40.70
   4  -4   1  261.37   40.40
   4  -4   1  256.97   40.90
  -5   4  -1   20.80    8.30
  -5   4  -1   19.50    7.20
  -5   4  -1   28.90    6.30
  -5   4  -1    9.70    7.10
  -5   4  -1    3.30    5.40
  -5   4  -1   11.00    6.20
   5  -4   1   34.10    8.30
   5  -4   1   -1.10    5.30
   5  -4   1    5.30    5.50
   5  -4   1   15.50    4.80
   5  -4   1   16.40    9.70
   5  -4   1   18.10    5.40
  -6   4  -1    4.10    9.30
  -6   4  -1    4.80    7.70
  -6   4  -1    4.50    7.20
   6  -4   1   13.50   10.00
   6  -4   1   13.50    7.30
   6  -4   1    6.60    6.70
   6  -4   1   -0.30    6.60
   6  -4   1   14.70    5.60
  -7   4  -1   11.70    9.30
   7  -4   1   -5.90    8.50
   7  -4   1   17.40    9.00
   7  -4   1    3.30    7.70
  -8   4  -1    3.10   15.50
  -8   4  -1   10.50   13.50
   8  -4   1    5.80   11.10
   8  -4   1   -5.50    9.70
   8  -4   1   38.30   25.40
   8  -4   1    5.50    9.80
   8   3  -1   16.10   14.10
   8   3  -1   17.80   12.90
   7   3  -1   43.10   12.60
   7   3  -1   51.09   12.30
   7   3  -1   41.60   12.70
  -7  -3   1   26.10   14.10
   6   3  -1   10.80    6.90
   6   3  -1   16.80    8.20
   6   3  -1   -2.80    7.60
  -6  -3   1    4.90    8.50
  -6  -3   1    6.30    9.30
   5   3  -1   49.90    8.80
   5   3  -1   23.70    7.80
   5   3  -1   26.20    7.70
   5   3  -1   39.00   10.90
   5   3  -1    3.60   16.00
  -5  -3   1   33.70    8.10
  -5  -3   1   33.70    8.90
  -5  -3   1   22.40    8.60
  -5  -3   1   32.40    9.90
   4   3  -1  718.43  126.69
   4   3  -1  757.22  126.59
   4   3  -1  735.63  126.69
   4   3  -1  749.33  126.59
  -4  -3   1  741.13  126.39
  -4  -3   1  770.22  126.59
  -4  -3   1  740.03  126.69
  -4  -3   1  802.92  126.69
  -4  -3   1  735.43  126.79
   3   3  -1   69.19   12.70
   3   3  -1   69.39   12.90
   3   3  -1   53.49   12.20
   3   3  -1   75.49   12.40
   3   3  -1   66.19   12.60
  -3  -3   1   66.19   12.60
  -3  -3   1   79.29   12.60
  -3  -3   1   70.99   12.30
  -3  -3   1   72.89   12.90
  -3  -3   1   65.69   12.70
   2   3  -1   71.09   14.40
   2   3  -1   75.69   14.50
   2   3  -1  111.49   15.10
   2   3  -1  112.49   14.80
   2   3  -1   58.79   14.40
  -2  -3   1   89.59   14.70
  -2  -3   1  119.89   14.90
  -2  -3   1   69.29   14.40
  -2  -3   1   68.59   14.40
  -2  -3   1   97.29   14.70
   1   3  -1  618.04  105.49
   1   3  -1  619.64  105.49
   1   3  -1  637.84  105.49
   1   3  -1  637.54  105.49
  -1  -3   1  625.24  105.49
  -1  -3   1  603.24  105.49
  -1  -3   1  619.74  105.39
  -1  -3   1  623.64  105.49
  -1  -3   1  640.34  105.49
  -1  -3   1  639.14  105.49
   0   3  -1 3320.87  565.94
   0   3  -1 3448.75  565.84
   0   3  -1 3399.36  565.94
   0   3  -1 3369.46  565.94
   0   3  -1 3289.77  565.94
   0  -3   1 3398.16  565.94
   0  -3   1 3357.26  565.94
   0  -3   1 3314.57  565.94
   0  -3   1 3389.36  565.94
   0  -3   1 3397.06  565.84
   0  -3   1 3346.67  565.94
  -1   3  -1  236.58   41.90
  -1   3  -1  227.78   41.90
  -1   3  -1  237.08   41.90
  -1   3  -1  275.77   42.00
  -1   3  -1  268.77   41.90
   1  -3   1  251.67   41.90
   1  -3   1  252.87   42.00
   1  -3   1  228.98   41.90
   1  -3   1  264.17   42.00
   1  -3   1  239.78   41.90
  -2   3  -1   92.89   17.00
  -2   3  -1  102.39   17.10
  -2   3  -1  103.19   17.00
  -2   3  -1  136.79   17.40
  -2   3  -1   81.39   16.90
   2  -3   1  109.09   17.10
   2  -3   1   99.09   17.20
   2  -3   1   99.99   17.10
   2  -3   1  105.19   17.10
   2  -3   1   92.79   16.90
   2  -3   1   78.09   16.90
  -3   3  -1    9.40    3.30
  -3   3  -1    5.50    3.50
  -3   3  -1    3.40    3.10
  -3   3  -1    0.70    3.00
  -3   3  -1    2.70    2.60
  -3   3  -1    1.60    3.80
   3  -3   1    1.60    3.30
   3  -3   1    2.60    4.30
   3  -3   1    7.00    2.50
   3  -3   1    5.60    3.00
   3  -3   1   -1.30    3.70
   3  -3   1    6.40    2.90
  -4   3  -1    9.90    5.50
  -4   3  -1    6.50    4.50
  -4   3  -1    1.90    3.80
  -4   3  -1    3.50    3.50
  -4   3  -1   -0.80    4.50
  -4   3  -1   -1.70    3.90
   4  -3   1   -0.20    3.80
   4  -3   1    2.60    2.90
   4  -3   1   10.00    3.50
   4  -3   1    1.90    4.40
   4  -3   1   10.80    6.30
   4  -3   1    2.00    3.30
  -5   3  -1    5.30    6.20
  -5   3  -1    5.00    4.60
  -5   3  -1   -0.90    8.20
  -5   3  -1   10.40    5.50
  -5   3  -1   11.00    6.80
   5  -3   1   -7.80    9.10
   5  -3   1    2.50    5.20
   5  -3   1    9.30    4.00
   5  -3   1   -1.90    4.30
   5  -3   1   -1.60    4.20
   5  -3   1   12.90    7.20
  -6   3  -1   42.20   12.30
  -6   3  -1   33.10   10.80
  -6   3  -1   49.50   11.40
   6  -3   1   52.79   13.10
   6  -3   1   40.10   10.50
   6  -3   1   67.09   13.40
   6  -3   1   53.49   10.20
   6  -3   1   61.39   12.00
  -7   3  -1   88.79   16.20
  -7   3  -1   70.39   15.20
   7  -3   1   51.19   13.30
   7  -3   1   51.49   14.00
   7  -3   1   61.69   13.30
   7  -3   1   55.69   13.50
  -8   3  -1    8.50   14.80
  -8   3  -1   41.30   19.50
   8  -3   1   72.19   13.50
   8  -3   1   29.10   18.50
   8  -3   1   62.29   13.80
   8  -3   1   55.69   13.90
   8   2  -1   30.60   13.20
   8   2  -1   23.90   11.50
   8   2  -1   29.80   12.90
  -8  -2   1   -4.20   14.40
   7   2  -1   91.89   16.90
   7   2  -1  137.59   18.60
   7   2  -1   97.49   17.60
  -7  -2   1   36.90   19.70
  -7  -2   1   41.70   18.10
   6   2  -1   31.00    9.00
   6   2  -1   15.30    7.90
   6   2  -1   20.10    8.20
  -6  -2   1    6.50    8.80
  -6  -2   1   29.40   11.80
  -6  -2   1   10.30    8.10
   5   2  -1   -5.60    4.90
   5   2  -1    0.40    4.60
   5   2  -1   -0.90    8.00
   5   2  -1   -4.70    4.70
   5   2  -1   -1.70   10.30
  -5  -2   1   13.80    8.70
  -5  -2   1    5.60    6.10
  -5  -2   1    8.70    7.40
  -5  -2   1   -6.30    6.30
  -5  -2   1   -1.40    6.20
  -5  -2   1    9.60    5.40
   4   2  -1  117.39   17.50
   4   2  -1  117.19   17.50
   4   2  -1   99.09   17.70
   4   2  -1   81.89   17.00
   4   2  -1   74.29   17.90
  -4  -2   1   92.59   17.10
  -4  -2   1  122.69   17.60
  -4  -2   1   92.49   17.50
  -4  -2   1   83.59   17.30
  -4  -2   1  110.19   17.40
  -4  -2   1   79.79   17.90
   3   2  -1  995.00  171.48
   3   2  -1  989.60  171.38
   3   2  -1 1045.50  171.38
   3   2  -1 1019.80  171.48
   3   2  -1 1005.40  171.38
  -3  -2   1 1055.39  171.48
  -3  -2   1 1033.90  171.48
  -3  -2   1 1024.80  171.48
  -3  -2   1  976.30  171.48
  -3  -2   1 1028.60  171.38
   2   2  -1    3.50    2.60
   2   2  -1    0.70    2.00
   2   2  -1   -3.00    2.40
   2   2  -1    4.90    2.50
   2   2  -1    4.70    2.30
  -2  -2   1    7.30    3.60
  -2  -2   1    4.90    2.60
  -2  -2   1    0.60    2.30
  -2  -2   1    4.30    2.10
  -2  -2   1   -0.50    2.30
   1   2  -1 1000.70  168.38
   1   2  -1 1022.50  168.38
   1   2  -1 1041.50  168.38
   1   2  -1 1028.20  168.38
   1   2  -1  948.31  168.38
  -1  -2   1  976.10  168.38
  -1  -2   1  957.20  168.38
  -1  -2   1  993.10  168.38
  -1  -2   1 1007.60  168.38
  -1  -2   1 1036.00  168.38
  -1   2  -1   86.39   13.50
  -1   2  -1   78.09   13.40
   1  -2   1   78.69   13.40
   1  -2   1   76.09   13.40
   1  -2   1   75.99   13.40
   1  -2   1   78.39   13.40
   1  -2   1   81.09   13.40
   1  -2   1   69.69   13.40
  -2   2  -1 2905.91  475.45
  -2   2  -1 2858.01  475.45
  -2   2  -1 2851.51  475.55
  -2   2  -1 2849.01  475.55
  -2   2  -1 2854.51  475.55
  -2   2  -1 2789.92  475.55
   2  -2   1 2856.71  475.45
   2  -2   1 2755.92  475.55
   2  -2   1 2821.92  475.55
   2  -2   1 2800.42  475.55
   2  -2   1 2830.12  475.45
   2  -2   1 2766.52  475.55
  -3   2  -1   -3.60    2.70
  -3   2  -1   24.70    3.60
  -3   2  -1    1.10    2.60
  -3   2  -1    3.10    2.60
  -3   2  -1    2.20    3.30
  -3   2  -1    1.00    3.90
   3  -2   1   24.70    3.50
   3  -2   1    5.40    4.60
   3  -2   1    3.60    2.80
   3  -2   1    3.90    2.60
   3  -2   1   -2.20    3.10
   3  -2   1    3.30    2.60
  -4   2  -1  429.06   70.19
  -4   2  -1  406.06   69.89
  -4   2  -1  425.46   69.89
  -4   2  -1  374.56   69.99
  -4   2  -1  439.26   70.09
  -4   2  -1  449.36   70.19
   4  -2   1  388.26   69.79
   4  -2   1  423.36   69.89
   4  -2   1  407.16   70.09
   4  -2   1  415.76   69.99
   4  -2   1  395.76   70.29
   4  -2   1  406.86   69.99
  -5   2  -1  134.29   27.10
  -5   2  -1  164.28   27.40
  -5   2  -1  189.68   27.90
  -5   2  -1  149.19   27.20
   5  -2   1  149.19   27.70
   5  -2   1  169.48   27.10
   5  -2   1  142.59   28.50
   5  -2   1  142.79   27.30
   5  -2   1  158.38   27.30
   5  -2   1  167.68   27.20
  -6   2  -1  239.98   39.50
  -6   2  -1  212.38   39.40
  -6   2  -1  282.67   40.00
  -6   2  -1  262.97   40.10
   6  -2   1  166.38   41.30
   6  -2   1  244.98   40.30
   6  -2   1  221.48   39.60
   6  -2   1  201.88   39.10
   6  -2   1  208.68   39.20
  -7   2  -1   14.10   10.50
  -7   2  -1   -1.40   12.70
   7  -2   1    8.20    7.90
   7  -2   1    3.00    8.00
   7  -2   1   -3.50    7.70
   7  -2   1    2.50    7.50
  -8   2  -1   16.30   17.50
  -8   2  -1   -5.40   13.40
   8  -2   1   -6.90   10.30
   8  -2   1   -3.40   10.60
   8  -2   1   -4.40    9.90
   8   1  -1   22.70   17.70
   8   1  -1    8.50   12.00
   8   1  -1   -0.60   10.40
  -8  -1   1   -9.50   20.40
  -8  -1   1   12.60   14.00
   7   1  -1   -1.80    7.50
   7   1  -1    3.20    8.80
   7   1  -1    7.40    8.60
  -7  -1   1   13.00   14.70
  -7  -1   1    3.10   10.00
   6   1  -1  100.99   16.00
   6   1  -1   86.89   15.00
   6   1  -1   70.49   16.80
  -6  -1   1   42.80   15.50
  -6  -1   1   88.29   15.80
  -6  -1   1   89.89   18.40
   5   1  -1   17.90    6.60
   5   1  -1   27.50   13.40
   5   1  -1    8.10   10.20
   5   1  -1   22.50    6.20
   5   1  -1   18.50    5.70
  -5  -1   1   38.30    7.70
  -5  -1   1   24.90    8.00
  -5  -1   1    9.00    7.00
  -5  -1   1   17.10    6.50
  -5  -1   1   24.40    6.30
  -5  -1   1   28.10    8.40
   4   1  -1   40.00    8.10
   4   1  -1   41.60    9.90
   4   1  -1   34.10    8.60
   4   1  -1   56.79    8.10
   4   1  -1   52.19    8.40
  -4  -1   1   30.70    8.20
  -4  -1   1   37.00    8.10
  -4  -1   1   23.30    8.20
  -4  -1   1   51.79    8.80
  -4  -1   1   38.10    7.90
  -4  -1   1   39.80    9.00
   3   1  -1 1519.85  250.17
   3   1  -1 1480.25  250.27
   3   1  -1 1455.05  250.17
   3   1  -1 1486.65  250.17
   3   1  -1 1412.06  250.27
  -3  -1   1 1546.35  250.17
  -3  -1   1 1426.76  250.17
  -3  -1   1 1488.45  250.17
  -3  -1   1 1584.54  250.27
  -3  -1   1 1473.15  250.07
   2   1  -1   34.00    9.20
   2   1  -1   58.59    9.40
   2   1  -1   46.90    9.20
   2   1  -1   57.89    9.20
   2   1  -1   68.19    9.40
  -2  -1   1   61.39    9.40
  -2  -1   1   52.79    9.40
  -2  -1   1   57.89    9.40
  -2  -1   1   47.70    9.20
  -2  -1   1   42.40    9.10
  -2  -1   1   58.39    9.40
   1   1  -1    2.20    1.20
   1   1  -1   -0.40    1.20
   1   1  -1   -1.20    1.00
   1   1  -1    2.10    1.30
   1   1  -1   -0.30    1.00
  -1  -1   1    6.40    1.70
  -1  -1   1   -0.20    1.00
  -1  -1   1    2.40    1.40
  -1  -1   1    0.70    1.20
  -1  -1   1    0.00    1.20
   0   1  -1    0.20    0.50
   0   1  -1   -0.10    0.30
   0   1  -1    0.10    0.40
   0   1  -1    0.60    0.50
   0   1  -1    0.20    0.40
   0  -1   1   -1.00    0.50
   0  -1   1    0.30    0.60
   0  -1   1   -0.30    0.50
   0  -1   1   -0.40    0.50
   0  -1   1    0.50    0.60
   1  -1   1  372.06   57.99
   1  -1   1  348.47   57.99
   1  -1   1  335.07   57.99
   1  -1   1  319.37   57.99
   1  -1   1  349.57   57.99
  -2   1  -1  658.63  109.19
  -2   1  -1  645.14  109.19
  -2   1  -1  646.84  109.19
  -2   1  -1  627.54  109.19
  -2   1  -1  629.64  109.29
  -2   1  -1  622.14  109.19
   2  -1   1  667.03  109.19
   2  -1   1  671.63  109.29
   2  -1   1  640.44  109.19
   2  -1   1  650.03  109.19
   2  -1   1  662.63  109.29
   2  -1   1  661.83  109.19
  -3   1  -1   19.30    5.80
  -3   1  -1   32.50    5.60
  -3   1  -1   28.40    5.60
  -3   1  -1   22.80    5.30
  -3   1  -1   20.90    5.60
  -3   1  -1   34.50    5.40
   3  -1   1   33.50    5.60
   3  -1   1   32.00    5.60
   3  -1   1   19.10    5.70
   3  -1   1   37.50    6.50
   3  -1   1   28.30    5.50
   3  -1   1   24.10    5.60
  -4   1  -1  368.36   61.99
  -4   1  -1  354.66   61.99
  -4   1  -1  392.46   61.89
  -4   1  -1  369.16   61.69
  -4   1  -1  371.86   61.79
  -4   1  -1  367.76   61.99
   4  -1   1  364.76   61.69
   4  -1   1  332.47   61.79
   4  -1   1  367.46   61.99
   4  -1   1  337.97   62.19
   4  -1   1  348.97   61.69
   4  -1   1  396.96   61.99
  -5   1  -1   -4.20    6.40
  -5   1  -1    5.30    4.80
  -5   1  -1    1.00    6.80
  -5   1  -1    0.30    4.80
  -5   1  -1   -0.30    5.60
   5  -1   1    2.40    4.40
   5  -1   1   -4.00    4.30
   5  -1   1   -1.80    6.60
   5  -1   1  -10.90    8.90
   5  -1   1    5.10    4.40
   5  -1   1    7.80    5.30
  -6   1  -1   53.79   12.50
  -6   1  -1   93.99   14.70
  -6   1  -1   57.09   12.00
   6  -1   1   43.90   11.90
   6  -1   1   35.20   14.40
   6  -1   1   58.99   13.80
   6  -1   1   55.39   11.40
   6  -1   1   50.59   11.20
  -7   1  -1   -2.90   10.00
  -7   1  -1  -18.40   13.40
   7  -1   1   11.60    8.50
   7  -1   1    1.30    7.90
   7  -1   1   -3.30    7.80
   7  -1   1    5.50    8.50
  -8   1  -1  -11.60   19.70
  -8   1  -1  -33.40   16.60
   8  -1   1   22.10   11.60
   8  -1   1    2.70   10.80
   8  -1   1   12.30   11.40
   8   0  -1    5.60    9.80
   8   0  -1    3.20   11.20
   8   0  -1   -4.20   11.90
  -8   0   1    3.90   17.40
  -8   0   1    6.70   16.40
   7   0  -1   81.09   13.40
   7   0  -1   31.00   11.80
   7   0  -1   39.60   12.50
  -7   0   1   72.29   13.80
  -7   0   1   66.49   15.90
   6   0  -1   82.39   15.00
   6   0  -1   66.39   14.50
   6   0  -1   61.99   14.70
  -6   0   1   84.69   15.40
  -6   0   1   79.99   15.20
  -6   0   1  104.59   15.70
  -6   0   1   76.49   16.50
   5   0  -1    8.40   13.70
   5   0  -1   19.80    5.80
   5   0  -1   22.00    6.00
   5   0  -1   22.00    7.80
   5   0  -1    9.90    5.00
   5   0  -1   23.40    5.80
  -5   0   1   27.10    6.70
  -5   0   1   17.60    7.90
  -5   0   1   21.30    7.20
  -5   0   1   19.70    6.30
  -5   0   1   18.30    5.90
  -5   0   1   20.00    7.20
   4   0  -1   -3.10    2.80
   4   0  -1    6.60    3.70
   4   0  -1   -0.50    4.20
   4   0  -1   -5.30    3.00
   4   0  -1   -2.50    5.60
   4   0  -1    0.40    3.60
  -4   0   1    5.10    3.90
  -4   0   1    6.80    4.40
  -4   0   1   -4.60    4.20
  -4   0   1   -0.70    3.40
  -4   0   1   -1.10    3.20
  -4   0   1   -0.30    4.00
   3   0  -1 1362.36  228.18
   3   0  -1 1406.66  228.28
   3   0  -1 1362.16  228.08
   3   0  -1 1301.67  228.18
   3   0  -1 1367.26  228.08
   3   0  -1 1334.17  228.18
  -3   0   1 1346.07  228.08
  -3   0   1 1397.46  228.08
  -3   0   1 1364.86  228.08
  -3   0   1 1331.67  228.18
  -3   0   1 1327.47  228.08
  -3   0   1 1369.06  228.18
   2   0  -1 1130.99  195.28
   2   0  -1 1115.59  195.28
   2   0  -1 1181.08  195.38
   2   0  -1 1163.68  195.28
   2   0  -1 1176.38  195.38
   2   0  -1 1139.49  195.28
  -2   0   1 1136.19  195.28
  -2   0   1 1167.38  195.28
  -2   0   1 1166.38  195.38
  -2   0   1 1198.58  195.28
  -2   0   1 1168.08  195.28
  -2   0   1 1190.78  195.38
  -1   0   1  343.37   52.59
  -1   0   1  285.47   52.49
   0   0  -1    0.10    0.20
   0   0  -1   -0.10    0.30
   0   0   1    0.10    0.30
   0   0   1    0.20    0.30
   0   0   1    0.10    0.30
   0   0   1   -0.30    0.50
   1   0   1  448.66   72.99
   1   0   1  449.16   72.99
   1   0   1  431.76   72.89
   1   0   1  418.66   72.99
   1   0   1  420.96   72.99
  -2   0  -1   26.00    5.20
  -2   0  -1   37.70    5.40
  -2   0  -1   32.80    5.20
  -2   0  -1   21.60    5.10
  -2   0  -1   23.00    5.00
  -2   0  -1   35.00    5.70
   2   0   1   28.80    5.30
   2   0   1   25.00    5.20
   2   0   1   26.80    5.50
   2   0   1   31.30    5.00
   2   0   1   23.60    5.10
   2   0   1   23.40    5.00
  -3   0  -1  663.03  108.19
  -3   0  -1  640.64  108.29
  -3   0  -1  640.64  108.29
  -3   0  -1  637.34  108.19
  -3   0  -1  639.04  108.09
  -3   0  -1  646.84  108.19
   3   0   1  638.04  108.29
   3   0   1  644.44  108.19
   3   0   1  613.14  108.19
   3   0   1  625.14  108.39
   3   0   1  641.34  108.09
   3   0   1  667.23  108.29
  -4   0  -1  167.28   29.70
  -4   0  -1  234.38   30.30
  -4   0  -1  161.78   29.70
  -4   0  -1  181.88   29.90
  -4   0  -1  135.39   29.60
  -4   0  -1  176.18   29.70
   4   0   1  189.48   30.00
   4   0   1  173.08   29.70
   4   0   1  178.48   29.90
   4   0   1  168.88   29.80
   4   0   1  152.78   30.20
   4   0   1  167.38   29.50
  -5   0  -1  103.99   16.90
  -5   0  -1  103.69   17.40
  -5   0  -1   96.39   18.10
  -5   0  -1   66.19   16.90
  -5   0  -1   81.79   17.40
  -5   0  -1   90.79   17.70
   5   0   1   43.60   18.80
   5   0   1  109.69   17.40
   5   0   1  101.79   17.10
   5   0   1   89.69   16.60
   5   0   1  116.99   18.00
   5   0   1   94.79   17.00
  -6   0  -1   21.30   14.50
  -6   0  -1   31.20    9.80
  -6   0  -1   20.10    8.70
   6   0   1   44.20   13.20
   6   0   1   33.50    8.90
   6   0   1   32.90    8.40
   6   0   1   27.50    8.80
   6   0   1   21.70    7.90
  -7   0  -1   45.70   11.60
  -7   0  -1   -3.60   14.60
   7   0   1   -6.80    8.30
   7   0   1   10.30    8.60
   7   0   1    2.30    8.40
  -8   0  -1   29.30   19.50
  -8   0  -1   -0.50   14.40
   8   0   1   20.60   21.60
   8   0   1    6.10   12.50
   8   0   1  -11.70   10.20
   8  -1  -1   43.60   14.00
   8  -1  -1   54.89   16.00
   8  -1  -1   61.89   14.80
  -8   1   1   81.79   16.90
  -8   1   1   63.79   19.70
  -8   1   1   81.39   17.00
   7  -1  -1   -8.80    6.60
   7  -1  -1   27.40    9.10
   7  -1  -1   -3.50    7.60
   7  -1  -1    6.10    7.60
  -7   1   1    9.10    9.20
  -7   1   1   -0.90   12.50
   6  -1  -1   41.50   11.80
   6  -1  -1   69.49   11.80
   6  -1  -1   63.89   11.40
   6  -1  -1   48.20   11.90
   6  -1  -1   64.49   14.90
  -6   1   1   63.99   12.50
  -6   1   1   45.10   11.60
  -6   1   1   63.79   12.50
  -6   1   1   66.69   13.70
  -6   1   1   48.40   12.80
   5  -1  -1   78.49   16.50
   5  -1  -1   81.69   18.30
   5  -1  -1   93.89   16.30
   5  -1  -1   90.49   17.30
   5  -1  -1  102.69   16.60
   5  -1  -1   91.19   16.70
  -5   1   1  111.59   17.00
  -5   1   1   88.19   16.30
  -5   1   1  126.49   17.50
  -5   1   1  110.39   17.60
  -5   1   1   63.89   16.80
  -5   1   1   78.79   16.50
   4  -1  -1   22.40    4.80
   4  -1  -1   18.90    5.20
   4  -1  -1   21.70    6.80
   4  -1  -1   18.20    5.20
   4  -1  -1   15.60    5.20
   4  -1  -1   18.70    5.60
  -4   1   1   15.80    5.50
  -4   1   1   28.20    5.50
  -4   1   1   23.50    5.70
  -4   1   1   24.70    5.60
  -4   1   1   33.40    6.30
  -4   1   1   16.60    4.80
   3  -1  -1 1301.87  221.78
   3  -1  -1 1359.76  221.78
   3  -1  -1 1332.47  221.68
   3  -1  -1 1366.36  221.88
   3  -1  -1 1295.57  221.78
  -3   1   1 1279.37  221.78
  -3   1   1 1266.27  221.78
  -3   1   1 1258.37  221.68
  -3   1   1 1418.66  221.98
  -3   1   1 1348.37  221.88
  -3   1   1 1294.77  221.78
  -1  -1  -1 9401.36 1603.24
  -1  -1  -1 9999.00 1603.24
  -1  -1  -1 9650.73 1603.24
  -1  -1  -1 8967.00 1603.24
   1   1   1 9644.24 1603.24
   1   1   1 9774.72 1603.24
   1   1   1 9337.97 1603.24
  -2  -1  -1   94.79   17.30
  -2  -1  -1   94.49   17.50
  -2  -1  -1   96.09   17.50
  -2  -1  -1   99.39   17.70
  -2  -1  -1  106.39   17.60
   2   1   1  136.89   17.90
   2   1   1  100.99   17.60
   2   1   1  100.79   17.30
   2   1   1   96.29   17.50
   2   1   1  105.29   17.70
  -3  -1  -1  385.26   68.59
  -3  -1  -1  433.66   68.89
  -3  -1  -1  428.66   68.89
  -3  -1  -1  428.26   68.89
  -3  -1  -1  418.56   68.79
   3   1   1  379.66   68.89
   3   1   1  410.36   68.89
   3   1   1  403.66   68.79
   3   1   1  410.16   68.59
   3   1   1  381.56   68.79
  -4  -1  -1  743.33  117.59
  -4  -1  -1  680.93  117.49
  -4  -1  -1  652.53  117.49
  -4  -1  -1  725.83  117.29
  -4  -1  -1  693.83  117.59
   4   1   1  662.83  117.29
   4   1   1  675.13  117.39
   4   1   1  731.83  117.59
   4   1   1  699.03  117.79
   4   1   1  683.63  117.59
   4   1   1  713.13  117.59
  -5  -1  -1   12.70    5.50
  -5  -1  -1    4.80    8.90
  -5  -1  -1    4.70    6.60
  -5  -1  -1   14.60    7.40
  -5  -1  -1   10.30    6.80
  -5  -1  -1   18.00    8.00
   5   1   1   14.40    5.70
   5   1   1    1.90    5.30
   5   1   1    5.70    5.80
   5   1   1   11.40    7.70
   5   1   1   11.40   10.80
  -6  -1  -1   55.89   15.60
  -6  -1  -1   70.79   13.30
  -6  -1  -1   36.70   13.90
   6   1   1   81.19   13.20
   6   1   1   61.99   13.50
   6   1   1   62.99   13.60
  -7  -1  -1    3.00   12.60
  -7  -1  -1    3.30   13.70
   7   1   1   36.50   10.00
   7   1   1   28.00   10.40
   7   1   1   42.10   10.70
   8   1   1   13.40   13.00
   8   1   1    2.50   12.10
   8  -2  -1   88.39   18.20
   8  -2  -1  103.79   18.90
   8  -2  -1  115.59   18.00
   8  -2  -1   54.19   18.20
  -8   2   1   68.09   19.80
  -8   2   1   99.89   22.40
   7  -2  -1   41.30    9.70
   7  -2  -1   41.20   10.10
   7  -2  -1   33.10    9.00
   7  -2  -1   27.70    9.80
  -7   2   1   13.70   12.60
  -7   2   1   33.50   11.00
   6  -2  -1  138.39   20.80
   6  -2  -1  140.99   21.50
   6  -2  -1  114.99   21.00
   6  -2  -1   99.29   21.20
   6  -2  -1  101.29   22.20
  -6   2   1  101.29   20.90
  -6   2   1  163.68   24.00
  -6   2   1  119.19   21.30
  -6   2   1  105.79   22.00
  -6   2   1  102.19   21.80
   5  -2  -1   86.99   17.50
   5  -2  -1   99.59   17.10
   5  -2  -1  106.19   19.30
   5  -2  -1   95.09   17.40
   5  -2  -1   81.59   17.30
   5  -2  -1   88.39   18.00
  -5   2   1  108.69   18.10
  -5   2   1   99.19   17.50
  -5   2   1   98.49   17.10
  -5   2   1  100.39   18.40
  -5   2   1   87.19   17.70
  -5   2   1  130.29   18.10
   4  -2  -1  224.18   41.40
   4  -2  -1  248.18   41.00
   4  -2  -1  245.68   40.90
   4  -2  -1  239.38   40.90
   4  -2  -1  249.08   41.10
   4  -2  -1  243.28   40.70
  -4   2   1  251.67   41.20
  -4   2   1  221.68   41.20
  -4   2   1  237.48   41.00
  -4   2   1  231.98   41.20
  -4   2   1  231.08   41.00
  -4   2   1  241.78   41.00
   3  -2  -1   91.59   15.00
   3  -2  -1   89.79   14.70
   3  -2  -1   72.69   14.80
   3  -2  -1  100.49   15.20
   3  -2  -1   75.29   14.90
   3  -2  -1   88.19   15.30
  -3   2   1   71.19   14.80
  -3   2   1   78.59   14.60
  -3   2   1   78.79   15.00
  -3   2   1  101.19   15.10
  -3   2   1  102.29   15.20
  -3   2   1   92.49   15.40
   1  -2  -1  157.08   28.70
   1  -2  -1  176.28   28.60
   1  -2  -1  169.78   28.70
   1  -2  -1  176.98   28.70
   1  -2  -1  165.68   28.70
  -1   2   1  175.98   28.70
  -1   2   1  152.08   28.70
  -1   2   1  166.48   28.70
  -1   2   1  175.68   28.60
  -1   2   1  175.08   28.70
   0  -2  -1 1476.95  250.57
   0  -2  -1 1503.05  250.67
   0  -2  -1 1519.75  250.67
   0  -2  -1 1558.84  250.67
   0  -2  -1 1457.75  250.67
   0   2   1 1581.34  250.67
   0   2   1 1472.55  250.67
   0   2   1 1377.46  250.57
   0   2   1 1462.75  250.67
   0   2   1 1467.65  250.67
   0   2   1 1535.25  250.67
  -1  -2  -1 2689.53  450.05
  -1  -2  -1 2707.93  450.05
  -1  -2  -1 2742.53  450.05
  -1  -2  -1 2609.84  449.95
  -1  -2  -1 2700.43  450.05
   1   2   1 2710.13  449.95
   1   2   1 2620.94  450.05
   1   2   1 2651.53  450.05
   1   2   1 2641.04  450.05
   1   2   1 2692.33  449.95
  -2  -2  -1  378.66   61.99
  -2  -2  -1  346.17   62.19
  -2  -2  -1  381.96   62.29
  -2  -2  -1  393.66   62.29
  -2  -2  -1  351.16   62.19
   2   2   1  383.26   62.19
   2   2   1  340.17   62.29
   2   2   1  348.37   62.19
   2   2   1  382.36   62.29
   2   2   1  369.96   62.19
  -3  -2  -1  149.69   26.10
  -3  -2  -1  145.79   26.40
  -3  -2  -1  152.28   26.60
  -3  -2  -1  148.49   26.60
  -3  -2  -1  146.69   26.50
  -3  -2  -1  167.08   26.60
   3   2   1  173.18   26.70
   3   2   1  149.69   26.60
   3   2   1  137.79   26.30
   3   2   1  165.38   26.70
   3   2   1  156.88   26.50
  -4  -2  -1  174.48   31.00
  -4  -2  -1  178.88   30.90
  -4  -2  -1  200.48   31.30
  -4  -2  -1  178.18   30.60
  -4  -2  -1  180.78   31.10
   4   2   1  199.08   31.10
   4   2   1  168.08   31.20
   4   2   1  158.88   30.70
   4   2   1  170.68   30.90
  -5  -2  -1  337.17   73.89
  -5  -2  -1  455.45   74.49
  -5  -2  -1  441.16   73.59
  -5  -2  -1  623.04   76.49
   5   2   1  415.46   73.99
   5   2   1  443.56   73.79
   5   2   1  459.55   73.89
   5   2   1  415.36   74.49
  -6  -2  -1   31.80    8.80
  -6  -2  -1   -5.90    9.40
   6   2   1   24.10    8.50
   6   2   1   31.60    9.10
   6   2   1   26.40    8.80
  -7  -2  -1   68.19   13.80
  -7  -2  -1   23.50   15.50
   7   2   1   54.19   13.90
   7   2   1   61.19   13.10
   7   2   1   30.10   12.80
   8  -3  -1    6.50   10.10
   8  -3  -1   -7.10   10.10
   8  -3  -1    7.80    8.40
   8  -3  -1   -1.40    9.90
  -8   3   1    8.70   11.70
  -8   3   1    2.10   14.60
   7  -3  -1   -1.60    7.30
   7  -3  -1    1.90    6.40
   7  -3  -1    5.20    7.40
   7  -3  -1   -2.30    8.20
  -7   3   1    5.60    8.30
  -7   3   1    5.20   11.70
  -7   3   1    6.50    8.40
   6  -3  -1    9.60    9.90
   6  -3  -1    8.50    6.20
   6  -3  -1    5.10    6.40
   6  -3  -1   15.20    4.90
  -6   3   1    4.00    6.30
  -6   3   1    9.60    5.70
  -6   3   1    9.20   13.30
  -6   3   1    1.20    9.10
   5  -3  -1  230.18   33.80
   5  -3  -1  189.68   28.80
   5  -3  -1  188.08   28.90
   5  -3  -1  163.68   28.20
   5  -3  -1  137.19   28.40
   5  -3  -1  167.68   28.90
  -5   3   1  181.28   29.00
  -5   3   1  116.29   29.20
  -5   3   1  193.78   28.90
  -5   3   1  160.68   29.20
  -5   3   1  148.99   28.20
  -5   3   1  148.69   30.00
   4  -3  -1  137.89   26.80
   4  -3  -1  189.68   27.10
   4  -3  -1  144.19   26.80
   4  -3  -1  170.88   27.40
   4  -3  -1  167.98   27.10
   4  -3  -1  144.19   26.50
  -4   3   1  134.39   26.80
  -4   3   1  150.58   26.50
  -4   3   1  175.68   27.10
  -4   3   1  168.48   27.10
  -4   3   1  134.89   26.90
  -4   3   1  175.88   26.90
   3  -3  -1  216.28   35.20
   3  -3  -1  215.58   34.80
   3  -3  -1  183.68   35.20
   3  -3  -1  215.58   35.10
   3  -3  -1  200.38   35.30
  -3   3   1  158.98   35.70
  -3   3   1  194.08   35.00
  -3   3   1  203.08   35.10
  -3   3   1  218.98   35.20
  -3   3   1  204.68   34.80
  -3   3   1  222.08   35.20
   2  -3  -1  941.71  153.98
   2  -3  -1  876.81  154.08
   2  -3  -1  944.01  154.08
   2  -3  -1  943.91  154.08
   2  -3  -1  914.21  153.88
   2  -3  -1  899.81  153.98
  -2   3   1  916.71  154.08
  -2   3   1  914.01  154.08
  -2   3   1  883.91  154.08
  -2   3   1  921.41  153.98
  -2   3   1  909.51  154.08
   1  -3  -1  343.27   56.29
   1  -3  -1  292.47   56.09
   1  -3  -1  341.97   56.09
   1  -3  -1  313.67   56.29
   1  -3  -1  321.77   56.19
  -1   3   1  359.46   56.29
  -1   3   1  347.07   56.19
  -1   3   1  333.97   56.19
  -1   3   1  349.27   56.29
   0  -3  -1  625.34  105.79
   0  -3  -1  643.54  105.89
   0  -3  -1  588.44  105.89
   0  -3  -1  636.24  105.89
   0  -3  -1  632.44  105.89
   0  -3  -1  620.24  105.69
   0   3   1  624.34  105.79
   0   3   1  657.63  105.89
   0   3   1  628.44  105.89
   0   3   1  626.14  105.69
   0   3   1  620.74  105.89
   0   3   1  641.64  105.89
  -1  -3  -1  198.28   29.90
  -1  -3  -1  172.78   29.80
  -1  -3  -1  172.78   29.80
  -1  -3  -1  173.78   29.70
  -1  -3  -1  166.68   29.40
  -1  -3  -1  192.98   29.90
   1   3   1  174.58   29.80
   1   3   1  160.88   29.70
   1   3   1  174.18   29.70
   1   3   1  162.08   29.80
   1   3   1  181.38   29.80
  -2  -3  -1  794.22  129.29
  -2  -3  -1  733.93  129.29
  -2  -3  -1  779.52  128.99
  -2  -3  -1  780.72  129.29
  -2  -3  -1  741.03  129.19
  -2  -3  -1  804.72  129.39
   2   3   1  780.62  129.29
   2   3   1  793.42  129.29
   2   3   1  705.83  129.39
   2   3   1  779.92  129.29
   2   3   1  740.13  129.19
  -3  -3  -1   42.30    9.30
  -3  -3  -1   50.49    9.10
  -3  -3  -1   59.79    9.70
  -3  -3  -1   45.20    8.90
  -3  -3  -1   44.70    8.40
  -3  -3  -1   47.30    9.50
   3   3   1   48.70    9.10
   3   3   1   26.50    8.70
   3   3   1   44.20    9.60
   3   3   1   71.39   10.50
   3   3   1   53.39    9.30
  -4  -3  -1  110.19   20.90
  -4  -3  -1   94.69   19.70
  -4  -3  -1  158.28   20.80
  -4  -3  -1  122.59   20.70
  -4  -3  -1   96.29   20.30
  -4  -3  -1  145.09   21.20
   4   3   1  154.88   21.30
   4   3   1   91.69   21.40
   4   3   1  116.39   20.30
   4   3   1  140.99   20.70
   4   3   1   77.29   20.10
  -5  -3  -1    7.60    7.80
  -5  -3  -1    6.80    6.30
  -5  -3  -1    5.50    5.80
   5   3   1   12.80    7.50
   5   3   1    4.90    9.70
   5   3   1    2.20    6.60
  -6  -3  -1  112.29   21.30
  -6  -3  -1  119.29   21.90
   6   3   1  132.19   21.70
   6   3   1   93.39   21.40
   6   3   1  115.69   21.50
  -7  -3  -1    0.30   10.10
  -7  -3  -1    4.80   15.60
   7   3   1    3.50    9.90
   7   3   1   13.60   10.40
   7   3   1   -1.50   10.30
   8  -4  -1   36.20   11.40
   8  -4  -1    8.30   12.20
   8  -4  -1   29.30   11.20
   8  -4  -1   22.20    9.20
  -8   4   1    7.30   16.40
  -8   4   1   16.80   12.80
   7  -4  -1    2.30    6.10
   7  -4  -1   -3.60    8.20
   7  -4  -1    6.40    8.30
   7  -4  -1    7.30    8.00
  -7   4   1   -3.50    8.40
  -7   4   1  -11.90   11.90
  -7   4   1   12.40    9.80
   6  -4  -1   18.00    7.30
   6  -4  -1   20.30    8.90
   6  -4  -1   14.20    5.90
   6  -4  -1   24.10    7.70
  -6   4   1   16.50    6.90
  -6   4   1   35.70   11.40
  -6   4   1   30.80    7.80
   5  -4  -1  415.56   72.89
   5  -4  -1  431.66   71.49
   5  -4  -1  468.15   71.99
   5  -4  -1  371.06   72.29
   5  -4  -1  457.15   72.09
   5  -4  -1  371.36   71.79
  -5   4   1  407.76   72.39
  -5   4   1  413.26   71.59
  -5   4   1  402.76   72.19
  -5   4   1  427.76   72.09
  -5   4   1  445.86   71.99
  -5   4   1  448.86   71.99
   4  -4  -1   93.49   17.90
   4  -4  -1  101.49   18.50
   4  -4  -1   99.69   17.70
   4  -4  -1  115.39   18.20
   4  -4  -1   79.09   17.60
   4  -4  -1  118.29   17.30
  -4   4   1   93.89   18.10
  -4   4   1  124.39   18.10
  -4   4   1   97.49   17.30
  -4   4   1  105.69   18.10
  -4   4   1   71.69   17.50
  -4   4   1  105.79   18.10
   3  -4  -1   13.00    6.10
   3  -4  -1   17.90    5.20
   3  -4  -1   28.70    4.50
   3  -4  -1   23.30    5.30
   3  -4  -1   26.80    5.90
   3  -4  -1   16.00    5.10
  -3   4   1   26.40    5.70
  -3   4   1   15.80    5.20
  -3   4   1   22.80    5.50
  -3   4   1   27.10    5.20
  -3   4   1   28.80    5.90
   2  -4  -1  349.87   61.49
   2  -4  -1  361.96   61.29
   2  -4  -1  376.36   61.39
   2  -4  -1  376.36   61.39
  -2   4   1  348.07   61.29
  -2   4   1  348.77   61.49
  -2   4   1  377.06   61.39
   1  -4  -1  699.93  119.79
   1  -4  -1  716.83  119.79
   1  -4  -1  735.63  119.79
   1  -4  -1  731.63  119.69
   1  -4  -1  683.23  119.69
  -1   4   1  733.33  119.89
  -1   4   1  670.63  119.79
  -1   4   1  705.93  119.69
  -1   4   1  723.43  119.79
   0  -4  -1 1274.17  212.58
   0  -4  -1 1276.27  212.78
   0  -4  -1 1151.18  212.68
   0  -4  -1 1315.87  212.78
   0  -4  -1 1235.68  212.68
   0   4   1 1246.28  212.78
   0   4   1 1257.77  212.68
   0   4   1 1297.47  212.58
   0   4   1 1284.57  212.78
   0   4   1 1292.77  212.68
   0   4   1 1265.47  212.78
  -1  -4  -1    1.30    2.60
  -1  -4  -1    4.00    1.50
  -1  -4  -1    6.60    3.50
  -1  -4  -1    0.00    3.70
  -1  -4  -1    2.30    3.50
  -1  -4  -1    3.20    3.40
   1   4   1   -1.60    2.50
   1   4   1    0.70    3.20
   1   4   1    3.20    3.80
   1   4   1    0.80    3.20
   1   4   1    3.70    3.10
  -2  -4  -1   42.60    9.20
  -2  -4  -1   42.00    8.40
  -2  -4  -1   43.80    9.20
  -2  -4  -1   35.80    9.20
  -2  -4  -1   46.50    9.40
  -2  -4  -1   73.09    9.80
   2   4   1   53.79    9.80
   2   4   1   57.09    9.40
   2   4   1   62.39   10.30
   2   4   1   47.20    9.00
   2   4   1   46.00    9.10
  -3  -4  -1   -1.50    5.60
  -3  -4  -1    0.40    5.30
  -3  -4  -1   -1.20    3.90
  -3  -4  -1   -1.10    4.70
  -3  -4  -1   -0.70    5.50
  -3  -4  -1    0.90    2.90
   3   4   1   -0.50    5.80
   3   4   1   -4.80    6.90
   3   4   1   -6.20    3.70
   3   4   1    3.60    4.00
   3   4   1   -2.80    4.30
  -4  -4  -1  187.98   27.00
  -4  -4  -1  163.98   27.50
  -4  -4  -1  152.78   27.90
  -4  -4  -1  155.58   27.90
  -4  -4  -1  155.68   27.60
  -4  -4  -1  158.58   27.60
   4   4   1  160.78   28.60
   4   4   1  174.68   28.20
   4   4   1  133.39   27.10
   4   4   1  151.78   27.20
   4   4   1  127.19   27.00
  -5  -4  -1   26.30   11.60
  -5  -4  -1   47.90   10.00
  -5  -4  -1   55.39   11.40
   5   4   1   50.09   11.10
   5   4   1   49.90   11.10
   5   4   1   43.80   11.20
  -6  -4  -1  628.44  104.69
  -6  -4  -1  587.44  105.19
   6   4   1  650.23  105.29
   6   4   1  645.34  104.99
   6   4   1  574.04  105.19
  -7  -4  -1  -11.60   17.50
   7   4   1    2.00   11.00
   7   4   1  -12.50   13.20
   7   4   1   -5.50   11.80
   8  -5  -1   27.60   11.80
   8  -5  -1   15.40   14.90
   8  -5  -1   18.20   12.40
   8  -5  -1   27.70   11.10
  -8   5   1   -3.40   11.80
  -8   5   1   12.50   17.20
   7  -5  -1  103.59   21.90
   7  -5  -1  114.79   21.20
   7  -5  -1  103.09   22.40
   7  -5  -1  121.59   22.00
  -7   5   1  110.79   22.60
  -7   5   1  129.89   24.60
  -7   5   1  148.89   22.40
   6  -5  -1    9.30    6.60
   6  -5  -1    0.70    4.50
   6  -5  -1   -4.50    5.70
   6  -5  -1    5.50    6.50
  -6   5   1   16.90    6.10
  -6   5   1    8.10    7.10
  -6   5   1    3.90   10.10
   5  -5  -1   51.99    9.50
   5  -5  -1   24.10    9.10
   5  -5  -1   50.19   10.70
   5  -5  -1   51.29   12.90
   5  -5  -1   47.80    8.30
   5  -5  -1   40.00    9.30
  -5   5   1   37.50   10.20
  -5   5   1   38.80    9.70
  -5   5   1   45.10   10.90
  -5   5   1   53.59   10.20
   4  -5  -1  212.58   38.20
   4  -5  -1  242.28   38.90
   4  -5  -1  211.98   38.90
   4  -5  -1  204.08   38.60
   4  -5  -1  251.57   39.30
   4  -5  -1  206.98   38.80
  -4   5   1  289.67   39.30
  -4   5   1  236.28   39.30
  -4   5   1  213.78   38.80
  -4   5   1  213.38   38.80
  -4   5   1  227.78   38.80
   3  -5  -1    7.00    3.90
   3  -5  -1   11.60    4.90
   3  -5  -1    1.40    5.40
   3  -5  -1   -0.60    3.40
   3  -5  -1    1.00    2.10
   3  -5  -1    3.80    3.40
  -3   5   1    5.10    4.90
  -3   5   1    0.40    4.30
  -3   5   1    4.70    3.90
  -3   5   1    2.50    3.60
  -3   5   1   -1.40    4.00
   2  -5  -1   72.49   12.40
   2  -5  -1   58.09   12.60
   2  -5  -1   74.19   12.60
   2  -5  -1   62.69   12.90
   2  -5  -1   70.09   12.80
   2  -5  -1   85.29   13.00
  -2   5   1   98.59   13.30
  -2   5   1   84.69   13.00
  -2   5   1   68.89   12.80
  -2   5   1   63.09   12.50
  -2   5   1   53.69   12.70
   1  -5  -1   25.80    4.70
   1  -5  -1   24.00    4.60
   1  -5  -1   20.80    5.60
   1  -5  -1   20.60    4.90
   1  -5  -1   12.30    5.10
   1  -5  -1   33.30    5.50
  -1   5   1   21.50    5.40
  -1   5   1   29.90    5.90
  -1   5   1   27.50    5.50
  -1   5   1   13.60    6.10
  -1   5   1   18.60    4.60
   0  -5  -1  175.28   31.30
   0  -5  -1  183.38   31.00
   0  -5  -1  185.08   31.10
   0  -5  -1  185.58   31.30
   0  -5  -1  168.38   30.70
   0   5   1  174.78   31.20
   0   5   1  166.18   30.90
   0   5   1  173.88   31.30
   0   5   1  190.58   30.70
   0   5   1  188.88   31.20
   0   5   1  204.38   31.10
  -1  -5  -1  127.59   19.40
  -1  -5  -1  113.59   19.80
  -1  -5  -1   92.39   20.00
  -1  -5  -1  103.09   20.00
  -1  -5  -1  113.49   19.80
  -1  -5  -1  106.19   19.90
   1   5   1  125.09   20.30
   1   5   1  113.99   19.90
   1   5   1  115.09   20.00
   1   5   1   93.59   19.60
   1   5   1  140.69   20.20
  -2  -5  -1  460.05   78.39
  -2  -5  -1  463.35   78.29
  -2  -5  -1  389.76   78.29
  -2  -5  -1  468.85   77.89
  -2  -5  -1  462.55   78.49
  -2  -5  -1  460.45   78.39
   2   5   1  527.35   78.39
   2   5   1  462.95   78.39
   2   5   1  462.65   78.19
   2   5   1  463.25   78.49
  -3  -5  -1    2.40    5.30
  -3  -5  -1   -1.90    6.80
  -3  -5  -1    6.10    6.30
  -3  -5  -1   -1.90    2.80
  -3  -5  -1   -6.90    4.50
  -3  -5  -1    0.10    3.30
  -3  -5  -1    2.30    6.90
   3   5   1    1.70    4.90
   3   5   1    4.00    8.30
   3   5   1   -2.80    7.70
   3   5   1    5.80    4.80
   3   5   1   -2.20    4.60
  -4  -5  -1  315.97   53.19
  -4  -5  -1  281.77   52.39
   4   5   1  289.27   54.29
   4   5   1  320.47   53.19
   4   5   1  339.67   53.59
   4   5   1  317.57   53.59
  -5  -5  -1   98.19   16.10
  -5  -5  -1   30.90   17.30
  -5  -5  -1   80.59   16.90
   5   5   1  106.99   17.40
   5   5   1  102.49   17.40
   5   5   1   84.69   17.00
  -6  -5  -1    0.20    9.90
  -6  -5  -1    4.50    9.90
  -6  -5  -1    7.70   10.90
   6   5   1    3.10    9.70
   6   5   1   -6.00    9.50
   6   5   1  -21.80    9.60
   8  -6  -1   33.80   10.30
   8  -6  -1   20.30   16.40
   8  -6  -1   70.99   21.80
   8  -6  -1    8.90   12.30
  -8   6   1   78.39   29.30
  -8   6   1   43.40   14.40
   7  -6  -1   10.30    8.30
   7  -6  -1    6.90    6.90
   7  -6  -1   19.60    9.20
   7  -6  -1   17.70    9.60
  -7   6   1   20.00   10.20
  -7   6   1   -2.00   12.90
   6  -6  -1    0.50    6.60
   6  -6  -1    5.90    7.50
   6  -6  -1    2.50    4.80
   6  -6  -1   -2.80    6.60
  -6   6   1   12.00    8.80
  -6   6   1   -1.00    7.10
   5  -6  -1    0.30    5.60
   5  -6  -1    5.30    9.20
   5  -6  -1    0.40    5.40
   5  -6  -1    5.40    5.60
   5  -6  -1   -1.20    3.60
  -5   6   1   -1.70    5.60
  -5   6   1    4.90    8.50
  -5   6   1    5.30    7.70
   4  -6  -1  408.76   63.69
   4  -6  -1  387.76   64.29
   4  -6  -1  387.46   64.99
   4  -6  -1  371.46   64.19
   4  -6  -1  341.07   63.99
   4  -6  -1  398.26   64.49
  -4   6   1  357.56   64.29
  -4   6   1  388.46   64.29
  -4   6   1  369.36   64.49
  -4   6   1  369.36   64.59
  -4   6   1  345.27   64.29
   3  -6  -1  725.23  124.29
   3  -6  -1  731.83  124.19
   3  -6  -1  699.73  124.39
   3  -6  -1  728.93  124.19
   3  -6  -1  715.23  123.89
   3  -6  -1  731.63  124.09
  -3   6   1  717.03  124.29
  -3   6   1  756.12  124.19
  -3   6   1  771.52  124.29
  -3   6   1  756.42  124.09
  -3   6   1  760.92  124.29
   2  -6  -1    6.60    4.70
   2  -6  -1    4.40    4.80
   2  -6  -1   -0.90    3.60
   2  -6  -1   10.50    3.80
   2  -6  -1    3.30    3.00
   2  -6  -1    3.80    2.90
  -2   6   1    0.60    4.30
  -2   6   1    5.00    3.90
  -2   6   1    5.70    5.30
  -2   6   1    6.80    4.50
  -2   6   1    3.50    3.40
   1  -6  -1 1197.48  203.58
   1  -6  -1 1149.98  203.48
   1  -6  -1 1163.18  203.58
   1  -6  -1 1227.88  203.38
   1  -6  -1 1182.88  203.38
   1  -6  -1 1234.38  203.58
  -1   6   1 1291.37  203.38
  -1   6   1 1179.88  203.58
  -1   6   1 1249.47  203.58
  -1   6   1 1183.98  203.58
  -1   6   1 1223.68  203.58
   0  -6  -1   14.20    4.80
   0  -6  -1   10.20    4.80
   0  -6  -1   12.70    5.30
   0  -6  -1   13.10    4.10
   0  -6  -1    5.00    4.30
   0  -6  -1    7.00    3.20
   0   6   1   18.80    4.00
   0   6   1   12.20    3.40
   0   6   1   12.50    6.10
   0   6   1   22.20    4.90
   0   6   1    6.20    4.70
   0   6   1   13.10    4.90
  -1  -6  -1  124.59   19.60
  -1  -6  -1   93.09   19.50
  -1  -6  -1  129.59   19.80
  -1  -6  -1  113.69   19.30
  -1  -6  -1  101.99   18.70
  -1  -6  -1  108.39   19.80
   1   6   1  135.49   19.90
   1   6   1   95.89   19.10
   1   6   1  100.09   19.30
   1   6   1  132.69   20.10
   1   6   1   93.69   19.40
  -2  -6  -1   -0.10    4.80
  -2  -6  -1   15.20    5.90
  -2  -6  -1    6.70    6.60
  -2  -6  -1    7.80    6.70
  -2  -6  -1    8.10    3.10
   2   6   1    2.60    7.40
   2   6   1    6.90    4.70
   2   6   1    9.80    5.20
   2   6   1    8.90    4.90
  -3  -6  -1 1380.96  226.58
  -3  -6  -1 1398.46  227.18
  -3  -6  -1 1306.17  226.58
  -3  -6  -1 1312.37  227.58
   3   6   1 1259.87  227.28
   3   6   1 1390.46  227.18
   3   6   1 1402.06  226.98
   3   6   1 1304.97  227.08
  -4  -6  -1   21.80    6.40
  -4  -6  -1    4.10    8.10
  -4  -6  -1   23.40    5.60
  -4  -6  -1   14.80    9.20
   4   6   1   11.60    7.40
   4   6   1    9.90    8.50
   4   6   1   32.30    8.80
  -5  -6  -1    9.70    6.00
  -5  -6  -1    0.30    7.10
  -5  -6  -1   -3.30    9.70
  -5  -6  -1    0.10    8.50
   5   6   1   -5.90    8.10
   5   6   1    2.70    9.10
   5   6   1    4.90    8.70
  -6  -6  -1    2.50    8.10
  -6  -6  -1   -4.30   11.30
  -6  -6  -1    9.10   13.80
  -6  -6  -1   -6.50   11.70
   6   6   1    4.90   10.80
   6   6   1    3.60   12.00
   6   6   1    1.70   11.40
   8  -7  -1   10.00   12.70
   8  -7  -1    3.50    9.10
   8  -7  -1   -3.90   12.10
   8  -7  -1   14.10   10.80
  -8   7   1    6.20   14.80
  -8   7   1    8.50   18.60
   7  -7  -1   11.30    9.90
   7  -7  -1    4.80    6.80
   7  -7  -1    2.80    9.50
   7  -7  -1    2.00    8.30
  -7   7   1  -15.90    9.60
  -7   7   1   10.70   14.90
   6  -7  -1   43.20   12.60
   6  -7  -1   53.99   10.90
   6  -7  -1   48.30   12.60
   6  -7  -1   65.39   12.90
  -6   7   1   49.70   14.00
  -6   7   1   65.49   13.00
   5  -7  -1   -1.00    3.80
   5  -7  -1    4.40    6.40
   5  -7  -1    2.50    6.50
  -5   7   1    2.20    6.20
  -5   7   1    6.20    7.50
   4  -7  -1  291.67   51.79
   4  -7  -1  306.17   51.79
   4  -7  -1  333.07   52.49
   4  -7  -1  284.37   51.29
   4  -7  -1  316.47   52.29
   4  -7  -1  301.47   51.49
  -4   7   1  285.77   52.09
  -4   7   1  293.57   51.89
  -4   7   1  303.67   51.79
  -4   7   1  287.47   51.69
  -4   7   1  327.87   52.39
   3  -7  -1   24.90    6.00
   3  -7  -1   26.30    5.80
   3  -7  -1   29.80    7.20
   3  -7  -1   24.30    9.80
   3  -7  -1   21.40    6.40
   3  -7  -1   32.90    8.80
   3  -7  -1   31.20    7.30
  -3   7   1   22.00    8.10
  -3   7   1   31.00    8.40
  -3   7   1   22.90    7.10
  -3   7   1   25.90    8.10
  -3   7   1   27.50    7.30
   2  -7  -1   39.40    8.30
   2  -7  -1   41.30    9.70
   2  -7  -1   26.60    8.40
   2  -7  -1   75.99   10.20
   2  -7  -1   48.70    9.20
   2  -7  -1   40.10    8.20
  -2   7   1   45.00    9.00
  -2   7   1   36.10    9.10
  -2   7   1   33.50   10.20
  -2   7   1   46.30    9.50
  -2   7   1   40.90    8.40
   1  -7  -1   59.19   10.80
   1  -7  -1   45.00   10.00
   1  -7  -1   48.90    9.90
   1  -7  -1   38.80   10.60
   1  -7  -1   73.39    9.60
   1  -7  -1   46.60    9.70
  -1   7   1   52.89    9.50
  -1   7   1   51.49   10.30
  -1   7   1   35.70    9.90
  -1   7   1   48.30   11.20
  -1   7   1   49.10   10.70
   0  -7  -1  158.68   27.90
   0  -7  -1  144.19   27.50
   0  -7  -1  155.48   27.30
   0  -7  -1  205.88   29.10
   0  -7  -1  167.48   27.90
   0  -7  -1  172.48   27.90
   0   7   1  175.18   27.60
   0   7   1  154.28   27.40
   0   7   1  186.68   28.50
   0   7   1  132.99   27.70
   0   7   1  132.29   27.60
   0   7   1  177.48   29.20
  -1  -7  -1   63.49   12.60
  -1  -7  -1   66.09   11.60
  -1  -7  -1   50.49   13.60
  -1  -7  -1   72.19   13.00
  -1  -7  -1   71.29   13.70
  -1  -7  -1   61.39   12.60
   1   7   1   66.19   13.30
   1   7   1   55.29   14.10
   1   7   1   63.59   12.80
   1   7   1   69.39   12.30
   1   7   1   63.29   12.80
  -2  -7  -1    0.40    7.80
  -2  -7  -1    9.00    5.80
  -2  -7  -1    7.50    3.60
  -2  -7  -1    4.40    6.50
  -2  -7  -1   14.50    7.20
   2   7   1    0.30    9.30
   2   7   1   16.60    5.90
   2   7   1    1.10    5.80
   2   7   1    1.70    6.00
  -3  -7  -1   -3.80    7.60
  -3  -7  -1    0.80    6.70
  -3  -7  -1    9.50    4.40
  -3  -7  -1   -2.80    4.70
   3   7   1   -1.40    6.40
   3   7   1   14.00    7.00
   3   7   1   -5.30    7.00
  -4  -7  -1   25.50    8.10
  -4  -7  -1   26.30   10.60
  -4  -7  -1   34.30    7.60
  -4  -7  -1   18.50   11.20
   4   7   1   33.90   10.40
   4   7   1   28.00   10.00
   4   7   1   48.60   10.70
  -5  -7  -1    2.20    6.80
  -5  -7  -1   11.20   11.10
  -5  -7  -1   -3.30   11.30
  -5  -7  -1    7.70    8.60
   5   7   1   23.70   10.70
   5   7   1    6.60   10.30
   5   7   1    5.80   11.50
   7  -8  -1    4.60   10.70
   7  -8  -1    2.90   10.00
   7  -8  -1   13.80    7.50
   7  -8  -1    0.90   10.80
  -7   8   1   10.40   12.20
  -7   8   1    4.00   11.40
   6  -8  -1    9.90    5.80
   6  -8  -1    2.90    8.40
   6  -8  -1    2.40    8.90
   6  -8  -1   -3.40    8.40
  -6   8   1    2.30   10.80
  -6   8   1   -1.70    9.40
   5  -8  -1   80.09   16.70
   5  -8  -1   90.19   16.40
   5  -8  -1   98.99   15.50
   5  -8  -1   87.49   16.80
  -5   8   1   88.29   17.30
  -5   8   1   34.40   18.50
   4  -8  -1   20.20    7.00
   4  -8  -1   10.10    7.70
   4  -8  -1   15.30    5.00
  -4   8   1   14.90    7.50
   3  -8  -1   69.89   12.00
   3  -8  -1   61.59   12.60
   3  -8  -1   62.69   12.30
   3  -8  -1   52.79   11.50
   3  -8  -1   55.39   13.70
  -3   8   1   56.99   12.10
  -3   8   1   62.99   13.00
  -3   8   1   68.49   12.60
  -3   8   1   41.80   14.00
   2  -8  -1   16.50    8.10
   2  -8  -1    7.00    4.40
   2  -8  -1   -2.10    7.80
   2  -8  -1    5.50    4.60
   2  -8  -1    4.70    6.00
   2  -8  -1    0.10    5.30
  -2   8   1    3.60    5.00
  -2   8   1    7.10    6.00
  -2   8   1    3.10    7.30
  -2   8   1    6.70    5.70
  -2   8   1    3.40    8.70
   1  -8  -1    4.10    7.60
   1  -8  -1   14.60    8.20
   1  -8  -1    7.90    4.30
   1  -8  -1   14.30    5.70
   1  -8  -1    4.10    5.30
   1  -8  -1    3.80    5.30
  -1   8   1   15.00    5.90
  -1   8   1   18.40    7.70
  -1   8   1   10.20    4.90
  -1   8   1   14.10    7.60
  -1   8   1    4.50    6.10
   0  -8  -1  191.28   37.00
   0  -8  -1  202.98   36.80
   0  -8  -1  194.68   37.30
   0  -8  -1  229.88   36.70
   0  -8  -1  230.78   36.30
   0  -8  -1  215.58   37.00
   0   8   1  199.28   37.10
   0   8   1  247.78   37.00
   0   8   1  222.38   37.40
   0   8   1  187.58   36.80
   0   8   1  202.78   36.40
  -1  -8  -1  294.77   51.99
  -1  -8  -1  264.77   51.69
  -1  -8  -1  304.37   51.19
  -1  -8  -1  320.77   52.09
   1   8   1  303.17   51.99
   1   8   1  295.87   51.69
   1   8   1  330.07   52.49
   1   8   1  301.87   51.99
  -2  -8  -1  115.19   20.40
  -2  -8  -1  125.79   22.70
  -2  -8  -1  123.69   21.70
   2   8   1  126.69   21.80
   2   8   1   84.29   23.50
   2   8   1  104.29   21.90
  -3  -8  -1   10.40    8.60
  -3  -8  -1    9.80    9.40
  -3  -8  -1   26.40    6.10
  -3  -8  -1   21.90    6.80
   3   8   1   23.00    9.30
   3   8   1   32.80    9.10
   3   8   1   10.40    9.50
  -4  -8  -1    7.10   11.50
  -4  -8  -1   -3.00    5.70
  -4  -8  -1    6.70    9.30
  -4  -8  -1   -3.10    6.90
   4   8   1   -1.30   10.20
   4   8   1   -0.60    9.30
   4   8   1    3.00    9.10
  -5  -8  -1    9.80   12.10
  -5  -8  -1   -0.80   15.30
  -5  -8  -1   10.20    7.70
   5   8   1   -5.50   15.90
   5   8   1    4.20   12.90
   5   8   1    8.60   12.40
   7  -9  -1   16.20   13.40
   7  -9  -1   -0.50   12.00
   7  -9  -1   -0.30    8.20
   7  -9  -1   15.20   11.80
  -7   9   1   -1.60   17.70
  -7   9   1   13.20   13.60
   6  -9  -1   49.70   12.70
   6  -9  -1   25.80   11.60
   6  -9  -1   48.30   12.50
   6  -9  -1   35.30    9.40
  -6   9   1   36.60   13.10
  -6   9   1   36.30   16.60
   5  -9  -1  123.19   21.50
   5  -9  -1  122.59   22.90
   5  -9  -1  111.09   22.80
   5  -9  -1  165.18   22.90
  -5   9   1   20.40   24.00
  -5   9   1  182.88   23.80
   4  -9  -1   89.09   16.80
   4  -9  -1   79.59   16.20
   4  -9  -1   89.19   15.40
   4  -9  -1   79.69   14.90
   4  -9  -1   90.09   16.20
  -4   9   1   90.19   16.90
  -4   9   1   40.10   18.20
   3  -9  -1  192.38   35.90
   3  -9  -1  216.18   35.60
   3  -9  -1  213.78   35.40
  -3   9   1  168.68   36.50
  -3   9   1  220.68   35.80
  -3   9   1  205.78   35.70
   2  -9  -1   52.89   16.30
   2  -9  -1   72.09   12.30
   2  -9  -1   65.69   12.50
   2  -9  -1   52.29   12.80
  -2   9   1   74.69   19.60
  -2   9   1   61.69   13.00
  -2   9   1   60.09   13.30
   1  -9  -1    8.20    7.50
   1  -9  -1   11.20    5.10
   1  -9  -1    6.40    6.20
  -1   9   1   -3.60   11.60
  -1   9   1   10.70    7.20
  -1   9   1    2.60    5.50
   0  -9  -1  265.87   45.40
   0  -9  -1  298.27   46.30
   0  -9  -1  207.38   45.70
   0  -9  -1  297.67   45.90
   0   9   1  297.37   46.20
   0   9   1  257.77   45.50
   0   9   1  254.97   46.10
  -1  -9  -1   44.20   11.90
  -1  -9  -1   56.39   12.80
  -1  -9  -1   47.30   10.30
   1   9   1   53.59   12.30
   1   9   1   60.59   12.90
   1   9   1   56.39   11.90
  -2  -9  -1   12.90    9.60
  -2  -9  -1   26.60    6.00
  -2  -9  -1   14.10    8.10
   2   9   1   11.00    8.90
   2   9   1    7.30    8.70
   2   9   1   29.10    9.10
  -3  -9  -1   74.39   12.70
  -3  -9  -1   68.69   12.20
  -3  -9  -1   26.80   15.80
  -3  -9  -1   61.69   14.90
   3   9   1   46.40   14.20
   3   9   1   76.89   14.90
   3   9   1   49.60   15.10
  -4  -9  -1   18.70    7.50
  -4  -9  -1   16.50   14.50
  -4  -9  -1    8.80    9.10
   4   9   1   28.00   12.50
   4   9   1    2.70   12.30
   6 -10  -1   10.70   13.90
   6 -10  -1   19.90    8.20
   6 -10  -1   22.60   12.90
   6 -10  -1   10.00   11.00
  -6  10   1   19.20   17.30
  -6  10   1   13.70   11.50
   5 -10  -1    5.90   10.00
   5 -10  -1    0.30    8.40
   5 -10  -1    4.10    8.90
   5 -10  -1    4.30    6.40
   5 -10  -1    7.80    9.60
  -5  10   1   -6.80   14.80
  -5  10   1   -0.90   10.20
   4 -10  -1   14.00    8.80
   4 -10  -1   15.90    9.70
   4 -10  -1   17.30    9.70
   4 -10  -1   26.80    7.20
   4 -10  -1   27.10    8.70
  -4  10   1   28.40   10.60
  -4  10   1    3.60   13.80
   3 -10  -1  173.38   31.20
   3 -10  -1  192.98   31.60
   3 -10  -1  207.98   30.90
  -3  10   1  197.18   31.60
  -3  10   1   86.09   32.10
   2 -10  -1   82.29   18.00
   2 -10  -1   78.89   17.80
   2 -10  -1  117.79   17.80
   2 -10  -1   99.49   17.20
  -2  10   1   90.59   19.80
  -2  10   1   96.69   17.80
  -2  10   1   77.59   17.70
   1 -10  -1   68.39   14.60
   1 -10  -1   69.19   14.90
   1 -10  -1   71.59   13.40
   1 -10  -1   68.29   14.80
  -1  10   1   84.99   16.00
  -1  10   1   54.99   14.30
  -1  10   1   63.59   13.90
   0 -10  -1  144.99   27.10
   0 -10  -1  141.89   28.10
   0 -10  -1  156.88   28.40
   0  10   1  157.28   28.20
   0  10   1  173.38   28.90
   0  10   1  161.68   27.50
  -1 -10  -1   52.99   10.00
  -1 -10  -1   57.39   12.50
  -1 -10  -1   37.40   12.40
   1  10   1   24.50   12.30
   1  10   1   44.70   12.50
  -2 -10  -1   48.00   14.60
  -2 -10  -1   35.60   12.50
  -2 -10  -1   46.90   10.00
   2  10   1   31.10   13.10
   2  10   1   36.90   13.10
   2  10   1   65.99   13.10
  -3 -10  -1    6.70    8.80
  -3 -10  -1  -13.60   13.10
  -3 -10  -1   -7.30    6.70
   3  10   1    6.10   10.80
   3  10   1  -14.00   11.80
   6 -11  -1  -18.20   11.40
   6 -11  -1   -7.40   12.90
   6 -11  -1    2.20    8.90
  -6  11   1   -4.20   23.90
   5 -11  -1   75.39   21.60
   5 -11  -1  105.69   21.80
   5 -11  -1  107.69   20.30
   5 -11  -1  141.99   20.60
   5 -11  -1   87.49   18.90
  -5  11   1  141.09   21.90
  -5  11   1   21.80   24.80
   4 -11  -1   38.30   13.10
   4 -11  -1   46.00   10.60
   4 -11  -1   47.30   12.40
   4 -11  -1   54.49   12.20
   4 -11  -1   24.90   13.10
  -4  11   1   54.89   13.40
  -4  11   1   28.60   17.90
   3 -11  -1    1.40    8.00
   3 -11  -1    2.50    9.50
   3 -11  -1    8.50    9.80
  -3  11   1   14.00   10.20
  -3  11   1   10.80   14.50
   2 -11  -1    1.30    7.20
   2 -11  -1    4.50    8.60
   2 -11  -1   11.90    9.90
  -2  11   1   -2.20   13.40
  -2  11   1   -9.40    9.90
   1 -11  -1   21.10    7.90
   1 -11  -1   15.30   10.40
   1 -11  -1    5.30    9.60
  -1  11   1   23.80    9.90
  -1  11   1   17.20    9.50
  -1  11   1    8.10   11.70
   0 -11  -1   16.20    7.40
   0 -11  -1    0.20   10.30
   0 -11  -1   15.30   10.90
   0  11   1    8.20   10.40
   0  11   1   25.20   11.10
  -1 -11  -1   24.40   11.50
  -1 -11  -1   17.90   11.20
  -1 -11  -1   19.90    8.20
   1  11   1   27.20   13.10
   1  11   1   14.00   12.10
  -2 -11  -1   -7.90   11.80
  -2 -11  -1   -8.70   13.70
  -2 -11  -1   13.30    7.90
   2  11   1   -5.00   13.20
   2  11   1    2.80   12.30
   5 -12  -1   33.60   15.30
   4 -12  -1   -1.70   17.10
   4 -12  -1  -10.40   11.20
   4 -12  -1  -12.50   11.70
   4 -12  -1   -6.70    8.70
  -4  12   1   -3.70   19.10
  -4  12   1    3.80   13.60
   3 -12  -1   23.60   25.20
   3 -12  -1   51.79   12.90
  -3  12   1   52.49   14.40
  -3  12   1   19.80   22.40
   2 -12  -1   36.80   13.20
   2 -12  -1   12.20   11.40
   2 -12  -1   37.50   10.90
  -2  12   1   42.60   14.10
  -2  12   1    7.70   17.90
   1 -12  -1    0.40   12.00
   1 -12  -1    2.20   10.60
  -1  12   1    9.80   13.40
  -1  12   1   21.60   12.70
   0 -12  -1   -1.60    8.70
   0 -12  -1    2.90   12.00
   0 -12  -1  -12.20   11.50
   0  12   1    6.00   14.50
   0  12   1   10.10   13.10
  -1 -12  -1   82.59   21.30
  -1 -12  -1   97.89   19.00
   1  12   1  114.09   22.30
   0  13  -2   14.90   14.20
   0 -13   2    4.80   12.00
   0 -13   2  -12.00   12.70
   0 -13   2  -15.30   11.20
  -1  13  -2    0.40   13.60
  -1  13  -2    1.40   18.80
   1 -13   2   -3.00   12.10
   1 -13   2    7.70   11.00
   1 -13   2   14.80   11.40
  -2  13  -2    0.90   19.20
  -2  13  -2   -5.10   13.20
   2 -13   2   -3.60   11.10
   2 -13   2   -6.40   11.00
   2 -13   2   23.20   13.30
  -3  13  -2   58.99   17.80
  -3  13  -2   41.90   25.90
   3 -13   2   73.49   17.00
   3 -13   2   52.09   16.80
   3 -13   2   38.20   14.80
   2  12  -2    2.90   13.30
  -2 -12   2   10.00   11.80
  -2 -12   2    4.90   10.30
  -2 -12   2   -5.70   12.60
   1  12  -2   58.79   15.90
   1  12  -2   71.39   15.60
  -1 -12   2   30.00   17.30
  -1 -12   2   30.50   12.60
   0  12  -2   56.89   14.90
   0  12  -2   63.49   16.30
   0 -12   2   47.50   14.60
   0 -12   2   60.69   13.60
   0 -12   2   53.39   15.00
  -1  12  -2  -12.40   14.70
  -1  12  -2    1.40   11.10
   1 -12   2   -3.80    9.50
   1 -12   2   -7.90    8.60
   1 -12   2   -4.90    9.20
  -2  12  -2  -14.80   14.50
  -2  12  -2   -8.00   10.90
   2 -12   2    7.00    9.90
   2 -12   2    5.20    9.20
   2 -12   2    6.10   10.60
  -3  12  -2   26.00   11.80
  -3  12  -2   28.40   16.60
   3 -12   2   18.60   12.50
   3 -12   2   14.70   10.50
   3 -12   2    8.80   10.70
  -4  12  -2  -14.70   16.00
  -4  12  -2   -3.80   12.90
   4 -12   2    4.20    9.20
   4 -12   2    0.10   11.00
   4 -12   2    4.70   12.60
  -5  12  -2   59.09   17.80
  -5  12  -2   -7.40   18.00
   5 -12   2   64.59   16.40
   5 -12   2   68.99   13.70
   5 -12   2   25.10   15.40
   5 -12   2   63.09   15.30
   3  11  -2   12.50   12.10
   3  11  -2   13.90   12.50
  -3 -11   2    8.10   14.00
  -3 -11   2    1.20    9.60
  -3 -11   2   -7.10   11.90
   2  11  -2   17.40   10.90
   2  11  -2   14.50   11.70
  -2 -11   2   14.50   11.50
  -2 -11   2   18.20   11.10
  -2 -11   2   29.70    9.40
   1  11  -2    5.80    9.80
   1  11  -2   10.50   10.50
  -1 -11   2   11.10    8.50
  -1 -11   2    9.30    7.50
  -1 -11   2   -3.40    8.60
   0  11  -2   50.99   12.80
   0  11  -2   56.49   13.60
   0 -11   2   61.59   12.60
   0 -11   2   47.80   11.80
   0 -11   2   37.20   11.70
  -1  11  -2  112.59   18.70
  -1  11  -2   36.50   19.70
   1 -11   2   78.79   17.60
   1 -11   2   97.09   18.50
   1 -11   2  118.59   18.30
  -2  11  -2   70.99   15.10
  -2  11  -2   58.29   17.10
   2 -11   2   84.79   14.30
   2 -11   2   51.79   14.20
   2 -11   2   61.09   14.50
  -3  11  -2  237.38   32.50
  -3  11  -2   63.69   32.50
   3 -11   2  193.38   31.50
   3 -11   2  165.18   31.90
   3 -11   2  225.38   32.20
  -4  11  -2   11.40   10.60
  -4  11  -2   23.50   14.20
   4 -11   2   33.70    9.10
   4 -11   2   13.60   11.10
   4 -11   2   33.20   11.10
   4 -11   2   27.60   10.60
  -5  11  -2  222.78   35.00
  -5  11  -2   84.69   34.40
   5 -11   2  216.98   34.30
   5 -11   2  214.48   34.10
   5 -11   2  248.08   33.50
   5 -11   2  144.99   34.20
  -6  11  -2    1.60   18.70
  -6  11  -2   66.49   16.00
   6 -11   2   41.10   15.20
   6 -11   2   53.49   12.90
   6 -11   2   53.29   15.10
   6 -11   2   20.30   15.10
   4  10  -2    1.50   13.00
   4  10  -2    4.90   12.00
   4  10  -2   -8.30   12.30
  -4 -10   2   -0.80   13.40
  -4 -10   2   -3.00   11.40
  -4 -10   2   -1.10   15.90
   3  10  -2   -7.10    9.60
   3  10  -2   16.30   10.60
  -3 -10   2   -0.50    7.60
  -3 -10   2   -0.90    9.00
  -3 -10   2    9.40   11.40
   2  10  -2   17.50   10.10
   2  10  -2   15.50    9.20
  -2 -10   2   12.20    8.60
  -2 -10   2   18.00    9.80
  -2 -10   2   17.50    7.50
   1  10  -2   57.99   14.80
   1  10  -2   69.39   14.50
  -1 -10   2   85.89   13.70
  -1 -10   2   69.09   14.50
  -1 -10   2   51.89   14.50
   0  10  -2  239.28   34.40
   0  10  -2  210.88   33.90
   0  10  -2  199.28   34.70
   0 -10   2  177.58   33.90
   0 -10   2  122.59   33.50
   0 -10   2  218.58   33.70
   0 -10   2  258.57   36.30
  -1  10  -2    5.30   11.80
  -1  10  -2    0.90    7.40
   1 -10   2    7.60    6.20
   1 -10   2   19.10   10.90
   1 -10   2    9.40    6.40
   1 -10   2    6.40    6.50
  -2  10  -2  100.69   24.10
  -2  10  -2   95.99   18.90
   2 -10   2   99.69   18.90
   2 -10   2  101.69   18.20
   2 -10   2   90.99   18.10
   2 -10   2   93.29   20.60
   2 -10   2  100.99   19.70
  -3  10  -2   36.10   13.70
  -3  10  -2   62.49   15.00
   3 -10   2   77.19   14.20
   3 -10   2   70.79   13.50
   3 -10   2   58.39   13.00
   3 -10   2   64.49   13.50
   3 -10   2   73.79   14.40
  -4  10  -2  544.15   93.49
   4 -10   2  507.85   92.19
   4 -10   2  575.14   91.59
   4 -10   2  505.25   92.09
   4 -10   2  555.14   91.89
  -5  10  -2  255.97   39.20
  -5  10  -2   96.69   38.80
   5 -10   2  238.68   38.50
   5 -10   2  228.08   38.00
   5 -10   2  223.18   38.90
   5 -10   2  284.57   39.20
  -6  10  -2   -7.10   13.00
  -6  10  -2   -4.60   15.00
   6 -10   2   -3.40   18.80
   6 -10   2   -8.70    8.70
   6 -10   2    0.00   11.30
   6 -10   2    1.70   11.00
   5   9  -2   29.00   14.90
   5   9  -2    7.40   13.50
  -5  -9   2   38.40   12.80
  -5  -9   2   21.10   10.40
  -5  -9   2   -8.90   14.60
   4   9  -2   16.10   10.10
   4   9  -2    1.20    9.50
   4   9  -2    0.10   10.00
  -4  -9   2    2.70    7.70
  -4  -9   2   -5.50   11.20
  -4  -9   2    2.70    9.10
   3   9  -2  163.88   26.90
   3   9  -2  151.98   26.60
   3   9  -2  159.18   26.60
  -3  -9   2  131.09   26.30
  -3  -9   2  147.09   25.60
  -3  -9   2  111.69   26.70
   2   9  -2   -2.00    7.20
   2   9  -2    5.80    7.80
  -2  -9   2   13.50    8.70
  -2  -9   2   -2.10    6.40
  -2  -9   2   10.70    5.80
   1   9  -2   17.00    7.90
   1   9  -2    9.70    6.90
  -1  -9   2   17.00   10.10
  -1  -9   2   28.40    6.50
  -1  -9   2   14.70    7.50
  -1  -9   2   26.10    8.20
   0   9  -2   30.50    7.70
   0   9  -2   31.40    8.30
   0   9  -2   13.90    8.40
   0  -9   2   12.90    6.60
   0  -9   2   18.40    6.10
   0  -9   2   24.90    7.20
   0  -9   2   15.90    7.90
  -1   9  -2  462.05   84.59
  -1   9  -2  493.25   84.99
  -1   9  -2  524.75   85.09
  -1   9  -2  493.95   84.79
   1  -9   2  489.95   85.19
   1  -9   2  481.25   84.69
   1  -9   2  584.64   84.59
   1  -9   2  492.65   84.89
   1  -9   2  456.85   84.69
  -2   9  -2   -2.40    5.80
  -2   9  -2   -4.10    6.50
  -2   9  -2    2.00    7.90
  -2   9  -2   10.10    7.30
   2  -9   2    3.60    6.20
   2  -9   2    6.50    5.30
   2  -9   2   -9.70    5.50
   2  -9   2    1.80    5.00
   2  -9   2   -9.10    7.80
  -3   9  -2  -12.50   11.50
  -3   9  -2    9.30    6.90
  -3   9  -2    3.20    8.20
   3  -9   2    5.40   13.20
   3  -9   2   -0.60    5.70
   3  -9   2   -0.40    5.40
   3  -9   2    0.50    9.30
   3  -9   2    1.10    6.80
  -4   9  -2   13.90    8.90
   4  -9   2   26.10   11.80
   4  -9   2   28.80    7.60
   4  -9   2   19.90    6.90
   4  -9   2   25.50    8.40
   4  -9   2   20.90    8.60
  -5   9  -2   25.60   14.10
  -5   9  -2   22.10   13.20
   5  -9   2   49.40   11.70
   5  -9   2   36.90   11.40
   5  -9   2   68.09   12.20
   5  -9   2   44.60   10.10
  -6   9  -2   74.39   15.10
  -6   9  -2   34.40   17.20
   6  -9   2   60.99   12.80
   6  -9   2   67.09   15.10
   6  -9   2   40.60   14.10
   6  -9   2   52.69   13.70
  -7   9  -2   -8.20   19.40
  -7   9  -2   20.70   14.60
   7  -9   2   10.70   12.20
   7  -9   2   33.10   10.60
   7  -9   2    3.10   12.90
   7  -9   2   29.10   12.20
   5   8  -2   31.60   11.80
   5   8  -2   17.70   11.90
   5   8  -2   34.60   12.20
  -5  -8   2   -4.30   12.50
  -5  -8   2   42.80   10.30
  -5  -8   2   52.69   12.10
   4   8  -2   50.79   12.20
   4   8  -2   55.69   13.00
   4   8  -2   23.30   11.40
  -4  -8   2   51.29   11.90
  -4  -8   2   53.79   10.60
  -4  -8   2   34.60   12.40
   3   8  -2   53.39   10.60
   3   8  -2   41.40    9.90
   3   8  -2   44.20   10.00
  -3  -8   2   26.60    9.50
  -3  -8   2   44.90    9.00
  -3  -8   2   19.20   10.40
   2   8  -2   80.09   16.70
   2   8  -2   65.89   11.90
   2   8  -2   56.99   12.30
   2   8  -2   48.90   11.60
  -2  -8   2   54.59   11.10
  -2  -8   2   57.69   13.30
  -2  -8   2   59.99   12.00
  -2  -8   2   47.00   12.50
   1   8  -2  146.09   24.50
   1   8  -2  116.19   23.20
   1   8  -2  148.79   23.60
   1   8  -2  135.29   23.70
  -1  -8   2  118.69   23.40
  -1  -8   2  161.18   24.20
  -1  -8   2  117.79   23.20
  -1  -8   2  143.09   23.70
  -1  -8   2  133.29   22.90
  -1  -8   2  110.29   23.90
   0   8  -2   26.40    7.50
   0   8  -2   22.20    6.10
   0   8  -2   14.10    8.30
   0   8  -2   28.00    6.90
   0   8  -2   27.40    7.30
   0  -8   2   16.40    5.70
   0  -8   2   28.90    6.80
   0  -8   2   17.60    8.00
   0  -8   2   18.60    6.50
   0  -8   2   32.80    8.20
   0  -8   2    6.40    7.20
  -1   8  -2  551.24  102.49
  -1   8  -2  606.04  102.29
  -1   8  -2  614.64  102.39
  -1   8  -2  657.83  102.39
  -1   8  -2  668.03  102.19
   1  -8   2  578.74  102.49
   1  -8   2  612.74  102.19
   1  -8   2  581.64  102.59
   1  -8   2  568.34  102.09
   1  -8   2  637.74  102.39
   1  -8   2  554.04  102.19
  -2   8  -2   62.49   13.70
  -2   8  -2   78.39   14.20
  -2   8  -2   55.19   12.90
  -2   8  -2   72.69   13.20
  -2   8  -2   73.69   13.40
   2  -8   2   39.20   12.40
   2  -8   2   81.59   13.00
   2  -8   2   82.79   13.30
   2  -8   2   82.79   14.20
   2  -8   2   76.09   14.00
  -3   8  -2   12.90    8.00
  -3   8  -2   10.40    6.70
  -3   8  -2   21.70    8.40
  -3   8  -2   21.40    8.20
  -3   8  -2   23.70    7.10
   3  -8   2   17.80    6.30
   3  -8   2   12.70    6.60
   3  -8   2   22.30    8.00
   3  -8   2   14.80    5.90
   3  -8   2   12.90   10.30
   3  -8   2   23.20    5.70
  -4   8  -2  143.79   27.40
  -4   8  -2  117.29   27.90
  -4   8  -2  195.98   28.50
   4  -8   2  139.99   27.00
   4  -8   2  189.58   27.60
   4  -8   2  184.98   28.60
   4  -8   2  145.79   27.50
  -5   8  -2    2.50    9.50
  -5   8  -2   -8.10    7.80
   5  -8   2   -1.30    7.00
   5  -8   2   -3.40    6.60
   5  -8   2   21.90   12.20
   5  -8   2   -2.00    5.30
   5  -8   2   10.10    7.40
  -6   8  -2    8.20   14.00
  -6   8  -2   -2.40    9.50
   6  -8   2   10.90    9.20
   6  -8   2   10.90    8.20
   6  -8   2    3.80    8.40
   6  -8   2    4.80    6.90
  -7   8  -2   22.60   17.60
  -7   8  -2   30.60   14.40
   7  -8   2   48.00   13.60
   7  -8   2   39.70   11.40
   7  -8   2   32.20   14.30
   7  -8   2   42.50   12.50
   6   7  -2  -12.50   11.70
   6   7  -2    7.40   12.30
   6   7  -2   -2.40   19.20
  -6  -7   2    7.30    9.20
  -6  -7   2    5.70   11.60
  -6  -7   2   -1.90   15.80
   5   7  -2   67.39   14.40
   5   7  -2   83.49   15.10
   5   7  -2   58.59   14.00
  -5  -7   2   93.89   14.70
  -5  -7   2    6.00   13.80
  -5  -7   2   68.39   12.90
  -5  -7   2   44.70   14.10
   4   7  -2  119.69   20.30
   4   7  -2  111.39   20.10
   4   7  -2  134.79   20.50
  -4  -7   2   93.89   19.10
  -4  -7   2  143.19   20.40
  -4  -7   2   47.60   19.80
   3   7  -2    7.90    5.70
   3   7  -2   11.00    6.30
   3   7  -2   11.40   10.20
   3   7  -2   -7.20    5.60
  -3  -7   2   12.40    8.20
  -3  -7   2    7.00    6.00
  -3  -7   2    3.70    4.50
  -3  -7   2    9.00    6.70
   2   7  -2  283.67   45.60
   2   7  -2  329.97   48.30
   2   7  -2  287.97   45.80
   2   7  -2  242.18   45.30
   2   7  -2  264.87   45.50
  -2  -7   2  260.97   45.60
  -2  -7   2  251.37   45.00
  -2  -7   2  307.47   45.80
  -2  -7   2  242.98   45.50
  -2  -7   2  238.88   45.60
  -2  -7   2  253.27   45.70
   1   7  -2  457.15   81.59
   1   7  -2  459.15   81.39
   1   7  -2  497.35   81.39
   1   7  -2  474.65   81.39
  -1  -7   2  486.65   81.49
  -1  -7   2  484.75   81.49
  -1  -7   2  511.15   81.49
  -1  -7   2  450.75   81.59
  -1  -7   2  480.15   81.09
  -1  -7   2  496.75   81.39
   0   7  -2  201.88   33.20
   0   7  -2  203.48   33.10
   0   7  -2  181.88   32.80
   0   7  -2  178.58   32.90
   0   7  -2  213.98   33.30
   0  -7   2  146.49   32.80
   0  -7   2  191.48   33.10
   0  -7   2  207.68   33.30
   0  -7   2  191.18   32.70
   0  -7   2  213.68   33.00
   0  -7   2  189.48   32.90
  -1   7  -2   98.29   15.50
  -1   7  -2  113.79   16.20
  -1   7  -2   85.59   15.60
  -1   7  -2   90.09   15.50
  -1   7  -2  126.19   16.10
   1  -7   2   88.39   15.30
   1  -7   2   80.19   15.30
   1  -7   2   89.29   16.00
   1  -7   2   58.69   15.20
   1  -7   2   88.29   15.60
   1  -7   2   64.49   15.30
  -2   7  -2  162.68   30.80
  -2   7  -2  218.88   31.40
  -2   7  -2  191.68   31.10
  -2   7  -2  174.88   31.10
  -2   7  -2  181.88   31.00
   2  -7   2  201.08   31.20
   2  -7   2  143.29   31.10
   2  -7   2  161.28   30.80
   2  -7   2  183.58   31.20
  -3   7  -2   74.29   15.10
  -3   7  -2   93.89   15.30
  -3   7  -2   89.69   15.60
  -3   7  -2   81.29   15.30
  -3   7  -2   83.69   15.50
   3  -7   2   66.99   14.40
   3  -7   2   93.69   19.60
   3  -7   2   88.89   14.80
   3  -7   2   66.09   14.60
   3  -7   2   73.89   14.90
   3  -7   2  103.89   15.70
  -4   7  -2   14.80    8.00
  -4   7  -2   20.30    7.30
  -4   7  -2   12.90    8.40
  -4   7  -2   13.10    7.90
  -4   7  -2   12.90    6.80
   4  -7   2   15.10    5.40
   4  -7   2   33.30    8.60
   4  -7   2   31.00    7.20
   4  -7   2   24.20    6.60
   4  -7   2   16.90    6.30
   4  -7   2   13.20   11.30
  -5   7  -2    8.50    9.00
  -5   7  -2    5.20    7.60
   5  -7   2   18.30    9.60
   5  -7   2    8.70    5.30
   5  -7   2    5.60    6.40
   5  -7   2   15.20    7.00
   5  -7   2   -5.70    6.30
  -6   7  -2    0.40    8.90
  -6   7  -2   -3.90   11.90
   6  -7   2   -1.40    6.20
   6  -7   2   -2.90    7.90
   6  -7   2   -8.50    6.70
   6  -7   2    6.90    7.80
  -7   7  -2    8.20   16.10
  -7   7  -2   15.80   12.30
   7  -7   2   38.20   11.70
   7  -7   2   54.99   12.60
   7  -7   2   28.60   12.20
   7  -7   2   44.30   10.50
   8  -7   2   22.10   12.00
   8  -7   2   30.30   13.30
   8  -7   2   20.90   12.50
   7   6  -2   12.20   13.10
   6   6  -2   58.79   15.70
   6   6  -2   93.49   17.00
   6   6  -2   61.09   15.60
  -6  -6   2   85.09   15.80
  -6  -6   2   32.80   17.30
   5   6  -2   88.89   15.20
   5   6  -2  107.19   16.10
   5   6  -2   67.69   15.30
  -5  -6   2   69.39   15.30
  -5  -6   2   79.89   15.30
  -5  -6   2   28.70   15.40
   4   6  -2  112.69   19.20
   4   6  -2  135.89   19.00
   4   6  -2   98.19   19.50
  -4  -6   2  105.19   18.40
  -4  -6   2   38.60   19.10
  -4  -6   2   97.09   19.60
  -4  -6   2   99.89   17.90
   3   6  -2   28.80    6.40
   3   6  -2    7.50    5.60
   3   6  -2   15.10    8.80
   3   6  -2    7.20    5.30
   3   6  -2    8.80    7.90
  -3  -6   2    9.70    6.30
  -3  -6   2   10.20    7.20
  -3  -6   2   14.00    5.60
  -3  -6   2    8.10    7.30
  -3  -6   2   24.00    6.30
  -3  -6   2    6.80    4.50
   2   6  -2  326.97   52.69
   2   6  -2  293.07   52.49
   2   6  -2  317.47   52.89
   2   6  -2  293.37   52.49
   2   6  -2  309.67   53.09
  -2  -6   2  288.87   52.59
  -2  -6   2  292.87   52.59
  -2  -6   2  303.77   52.89
  -2  -6   2  280.57   52.69
  -2  -6   2  345.97   52.29
  -2  -6   2  326.47   52.69
   1   6  -2  103.89   19.00
   1   6  -2  103.59   19.00
   1   6  -2  131.99   19.10
   1   6  -2  113.39   19.40
  -1  -6   2  120.99   19.20
  -1  -6   2  112.89   19.00
  -1  -6   2  101.49   19.10
  -1  -6   2  102.69   18.60
  -1  -6   2   96.49   18.90
  -1  -6   2   93.59   18.80
   0   6  -2    4.20    3.40
   0   6  -2   -1.40    3.60
   0   6  -2    3.70    3.60
   0   6  -2    5.20    3.60
   0   6  -2   10.60    4.40
   0  -6   2    5.30    4.20
   0  -6   2    8.70    3.30
   0  -6   2   10.70    4.10
   0  -6   2    4.50    3.70
   0  -6   2   11.20    3.60
   0  -6   2   12.20    4.20
  -1   6  -2  438.76   75.19
  -1   6  -2  454.75   75.29
  -1   6  -2  407.36   75.19
  -1   6  -2  454.75   75.39
  -1   6  -2  441.86   75.29
   1  -6   2  449.95   75.39
   1  -6   2  482.65   75.19
   1  -6   2  447.86   75.19
   1  -6   2  437.96   75.29
   1  -6   2  434.76   75.29
  -2   6  -2   77.29   12.50
  -2   6  -2   76.79   12.00
  -2   6  -2   46.10   11.50
  -2   6  -2   72.39   11.80
  -2   6  -2   68.09   12.00
   2  -6   2   55.39   12.00
   2  -6   2   57.49   11.70
   2  -6   2   61.89   11.60
   2  -6   2   59.69   11.70
   2  -6   2   67.29   11.90
  -3   6  -2   72.49   13.70
  -3   6  -2   60.09   13.70
  -3   6  -2   92.29   14.20
  -3   6  -2   76.49   14.60
  -3   6  -2   74.69   14.00
   3  -6   2   69.69   13.70
   3  -6   2   83.29   13.50
   3  -6   2   84.29   14.90
   3  -6   2   68.89   13.70
   3  -6   2   57.79   13.90
   3  -6   2   90.69   14.10
  -4   6  -2   26.50    8.80
  -4   6  -2   27.40    8.50
  -4   6  -2   33.50    7.70
  -4   6  -2   29.80    7.80
  -4   6  -2   38.90    8.50
   4  -6   2   25.50    8.40
   4  -6   2   26.10   10.40
   4  -6   2   36.20    7.00
   4  -6   2   16.00    7.10
   4  -6   2   38.20    7.80
   4  -6   2   33.50    7.40
  -5   6  -2  460.05   82.39
  -5   6  -2  498.75   82.59
  -5   6  -2  468.55   81.99
   5  -6   2  468.65   82.09
   5  -6   2  506.95   81.99
   5  -6   2  475.05   82.39
   5  -6   2  479.25   81.69
   5  -6   2  493.75   81.79
  -6   6  -2   36.30   11.50
  -6   6  -2   23.00    9.10
   6  -6   2   18.70    8.20
   6  -6   2   23.10    8.80
   6  -6   2    8.80    7.80
   6  -6   2   -0.90    6.70
  -7   6  -2    6.90   13.80
  -7   6  -2    0.70    9.80
   7  -6   2    1.50    8.90
   7  -6   2   -2.90    9.30
   7  -6   2    2.00    7.70
   7  -6   2  -10.10    9.20
  -8   6  -2   -3.60   16.80
  -8   6  -2   -9.20   13.80
   8  -6   2    0.40   14.00
   8  -6   2   -1.30   12.90
   8  -6   2    5.10   11.10
   8  -6   2    7.70   12.00
   7   5  -2  120.09   22.50
   7   5  -2  100.39   21.60
   7   5  -2  129.29   22.00
  -7  -5   2   -2.90   25.30
  -7  -5   2  112.59   21.60
   6   5  -2   17.30    8.40
   6   5  -2    6.10    9.00
   6   5  -2    6.50    8.60
  -6  -5   2    2.40    8.50
  -6  -5   2    7.80   10.40
   5   5  -2  140.79   23.20
   5   5  -2  126.39   22.60
   5   5  -2  140.19   23.00
  -5  -5   2  127.89   22.80
  -5  -5   2   64.69   22.80
  -5  -5   2  145.89   22.80
   4   5  -2  104.89   22.50
   4   5  -2  157.78   23.90
   4   5  -2  125.49   22.60
   4   5  -2  130.99   22.90
  -4  -5   2  139.69   22.90
  -4  -5   2  134.59   22.50
  -4  -5   2  120.09   23.30
  -4  -5   2  128.09   22.90
  -4  -5   2  112.69   23.10
  -4  -5   2  133.59   23.80
   3   5  -2    6.20    7.10
   3   5  -2    3.40    4.30
   3   5  -2   -1.70    4.40
   3   5  -2    5.10    6.50
   3   5  -2   -7.80    4.50
  -3  -5   2   -2.40    5.20
  -3  -5   2   -1.50    5.20
  -3  -5   2   -5.00    5.00
  -3  -5   2    4.60    3.40
  -3  -5   2   -3.40    4.70
  -3  -5   2   -5.60    4.00
   2   5  -2  392.76   68.89
   2   5  -2  384.56   68.79
   2   5  -2  364.16   68.99
   2   5  -2  415.06   68.89
  -2  -5   2  416.46   68.89
  -2  -5   2  417.56   68.89
  -2  -5   2  412.06   68.79
  -2  -5   2  389.66   68.79
  -2  -5   2  444.96   68.99
  -2  -5   2  439.26   69.29
   1   5  -2  886.11  151.78
   1   5  -2  885.21  151.88
   1   5  -2  902.31  151.88
   1   5  -2  958.70  151.88
  -1  -5   2  909.61  151.88
  -1  -5   2  897.11  151.68
  -1  -5   2  849.91  151.78
  -1  -5   2  895.21  151.88
  -1  -5   2  902.31  151.78
  -1  -5   2  927.11  151.78
   0   5  -2  207.98   36.00
   0   5  -2  205.48   35.90
   0   5  -2  195.38   36.00
   0   5  -2  190.98   36.20
   0   5  -2  221.18   35.80
   0  -5   2  210.08   36.00
   0  -5   2  206.18   35.90
   0  -5   2  219.68   35.80
   0  -5   2  212.88   35.90
   0  -5   2  233.18   36.10
  -1   5  -2   50.29   11.30
  -1   5  -2   52.09   11.50
  -1   5  -2   88.89   11.70
  -1   5  -2   49.99   11.30
   1  -5   2   77.69   11.70
   1  -5   2   77.79   11.60
   1  -5   2   49.30   11.40
   1  -5   2   71.79   11.40
   1  -5   2   67.79   11.40
  -2   5  -2 2216.98  371.46
  -2   5  -2 2281.47  371.46
  -2   5  -2 2263.67  371.46
  -2   5  -2 2131.69  371.46
  -2   5  -2 2153.68  371.46
   2  -5   2 2227.68  371.46
   2  -5   2 2168.68  371.46
   2  -5   2 2256.67  371.46
   2  -5   2 2122.09  371.46
   2  -5   2 2192.38  371.36
   2  -5   2 2282.37  371.46
  -3   5  -2   62.99   11.40
  -3   5  -2   58.19   10.90
  -3   5  -2   71.59   11.00
  -3   5  -2   62.29   10.70
  -3   5  -2   61.69   10.90
   3  -5   2   47.10   10.40
   3  -5   2   47.10   10.60
   3  -5   2   46.90   10.60
   3  -5   2   50.69   10.80
   3  -5   2   70.19   10.70
   3  -5   2   66.59   11.70
  -4   5  -2   71.79   13.30
  -4   5  -2   63.49   13.10
  -4   5  -2   63.49   13.20
  -4   5  -2   75.89   13.70
  -4   5  -2   74.79   13.00
   4  -5   2   71.39   13.00
   4  -5   2   77.09   14.70
   4  -5   2   70.79   12.60
   4  -5   2   63.69   13.40
   4  -5   2   66.09   12.90
   4  -5   2   59.69   12.70
  -5   5  -2   55.89   11.90
  -5   5  -2   66.49   13.30
  -5   5  -2   58.79   12.30
  -5   5  -2   83.59   13.10
  -5   5  -2   53.89   11.90
   5  -5   2   45.20   11.80
   5  -5   2   44.90   11.50
   5  -5   2   60.89   13.30
   5  -5   2   68.99   11.50
   5  -5   2   44.90   15.40
   5  -5   2   59.79   11.50
  -6   5  -2   96.29   18.60
  -6   5  -2   75.79   18.30
  -6   5  -2   66.69   24.20
   6  -5   2   86.09   20.00
   6  -5   2  126.39   17.80
   6  -5   2   85.29   18.00
   6  -5   2   81.59   18.30
   6  -5   2  111.29   18.40
  -7   5  -2    4.80   10.00
  -7   5  -2    5.20   12.20
   7  -5   2    0.10    7.90
   7  -5   2    2.50    8.40
   7  -5   2   11.20   10.00
   7  -5   2    4.00    7.80
  -8   5  -2    0.70   13.30
  -8   5  -2    0.50   15.70
   8  -5   2   -2.90   10.40
   8  -5   2   -3.10   12.20
   8  -5   2   12.10   11.70
   8  -5   2   -6.80   10.60
   7   4  -2  212.58   29.20
   7   4  -2  144.09   28.10
   7   4  -2  194.78   29.00
  -7  -4   2  165.78   28.80
  -7  -4   2   56.79   28.50
   6   4  -2    1.30    7.20
   6   4  -2    2.00    8.50
   6   4  -2    1.20    7.70
  -6  -4   2   -4.70    9.40
  -6  -4   2   -0.50    7.10
   5   4  -2   40.40    9.80
   5   4  -2   35.80   10.10
   5   4  -2   36.60    9.70
  -5  -4   2   39.60   10.10
  -5  -4   2   45.20    9.80
  -5  -4   2   54.39   10.30
  -5  -4   2   50.69   11.90
   4   4  -2   28.80    6.70
   4   4  -2   27.80    8.70
   4   4  -2   24.80    6.60
   4   4  -2   17.30    9.20
   4   4  -2   19.70    6.10
  -4  -4   2   24.30    6.60
  -4  -4   2   31.70    7.40
  -4  -4   2   14.60    7.80
  -4  -4   2   22.00    6.20
  -4  -4   2   21.00    6.90
  -4  -4   2   29.20    7.50
   3   4  -2  814.72  131.59
   3   4  -2  802.12  131.69
   3   4  -2  682.73  131.69
   3   4  -2  813.22  131.59
   3   4  -2  792.52  131.59
  -3  -4   2  818.42  131.69
  -3  -4   2  771.82  131.59
  -3  -4   2  766.32  131.59
  -3  -4   2  797.82  131.59
  -3  -4   2  746.13  131.69
   2   4  -2   -0.20    3.20
   2   4  -2    5.10    4.40
   2   4  -2   -0.70    3.80
   2   4  -2    2.90    2.90
   2   4  -2    5.00    3.20
  -2  -4   2    2.10    3.60
  -2  -4   2    7.30    3.30
  -2  -4   2    3.20    2.50
  -2  -4   2   -1.20    3.20
  -2  -4   2    1.60    2.50
  -2  -4   2   11.40    3.60
   1   4  -2 1863.71  316.87
   1   4  -2 1842.42  316.87
   1   4  -2 1876.81  316.87
   1   4  -2 1867.81  316.87
  -1  -4   2 1888.91  316.87
  -1  -4   2 1886.21  316.87
  -1  -4   2 1942.51  316.87
  -1  -4   2 1861.41  316.87
  -1  -4   2 1884.21  316.87
  -1  -4   2 1926.01  316.97
   0   4  -2 1056.19  174.88
   0   4  -2 1035.20  174.88
   0   4  -2 1015.10  174.88
   0   4  -2 1044.10  174.88
   0   4  -2 1066.89  174.88
   0  -4   2 1048.90  174.98
   0  -4   2 1019.20  174.88
   0  -4   2 1034.20  174.88
   0  -4   2 1028.20  174.88
   0  -4   2 1043.80  174.98
   0  -4   2 1040.10  174.88
  -1   4  -2   13.30    3.30
  -1   4  -2    9.60    3.70
  -1   4  -2   12.50    3.30
  -1   4  -2    6.40    3.40
  -1   4  -2   21.00    3.50
   1  -4   2   13.50    3.30
   1  -4   2   21.40    3.50
   1  -4   2   12.50    3.40
   1  -4   2    6.60    3.00
   1  -4   2   19.20    3.80
  -2   4  -2  373.56   61.09
  -2   4  -2  364.96   61.19
  -2   4  -2  330.67   61.09
  -2   4  -2  369.06   61.29
  -2   4  -2  342.67   61.19
   2  -4   2  365.26   61.19
   2  -4   2  364.66   61.09
   2  -4   2  355.66   61.09
   2  -4   2  372.76   61.09
   2  -4   2  346.77   61.29
   2  -4   2  391.06   61.19
  -3   4  -2  215.18   38.90
  -3   4  -2  240.58   39.00
  -3   4  -2  227.38   39.00
  -3   4  -2  231.58   39.10
  -3   4  -2  255.97   39.10
   3  -4   2  219.18   39.40
   3  -4   2  234.98   38.90
   3  -4   2  252.67   39.00
   3  -4   2  206.78   39.00
   3  -4   2  229.08   39.40
   3  -4   2  192.28   39.00
  -4   4  -2   11.60    6.50
  -4   4  -2   13.90    5.50
  -4   4  -2   25.30    6.20
  -4   4  -2   15.60    5.70
  -4   4  -2   14.90    5.40
  -4   4  -2   16.10    5.30
   4  -4   2   25.00    7.40
   4  -4   2   18.20    6.10
   4  -4   2   17.20    5.20
   4  -4   2   11.70    4.60
   4  -4   2   18.90    5.00
   4  -4   2   19.20    5.10
  -5   4  -2  253.37   41.40
  -5   4  -2  257.17   41.30
  -5   4  -2  249.18   41.20
  -5   4  -2  209.98   41.30
  -5   4  -2  208.98   41.30
  -5   4  -2  213.38   41.50
   5  -4   2  239.38   41.00
   5  -4   2  244.88   41.50
   5  -4   2  248.28   41.30
   5  -4   2  222.98   42.20
   5  -4   2  244.68   41.10
   5  -4   2  276.17   41.50
  -6   4  -2    6.40    9.10
  -6   4  -2   12.30    8.70
  -6   4  -2    4.20    7.90
   6  -4   2   26.50   11.20
   6  -4   2    4.20    7.10
   6  -4   2    0.40    6.60
   6  -4   2   16.40    6.10
  -7   4  -2   10.00   10.20
  -7   4  -2   20.50   11.60
   7  -4   2   29.20    9.10
   7  -4   2    4.00    9.80
   7  -4   2    8.20    8.60
   7  -4   2   15.10    7.90
  -8   4  -2   -2.70   17.30
  -8   4  -2    0.60   13.30
   8  -4   2    8.00   10.90
   8  -4   2   16.40   12.40
   8  -4   2   -3.30   11.30
   8  -4   2    3.10   11.70
   8   3  -2    2.90   14.60
   8   3  -2    1.50   12.30
   8   3  -2   -1.10   15.40
   7   3  -2   11.50   10.00
   7   3  -2   13.10    9.80
   7   3  -2    1.80    8.70
  -7  -3   2    2.40   11.00
   6   3  -2  183.48   22.90
   6   3  -2  122.99   21.90
   6   3  -2  144.49   22.50
  -6  -3   2   85.39   22.30
  -6  -3   2  147.29   22.60
  -6  -3   2   40.70   22.70
   5   3  -2   28.40    7.90
   5   3  -2   35.10    7.80
   5   3  -2   35.30   10.60
   5   3  -2   35.70    8.40
   5   3  -2   14.80   12.40
  -5  -3   2   38.50   10.00
  -5  -3   2   28.60    8.30
  -5  -3   2   11.40    9.60
  -5  -3   2   35.50    8.30
  -5  -3   2   36.60    9.20
   4   3  -2  461.55   76.19
   4   3  -2  425.96   76.19
   4   3  -2  408.96   75.99
   4   3  -2  478.45   75.99
  -4  -3   2  428.46   75.89
  -4  -3   2  437.26   76.39
  -4  -3   2  453.25   75.99
  -4  -3   2  491.45   76.19
  -4  -3   2  456.45   76.19
   3   3  -2   68.09   11.50
   3   3  -2   77.69   11.80
   3   3  -2   32.80   11.50
   3   3  -2   65.09   11.50
   3   3  -2   66.79   11.30
  -3  -3   2   84.09   11.70
  -3  -3   2   77.99   11.90
  -3  -3   2   79.29   11.70
  -3  -3   2   22.70   11.50
  -3  -3   2   68.39   11.50
   2   3  -2   27.40    5.30
   2   3  -2   26.90    5.60
   2   3  -2   31.30    5.50
   2   3  -2   24.40    5.30
   2   3  -2   39.00    6.10
  -2  -3   2   26.80    5.30
  -2  -3   2   22.10    5.50
  -2  -3   2   24.00    5.60
  -2  -3   2   19.30    5.40
   1   3  -2 3669.33  635.74
   1   3  -2 3860.51  635.74
   1   3  -2 3766.02  635.74
   1   3  -2 3818.92  635.74
   1   3  -2 3851.51  635.74
  -1  -3   2 3806.02  635.74
  -1  -3   2 3673.73  635.74
  -1  -3   2 3829.52  635.74
  -1  -3   2 3789.42  635.74
  -1  -3   2 3830.72  635.74
  -1  -3   2 3707.03  635.74
   0   3  -2 2368.06  398.66
   0   3  -2 2327.57  398.66
   0   3  -2 2415.96  398.66
   0   3  -2 2437.06  398.66
   0   3  -2 2382.96  398.56
   0  -3   2 2421.36  398.66
   0  -3   2 2317.57  398.66
   0  -3   2 2379.86  398.66
   0  -3   2 2322.27  398.56
   0  -3   2 2337.97  398.66
  -1   3  -2   68.49   10.30
  -1   3  -2   56.99   10.10
  -1   3  -2   68.39   10.20
  -1   3  -2   48.60   10.10
  -1   3  -2   47.40   10.00
   1  -3   2   71.59   10.20
   1  -3   2   51.49   10.10
   1  -3   2   64.59   10.30
   1  -3   2   58.19   10.10
   1  -3   2   51.59   10.10
  -2   3  -2    5.20    2.40
  -2   3  -2    0.80    2.90
  -2   3  -2    4.40    2.40
  -2   3  -2    6.00    2.60
  -2   3  -2   10.80    2.60
  -2   3  -2    2.30    2.40
   2  -3   2    3.70    3.30
   2  -3   2    3.10    2.10
   2  -3   2   -0.80    2.00
   2  -3   2    5.00    2.50
   2  -3   2    4.10    2.30
   2  -3   2    5.60    2.50
  -3   3  -2 2437.66  409.96
  -3   3  -2 2473.25  409.96
  -3   3  -2 2461.65  409.96
  -3   3  -2 2492.95  409.96
  -3   3  -2 2387.46  409.86
  -3   3  -2 2471.15  409.96
   3  -3   2 2367.66  409.86
   3  -3   2 2299.27  409.86
   3  -3   2 2373.96  409.96
   3  -3   2 2558.64  409.96
   3  -3   2 2478.75  409.86
   3  -3   2 2452.05  409.96
  -4   3  -2  202.98   34.80
  -4   3  -2  181.68   34.60
  -4   3  -2  203.68   35.20
  -4   3  -2  212.88   34.70
  -4   3  -2  192.88   35.00
  -4   3  -2  191.88   34.90
   4  -3   2  223.88   35.00
   4  -3   2  236.78   35.50
   4  -3   2  210.48   34.70
   4  -3   2  212.38   34.60
   4  -3   2  182.58   34.60
   4  -3   2  182.18   34.70
  -5   3  -2    4.30    5.30
  -5   3  -2   -3.10    9.80
  -5   3  -2   43.80    7.30
  -5   3  -2    1.20    5.10
  -5   3  -2    6.00    6.60
   5  -3   2    1.70    5.10
   5  -3   2    3.30    4.50
   5  -3   2    3.30    4.50
   5  -3   2   -1.30    5.30
   5  -3   2    0.70    9.90
   5  -3   2    6.70    7.40
  -6   3  -2  247.68   37.60
  -6   3  -2  207.58   37.10
   6  -3   2  209.18   37.00
   6  -3   2  281.37   38.40
   6  -3   2  205.38   36.70
   6  -3   2  214.88   36.80
   6  -3   2  162.58   36.90
  -7   3  -2   25.70   13.60
  -7   3  -2   32.60   11.00
   7  -3   2   18.70   10.20
   7  -3   2   15.40    9.00
   7  -3   2   25.50    9.70
   7  -3   2   10.30    9.10
  -8   3  -2   19.20   14.20
  -8   3  -2   17.90   17.40
   8  -3   2    4.90   12.10
   8  -3   2    6.90   12.70
   8  -3   2    2.30   11.10
   8  -3   2   13.30   11.00
   8   2  -2   -3.40   10.30
   8   2  -2   -1.20   11.80
  -8  -2   2   -8.60   17.90
  -8  -2   2   16.20   19.00
   7   2  -2   40.60   11.20
   7   2  -2   21.80   10.30
   7   2  -2   44.90   10.10
  -7  -2   2   21.70   12.50
  -7  -2   2    5.90   15.30
   6   2  -2   -4.50    5.50
   6   2  -2    9.10    7.20
   6   2  -2   10.30    7.30
  -6  -2   2    8.10    7.70
  -6  -2   2    6.00    8.60
  -6  -2   2   -3.60   10.90
   5   2  -2   29.30    9.00
   5   2  -2   34.60   10.20
   5   2  -2   36.80    8.40
   5   2  -2   45.20    9.00
   5   2  -2   32.50   12.20
  -5  -2   2   37.60    9.50
  -5  -2   2   34.10    9.40
  -5  -2   2   43.30   10.20
  -5  -2   2   43.20    9.30
  -5  -2   2   45.70   10.70
  -5  -2   2   50.19    9.00
   4   2  -2  582.84  101.29
   4   2  -2  586.64  101.19
   4   2  -2  629.04  101.19
   4   2  -2  576.64  100.99
  -4  -2   2  566.74  101.19
  -4  -2   2  600.84  101.19
  -4  -2   2  605.64  101.29
  -4  -2   2  681.53  101.39
  -4  -2   2  569.64  101.09
  -4  -2   2  597.84  101.09
   3   2  -2  324.87   56.29
   3   2  -2  315.77   56.59
   3   2  -2  325.27   56.39
   3   2  -2  337.37   56.49
   3   2  -2  346.07   56.49
  -3  -2   2  336.57   56.29
  -3  -2   2  347.07   56.49
  -3  -2   2  335.77   56.49
  -3  -2   2  356.76   56.59
  -3  -2   2  293.67   56.49
  -3  -2   2  345.27   56.39
   2   2  -2   11.80    3.40
   2   2  -2   10.00    3.00
   2   2  -2   13.60    3.30
   2   2  -2   15.70    3.60
   2   2  -2   12.30    3.40
  -2  -2   2   22.90    3.60
  -2  -2   2   10.60    3.30
  -2  -2   2   16.60    3.50
  -2  -2   2   14.20    3.60
  -2  -2   2   13.90    4.10
   1   2  -2 2783.22  457.25
   1   2  -2 2844.02  457.25
   1   2  -2 2688.63  457.25
   1   2  -2 2672.13  457.25
  -1  -2   2 2706.03  457.25
  -1  -2   2 2732.63  457.25
  -1  -2   2 2600.94  457.25
  -1  -2   2 2735.63  457.25
   0   2  -2  826.12  138.99
  -1   2  -2 2842.92  481.85
  -1   2  -2 2983.40  481.95
  -1   2  -2 2866.41  481.95
  -1   2  -2 2603.94  481.85
  -1   2  -2 2894.41  481.85
   1  -2   2 2975.10  481.95
   1  -2   2 2927.31  481.95
   1  -2   2 2885.81  481.95
   1  -2   2 2966.60  481.95
   1  -2   2 2753.92  481.85
   1  -2   2 2842.82  481.85
  -2   2  -2  102.99   19.10
  -2   2  -2  117.29   19.20
  -2   2  -2  113.79   19.10
  -2   2  -2  109.59   19.10
  -2   2  -2  102.59   19.10
  -2   2  -2  108.49   19.10
   2  -2   2  102.09   19.20
   2  -2   2  115.29   19.20
   2  -2   2  113.79   19.10
   2  -2   2  115.29   19.00
   2  -2   2  115.09   19.10
   2  -2   2  117.29   19.30
  -3   2  -2  921.21  160.18
  -3   2  -2  958.70  160.18
  -3   2  -2  912.11  160.18
  -3   2  -2  912.11  160.18
  -3   2  -2  934.11  160.18
  -3   2  -2  994.30  160.18
   3  -2   2  986.20  160.18
   3  -2   2  942.71  160.28
   3  -2   2  918.81  160.18
   3  -2   2  960.70  160.18
   3  -2   2  997.00  160.18
   3  -2   2  982.20  160.28
  -4   2  -2  281.57   47.70
  -4   2  -2  283.37   47.90
  -4   2  -2  277.57   48.00
  -4   2  -2  288.77   48.00
  -4   2  -2  280.57   47.70
  -4   2  -2  271.87   47.80
   4  -2   2  313.47   48.00
   4  -2   2  260.67   47.90
   4  -2   2  276.57   47.70
   4  -2   2  270.27   47.60
   4  -2   2  273.67   48.30
   4  -2   2  279.97   47.60
  -5   2  -2   12.00    6.80
  -5   2  -2    8.80    6.70
  -5   2  -2   12.00    6.00
  -5   2  -2   16.50    5.90
  -5   2  -2   12.90    7.50
  -5   2  -2   17.20    8.80
   5  -2   2   12.60    5.10
   5  -2   2   13.10    5.60
   5  -2   2    9.70    5.70
   5  -2   2    5.70   10.00
   5  -2   2    2.20    4.70
   5  -2   2   15.50    7.00
  -6   2  -2   -2.70    9.70
  -6   2  -2    8.10    7.50
  -6   2  -2   -1.90    7.40
   6  -2   2    1.30    6.00
   6  -2   2    2.70    6.10
   6  -2   2    7.00    6.00
   6  -2   2    0.10   10.70
   6  -2   2    6.40    6.90
  -7   2  -2   52.39   13.40
  -7   2  -2   74.09   17.10
   7  -2   2   61.49   12.60
   7  -2   2   46.90   12.30
   7  -2   2   48.10   13.50
   7  -2   2   39.80   12.50
  -8   2  -2    0.60   19.30
  -8   2  -2   18.60   14.30
   8  -2   2    6.10   11.10
   8  -2   2    4.10   11.10
   8  -2   2   14.10   12.70
   8  -2   2    1.30   11.10
   8   1  -2   31.10   10.60
   8   1  -2   29.70   11.90
   8   1  -2   18.00   11.90
  -8  -1   2    1.40   13.30
  -8  -1   2   -4.20   18.20
   7   1  -2    9.00    8.40
   7   1  -2    2.30    8.60
   7   1  -2  -11.30    6.80
  -7  -1   2   -6.10   12.70
  -7  -1   2   10.70    9.30
   6   1  -2   73.49   13.00
   6   1  -2   59.09   12.70
   6   1  -2   65.19   12.20
  -6  -1   2   40.30   21.30
  -6  -1   2   80.29   13.50
  -6  -1   2   47.60   13.80
  -6  -1   2   43.30   13.00
  -6  -1   2   66.59   13.30
   5   1  -2   -5.10   10.20
   5   1  -2    2.00    4.60
   5   1  -2   -3.00    4.40
   5   1  -2   25.20    8.90
   5   1  -2    8.70    4.30
  -5  -1   2   11.20    6.40
  -5  -1   2   12.40    6.70
  -5  -1   2   10.80    5.70
  -5  -1   2    4.20    5.20
  -5  -1   2    9.70    5.30
  -5  -1   2   10.20    6.20
   4   1  -2  125.69   22.70
   4   1  -2  121.39   23.10
   4   1  -2  143.19   22.70
   4   1  -2  137.89   22.50
   4   1  -2  161.78   23.00
  -4  -1   2  110.39   22.50
  -4  -1   2  183.88   23.20
  -4  -1   2  107.09   22.60
  -4  -1   2  103.09   22.50
  -4  -1   2  148.69   22.70
  -4  -1   2  116.59   22.40
   3   1  -2  187.18   32.10
   3   1  -2  190.48   32.30
   3   1  -2  167.38   32.20
   3   1  -2  196.18   32.50
   3   1  -2  193.58   32.20
  -3  -1   2  187.48   32.40
  -3  -1   2  199.28   32.20
  -3  -1   2  184.08   32.10
  -3  -1   2  198.08   32.30
  -3  -1   2  180.18   32.10
  -3  -1   2  195.28   32.30
   2   1  -2  481.65   80.69
   2   1  -2  501.55   80.69
   2   1  -2  489.95   80.69
   2   1  -2  483.85   80.69
   2   1  -2  473.25   80.69
  -2  -1   2  469.55   80.69
  -2  -1   2  465.75   80.69
  -2  -1   2  469.15   80.69
  -2  -1   2  481.75   80.69
  -2  -1   2  472.55   80.69
   1   1  -2  357.36   60.19
  -1   1  -2 6145.69  993.10
  -1   1  -2 5873.51  993.00
  -1   1  -2 5402.76  993.00
   1  -1   2 5919.31  993.00
   1  -1   2 5887.11  993.00
   1  -1   2 5639.34  993.00
   1  -1   2 6142.99  993.00
   1  -1   2 6070.59  993.00
   1  -1   2 6101.69  993.00
  -2   1  -2  121.19   21.00
  -2   1  -2  133.09   21.10
  -2   1  -2  118.99   21.10
  -2   1  -2  127.29   21.10
  -2   1  -2  121.29   21.00
  -2   1  -2  116.99   21.10
   2  -1   2  141.19   21.10
   2  -1   2  107.09   21.10
   2  -1   2  119.09   21.30
   2  -1   2  113.89   21.00
   2  -1   2  126.89   21.10
   2  -1   2  131.29   21.10
  -3   1  -2  211.88   37.40
  -3   1  -2  227.08   37.40
  -3   1  -2  217.28   37.50
  -3   1  -2  228.48   37.40
  -3   1  -2  216.28   37.60
  -3   1  -2  210.98   37.20
   3  -1   2  209.68   37.50
   3  -1   2  239.18   37.70
   3  -1   2  222.08   37.30
   3  -1   2  220.28   37.50
   3  -1   2  214.08   37.40
  -4   1  -2  199.08   33.20
  -4   1  -2  159.18   32.80
  -4   1  -2  155.58   32.70
  -4   1  -2  239.88   33.30
  -4   1  -2  197.28   33.10
  -4   1  -2  218.08   33.10
   4  -1   2  211.38   32.80
   4  -1   2  191.48   33.10
   4  -1   2  161.98   33.40
   4  -1   2  191.68   33.00
   4  -1   2  192.88   33.10
   4  -1   2  193.28   32.90
  -5   1  -2   17.00    8.00
  -5   1  -2    5.90    5.60
  -5   1  -2    9.00    8.80
  -5   1  -2    1.80    6.30
  -5   1  -2    3.60    5.00
  -5   1  -2   11.50    5.50
   5  -1   2    2.50    9.30
   5  -1   2    1.80    7.70
   5  -1   2    0.60    4.90
   5  -1   2   -1.50    4.90
   5  -1   2   13.70    4.80
   5  -1   2   12.80    5.70
  -6   1  -2   89.89   17.30
  -6   1  -2  109.29   18.70
  -6   1  -2   67.29   16.60
   6  -1   2   67.69   18.90
   6  -1   2   94.09   16.90
   6  -1   2   84.89   16.30
   6  -1   2   91.59   16.10
   6  -1   2   76.89   16.20
  -7   1  -2   61.99   15.50
  -7   1  -2   39.90   19.10
   7  -1   2   82.89   14.30
   7  -1   2   79.99   14.70
   7  -1   2   53.69   15.10
   7  -1   2   58.79   14.90
  -8   1  -2   -3.90   18.20
  -8   1  -2    5.20   19.40
   8  -1   2   -5.10   12.40
   8  -1   2   -5.40   10.50
   8  -1   2    2.50   11.90
   8   0  -2    6.60   10.80
   8   0  -2   32.00   11.10
   8   0  -2    3.70    8.80
  -8   0   2   34.50   16.70
  -8   0   2   -8.70   14.90
   7   0  -2   11.30    6.90
   7   0  -2   -5.10    7.70
   7   0  -2   10.60    7.70
  -7   0   2    2.50   11.40
  -7   0   2    5.30    8.40
   6   0  -2   61.99   16.60
   6   0  -2   91.89   16.40
   6   0  -2   75.69   16.90
  -6   0   2  111.49   18.30
  -6   0   2   81.69   17.00
  -6   0   2   80.89   16.80
  -6   0   2  119.59   18.20
  -6   0   2  122.49   17.60
   5   0  -2   21.30    6.20
   5   0  -2   33.10    7.90
   5   0  -2   22.50    6.60
   5   0  -2   33.60    5.70
   5   0  -2   14.70    9.70
  -5   0   2   23.90    6.60
  -5   0   2   30.20    6.10
  -5   0   2   10.00    6.80
  -5   0   2   11.70    6.80
  -5   0   2   15.10    6.20
   4   0  -2    4.90    3.50
   4   0  -2   10.00    3.80
   4   0  -2   14.20    6.00
   4   0  -2   10.00    3.10
   4   0  -2    5.60    3.50
   4   0  -2    5.00    4.80
  -4   0   2    2.00    4.80
  -4   0   2    3.50    3.30
  -4   0   2   14.60    4.20
  -4   0   2   10.80    4.00
  -4   0   2    9.10    4.60
  -4   0   2    1.80    3.90
   3   0  -2  438.26   76.19
   3   0  -2  435.36   76.19
   3   0  -2  440.66   76.09
   3   0  -2  453.05   76.19
   3   0  -2  455.55   76.09
   3   0  -2  484.65   76.39
  -3   0   2  466.75   76.19
  -3   0   2  463.25   76.19
  -3   0   2  445.06   76.09
  -3   0   2  441.46   76.19
  -3   0   2  431.76   76.29
  -3   0   2  463.95   76.19
  -1   0   2   15.50    2.80
  -1   0   2   12.80    3.00
  -1   0   2   12.80    2.80
  -1   0   2   16.40    2.70
  -1   0   2   15.10    2.70
   0   0   2 1041.40  177.78
   0   0   2 1045.40  177.68
   0   0   2 1121.19  177.78
   0   0   2 1019.90  177.78
  -1   0  -2   19.40    3.10
  -1   0  -2    8.60    3.00
  -1   0  -2   13.10    3.10
  -1   0  -2   24.50    3.20
  -1   0  -2   15.90    3.10
   1   0   2   17.40    3.50
   1   0   2   14.70    3.20
   1   0   2   17.80    3.30
   1   0   2   20.60    3.20
   1   0   2   14.70    3.10
   1   0   2   15.70    2.90
  -2   0  -2   28.60    4.80
  -2   0  -2   38.40    5.40
  -2   0  -2   21.30    5.00
  -2   0  -2   21.30    5.50
  -2   0  -2   21.90    5.10
  -2   0  -2   30.40    5.20
   2   0   2   20.10    5.00
   2   0   2   31.10    5.30
   2   0   2   24.10    5.20
   2   0   2   26.60    4.80
   2   0   2   22.90    5.20
   2   0   2   30.00    5.10
  -3   0  -2  549.15   94.99
  -3   0  -2  575.44   95.09
  -3   0  -2  515.85   94.99
  -3   0  -2  555.24   94.99
  -3   0  -2  586.84   94.89
  -3   0  -2  554.74   95.09
   3   0   2  607.24   95.09
   3   0   2  527.15   94.99
   3   0   2  540.25   94.99
   3   0   2  594.04   94.99
   3   0   2  576.04   95.19
   3   0   2  572.24   94.89
  -4   0  -2 1958.10  342.97
  -4   0  -2 2028.70  343.07
  -4   0  -2 2077.29  342.97
  -4   0  -2 2048.79  342.97
  -4   0  -2 2045.60  342.97
  -4   0  -2 2092.39  342.77
   4   0   2 1954.90  343.07
   4   0   2 2049.70  342.97
   4   0   2 1958.90  342.97
   4   0   2 2058.69  343.07
   4   0   2 2081.09  342.97
   4   0   2 2096.09  342.77
  -5   0  -2  159.78   30.20
  -5   0  -2  179.78   29.80
  -5   0  -2  174.88   30.10
  -5   0  -2  196.18   30.10
  -5   0  -2  161.68   29.20
   5   0   2  182.88   29.20
   5   0   2  199.18   29.70
   5   0   2  152.08   29.70
   5   0   2  160.58   29.40
   5   0   2   98.89   30.70
   5   0   2  172.18   30.10
  -6   0  -2    4.30    9.00
  -6   0  -2   12.30    7.10
   6   0   2    0.00    6.10
   6   0   2    7.70   11.90
   6   0   2    5.90    6.80
   6   0   2    1.40    7.00
   6   0   2    6.30    7.00
  -7   0  -2   -5.70   13.40
  -7   0  -2   -4.40   11.80
   7   0   2   -8.40    9.10
   7   0   2    5.60    9.70
   7   0   2    8.70    9.00
   8   0   2   19.20   14.60
   8   0   2   62.49   15.50
   8   0   2   77.29   19.90
   8  -1  -2   31.60   11.80
   8  -1  -2   39.10   10.70
   8  -1  -2   12.30   11.20
  -8   1   2   55.59   17.70
  -8   1   2   36.60   12.70
   7  -1  -2    5.90    6.20
   7  -1  -2    1.80    7.90
   7  -1  -2   -2.40    7.20
  -7   1   2   -7.90    8.70
  -7   1   2   16.50   10.60
   6  -1  -2    4.30    6.00
   6  -1  -2   -1.70    4.60
   6  -1  -2    9.10    6.10
   6  -1  -2    2.30    5.60
  -6   1   2   12.80    6.30
  -6   1   2    4.30    8.20
  -6   1   2    7.40    6.70
  -6   1   2   -3.30    5.40
  -6   1   2   -0.90    7.70
   5  -1  -2  519.65   79.99
   5  -1  -2  471.05   79.19
   5  -1  -2  471.75   79.09
   5  -1  -2  441.06   79.39
   5  -1  -2  474.95   79.59
   5  -1  -2  502.75   79.49
  -5   1   2  426.06   79.39
  -5   1   2  463.55   79.09
  -5   1   2  473.55   79.49
  -5   1   2  501.25   79.39
  -5   1   2  459.85   79.59
  -5   1   2  423.86   79.59
   4  -1  -2   90.79   16.00
   4  -1  -2   82.79   15.60
   4  -1  -2   87.79   15.90
   4  -1  -2   83.29   15.90
   4  -1  -2   97.99   16.90
   4  -1  -2   90.69   16.10
  -4   1   2  105.19   16.10
  -4   1   2  105.09   16.50
  -4   1   2   94.99   15.70
  -4   1   2   88.99   16.00
  -4   1   2   76.09   15.80
  -4   1   2   86.49   16.20
   3  -1  -2    7.60    3.00
   3  -1  -2    7.70    3.30
   3  -1  -2   10.10    4.90
   3  -1  -2    7.30    2.50
   3  -1  -2    8.10    3.20
   3  -1  -2    5.20    3.10
  -3   1   2   11.70    3.30
  -3   1   2   10.10    3.20
  -3   1   2   12.60    4.10
  -3   1   2   14.70    2.60
  -3   1   2   13.40    3.40
  -3   1   2   13.60    3.60
   2  -1  -2 1934.51  319.77
   2  -1  -2 1863.11  319.77
   2  -1  -2 1845.02  319.67
   2  -1  -2 1876.91  319.77
   2  -1  -2 1880.71  319.77
   2  -1  -2 1896.71  319.77
  -2   1   2 1870.71  319.67
  -2   1   2 1915.31  319.77
  -2   1   2 2011.80  319.77
  -2   1   2 1956.20  319.77
  -2   1   2 1899.11  319.77
  -2   1   2 1883.51  319.77
   1  -1  -2   -0.10    1.10
   1  -1  -2   -0.80    1.10
   1  -1  -2   -0.50    1.30
   1  -1  -2   -3.40    1.20
   1  -1  -2    0.10    1.10
  -1   1   2    2.80    1.40
  -1   1   2   -1.00    1.40
  -1   1   2    1.20    1.30
  -1   1   2    0.50    1.30
  -1   1   2   -2.20    1.20
   0  -1  -2 1999.90  334.47
   0   1   2 2019.10  334.47
   0   1   2 1920.21  334.47
   0   1   2 2101.69  334.47
   0   1   2 1888.11  334.47
   0   1   2 1969.60  334.37
   0   1   2 2031.70  334.47
  -1  -1  -2   -1.00    1.70
  -1  -1  -2   -0.40    1.50
  -1  -1  -2    1.90    1.80
  -1  -1  -2    0.60    2.00
  -1  -1  -2    2.30    0.80
  -1  -1  -2    0.50    1.50
   1   1   2    2.80    1.60
   1   1   2    2.70    1.70
   1   1   2   -0.10    1.60
   1   1   2    2.10    0.80
   1   1   2    6.30    1.80
   1   1   2    2.40    2.00
  -2  -1  -2   38.90    8.70
  -2  -1  -2   46.60    8.40
  -2  -1  -2   50.99    8.90
  -2  -1  -2   61.29    9.30
  -2  -1  -2   57.49    9.00
  -2  -1  -2   59.19    9.20
   2   1   2   40.90    8.70
   2   1   2   39.80    8.70
   2   1   2   43.70    8.90
   2   1   2   52.29    9.00
   2   1   2   66.99    9.40
   2   1   2   50.59    8.40
  -3  -1  -2   46.40    8.50
  -3  -1  -2   29.40    8.20
  -3  -1  -2   49.60    8.70
  -3  -1  -2   43.70    8.50
  -3  -1  -2   46.30    7.90
   3   1   2   50.09    8.50
   3   1   2   47.00    8.40
   3   1   2   50.29    8.30
   3   1   2   36.70    8.70
   3   1   2   33.20    8.20
   3   1   2   44.00    7.80
  -4  -1  -2   40.90    9.40
  -4  -1  -2   51.89    9.70
  -4  -1  -2   37.50    9.40
  -4  -1  -2   47.90    8.50
  -4  -1  -2   45.60    9.10
   4   1   2   41.90    9.70
   4   1   2   44.10    8.90
   4   1   2   46.80    9.00
   4   1   2   20.80   10.30
   4   1   2   42.70    8.30
   4   1   2   50.69    8.90
  -5  -1  -2   43.10    9.80
  -5  -1  -2    6.30    8.60
  -5  -1  -2   26.60    9.20
  -5  -1  -2   32.70    7.10
   5   1   2   19.40    7.60
   5   1   2   38.30    9.90
   5   1   2   33.10    7.50
   5   1   2   24.90    7.50
  -6  -1  -2   13.60    9.30
  -6  -1  -2   19.90    8.00
   6   1   2   16.80    8.90
   6   1   2   25.60    8.10
   6   1   2   19.60    8.70
  -7  -1  -2   -1.70   12.50
  -7  -1  -2   17.70    9.70
   7   1   2   15.00   10.20
   7   1   2   -0.10    9.70
   7   1   2    2.50    9.50
   8  -2  -2   11.10   10.70
   8  -2  -2   14.30   10.70
   8  -2  -2   12.60    8.40
  -8   2   2   43.40   15.40
  -8   2   2    1.60   11.40
   7  -2  -2    0.60    8.10
   7  -2  -2    2.20    7.80
   7  -2  -2   -5.20    5.60
   7  -2  -2   -3.80    7.80
  -7   2   2   13.90    9.10
  -7   2   2   -2.60    8.00
  -7   2   2   -6.90   10.70
   6  -2  -2   50.09    9.00
   6  -2  -2   38.80    9.60
   6  -2  -2   38.00    9.40
   6  -2  -2   41.30   10.10
  -6   2   2   39.20   11.40
  -6   2   2   44.20   10.20
  -6   2   2   42.70    9.30
  -6   2   2   38.20   11.20
   5  -2  -2   71.69   16.10
   5  -2  -2   84.89   16.80
   5  -2  -2   81.89   15.60
   5  -2  -2   95.99   17.70
   5  -2  -2   89.19   16.40
   5  -2  -2   91.39   16.10
  -5   2   2  105.89   17.00
  -5   2   2   81.59   16.30
  -5   2   2   91.89   16.30
  -5   2   2  101.09   16.60
  -5   2   2   95.99   17.20
  -5   2   2   88.79   15.70
   4  -2  -2 2779.22  457.45
   4  -2  -2 2622.34  457.35
   4  -2  -2 2740.53  457.35
   4  -2  -2 2694.43  457.35
   4  -2  -2 2753.52  457.15
   4  -2  -2 2724.63  457.35
  -4   2   2 2768.32  457.35
  -4   2   2 2675.53  457.35
  -4   2   2 2755.32  457.45
  -4   2   2 2687.83  457.35
  -4   2   2 2696.13  457.45
  -4   2   2 2729.93  457.15
   3  -2  -2  207.18   36.60
   3  -2  -2  211.28   36.30
   3  -2  -2  231.38   36.60
   3  -2  -2  207.78   36.50
   3  -2  -2  211.38   36.80
   3  -2  -2  215.38   36.60
  -3   2   2  225.98   36.80
  -3   2   2  214.38   36.30
  -3   2   2  205.38   36.50
  -3   2   2  216.28   36.60
  -3   2   2  220.78   36.70
  -3   2   2  215.28   36.60
   2  -2  -2  723.83  126.09
   2  -2  -2  769.52  126.09
   2  -2  -2  752.52  126.19
   2  -2  -2  751.52  125.89
   2  -2  -2  714.83  126.09
   2  -2  -2  731.93  126.19
  -2   2   2  755.52  126.09
  -2   2   2  784.72  126.19
  -2   2   2  734.63  126.19
  -2   2   2  772.42  126.09
   1  -2  -2   40.20    6.80
   1  -2  -2   34.10    6.80
   1  -2  -2   34.70    6.60
   1  -2  -2   42.20    6.90
   1  -2  -2   38.60    6.90
   1  -2  -2   39.80    6.50
  -1   2   2   31.90    6.90
  -1   2   2   47.80    6.90
  -1   2   2   35.80    6.80
  -1   2   2   54.29    7.00
  -1   2   2   34.70    6.50
  -1   2   2   32.90    6.60
   0  -2  -2  766.42  128.29
   0  -2  -2  764.32  128.29
   0  -2  -2  761.02  128.19
   0  -2  -2  800.32  128.29
   0  -2  -2  763.62  128.29
   0  -2  -2  759.82  128.29
   0   2   2  760.02  128.19
   0   2   2  778.32  128.29
   0   2   2  724.93  128.29
   0   2   2  745.03  128.29
   0   2   2  749.92  128.29
   0   2   2  777.62  128.29
  -1  -2  -2  269.67   48.40
  -1  -2  -2  279.77   48.00
  -1  -2  -2  286.97   48.30
  -1  -2  -2  285.17   48.10
  -1  -2  -2  292.27   48.30
  -1  -2  -2  290.17   48.40
  -1  -2  -2  271.17   48.30
   1   2   2  282.77   48.30
   1   2   2  294.27   48.40
   1   2   2  289.27   48.30
   1   2   2  279.37   48.30
   1   2   2  312.67   48.40
  -2  -2  -2  160.28   27.80
  -2  -2  -2  167.78   27.30
  -2  -2  -2  187.08   27.80
  -2  -2  -2  144.09   27.80
  -2  -2  -2  160.38   27.80
  -2  -2  -2  162.38   27.70
   2   2   2  169.28   27.90
   2   2   2  168.18   27.70
   2   2   2  145.49   27.80
   2   2   2  159.88   28.10
   2   2   2  142.49   27.80
  -3  -2  -2  436.16   74.49
  -3  -2  -2  431.36   74.49
  -3  -2  -2  442.76   74.39
  -3  -2  -2  444.26   74.49
  -3  -2  -2  459.35   74.39
  -3  -2  -2  460.95   74.09
   3   2   2  400.36   74.49
   3   2   2  467.15   74.39
   3   2   2  397.86   74.39
   3   2   2  447.46   74.59
   3   2   2  439.46   74.39
  -4  -2  -2   74.29   11.10
  -4  -2  -2   51.99   12.20
  -4  -2  -2   67.49   12.20
  -4  -2  -2   57.49   11.60
  -4  -2  -2   54.99   12.20
  -4  -2  -2   59.89   11.90
   4   2   2   51.99   11.30
   4   2   2   59.19   12.60
   4   2   2   63.69   11.90
   4   2   2   46.20   15.00
   4   2   2   57.79   11.60
  -5  -2  -2   39.70    9.60
  -5  -2  -2   44.50    9.00
  -5  -2  -2   26.90   10.70
   5   2   2   58.29   12.10
   5   2   2   42.70    9.70
   5   2   2   29.20    9.40
   5   2   2   54.79   10.20
  -6  -2  -2   13.40   10.60
  -6  -2  -2   11.20   10.10
  -6  -2  -2    9.00    7.90
   6   2   2    9.70    8.80
   6   2   2   -0.70    8.30
   6   2   2   17.00    8.10
  -7  -2  -2   -3.90   14.00
  -7  -2  -2   13.30   10.90
   7   2   2   25.10   11.40
   7   2   2    2.80   10.70
   7   2   2    8.40   11.00
   8  -3  -2    5.40   10.10
   8  -3  -2   18.90   10.30
   8  -3  -2    8.50    9.60
   8  -3  -2   -1.40   10.20
  -8   3   2   13.80   11.80
   7  -3  -2   24.90    7.00
   7  -3  -2   12.50    8.60
   7  -3  -2   13.40    8.30
   7  -3  -2   11.50    8.70
  -7   3   2   14.00    8.30
  -7   3   2   26.30   11.80
  -7   3   2   16.20    9.20
   6  -3  -2   50.19   10.80
   6  -3  -2   42.40    9.40
   6  -3  -2   45.10   10.70
   6  -3  -2   62.39   11.20
  -6   3   2   52.49   12.10
  -6   3   2   42.30    9.80
  -6   3   2   40.90   12.60
  -6   3   2   50.09   11.20
   5  -3  -2  419.36   71.79
   5  -3  -2  421.86   71.79
   5  -3  -2  408.46   72.89
   5  -3  -2  371.16   71.99
   5  -3  -2  417.26   71.59
   5  -3  -2  429.96   71.29
  -5   3   2  452.55   72.09
  -5   3   2  432.36   71.89
  -5   3   2  415.26   71.39
  -5   3   2  430.66   71.99
  -5   3   2  437.36   72.19
  -5   3   2  424.76   71.79
   4  -3  -2 1074.19  185.68
   4  -3  -2 1132.09  185.78
   4  -3  -2 1108.29  185.38
   4  -3  -2 1172.28  185.68
   4  -3  -2 1021.80  185.78
   4  -3  -2 1066.49  185.68
  -4   3   2 1085.39  185.78
  -4   3   2 1147.29  185.38
  -4   3   2 1057.89  185.68
  -4   3   2 1178.98  185.68
  -4   3   2 1096.69  185.78
  -4   3   2 1074.79  185.68
   3  -3  -2   50.79    9.60
   3  -3  -2   65.29    9.50
   3  -3  -2   43.80    8.50
   3  -3  -2   58.89    9.30
   3  -3  -2   37.30    8.90
  -3   3   2   53.99    9.20
  -3   3   2   48.40    9.70
  -3   3   2   43.90    9.20
  -3   3   2   55.29    9.90
  -3   3   2   60.79    9.40
   2  -3  -2   -0.80    1.00
   2  -3  -2    2.60    3.10
   2  -3  -2    2.80    2.10
   2  -3  -2   -4.20    2.30
   2  -3  -2   -1.20    2.30
   2  -3  -2   -0.80    2.60
  -2   3   2   -1.80    2.60
  -2   3   2   -2.10    2.10
  -2   3   2   -2.80    2.80
  -2   3   2   -1.80    2.30
  -2   3   2    4.50    2.50
   1  -3  -2  686.03  123.49
   1  -3  -2  728.23  123.29
   1  -3  -2  748.73  123.49
   1  -3  -2  730.53  123.29
   1  -3  -2  710.63  123.39
   1  -3  -2  738.83  123.49
  -1   3   2  759.02  123.49
  -1   3   2  766.12  123.49
  -1   3   2  742.33  123.29
  -1   3   2  709.63  123.49
  -1   3   2  731.03  123.29
  -1   3   2  748.43  123.49
   0  -3  -2   21.00    3.60
   0  -3  -2   14.20    3.90
   0  -3  -2   13.90    4.10
   0  -3  -2   17.90    4.30
   0  -3  -2   15.90    4.40
   0  -3  -2   24.50    4.30
   0   3   2   29.30    4.50
   0   3   2   21.40    3.90
   0   3   2   13.60    4.10
   0   3   2   22.70    4.30
   0   3   2   15.10    4.40
   0   3   2   22.30    3.60
  -1  -3  -2  350.46   58.39
  -1  -3  -2  375.86   58.49
  -1  -3  -2  337.37   58.39
  -1  -3  -2  352.26   58.49
  -1  -3  -2  324.07   58.69
  -1  -3  -2  341.87   58.09
   1   3   2  333.17   58.39
   1   3   2  387.36   58.49
   1   3   2  333.47   58.49
   1   3   2  332.57   58.49
   1   3   2  335.87   58.49
  -2  -3  -2  856.61  151.18
  -2  -3  -2  902.71  151.18
  -2  -3  -2  953.10  151.18
  -2  -3  -2  912.01  150.88
  -2  -3  -2  849.12  151.08
  -2  -3  -2  855.91  151.18
   2   3   2  928.31  151.08
   2   3   2  936.41  151.18
   2   3   2  949.80  151.18
   2   3   2  821.62  151.18
   2   3   2  903.91  151.18
  -3  -3  -2   58.39   10.70
  -3  -3  -2   47.00   11.60
  -3  -3  -2   63.99   12.00
  -3  -3  -2   67.39   11.60
  -3  -3  -2   61.89   11.70
  -3  -3  -2   62.79   11.70
   3   3   2   62.59   12.10
   3   3   2   57.49   11.30
   3   3   2   56.89   11.50
   3   3   2   58.49   11.60
   3   3   2   81.09   13.20
  -4  -3  -2   79.09   18.00
  -4  -3  -2   62.09   17.50
  -4  -3  -2   96.09   17.30
  -4  -3  -2   78.79   17.40
  -4  -3  -2  104.79   16.70
  -4  -3  -2   97.49   18.00
   4   3   2   83.49   17.10
   4   3   2  116.39   17.70
   4   3   2  113.29   17.80
   4   3   2  105.69   19.10
   4   3   2  106.69   18.20
  -5  -3  -2    3.00    5.40
  -5  -3  -2   -8.00    7.50
  -5  -3  -2    0.00    6.40
   5   3   2    6.40    6.70
   5   3   2   -0.10    6.30
   5   3   2    6.10   10.50
   5   3   2   -5.30    5.80
  -6  -3  -2   -2.00   11.00
  -6  -3  -2   16.10    9.40
  -6  -3  -2   30.70    8.80
   6   3   2   25.90   10.00
   6   3   2   31.60    9.60
   6   3   2   27.20    9.60
  -7  -3  -2  -16.20   16.50
  -7  -3  -2   35.10   12.40
   7   3   2   12.30   11.90
   7   3   2   17.00   20.90
   8  -4  -2   65.29   13.80
   8  -4  -2   56.29   15.20
   8  -4  -2   52.09   15.20
   8  -4  -2   54.69   12.10
  -8   4   2   31.50   14.20
  -8   4   2   38.80   18.60
   7  -4  -2    4.90    8.50
   7  -4  -2   13.00    7.80
   7  -4  -2    5.20    5.80
   7  -4  -2    7.90    7.80
  -7   4   2   10.60    7.50
  -7   4   2    5.30    8.80
  -7   4   2   12.30   12.00
   6  -4  -2   72.79   16.20
   6  -4  -2   91.49   15.50
   6  -4  -2   63.89   16.30
   6  -4  -2   99.79   18.40
  -6   4   2   89.69   15.80
  -6   4   2  106.99   18.20
  -6   4   2   98.69   16.70
   5  -4  -2   37.80   10.30
   5  -4  -2   45.00    8.90
   5  -4  -2   43.20    8.40
   5  -4  -2   30.90    8.50
   5  -4  -2   37.00    7.30
   5  -4  -2   26.90   11.00
  -5   4   2   43.10    9.00
  -5   4   2   45.00    7.60
  -5   4   2   34.40    9.40
  -5   4   2   42.50    9.00
  -5   4   2   31.60    9.00
  -5   4   2   26.20    8.90
   4  -4  -2  581.04  102.79
   4  -4  -2  655.23  102.69
   4  -4  -2  589.14  102.99
   4  -4  -2  624.14  102.79
   4  -4  -2  574.64  102.39
   4  -4  -2  645.44  102.79
  -4   4   2  627.24  102.79
  -4   4   2  594.14  102.69
  -4   4   2  574.44  102.79
  -4   4   2  629.94  102.89
   3  -4  -2  141.89   23.90
   3  -4  -2  147.59   24.60
   3  -4  -2  154.18   24.60
   3  -4  -2  144.79   24.40
   3  -4  -2  137.19   24.30
  -3   4   2  159.78   24.80
  -3   4   2  130.99   24.40
  -3   4   2  114.19   24.30
  -3   4   2  140.99   24.50
  -3   4   2  145.39   24.40
   2  -4  -2  153.98   26.20
   2  -4  -2  168.78   26.80
   2  -4  -2  159.38   26.70
   2  -4  -2  155.38   26.90
   2  -4  -2  154.28   26.40
  -2   4   2  155.58   26.50
  -2   4   2  160.58   27.40
  -2   4   2  144.09   26.70
  -2   4   2  145.29   26.70
   1  -4  -2 1699.23  285.97
   1  -4  -2 1651.23  286.07
   1  -4  -2 1804.92  286.07
   1  -4  -2 1675.03  286.17
   1  -4  -2 1722.13  286.17
   1  -4  -2 1707.13  285.97
  -1   4   2 1650.13  286.17
  -1   4   2 1773.22  285.97
  -1   4   2 1674.23  286.07
  -1   4   2 1660.73  286.07
  -1   4   2 1684.93  286.17
   0  -4  -2    2.60    3.10
   0  -4  -2   -0.30    2.50
   0  -4  -2    4.40    3.20
   0  -4  -2    0.90    1.40
   0  -4  -2    5.60    3.10
   0  -4  -2    2.30    2.10
   0   4   2    0.90    3.00
   0   4   2    1.50    1.50
   0   4   2   -1.50    3.40
   0   4   2   -1.40    2.70
   0   4   2    1.00    2.50
   0   4   2   -1.10    2.10
  -1  -4  -2  719.63  118.29
  -1  -4  -2  729.53  118.19
  -1  -4  -2  682.53  118.09
  -1  -4  -2  715.43  118.29
  -1  -4  -2  682.93  117.89
  -1  -4  -2  701.33  118.29
   1   4   2  687.33  118.29
   1   4   2  712.93  118.29
   1   4   2  689.83  118.29
   1   4   2  697.13  118.19
  -2  -4  -2    2.00    3.80
  -2  -4  -2    3.00    1.80
  -2  -4  -2   -0.10    4.10
  -2  -4  -2   -4.00    4.50
  -2  -4  -2    7.70    4.30
  -2  -4  -2    6.80    3.70
  -2  -4  -2    3.10    2.00
   2   4   2    6.20    3.80
   2   4   2    3.60    3.70
   2   4   2    2.40    3.40
   2   4   2    5.00    5.30
  -3  -4  -2  664.13  114.79
  -3  -4  -2  676.63  114.99
  -3  -4  -2  681.53  114.29
  -3  -4  -2  606.64  115.19
   3   4   2  823.32  115.99
   3   4   2  662.73  114.69
   3   4   2  693.53  114.79
   3   4   2  670.43  114.89
   3   4   2  673.93  114.79
  -4  -4  -2  364.66   57.09
  -4  -4  -2  335.77   58.59
  -4  -4  -2  355.16   57.89
  -4  -4  -2  226.08   57.59
   4   4   2  334.37   57.99
   4   4   2  346.47   58.09
   4   4   2  365.36   57.69
   4   4   2  362.66   57.79
  -5  -4  -2  242.78   36.90
  -5  -4  -2  213.78   37.70
   5   4   2  214.38   37.50
   5   4   2  206.58   37.70
   5   4   2  184.28   37.30
  -6  -4  -2   26.80   12.50
  -6  -4  -2   16.10    9.80
  -6  -4  -2    0.90    8.60
   6   4   2    8.30    9.10
   6   4   2    9.20    9.30
   6   4   2   18.80    9.10
  -7  -4  -2   13.40   12.90
   7   4   2    1.10   12.20
   7   4   2   -3.90   11.20
   8  -5  -2   -4.90   10.20
   8  -5  -2   -5.60   11.60
   8  -5  -2    8.80   11.00
   8  -5  -2   -0.90    7.80
  -8   5   2  -19.20   11.60
  -8   5   2    3.40   14.30
  -8   5   2   44.40   16.80
   7  -5  -2    3.30    5.80
   7  -5  -2   -1.40    8.80
   7  -5  -2    2.60    7.50
   7  -5  -2    0.90    9.00
  -7   5   2   -5.10    8.90
  -7   5   2   12.30   12.70
  -7   5   2    7.80    7.70
   6  -5  -2   32.50    6.20
   6  -5  -2   19.00    7.80
   6  -5  -2   24.00    8.40
   6  -5  -2   18.40    8.30
  -6   5   2   19.00   13.80
  -6   5   2   21.80    9.60
   5  -5  -2    0.70    5.40
   5  -5  -2    1.30   10.30
   5  -5  -2    2.80    8.30
   5  -5  -2    0.90    3.10
   5  -5  -2   -1.10    5.30
   5  -5  -2   -3.20    4.80
  -5   5   2   -5.50    6.50
  -5   5   2    0.10    7.30
  -5   5   2   -4.10    6.50
  -5   5   2   20.30    5.40
   4  -5  -2  454.75   77.49
   4  -5  -2  488.75   77.19
   4  -5  -2  433.36   76.59
   4  -5  -2  518.05   77.29
   4  -5  -2  424.66   76.89
   4  -5  -2  474.65   77.09
  -4   5   2  469.25   76.99
  -4   5   2  441.16   77.29
  -4   5   2  433.86   77.09
  -4   5   2  457.15   77.29
  -4   5   2  431.86   77.19
   3  -5  -2   -4.20    4.40
   3  -5  -2   -2.40    3.40
   3  -5  -2    2.10    1.90
   3  -5  -2   -2.10    3.00
   3  -5  -2    1.40    5.10
   3  -5  -2   -3.30    3.30
  -3   5   2   -3.90    4.10
  -3   5   2   -1.00    3.90
  -3   5   2   -2.80    3.50
  -3   5   2    0.80    4.40
  -3   5   2   -4.80    4.20
   2  -5  -2 1896.71  315.87
   2  -5  -2 1891.11  315.87
   2  -5  -2 1837.62  315.87
   2  -5  -2 1858.21  315.87
   2  -5  -2 1876.21  315.67
   2  -5  -2 1947.71  315.77
  -2   5   2 1825.22  315.87
  -2   5   2 1903.71  315.87
  -2   5   2 1894.51  315.87
  -2   5   2 1840.92  315.77
   1  -5  -2   -4.70    3.50
   1  -5  -2   -1.20    2.40
   1  -5  -2    1.00    2.90
   1  -5  -2    4.30    3.90
   1  -5  -2    2.80    2.20
   1  -5  -2   -0.90    3.10
  -1   5   2    0.50    3.50
  -1   5   2    1.70    3.50
  -1   5   2    3.00    4.40
  -1   5   2    0.90    3.00
  -1   5   2    1.30    2.40
   0  -5  -2 1214.28  207.28
   0  -5  -2 1271.47  207.28
   0  -5  -2 1206.58  207.18
   0  -5  -2 1221.48  206.98
   0  -5  -2 1206.98  207.08
   0   5   2 1224.78  206.98
   0   5   2 1232.88  207.28
   0   5   2 1232.68  207.18
   0   5   2 1171.88  207.18
   0   5   2 1313.67  207.28
   0   5   2 1241.98  207.08
  -1  -5  -2  160.58   22.70
  -1  -5  -2  116.79   22.50
  -1  -5  -2  147.79   22.70
  -1  -5  -2  132.79   21.80
  -1  -5  -2  150.18   22.60
  -1  -5  -2   95.69   22.10
   1   5   2  141.69   22.60
   1   5   2  143.99   22.70
   1   5   2  114.59   22.30
   1   5   2  124.79   22.40
   1   5   2  105.29   22.10
  -2  -5  -2    0.60    5.50
  -2  -5  -2   -0.20    2.00
  -2  -5  -2    1.80    5.00
  -2  -5  -2   12.50    5.10
  -2  -5  -2   -2.20    4.40
  -2  -5  -2    4.80    5.50
   2   5   2    5.20    4.30
   2   5   2   -6.60    3.70
   2   5   2    0.30    4.50
   2   5   2    1.80    6.70
  -3  -5  -2   10.70    8.30
  -3  -5  -2   31.80    7.10
  -3  -5  -2   21.50    4.90
  -3  -5  -2   23.90    7.30
  -3  -5  -2   21.60    9.00
  -3  -5  -2   15.20    5.00
  -3  -5  -2   22.00    7.50
   3   5   2   26.10    9.80
   3   5   2   31.00    7.40
   3   5   2   29.70   11.70
   3   5   2   28.90    7.00
   3   5   2   25.80    7.10
  -4  -5  -2  399.26   65.99
  -4  -5  -2  372.56   66.09
   4   5   2  385.86   66.89
   4   5   2  375.06   66.99
   4   5   2  422.66   67.39
   4   5   2  400.46   66.79
  -5  -5  -2   14.10   13.00
  -5  -5  -2   23.30   10.60
  -5  -5  -2   60.19    9.60
   5   5   2   32.50   10.60
   5   5   2   30.60   10.50
   5   5   2   64.49   11.20
  -6  -5  -2    8.90   13.30
  -6  -5  -2    7.00    9.20
  -6  -5  -2    4.80   10.80
   6   5   2   19.30   10.60
   6   5   2    2.20   11.30
   6   5   2   -5.30   10.80
   8  -6  -2  -18.00   20.50
   8  -6  -2   17.00   14.10
   8  -6  -2    1.60   10.60
   8  -6  -2    9.30    8.00
  -8   6   2    4.70   12.30
  -8   6   2   15.10   25.70
   7  -6  -2  130.39   20.00
   7  -6  -2   91.19   20.70
   7  -6  -2   95.49   21.10
   7  -6  -2   92.19   21.40
  -7   6   2  109.19   24.30
  -7   6   2  135.89   21.80
   6  -6  -2   88.59   12.40
   6  -6  -2   23.90   10.90
   6  -6  -2   46.70    9.40
   6  -6  -2   54.09   11.20
  -6   6   2   41.00   11.70
  -6   6   2   49.70   11.70
   5  -6  -2   92.49   16.70
   5  -6  -2  131.69   21.10
   5  -6  -2   94.19   17.70
   5  -6  -2  101.79   17.90
   5  -6  -2  111.19   18.30
  -5   6   2   91.19   17.60
  -5   6   2   85.49   18.20
  -5   6   2   80.89   18.60
   4  -6  -2  101.59   16.00
   4  -6  -2   85.39   16.80
   4  -6  -2  100.29   17.10
   4  -6  -2   87.29   17.50
   4  -6  -2   82.69   16.50
   4  -6  -2  100.79   18.50
  -4   6   2   83.29   17.40
  -4   6   2   87.19   17.70
  -4   6   2   68.09   17.00
  -4   6   2  147.99   17.60
  -4   6   2   71.89   17.10
   3  -6  -2  188.58   35.80
   3  -6  -2  218.58   36.60
   3  -6  -2  202.28   36.50
   3  -6  -2  213.88   36.20
   3  -6  -2  194.48   36.60
   3  -6  -2  263.47   36.70
   3  -6  -2  214.18   35.80
  -3   6   2  212.48   36.70
  -3   6   2  214.08   36.80
  -3   6   2  225.98   36.30
  -3   6   2  208.58   36.50
  -3   6   2  206.78   36.40
   2  -6  -2  172.78   30.10
   2  -6  -2  174.48   30.00
   2  -6  -2  153.48   29.90
   2  -6  -2  178.28   29.60
   2  -6  -2  191.98   30.00
   2  -6  -2  163.88   29.50
  -2   6   2  181.88   29.70
  -2   6   2  162.18   30.00
  -2   6   2  170.68   29.90
  -2   6   2  175.98   30.20
  -2   6   2  177.78   30.10
   1  -6  -2   29.70    6.60
   1  -6  -2   29.20    7.10
   1  -6  -2   49.30    8.20
   1  -6  -2   20.80    6.30
   1  -6  -2   40.70    7.90
   1  -6  -2   32.20    6.90
  -1   6   2   35.10    7.30
  -1   6   2   36.90    8.30
  -1   6   2   41.90    7.70
  -1   6   2   34.30    6.50
  -1   6   2   35.40    7.80
   0  -6  -2  365.56   58.79
   0  -6  -2  369.46   59.29
   0  -6  -2  320.47   59.19
   0  -6  -2  327.97   59.39
   0  -6  -2  361.46   59.49
   0  -6  -2  330.17   58.99
   0   6   2  339.67   58.79
   0   6   2  363.36   59.49
   0   6   2  348.27   59.29
   0   6   2  355.16   59.19
   0   6   2  313.37   59.49
   0   6   2  370.76   58.99
  -1  -6  -2    9.90    5.70
  -1  -6  -2    7.10    6.00
  -1  -6  -2   -4.40    4.10
  -1  -6  -2   -1.90    4.20
  -1  -6  -2   -0.90    2.20
  -1  -6  -2   13.60    5.60
   1   6   2    3.70    6.70
   1   6   2    4.30    4.10
   1   6   2   -1.30    4.60
   1   6   2    2.40    5.30
   1   6   2   10.40    4.40
  -2  -6  -2   42.90   10.50
  -2  -6  -2   47.10   11.00
  -2  -6  -2   47.60   11.30
  -2  -6  -2   50.99    9.00
  -2  -6  -2   72.39   11.00
  -2  -6  -2   40.90   11.40
   2   6   2   48.30   12.40
   2   6   2   34.30   10.20
   2   6   2   55.29   10.80
   2   6   2   57.89   10.40
  -3  -6  -2   -6.00    7.50
  -3  -6  -2   -2.70    3.10
  -3  -6  -2   -5.40    3.50
  -3  -6  -2    0.90    6.10
   3   6   2   -4.80    6.40
   3   6   2    7.70   10.50
   3   6   2   -8.30    8.40
   3   6   2   -8.10    5.50
  -4  -6  -2  300.97   44.90
  -4  -6  -2  270.77   45.00
  -4  -6  -2  244.28   45.80
   4   6   2  236.38   45.50
   4   6   2  259.47   45.80
   4   6   2  237.28   45.70
  -5  -6  -2   34.20    8.00
  -5  -6  -2   37.50    8.90
  -5  -6  -2   23.50   11.60
  -5  -6  -2   18.00   11.70
   5   6   2   42.50   12.10
   5   6   2   16.00   10.60
   5   6   2   46.80   12.20
  -6  -6  -2  -12.50   13.50
  -6  -6  -2   -2.30    7.90
   6   6   2    7.00   12.60
   6   6   2  -10.30   11.10
   6   6   2   46.10   13.80
   8  -7  -2    2.90   13.90
   8  -7  -2    9.20   11.70
   8  -7  -2    1.60   13.10
   8  -7  -2    1.50    8.10
  -8   7   2    4.20   18.30
  -8   7   2   -9.70   16.40
   7  -7  -2   56.79   13.40
   7  -7  -2   32.70   12.50
   7  -7  -2   60.39   10.00
   7  -7  -2   24.00   11.90
  -7   7   2   36.60   12.80
  -7   7   2   33.00   13.30
   6  -7  -2   29.50    6.90
   6  -7  -2   41.80   10.50
   6  -7  -2   36.90    9.70
   6  -7  -2   16.80    9.20
  -6   7   2   32.60   10.10
  -6   7   2   11.30   10.20
   5  -7  -2  173.68   29.20
   5  -7  -2  231.68   32.40
   5  -7  -2  161.68   30.10
   5  -7  -2  186.88   30.20
  -5   7   2  149.49   30.20
  -5   7   2  149.39   30.00
   4  -7  -2  118.99   22.80
   4  -7  -2  137.09   23.70
   4  -7  -2  140.99   22.90
   4  -7  -2  120.99   21.90
   4  -7  -2  123.89   24.50
   4  -7  -2  135.29   22.60
  -4   7   2  116.89   23.40
  -4   7   2  115.89   23.20
  -4   7   2  135.19   22.90
  -4   7   2  132.29   23.00
   3  -7  -2  164.98   28.00
   3  -7  -2  143.29   27.40
   3  -7  -2  183.88   28.00
   3  -7  -2  173.58   27.70
   3  -7  -2  198.58   28.60
   3  -7  -2  132.49   28.20
  -3   7   2  192.18   28.10
  -3   7   2  149.39   28.00
  -3   7   2  141.69   28.20
  -3   7   2  127.49   27.50
  -3   7   2  154.68   28.30
   2  -7  -2   31.80    7.00
   2  -7  -2   39.10    6.90
   2  -7  -2   29.50    7.70
   2  -7  -2   32.50   10.20
   2  -7  -2   22.40    7.50
  -2   7   2   44.00    8.40
  -2   7   2   33.40    7.60
  -2   7   2   41.90    8.90
  -2   7   2   24.10    9.40
  -2   7   2   28.60    7.30
   1  -7  -2   30.00    7.10
   1  -7  -2   38.60    9.10
   1  -7  -2   34.00    8.90
   1  -7  -2   41.10    6.80
   1  -7  -2   23.50    7.50
   1  -7  -2   21.90    7.20
  -1   7   2   38.00    9.20
  -1   7   2   33.20    6.80
  -1   7   2   26.90    7.80
  -1   7   2   40.20    7.90
  -1   7   2   41.60    9.20
   0  -7  -2  501.65   80.59
   0  -7  -2  519.45   80.89
   0  -7  -2  447.06   81.09
   0  -7  -2  487.55   81.49
   0  -7  -2  485.25   81.19
   0  -7  -2  496.45   81.39
   0   7   2  470.25   81.29
   0   7   2  440.56   81.49
   0   7   2  498.55   80.89
   0   7   2  470.85   81.19
   0   7   2  483.45   81.19
   0   7   2  394.96   81.19
  -1  -7  -2  496.55   82.29
  -1  -7  -2  486.85   83.29
  -1  -7  -2  523.05   83.49
  -1  -7  -2  445.86   82.99
  -1  -7  -2  468.75   82.99
   1   7   2  477.75   82.99
   1   7   2  482.85   83.29
   1   7   2  494.05   82.99
   1   7   2  506.25   82.79
   1   7   2  499.05   83.79
  -2  -7  -2  658.13  118.69
  -2  -7  -2  677.83  117.99
  -2  -7  -2  737.83  118.79
   2   7   2  703.93  118.69
   2   7   2  679.03  118.49
   2   7   2  775.32  118.89
  -3  -7  -2   -4.80    6.90
  -3  -7  -2   -4.20    4.00
  -3  -7  -2   -0.20    3.60
   3   7   2    6.20    7.60
   3   7   2   -4.10    6.50
   3   7   2   -3.50    6.50
  -4  -7  -2  137.99   22.50
  -4  -7  -2  149.19   22.70
  -4  -7  -2  144.19   24.70
  -4  -7  -2   53.79   24.30
   4   7   2  123.79   24.50
   4   7   2  135.79   24.60
   4   7   2  118.39   24.10
  -5  -7  -2    6.70    6.50
  -5  -7  -2   11.30    7.90
  -5  -7  -2    6.40   11.10
  -5  -7  -2   -2.30   12.30
   5   7   2   13.10   11.00
   5   7   2   -5.70   22.80
   5   7   2   12.10   11.40
   7  -8  -2   14.20    7.00
   7  -8  -2   11.60   10.50
   7  -8  -2   12.40   11.10
   7  -8  -2    3.40   10.60
  -7   8   2   10.30   12.00
  -7   8   2   10.90   11.80
   6  -8  -2   37.90    8.90
   6  -8  -2   33.00   11.50
   6  -8  -2   48.70   11.60
   6  -8  -2   34.50   11.20
  -6   8   2    8.00   14.40
  -6   8   2   64.09   12.40
   5  -8  -2  156.48   24.80
   5  -8  -2  158.58   26.10
   5  -8  -2  145.69   26.10
   5  -8  -2  173.28   25.90
  -5   8   2  147.99   26.20
  -5   8   2   69.29   26.10
   4  -8  -2   33.00    8.30
   4  -8  -2   15.90    6.70
   4  -8  -2    5.80    8.20
   4  -8  -2   32.90    6.20
  -4   8   2   22.60    8.00
  -4   8   2   14.70    8.80
   3  -8  -2  349.57   56.69
   3  -8  -2  322.87   57.19
   3  -8  -2  337.77   56.39
  -3   8   2  302.27   57.29
  -3   8   2  318.67   57.09
  -3   8   2  342.67   57.19
  -3   8   2  338.07   56.89
   2  -8  -2   22.30    6.80
   2  -8  -2   -6.10    9.20
   2  -8  -2   18.50    6.50
   2  -8  -2   14.90    8.90
   2  -8  -2   14.50    5.70
   2  -8  -2   21.70    5.60
  -2   8   2   11.00    9.40
  -2   8   2   13.10    5.80
  -2   8   2   24.30    7.50
  -2   8   2   19.70    6.70
   1  -8  -2  273.67   46.60
   1  -8  -2  292.97   46.40
   1  -8  -2  268.97   45.60
   1  -8  -2  247.88   46.00
   1  -8  -2  272.87   46.70
   1  -8  -2  258.87   46.40
  -1   8   2  269.17   46.50
  -1   8   2  230.58   46.00
  -1   8   2  312.47   46.70
  -1   8   2  274.07   45.80
   0  -8  -2   16.80    6.90
   0  -8  -2   16.90    5.30
   0  -8  -2   11.10    6.00
   0  -8  -2    6.70    6.30
   0   8   2   -1.60    6.70
   0   8   2   -3.30    8.70
   0   8   2    7.10    4.30
   0   8   2   13.60    5.30
   0   8   2    5.70    6.10
  -1  -8  -2  749.53  132.89
  -1  -8  -2  776.92  132.29
  -1  -8  -2  738.43  132.99
  -1  -8  -2  869.91  133.39
   1   8   2  789.32  133.49
   1   8   2  801.52  132.99
   1   8   2  772.42  133.19
   1   8   2  798.42  132.79
  -2  -8  -2   13.70    4.70
  -2  -8  -2   14.20    7.50
   2   8   2   27.40    8.20
   2   8   2    8.20    7.80
   2   8   2   14.50    7.60
  -3  -8  -2   -1.90    9.90
  -3  -8  -2   12.10    4.90
  -3  -8  -2    9.70    5.50
  -3  -8  -2   22.30    8.80
   3   8   2   14.60    8.70
   3   8   2   13.70    8.80
   3   8   2   11.70    8.90
  -4  -8  -2   51.99   13.40
  -4  -8  -2   44.30    8.70
  -4  -8  -2    1.10   14.10
   4   8   2   36.00   12.80
   4   8   2   41.00   12.70
   4   8   2   44.30   13.50
   5   8   2   15.20   13.80
   5   8   2   20.60   13.90
   7  -9  -2   23.90   12.60
   7  -9  -2   20.60    8.00
   7  -9  -2    4.00   12.90
   7  -9  -2    0.50   12.60
  -7   9   2   36.90   14.80
  -7   9   2   24.60   14.50
   6  -9  -2   37.10   13.10
   6  -9  -2   54.59   13.20
   6  -9  -2   59.99   10.20
   6  -9  -2   31.10   13.30
  -6   9   2   48.80   13.80
  -6   9   2   27.90   17.40
   5  -9  -2   11.50    5.50
   5  -9  -2   13.50    8.70
   5  -9  -2   -3.90    7.50
   5  -9  -2   16.40    9.20
   5  -9  -2   12.40    6.40
  -5   9   2   -2.50    9.20
  -5   9   2  -11.40   13.00
   4  -9  -2   23.60   10.20
   4  -9  -2    6.40    7.90
   4  -9  -2   14.00    5.10
   4  -9  -2    8.30    7.90
   4  -9  -2   11.50    6.10
  -4   9   2    6.80   11.90
  -4   9   2    3.30    8.40
   3  -9  -2   87.99   19.60
   3  -9  -2  108.09   18.70
   3  -9  -2  118.29   19.00
  -3   9   2   97.49   19.40
  -3   9   2   91.89   20.90
  -3   9   2  110.59   19.80
   2  -9  -2    1.40    5.90
   2  -9  -2   14.30    5.50
   2  -9  -2    7.50    6.90
   2  -9  -2   11.80    7.00
  -2   9   2    4.10    6.20
  -2   9   2   -4.30    7.60
   1  -9  -2  100.89   20.90
   1  -9  -2  121.19   20.60
   1  -9  -2  118.49   20.10
   1  -9  -2  127.79   21.20
  -1   9   2  116.69   21.30
  -1   9   2  107.29   20.30
  -1   9   2   86.49   22.60
   0  -9  -2   36.30    9.00
   0  -9  -2   23.70    6.50
   0  -9  -2   22.60    9.10
   0  -9  -2   19.90    8.70
   0   9   2   23.10    9.00
   0   9   2   33.30    7.20
   0   9   2   20.50    9.00
  -1  -9  -2  145.79   23.90
  -1  -9  -2  122.49   25.40
  -1  -9  -2  156.18   25.80
   1   9   2  123.09   25.30
   1   9   2  106.29   24.90
   1   9   2  175.08   25.30
  -2  -9  -2   49.80    9.50
  -2  -9  -2   39.90   13.60
  -2  -9  -2   43.90   12.30
   2   9   2   49.50   11.70
   2   9   2   52.49   12.20
   2   9   2   45.00   13.10
  -3  -9  -2    7.60   10.10
  -3  -9  -2    8.50   12.00
  -3  -9  -2    2.60    4.90
   3   9   2   12.00    9.80
   3   9   2    5.10   10.40
   3   9   2   -7.60    9.40
  -4  -9  -2   -3.40    5.60
  -4  -9  -2    3.00   12.20
  -4  -9  -2    9.00   14.60
   4   9   2  -13.40   12.00
   4   9   2   -3.20   13.00
   4   9   2    5.70   12.20
   6 -10  -2   11.20   14.90
   6 -10  -2   25.00    8.10
   6 -10  -2   27.90   12.70
   6 -10  -2   37.80   10.00
   6 -10  -2   24.90   12.30
  -6  10   2   16.50   12.60
  -6  10   2   21.60   27.30
   5 -10  -2   30.80    9.50
   5 -10  -2   27.80    8.30
   5 -10  -2   14.10   11.80
   5 -10  -2   31.50   11.10
   5 -10  -2   30.70   11.30
  -5  10   2   41.20   11.70
  -5  10   2   44.90   16.70
   4 -10  -2   13.20    8.10
   4 -10  -2   16.30    7.70
   4 -10  -2   -2.90    9.40
   4 -10  -2   21.20    6.20
   4 -10  -2   13.80    9.30
  -4  10   2   -3.00    9.40
  -4  10   2    7.30   13.80
   3 -10  -2  126.79   21.50
   3 -10  -2  136.19   20.60
   3 -10  -2   74.09   20.30
  -3  10   2   67.09   22.90
  -3  10   2  152.08   21.80
   2 -10  -2   44.80   11.00
   2 -10  -2   37.20   11.10
   2 -10  -2   26.20    9.40
   2 -10  -2   32.90   10.50
  -2  10   2   75.49   12.90
  -2  10   2   45.10   11.30
  -2  10   2   34.00   10.50
   1 -10  -2   29.30   10.30
   1 -10  -2   43.90   11.10
   1 -10  -2   42.50   10.70
   1 -10  -2   29.00    8.40
  -1  10   2   36.50   11.30
  -1  10   2   34.00   10.50
  -1  10   2   35.40    9.50
   0 -10  -2   18.70    9.10
   0 -10  -2   30.10    9.40
   0 -10  -2   12.70    6.40
   0  10   2   14.40   10.20
   0  10   2   20.90    9.30
  -1 -10  -2   31.80    7.80
  -1 -10  -2   30.00   10.80
  -1 -10  -2   28.00   12.00
   1  10   2   25.70   11.40
   1  10   2   36.50   11.10
  -2 -10  -2    4.80   10.50
  -2 -10  -2    0.80   11.50
  -2 -10  -2   15.30    8.20
   2  10   2    2.10    9.80
   2  10   2   29.80   10.50
   2  10   2    1.90   11.50
  -3 -10  -2   15.10   13.80
  -3 -10  -2   14.10   15.40
  -3 -10  -2   39.70    8.40
   3  10   2   40.40   14.30
   3  10   2   32.00   24.30
   3  10   2   45.80   14.80
   6 -11  -2  -11.70   13.30
   6 -11  -2  -15.50   11.50
   6 -11  -2   -0.60    8.10
   5 -11  -2    5.60   10.20
   5 -11  -2   -7.00   12.90
   5 -11  -2   -4.20   10.60
   5 -11  -2    4.40    7.40
  -5  11   2   15.40   12.70
  -5  11   2  -15.30   19.00
   4 -11  -2    9.70   12.20
   4 -11  -2   16.50    9.30
   4 -11  -2    8.20    7.00
   4 -11  -2    9.80   10.60
  -4  11   2  -12.70   16.30
  -4  11   2   -8.00   10.70
   3 -11  -2   -4.50    8.00
   3 -11  -2   -1.90   10.00
   3 -11  -2    2.30    9.20
  -3  11   2    6.70   15.10
  -3  11   2    2.40   10.20
   2 -11  -2   16.00    8.20
   2 -11  -2   12.40   10.30
   2 -11  -2   21.60   10.90
  -2  11   2    9.20   10.10
  -2  11   2   16.80   14.80
   1 -11  -2   10.40   10.90
   1 -11  -2   14.60    7.50
   1 -11  -2    4.00   10.60
  -1  11   2   20.30    9.60
  -1  11   2   20.70   10.60
  -1  11   2   30.00   11.70
   0 -11  -2   44.80    9.60
   0 -11  -2   44.90   13.10
   0 -11  -2   20.00   12.80
   0  11   2   36.00   12.90
   0  11   2   40.50   13.90
  -1 -11  -2   46.60   15.40
  -1 -11  -2   61.49   15.00
  -1 -11  -2   58.39   11.70
   1  11   2   44.30   24.30
   1  11   2   47.10   15.50
  -2 -11  -2   13.40   13.20
  -2 -11  -2   -3.50    6.80
   2  11   2   -6.00   11.80
   2  11   2    2.10   12.40
   4 -12  -2   12.20    9.00
   4 -12  -2   16.10   11.80
   4 -12  -2   19.60   17.00
   4 -12  -2   15.90   13.30
  -4  12   2    3.50   17.80
  -4  12   2   -5.40   20.00
   3 -12  -2   18.90   11.00
   3 -12  -2   19.00   13.20
  -3  12   2   16.00   17.90
  -3  12   2   12.10   13.30
   2 -12  -2   48.90   16.00
   2 -12  -2   63.99   13.60
  -2  12   2   24.30   19.80
  -2  12   2   60.79   16.30
   1 -12  -2   15.70   15.10
   1 -12  -2   18.50    9.10
   1 -12  -2   14.10   12.00
  -1  12   2    8.00   13.40
  -1  12   2   -2.80   14.50
   0 -12  -2    3.70    8.70
   0 -12  -2   -0.40   12.10
   0  12   2    6.30   13.80
   0  12   2    0.30   12.50
   0  13  -3   26.30   18.50
   0  13  -3   36.70   14.40
   0 -13   3   13.40   13.30
   0 -13   3   36.30   13.00
   0 -13   3   10.60   11.80
  -1  13  -3   16.00   18.30
  -1  13  -3    0.80   13.60
   1 -13   3   18.10   11.50
   1 -13   3    1.20   11.40
   1 -13   3   17.60   12.80
  -2  13  -3   -4.90   19.10
  -2  13  -3   -0.10   13.10
   2 -13   3  -13.40   11.00
   2 -13   3   15.80   13.50
  -3  13  -3   17.50   20.70
  -3  13  -3    4.00   14.30
   3 -13   3   38.40   13.70
   3 -13   3   34.60   12.80
   3 -13   3   14.20   13.00
   3 -13   3   36.90   14.00
   2  12  -3   12.70   13.90
   2  12  -3    1.80   12.80
  -2 -12   3   19.00   10.90
  -2 -12   3    9.00   11.90
  -2 -12   3    5.10   13.40
   1  12  -3   -4.30   12.60
   1  12  -3    5.80   12.10
  -1 -12   3    4.50   11.70
  -1 -12   3    1.20    9.30
  -1 -12   3   11.70   11.20
   0  12  -3   74.09   18.10
   0  12  -3   95.49   18.00
   0  12  -3   52.19   20.00
   0 -12   3   69.89   16.10
   0 -12   3   61.09   16.70
   0 -12   3   89.89   16.90
  -1  12  -3   21.80   11.50
  -1  12  -3   -8.60   14.80
   1 -12   3   12.50   10.60
   1 -12   3   41.30   10.70
   1 -12   3   13.90    9.90
  -2  12  -3  -12.90   10.90
  -2  12  -3   -0.20   15.10
   2 -12   3   14.80    9.40
   2 -12   3    1.80   10.30
   2 -12   3   -7.80    8.70
  -3  12  -3  -13.50   16.60
  -3  12  -3   13.20   10.80
   3 -12   3    3.60   11.50
   3 -12   3    3.20   10.60
   3 -12   3   -5.00    9.60
   3 -12   3    6.50    9.90
  -4  12  -3   39.00   19.00
  -4  12  -3   92.59   18.30
   4 -12   3  100.19   22.80
   4 -12   3   78.79   16.40
   4 -12   3   56.79   15.00
   4 -12   3   41.60   19.20
  -5  12  -3  -10.20   15.00
   5 -12   3   15.10   12.50
   5 -12   3    2.80   10.50
   5 -12   3   -0.80   12.00
   3  11  -3   36.60   13.90
   3  11  -3   37.60   13.60
  -3 -11   3   20.50   12.20
  -3 -11   3   15.40   13.40
  -3 -11   3   37.90   11.30
   2  11  -3   -2.80   10.30
   2  11  -3    3.70   10.50
  -2 -11   3   -2.90   10.10
  -2 -11   3    3.60    8.80
  -2 -11   3   -8.40    9.50
   1  11  -3    7.90    9.70
   1  11  -3   12.60   10.20
  -1 -11   3    5.70    8.70
  -1 -11   3    2.10    8.50
  -1 -11   3    4.20    7.70
   0  11  -3   23.40   10.30
   0  11  -3   22.30    9.90
   0 -11   3    0.50    8.60
   0 -11   3    1.50    7.40
   0 -11   3   11.50    7.90
  -1  11  -3  197.88   28.70
  -1  11  -3   54.49   29.00
   1 -11   3  178.88   28.00
   1 -11   3  173.18   28.30
   1 -11   3  164.08   28.30
  -2  11  -3    4.40    9.20
  -2  11  -3    7.00   12.90
   2 -11   3   -4.60    7.90
   2 -11   3    2.80    6.60
   2 -11   3    9.50    8.50
  -3  11  -3   58.19   14.40
   3 -11   3   25.60   10.90
   3 -11   3   22.30   11.20
   3 -11   3   73.09   12.00
   3 -11   3   27.40   10.40
  -4  11  -3    1.70   13.00
  -4  11  -3    4.10   10.60
   4 -11   3    8.80    9.50
   4 -11   3   -4.10    9.70
   4 -11   3    0.50    8.20
   4 -11   3  -12.00    8.70
  -5  11  -3   21.20   13.40
  -5  11  -3   17.20   15.70
   5 -11   3   16.70   11.30
   5 -11   3   26.00   11.40
   5 -11   3   14.60    9.50
   5 -11   3   13.80   11.70
   6 -11   3    0.90   12.50
   6 -11   3    4.10   11.00
   6 -11   3    1.10   13.10
   4  10  -3   -3.40   11.40
   4  10  -3    5.30   11.70
  -4 -10   3   -4.60   12.60
  -4 -10   3   -7.80   11.40
  -4 -10   3   13.30    9.70
   3  10  -3   10.70   10.20
   3  10  -3    3.80    9.30
  -3 -10   3    3.70   10.10
  -3 -10   3   -4.50   10.20
  -3 -10   3   34.90   10.60
   2  10  -3   69.39   15.00
  -2 -10   3   85.39   13.60
  -2 -10   3   46.90   14.20
  -2 -10   3   56.69   14.20
   1  10  -3   14.00    8.50
   1  10  -3   16.00    8.90
  -1 -10   3   26.80    8.40
  -1 -10   3   13.70    7.30
  -1 -10   3    5.80   11.60
  -1 -10   3   22.90    8.10
   0  10  -3  140.49   21.70
   0  10  -3  139.19   22.00
   0 -10   3  111.09   22.50
   0 -10   3  111.29   20.90
   0 -10   3   99.49   21.20
   0 -10   3   96.39   21.00
  -1  10  -3   15.90    7.20
  -1  10  -3   -2.60    9.70
   1 -10   3    9.00    9.60
   1 -10   3    7.70    6.50
   1 -10   3   -2.70    6.70
   1 -10   3   14.20    7.10
  -2  10  -3   39.80    9.80
  -2  10  -3   13.40   11.90
   2 -10   3   50.99   12.60
   2 -10   3   48.90    9.00
   2 -10   3   32.20    9.30
   2 -10   3   18.80    8.50
  -3  10  -3  372.36   62.69
  -3  10  -3  349.67   61.89
   3 -10   3  374.86   61.79
   3 -10   3  312.17   61.39
   3 -10   3  346.37   61.39
   3 -10   3  388.96   62.09
   3 -10   3  368.56   61.89
  -4  10  -3  291.27   40.60
  -4  10  -3  119.49   40.10
   4 -10   3  251.77   40.10
   4 -10   3  205.48   40.00
   4 -10   3  311.97   41.50
   4 -10   3  250.77   39.90
  -5  10  -3   -3.70   13.00
  -5  10  -3   -0.80   10.70
   5 -10   3   21.50   10.10
   5 -10   3    0.50    9.80
   5 -10   3    6.50    7.90
   5 -10   3    7.00    9.50
  -6  10  -3   61.29   14.90
  -6  10  -3   14.30   18.10
   6 -10   3   42.60   14.50
   6 -10   3   31.70   19.00
   6 -10   3   12.70   18.80
   6 -10   3   44.90   12.00
   5   9  -3    8.90   12.60
   5   9  -3    8.60   12.20
   5   9  -3   -5.20   13.30
  -5  -9   3   -7.20   12.50
  -5  -9   3   28.60   13.70
  -5  -9   3    5.90    9.80
   4   9  -3    1.80    9.90
   4   9  -3   14.60    9.70
   4   9  -3   -3.50    9.50
  -4  -9   3   -4.30    7.90
  -4  -9   3    2.40   11.30
  -4  -9   3    1.80    9.20
   3   9  -3   14.30    8.60
   3   9  -3    1.50    8.80
  -3  -9   3   10.10    9.50
  -3  -9   3    7.60    6.80
  -3  -9   3   18.10    8.30
   2   9  -3  156.38   26.00
   2   9  -3  155.48   26.00
  -2  -9   3  104.19   25.70
  -2  -9   3  117.59   25.70
  -2  -9   3  155.58   27.20
  -2  -9   3  185.18   25.60
   1   9  -3   13.40    6.90
   1   9  -3    7.10    6.70
  -1  -9   3   -1.80    7.20
  -1  -9   3   12.10    5.80
  -1  -9   3   19.10    9.50
  -1  -9   3    1.90    6.70
   0   9  -3  146.99   26.60
   0   9  -3  136.99   26.30
   0   9  -3  173.08   26.90
   0   9  -3  188.48   27.10
   0  -9   3   99.79   26.10
   0  -9   3  140.89   26.80
   0  -9   3  164.08   26.30
   0  -9   3  148.29   26.90
   0  -9   3  169.78   26.90
  -1   9  -3  552.24   94.09
  -1   9  -3  549.65   93.89
  -1   9  -3  547.05   93.79
   1  -9   3  500.55   93.69
   1  -9   3  608.54   93.99
   1  -9   3  521.15   94.09
   1  -9   3  570.34   93.79
   1  -9   3  578.84   93.99
  -2   9  -3   55.19   13.70
  -2   9  -3   93.69   15.10
  -2   9  -3   64.99   14.30
   2  -9   3   74.69   14.70
   2  -9   3   65.89   13.60
   2  -9   3   53.49   13.70
   2  -9   3  100.69   14.30
  -3   9  -3  530.25   98.19
  -3   9  -3  584.54   97.89
  -3   9  -3  546.55   98.29
   3  -9   3  597.74   97.89
   3  -9   3  510.85   98.39
   3  -9   3  690.23   98.89
   3  -9   3  586.34   97.59
  -4   9  -3   50.79   15.00
  -4   9  -3   88.89   14.10
   4  -9   3   61.99   13.50
   4  -9   3   85.29   13.20
   4  -9   3   89.59   16.10
   4  -9   3   50.89   13.40
   4  -9   3   38.70   13.00
  -5   9  -3  164.38   26.90
  -5   9  -3   95.99   27.00
   5  -9   3  145.59   26.40
   5  -9   3  160.18   26.70
   5  -9   3  195.38   26.60
   5  -9   3  115.19   26.50
  -6   9  -3    0.70   11.10
  -6   9  -3   -6.00   15.10
   6  -9   3    8.50    8.30
   6  -9   3   -1.20   10.10
   6  -9   3   -0.20    9.20
   6  -9   3   11.50    9.80
  -7   9  -3   -9.70   17.90
  -7   9  -3   -2.80   14.20
   7  -9   3    2.20   11.60
   7  -9   3   10.70   13.40
   7  -9   3    3.90   13.20
   7  -9   3    6.20   10.50
   6   8  -3   32.80   22.90
   6   8  -3   16.50   15.00
   6   8  -3   10.50   13.80
  -6  -8   3   28.40   12.90
  -6  -8   3   14.20   11.70
   5   8  -3   -9.40   10.10
   5   8  -3    0.10   10.30
   5   8  -3    5.10   10.30
  -5  -8   3    5.70    8.30
  -5  -8   3   -3.80   10.90
  -5  -8   3    0.10   10.10
   4   8  -3   13.60   11.10
   4   8  -3   23.40    9.10
   4   8  -3   20.60    8.60
  -4  -8   3   28.80    7.60
  -4  -8   3   18.10    9.30
  -4  -8   3   -6.10    8.90
   3   8  -3   40.90    9.40
   3   8  -3   29.60    8.80
   3   8  -3   21.30    9.50
  -3  -8   3   17.50    9.20
  -3  -8   3   39.30   11.60
  -3  -8   3   45.30   10.30
  -3  -8   3   41.70    8.40
   2   8  -3  599.84  105.79
   2   8  -3  605.94  104.99
   2   8  -3  667.23  105.09
  -2  -8   3  610.04  104.79
  -2  -8   3  689.73  105.29
  -2  -8   3  599.54  105.09
  -2  -8   3  559.64  105.29
   1   8  -3   64.09   13.50
   1   8  -3   58.89   12.30
   1   8  -3   62.99   12.50
  -1  -8   3   61.89   12.40
  -1  -8   3   69.19   12.10
  -1  -8   3   60.19   12.80
  -1  -8   3   77.99   13.70
  -1  -8   3   42.30   12.40
  -1  -8   3   88.69   13.40
   0   8  -3  181.08   28.20
   0   8  -3  169.58   28.00
   0   8  -3  153.68   27.80
   0   8  -3  151.58   28.30
   0   8  -3  164.08   28.10
   0  -8   3  186.18   28.30
   0  -8   3  141.29   28.30
   0  -8   3  132.89   27.60
   0  -8   3  172.28   28.00
   0  -8   3  170.98   27.80
   0  -8   3  146.69   27.90
  -1   8  -3   92.09   17.20
  -1   8  -3   81.19   16.30
  -1   8  -3   90.79   16.40
  -1   8  -3  101.99   16.80
  -1   8  -3   83.49   16.40
   1  -8   3  115.69   16.50
   1  -8   3   81.19   16.10
   1  -8   3   88.89   16.40
   1  -8   3   64.99   16.20
   1  -8   3   97.99   17.90
   1  -8   3   88.99   16.60
  -2   8  -3  428.56   79.29
  -2   8  -3  438.36   79.29
  -2   8  -3  508.45   79.59
  -2   8  -3  544.75   79.29
  -2   8  -3  467.85   79.19
   2  -8   3  435.96   79.89
   2  -8   3  489.05   79.09
   2  -8   3  459.55   79.29
   2  -8   3  435.86   79.39
  -3   8  -3  166.88   24.10
  -3   8  -3  108.09   24.20
  -3   8  -3  158.28   24.40
  -3   8  -3  100.89   23.70
   3  -8   3  133.69   23.60
   3  -8   3  140.99   25.30
   3  -8   3  144.49   23.50
   3  -8   3  155.78   24.60
   3  -8   3  105.09   23.60
   3  -8   3  137.99   23.70
  -4   8  -3  144.89   23.40
  -4   8  -3  105.69   24.00
  -4   8  -3  137.69   23.80
   4  -8   3  115.99   23.10
   4  -8   3  132.09   22.80
   4  -8   3  116.79   24.00
   4  -8   3  127.69   23.20
   4  -8   3  139.49   23.30
  -5   8  -3  292.07   51.39
   5  -8   3  286.47   51.29
   5  -8   3  346.97   52.39
   5  -8   3  299.27   51.19
   5  -8   3  280.77   51.29
   5  -8   3  292.57   51.49
  -6   8  -3    2.40    9.90
  -6   8  -3    0.00   13.60
   6  -8   3   -3.80    7.20
   6  -8   3   10.50    9.40
   6  -8   3    0.00    8.30
   6  -8   3   -4.70    9.10
  -7   8  -3   18.60   16.80
  -7   8  -3   16.60   12.60
   7  -8   3    9.20   17.50
   7  -8   3   14.20   10.00
   7  -8   3   -6.40   14.90
   6   7  -3    0.60   11.40
   6   7  -3    8.20   11.20
   6   7  -3    1.20   11.80
  -6  -7   3   10.50   19.80
  -6  -7   3    8.40   16.50
  -6  -7   3   -2.60    9.50
   5   7  -3  146.89   26.80
   5   7  -3  166.68   27.00
   5   7  -3  118.49   26.30
  -5  -7   3  177.88   26.00
  -5  -7   3  111.99   26.30
   4   7  -3   50.69   12.90
   4   7  -3   39.90   10.50
   4   7  -3   62.49   11.30
  -4  -7   3   35.60   10.70
  -4  -7   3   52.29    9.90
  -4  -7   3   22.40   10.90
  -4  -7   3   46.80   13.20
   3   7  -3    2.80    5.80
   3   7  -3   -3.50    5.50
   3   7  -3    8.20   10.00
   3   7  -3   -2.00    6.00
  -3  -7   3   -4.40    7.60
  -3  -7   3   -0.20    5.70
  -3  -7   3    8.80    5.10
  -3  -7   3   -1.20    6.40
   2   7  -3  134.69   27.40
   2   7  -3  175.28   27.70
   2   7  -3  138.89   27.80
   2   7  -3  204.88   28.80
  -2  -7   3  160.68   27.70
  -2  -7   3  145.29   27.50
  -2  -7   3  127.79   27.30
  -2  -7   3  138.79   27.60
  -2  -7   3  181.78   27.30
  -2  -7   3  206.88   28.30
   1   7  -3    4.10    4.30
   1   7  -3   -1.00    4.40
   1   7  -3    6.20    6.80
  -1  -7   3    5.50    3.90
  -1  -7   3    9.20    4.70
  -1  -7   3    3.00    3.80
  -1  -7   3   -0.40    5.50
  -1  -7   3    0.80    5.00
  -1  -7   3    1.50    4.70
   0   7  -3   12.90    4.50
   0   7  -3    2.70    4.20
   0   7  -3   15.60    4.90
   0   7  -3    2.00    5.60
   0  -7   3    9.00    5.10
   0  -7   3    3.10    4.60
   0  -7   3    3.80    5.10
   0  -7   3   12.80    4.40
   0  -7   3    8.90    3.90
   0  -7   3    7.70    3.90
  -1   7  -3  455.95   74.49
  -1   7  -3  434.96   74.39
  -1   7  -3  445.76   74.39
  -1   7  -3  451.85   74.49
  -1   7  -3  414.86   74.49
   1  -7   3  443.46   74.59
   1  -7   3  471.45   74.29
   1  -7   3  421.66   74.29
   1  -7   3  417.96   74.39
   1  -7   3  432.66   74.49
  -2   7  -3  625.34  104.59
  -2   7  -3  687.93  104.69
  -2   7  -3  632.84  104.69
  -2   7  -3  632.04  104.49
  -2   7  -3  572.54  104.49
   2  -7   3  589.94  104.59
   2  -7   3  618.74  104.49
   2  -7   3  604.44  104.49
   2  -7   3  616.34  104.79
   2  -7   3  610.74  104.59
  -3   7  -3    2.30    5.50
  -3   7  -3   -3.50    5.70
  -3   7  -3    3.30    6.50
  -3   7  -3    2.00    5.10
  -3   7  -3   -3.00    5.00
   3  -7   3   -2.70    4.00
   3  -7   3   -0.30    4.40
   3  -7   3   -1.70    4.20
   3  -7   3    1.40    5.90
   3  -7   3    5.40    4.90
  -4   7  -3   10.50    5.90
  -4   7  -3    7.70    7.40
   4  -7   3    5.70    4.90
   4  -7   3   13.90    5.60
   4  -7   3    9.50    6.10
   4  -7   3   23.10   11.40
   4  -7   3    5.50    5.20
   4  -7   3   16.10    8.10
  -5   7  -3   32.90    9.30
  -5   7  -3   20.30   11.50
  -5   7  -3   59.69   12.20
   5  -7   3   33.50    8.90
   5  -7   3   33.60    8.60
   5  -7   3   38.10    9.20
   5  -7   3   61.09   18.10
   5  -7   3   23.80    9.30
  -6   7  -3   49.50   15.30
  -6   7  -3   46.20   13.10
   6  -7   3   69.19   12.90
   6  -7   3   46.60   12.10
   6  -7   3   55.19   11.60
   6  -7   3   47.30   13.10
  -7   7  -3    0.40   13.80
  -7   7  -3   15.00   12.20
   7  -7   3   -3.70    8.80
   7  -7   3    4.40    9.40
   7  -7   3   10.80   11.10
   7  -7   3   -2.20   10.20
   7   6  -3   86.19   24.70
   7   6  -3  114.09   23.30
   7   6  -3  125.09   23.40
  -7  -6   3  106.29   23.40
   6   6  -3   28.60    9.90
   6   6  -3   -6.20   10.00
   6   6  -3   -2.60    9.80
  -6  -6   3  -10.10   11.90
  -6  -6   3    1.10    9.10
   5   6  -3   39.30   10.20
   5   6  -3   38.50    9.60
   5   6  -3   28.50   10.10
  -5  -6   3   43.60   10.40
  -5  -6   3   17.80   10.30
  -5  -6   3   22.10    9.50
   4   6  -3    2.40   10.70
   4   6  -3    6.90    6.80
   4   6  -3   11.80    5.90
   4   6  -3    6.30    6.20
  -4  -6   3    2.40   10.10
  -4  -6   3   13.60    5.40
  -4  -6   3    3.00    7.70
  -4  -6   3   16.70    6.40
   3   6  -3    9.50    5.00
   3   6  -3   12.20    4.90
   3   6  -3    1.00    5.10
   3   6  -3   -2.80    7.40
   3   6  -3   -4.00    8.20
  -3  -6   3  -10.40    5.50
  -3  -6   3   -2.30    4.70
  -3  -6   3    0.70    4.70
  -3  -6   3    0.60    4.00
  -3  -6   3    4.30    6.50
  -3  -6   3   -0.50    6.50
   2   6  -3  100.09   18.80
   2   6  -3  117.69   19.00
   2   6  -3  161.38   20.00
   2   6  -3   88.79   18.70
   2   6  -3  106.89   19.30
  -2  -6   3  107.59   19.20
  -2  -6   3  104.69   18.90
  -2  -6   3  102.39   18.60
  -2  -6   3   90.39   18.60
  -2  -6   3   98.69   18.90
  -2  -6   3  117.79   19.20
   1   6  -3 3805.02  653.23
   1   6  -3 3687.03  653.23
   1   6  -3 3832.02  653.23
  -1  -6   3 4011.00  653.23
  -1  -6   3 3804.72  653.23
  -1  -6   3 4031.30  653.33
  -1  -6   3 3924.81  653.23
  -1  -6   3 4031.30  653.33
  -1  -6   3 3839.22  653.23
   0   6  -3  656.23  116.19
   0   6  -3  655.53  116.19
   0   6  -3  706.03  116.19
   0   6  -3  697.73  116.19
   0  -6   3  667.03  116.29
   0  -6   3  698.23  116.19
   0  -6   3  730.23  116.19
   0  -6   3  742.83  116.19
   0  -6   3  662.73  116.19
   0  -6   3  676.73  116.19
  -1   6  -3   -8.70    4.20
  -1   6  -3    8.60    3.30
  -1   6  -3   -1.60    3.40
  -1   6  -3   -4.80    2.90
  -1   6  -3    1.90    4.40
   1  -6   3   -3.50    2.90
   1  -6   3   -2.10    3.20
   1  -6   3   -5.90    4.20
   1  -6   3   -2.60    3.70
   1  -6   3    3.20    3.00
  -2   6  -3  223.38   36.80
  -2   6  -3  205.48   36.70
  -2   6  -3  218.78   36.50
  -2   6  -3  199.88   36.50
  -2   6  -3  196.98   36.60
   2  -6   3  172.78   36.90
   2  -6   3  230.18   36.50
   2  -6   3  215.68   36.50
   2  -6   3  228.48   36.50
   2  -6   3  226.38   36.60
   2  -6   3  213.58   36.90
  -3   6  -3  215.48   40.50
  -3   6  -3  250.87   40.70
  -3   6  -3  259.27   41.20
  -3   6  -3  238.08   40.50
  -3   6  -3  247.68   40.40
   3  -6   3  224.48   40.30
   3  -6   3  194.08   40.50
   3  -6   3  220.08   40.50
   3  -6   3  244.08   40.20
   3  -6   3  261.67   40.30
   3  -6   3  237.78   40.40
  -4   6  -3    5.60    5.60
  -4   6  -3    5.90    6.40
  -4   6  -3   10.20    6.50
  -4   6  -3    6.50    7.00
  -4   6  -3    8.60    6.20
   4  -6   3   14.80    4.50
   4  -6   3   12.00    5.60
   4  -6   3   17.10    5.40
   4  -6   3   11.70    9.20
   4  -6   3   10.50    5.00
   4  -6   3   14.40    6.50
  -5   6  -3  262.27   40.70
  -5   6  -3  199.58   40.80
  -5   6  -3  237.48   40.90
   5  -6   3  265.77   40.60
   5  -6   3  246.68   40.40
   5  -6   3  184.78   40.80
  -6   6  -3    1.50   10.70
  -6   6  -3    1.80    7.80
   6  -6   3   -5.00   12.40
   6  -6   3    5.70    7.80
   6  -6   3    9.10    7.90
   6  -6   3    4.80    8.20
   6  -6   3   -3.50    7.60
  -7   6  -3   10.60   10.60
   7  -6   3   10.20    8.80
   7  -6   3    3.60   10.10
   7  -6   3    0.70    9.30
   7  -6   3   -5.30    9.60
  -8   6  -3   11.80   17.70
   8  -6   3   -6.60   11.40
   8  -6   3  -12.10   12.50
   8  -6   3   -1.40   12.30
   7   5  -3   53.19   15.10
   7   5  -3   40.40   13.30
   7   5  -3   46.50   13.60
  -7  -5   3   15.90   20.70
   6   5  -3   12.60    8.90
   6   5  -3   28.20    9.60
   6   5  -3   18.70    9.70
  -6  -5   3    0.40   10.90
  -6  -5   3   27.50    9.60
   5   5  -3   69.39   11.90
   5   5  -3   52.89   12.00
   5   5  -3   59.39   12.10
  -5  -5   3   14.60   11.60
  -5  -5   3   56.09   11.80
  -5  -5   3   64.69   13.90
  -5  -5   3   66.09   12.30
   4   5  -3   20.00   12.60
   4   5  -3   59.09   12.20
   4   5  -3   61.19   10.60
   4   5  -3   62.89   10.60
   4   5  -3   45.40   10.40
  -4  -5   3   72.79   12.10
  -4  -5   3   42.30   10.20
  -4  -5   3   37.60   10.60
  -4  -5   3   51.69   10.80
  -4  -5   3   42.40   11.00
   3   5  -3  265.97   44.40
   3   5  -3  292.37   44.70
   3   5  -3  288.07   44.80
   3   5  -3  276.47   44.40
   3   5  -3  230.88   44.50
  -3  -5   3  219.08   44.60
  -3  -5   3  251.07   44.70
  -3  -5   3  262.57   44.50
  -3  -5   3  249.88   44.50
  -3  -5   3  260.67   44.60
   2   5  -3  385.56   67.09
   2   5  -3  390.86   66.89
   2   5  -3  387.16   66.99
   2   5  -3  371.66   66.89
   2   5  -3  401.36   66.99
  -2  -5   3  391.46   66.99
  -2  -5   3  406.26   67.09
  -2  -5   3  393.46   66.79
  -2  -5   3  384.16   66.99
  -2  -5   3  405.56   66.99
  -2  -5   3  428.16   66.99
   1   5  -3  359.56   61.79
   1   5  -3  364.16   61.79
   1   5  -3  366.16   61.69
   1   5  -3  377.76   61.89
  -1  -5   3  355.76   61.79
  -1  -5   3  359.76   61.79
  -1  -5   3  369.86   61.79
  -1  -5   3  363.16   61.79
   0   5  -3    9.90    2.90
   0   5  -3    3.00    3.10
   0   5  -3    8.50    3.30
   0   5  -3    3.40    2.90
   0   5  -3   10.40    3.90
   0  -5   3    3.60    2.90
   0  -5   3   13.70    3.30
   0  -5   3   10.70    3.50
   0  -5   3    6.20    3.20
   0  -5   3    3.60    3.10
   0  -5   3    4.90    2.70
  -1   5  -3   18.00    4.00
  -1   5  -3   14.60    4.60
  -1   5  -3   17.30    4.20
  -1   5  -3   22.00    4.10
  -1   5  -3   15.30    4.60
   1  -5   3   12.40    3.80
   1  -5   3   12.00    4.30
   1  -5   3   16.90    3.90
   1  -5   3   12.50    3.90
   1  -5   3   16.50    3.90
  -2   5  -3   65.19   11.20
  -2   5  -3   41.90   10.90
  -2   5  -3   59.09   11.00
  -2   5  -3   62.19   11.50
  -2   5  -3   68.29   11.20
   2  -5   3   56.29   11.50
   2  -5   3   56.09   11.00
   2  -5   3   78.79   11.40
   2  -5   3   75.69   11.40
   2  -5   3   65.79   11.20
   2  -5   3   51.39   10.90
  -3   5  -3  279.57   45.30
  -3   5  -3  260.07   45.30
  -3   5  -3  247.78   45.20
  -3   5  -3  271.07   45.40
  -3   5  -3  262.67   45.20
   3  -5   3  264.17   45.10
   3  -5   3  242.98   45.00
   3  -5   3  256.97   45.20
   3  -5   3  253.27   45.70
   3  -5   3  275.47   45.40
   3  -5   3  302.27   45.20
  -4   5  -3  197.08   32.30
  -4   5  -3  161.08   32.10
  -4   5  -3  147.79   31.90
  -4   5  -3  200.28   32.40
   4  -5   3  213.38   32.30
   4  -5   3  227.18   33.20
   4  -5   3  198.68   32.20
   4  -5   3  148.29   31.80
   4  -5   3  211.28   32.40
   4  -5   3  193.08   32.40
  -5   5  -3   76.09   17.00
  -5   5  -3  114.79   17.80
  -5   5  -3  104.89   20.00
  -5   5  -3   91.49   17.40
  -5   5  -3   85.79   17.90
   5  -5   3   72.89   16.60
   5  -5   3   96.19   16.80
   5  -5   3   83.79   17.90
   5  -5   3  115.09   17.60
   5  -5   3   90.49   16.90
  -6   5  -3   81.19   14.00
  -6   5  -3   25.90   14.40
   6  -5   3   79.89   16.50
   6  -5   3   90.29   13.40
   6  -5   3   64.19   13.70
   6  -5   3   61.79   13.20
   6  -5   3   46.30   12.90
  -7   5  -3    0.00   10.50
  -7   5  -3    1.20   11.70
   7  -5   3    5.20    9.50
   7  -5   3   -6.50    9.30
   7  -5   3   15.20   10.50
   7  -5   3   25.80    8.90
  -8   5  -3   10.30   18.90
  -8   5  -3   16.20   15.80
   8  -5   3    6.90   13.20
   8  -5   3   -2.40   11.40
   8  -5   3   -3.40   11.30
   8  -5   3  -15.80   15.20
   7   4  -3    8.60   10.00
   7   4  -3   46.60   11.50
   7   4  -3   21.30   11.60
  -7  -4   3  -13.40   11.50
   6   4  -3   10.00    7.60
   6   4  -3   13.00    8.20
   6   4  -3   26.70   12.40
  -6  -4   3    8.50    9.40
   5   4  -3  121.09   19.00
   5   4  -3  118.69   19.20
   5   4  -3   58.79   21.10
   5   4  -3  114.29   19.30
  -5  -4   3   90.29   19.00
  -5  -4   3   81.99   19.10
  -5  -4   3  115.39   20.00
   4   4  -3  411.66   73.49
   4   4  -3  456.25   73.69
   4   4  -3  423.96   73.59
   4   4  -3  412.46   73.79
  -4  -4   3  421.16   74.19
  -4  -4   3  466.75   73.69
  -4  -4   3  396.46   73.79
  -4  -4   3  454.85   73.49
  -4  -4   3  450.45   73.69
   3   4  -3   47.10    7.90
   3   4  -3   32.10    7.50
   3   4  -3   16.10    8.00
   3   4  -3   47.90    8.30
   3   4  -3   30.20    7.50
  -3  -4   3   31.80    7.90
  -3  -4   3   35.50    7.70
  -3  -4   3   40.70    8.00
  -3  -4   3   61.69    8.40
   2   4  -3   28.60    5.40
   2   4  -3   13.10    5.00
   2   4  -3   18.20    5.50
   2   4  -3   35.90    6.20
   2   4  -3   17.90    4.90
  -2  -4   3   26.10    5.50
  -2  -4   3   18.70    4.80
  -2  -4   3   23.50    5.20
  -2  -4   3   31.20    5.70
  -2  -4   3   32.90    5.40
   1   4  -3  124.09   20.60
   1   4  -3  119.19   20.40
   1   4  -3  104.39   20.40
   1   4  -3  125.29   20.30
  -1  -4   3  118.69   20.40
  -1  -4   3  127.79   20.40
  -1  -4   3  107.69   20.30
  -1  -4   3  120.59   20.50
  -1  -4   3  110.49   20.30
  -1  -4   3  128.09   20.40
   0   4  -3    4.20    2.50
   0   4  -3    1.50    2.00
   0   4  -3    6.30    2.20
   0   4  -3    8.00    3.10
   0   4  -3    2.10    2.40
   0  -4   3    5.50    2.50
   0  -4   3    3.20    2.20
   0  -4   3    6.60    2.20
   0  -4   3    6.70    2.30
   0  -4   3    1.50    2.10
  -1   4  -3  271.17   46.10
  -1   4  -3  258.77   46.20
  -1   4  -3  280.97   46.20
  -1   4  -3  269.27   46.10
  -1   4  -3  272.27   46.10
   1  -4   3  279.77   46.10
   1  -4   3  256.67   46.20
   1  -4   3  285.37   46.10
   1  -4   3  275.47   46.10
  -2   4  -3  256.07   46.00
  -2   4  -3  268.27   46.10
  -2   4  -3  301.87   46.10
  -2   4  -3  301.17   46.00
  -2   4  -3  299.37   46.00
   2  -4   3  264.67   46.00
   2  -4   3  266.57   46.00
   2  -4   3  273.27   46.00
   2  -4   3  260.87   46.00
   2  -4   3  219.88   46.30
  -3   4  -3 1546.55  255.77
  -3   4  -3 1533.15  255.77
  -3   4  -3 1475.05  255.77
  -3   4  -3 1486.55  255.77
  -3   4  -3 1519.95  255.77
   3  -4   3 1568.34  255.77
   3  -4   3 1565.14  255.77
   3  -4   3 1493.15  255.87
   3  -4   3 1472.15  255.67
   3  -4   3 1584.84  255.77
   3  -4   3 1471.55  255.77
  -4   4  -3   34.50    7.90
  -4   4  -3   33.60    8.20
  -4   4  -3   53.39    7.90
  -4   4  -3   37.70    8.00
  -4   4  -3   29.50    7.80
  -4   4  -3   17.60    8.30
   4  -4   3   33.30    7.70
   4  -4   3   29.70    7.10
   4  -4   3   33.50    8.20
   4  -4   3   36.30    7.40
   4  -4   3   40.30    9.70
   4  -4   3   35.00    7.40
  -5   4  -3   59.29   14.50
  -5   4  -3   53.19   14.90
  -5   4  -3   77.59   14.60
  -5   4  -3   80.09   14.90
   5  -4   3   93.39   14.60
   5  -4   3   97.99   14.60
   5  -4   3   64.19   14.20
   5  -4   3   71.89   14.60
   5  -4   3   88.89   15.60
   5  -4   3  111.99   17.60
  -6   4  -3   -5.00    7.00
  -6   4  -3   -8.60    8.10
   6  -4   3   -0.40    5.90
   6  -4   3   -4.80    6.20
   6  -4   3    7.20    7.30
   6  -4   3   -7.50    7.10
   6  -4   3   -3.40   11.00
  -7   4  -3  216.58   33.50
  -7   4  -3  156.78   31.70
   7  -4   3  175.28   31.60
   7  -4   3  203.38   31.30
   7  -4   3  164.98   31.00
   7  -4   3  138.89   31.70
  -8   4  -3   32.50   18.70
  -8   4  -3  -10.00   15.30
   8  -4   3   18.10   12.10
   8  -4   3   23.30   11.10
   8  -4   3   17.10   12.60
   8  -4   3   10.50   12.80
   8   3  -3    3.20   12.50
   8   3  -3   14.50   11.30
   8   3  -3  -10.20   20.30
   7   3  -3    7.00    8.40
   7   3  -3    0.30    8.90
   7   3  -3   14.70   10.00
  -7  -3   3   -0.50   10.80
  -7  -3   3   30.60   13.90
   6   3  -3   89.49   13.00
   6   3  -3   59.79   13.00
   6   3  -3   46.80   12.50
  -6  -3   3   43.30   13.20
  -6  -3   3   29.80   14.90
   5   3  -3   18.90   11.10
   5   3  -3   12.40    5.90
   5   3  -3    7.50    6.40
   5   3  -3   35.90    9.10
   5   3  -3   15.40    6.30
  -5  -3   3   10.70    7.40
  -5  -3   3    5.10    9.40
  -5  -3   3   29.20    8.80
  -5  -3   3   14.60    6.90
  -5  -3   3   12.80    7.30
  -5  -3   3   31.40    9.30
   4   3  -3   91.89   17.30
   4   3  -3   82.89   16.80
   4   3  -3   94.99   16.90
   4   3  -3   87.19   17.90
   4   3  -3   89.99   16.90
  -4  -3   3  102.79   17.00
  -4  -3   3   87.09   17.40
  -4  -3   3  127.99   17.50
  -4  -3   3  111.49   17.50
  -4  -3   3   80.39   17.70
  -4  -3   3   93.79   17.10
   3   3  -3  466.45   83.09
   3   3  -3  498.65   83.19
   3   3  -3  530.25   83.29
   3   3  -3  469.55   83.09
  -3  -3   3  505.45   83.19
  -3  -3   3  482.85   83.19
  -3  -3   3  513.25   83.29
  -3  -3   3  474.55   83.09
   2   3  -3  115.39   19.30
   2   3  -3  132.99   19.40
   2   3  -3  108.19   19.30
   2   3  -3  110.19   19.40
  -2  -3   3  129.09   19.40
  -2  -3   3  117.69   19.50
  -2  -3   3   84.99   19.10
  -2  -3   3  104.79   19.30
   1   3  -3  551.24   90.99
   1   3  -3  533.85   90.99
   1   3  -3  524.85   90.99
   1   3  -3  552.84   90.99
  -1  -3   3  554.54   90.99
  -1  -3   3  559.74   91.09
  -1  -3   3  540.45   90.99
  -1  -3   3  522.45   90.99
  -1  -3   3  516.55   90.99
  -1  -3   3  546.85   90.99
   0   3  -3 2649.24  448.16
   0   3  -3 2780.72  448.26
   0   3  -3 2685.03  448.26
   0   3  -3 2585.74  448.26
   0   3  -3 2660.03  448.26
   0  -3   3 2619.34  448.26
   0  -3   3 2674.13  448.26
   0  -3   3 2659.13  448.26
   0  -3   3 2764.42  448.26
   0  -3   3 2582.64  448.26
  -1   3  -3   52.79   10.10
  -1   3  -3   60.19   10.20
  -1   3  -3   50.59   10.20
  -1   3  -3   66.09   10.20
  -1   3  -3   50.89   10.10
   1  -3   3   63.89   10.20
   1  -3   3   55.99   10.20
   1  -3   3   78.69   10.40
   1  -3   3   50.99   10.10
   1  -3   3   63.29   10.20
   1  -3   3   53.19   10.20
  -2   3  -3  249.08   43.80
  -2   3  -3  281.27   43.90
  -2   3  -3  243.48   43.80
  -2   3  -3  267.97   43.80
  -2   3  -3  262.67   43.80
  -2   3  -3  250.67   43.80
   2  -3   3  252.57   43.80
   2  -3   3  251.27   43.80
   2  -3   3  281.77   43.80
   2  -3   3  244.58   44.00
   2  -3   3  248.08   43.80
   2  -3   3  266.27   43.80
  -3   3  -3   74.89   15.50
  -3   3  -3  110.69   15.60
  -3   3  -3   85.89   15.50
  -3   3  -3   83.59   15.40
  -3   3  -3   95.49   15.50
  -3   3  -3   84.49   15.40
   3  -3   3   93.49   15.60
   3  -3   3   80.39   15.40
   3  -3   3   79.89   15.50
   3  -3   3   82.29   15.30
   3  -3   3   90.49   15.40
   3  -3   3   99.69   16.00
  -4   3  -3  192.58   32.70
  -4   3  -3  206.78   32.70
  -4   3  -3  221.48   33.20
  -4   3  -3  144.99   32.40
  -4   3  -3  165.38   32.50
   4  -3   3  190.98   32.60
   4  -3   3  179.48   32.60
   4  -3   3  195.58   32.50
   4  -3   3  225.68   33.40
   4  -3   3  197.08   32.50
   4  -3   3  200.38   32.90
  -5   3  -3   56.79   12.10
  -5   3  -3   70.79   12.20
  -5   3  -3   66.39   12.00
  -5   3  -3   50.79   11.80
  -5   3  -3   49.70   11.40
  -5   3  -3   58.59   12.20
   5  -3   3   50.69   11.20
   5  -3   3   49.10   12.30
   5  -3   3   63.99   11.10
   5  -3   3   50.49   11.70
   5  -3   3   56.39   11.10
   5  -3   3   37.00   14.40
  -6   3  -3   64.79   13.70
  -6   3  -3   97.19   15.80
   6  -3   3   46.70   16.50
   6  -3   3   58.69   12.70
   6  -3   3   78.49   16.10
   6  -3   3   52.49   12.60
   6  -3   3   56.99   13.50
  -7   3  -3   26.50   11.30
  -7   3  -3   -0.70   14.10
   7  -3   3   19.90   10.60
   7  -3   3   21.40    9.00
   7  -3   3   11.50    9.40
   7  -3   3   15.20    8.50
  -8   3  -3    6.70   19.30
  -8   3  -3   -8.80   14.20
   8  -3   3  -12.50   13.20
   8  -3   3   -4.30   11.60
   8  -3   3   22.10   11.80
   8  -3   3    7.70   11.70
   8   2  -3   -2.20   11.80
   8   2  -3    0.00   11.60
   8   2  -3    9.60   10.20
  -8  -2   3  -33.30   21.70
  -8  -2   3   -5.60   17.10
   7   2  -3    0.30    8.80
   7   2  -3   -6.60    8.50
   7   2  -3    0.20    7.40
  -7  -2   3   13.90   10.70
  -7  -2   3   -1.30   13.50
   6   2  -3   87.99   13.10
   6   2  -3   80.19   13.00
   6   2  -3   43.30   11.70
  -6  -2   3   40.30   12.70
  -6  -2   3   47.70   13.00
  -6  -2   3   55.89   13.50
  -6  -2   3   51.69   14.70
   5   2  -3  420.76   67.49
   5   2  -3  416.96   67.59
   5   2  -3  422.56   67.29
   5   2  -3  385.16   67.79
  -5  -2   3  376.66   67.69
  -5  -2   3  397.46   67.89
  -5  -2   3  350.96   67.29
  -5  -2   3  384.86   67.89
  -5  -2   3  412.96   67.59
  -5  -2   3  382.46   67.39
   4   2  -3  247.88   41.70
   4   2  -3  234.28   42.30
   4   2  -3  255.67   41.90
   4   2  -3  249.28   41.50
   4   2  -3  234.98   41.60
  -4  -2   3  239.78   42.00
  -4  -2   3  234.58   41.60
  -4  -2   3  243.08   41.70
  -4  -2   3  242.38   41.90
  -4  -2   3  255.77   41.80
  -4  -2   3  233.78   41.50
   3   2  -3   36.10    8.00
   3   2  -3   30.10    7.70
   3   2  -3   42.00    8.10
   3   2  -3   42.90    8.80
   3   2  -3   49.10    8.00
  -3  -2   3   45.60    8.70
  -3  -2   3   55.79    8.10
  -3  -2   3   35.40    8.10
  -3  -2   3   37.80    8.00
  -3  -2   3   58.39    8.40
  -3  -2   3   42.80    8.20
   2   2  -3   30.40    5.40
   2   2  -3   22.20    5.60
   2   2  -3   32.60    5.30
   2   2  -3   34.50    5.60
   2   2  -3   23.60    5.30
  -2  -2   3   27.30    5.40
  -2  -2   3   26.30    5.50
  -2  -2   3   29.00    5.30
  -2  -2   3   23.40    5.30
  -2  -2   3   26.80    5.70
   1   2  -3  270.37   46.10
   1   2  -3  273.77   46.10
   1   2  -3  264.57   46.10
   1   2  -3  250.37   46.10
  -1  -2   3  281.97   46.10
  -1  -2   3  273.27   46.10
  -1  -2   3  296.97   46.20
  -1  -2   3  280.97   46.10
  -1  -2   3  273.77   46.20
   0   2  -3 5672.43  930.61
   0   2  -3 5565.44  930.71
   0  -2   3 5691.83  930.61
   0  -2   3 5335.07  930.61
   0  -2   3 5374.66  930.61
   0  -2   3 5639.64  930.61
   0  -2   3 5483.55  930.71
  -1   2  -3 3639.04  615.64
  -1   2  -3 3649.23  615.54
  -1   2  -3 3834.52  615.54
  -1   2  -3 3468.05  615.54
  -1   2  -3 3577.04  615.54
  -1   2  -3 3792.02  615.64
   1  -2   3 3594.74  615.54
   1  -2   3 3720.03  615.54
   1  -2   3 3707.13  615.64
   1  -2   3 3640.54  615.64
   1  -2   3 3667.03  615.54
   1  -2   3 3666.83  615.54
  -2   2  -3   29.90    6.80
  -2   2  -3   44.00    7.00
  -2   2  -3   35.60    6.90
  -2   2  -3   42.10    6.90
  -2   2  -3   38.40    6.90
   2  -2   3   42.90    7.00
   2  -2   3   40.40    7.30
   2  -2   3   28.90    6.80
   2  -2   3   38.10    6.90
   2  -2   3   32.90    6.80
   2  -2   3   40.40    7.00
  -3   2  -3  494.85   87.99
  -3   2  -3  528.95   87.99
  -3   2  -3  540.05   87.99
  -3   2  -3  521.45   87.99
  -3   2  -3  484.35   87.99
  -3   2  -3  521.05   87.99
   3  -2   3  540.85   87.99
   3  -2   3  507.95   87.99
   3  -2   3  507.65   88.39
   3  -2   3  555.24   87.99
   3  -2   3  527.15   87.89
   3  -2   3  525.55   88.19
  -4   2  -3  137.29   22.20
  -4   2  -3  150.98   22.20
  -4   2  -3  135.09   21.90
  -4   2  -3  137.69   22.10
  -4   2  -3  103.99   22.30
  -4   2  -3  121.09   21.70
   4  -2   3  138.39   22.10
   4  -2   3  125.89   21.80
   4  -2   3   92.59   21.50
   4  -2   3  135.19   21.80
   4  -2   3  123.99   22.40
   4  -2   3  107.39   21.80
  -5   2  -3   46.20    9.50
  -5   2  -3   44.20   10.30
  -5   2  -3   43.50    9.50
  -5   2  -3   35.90    8.50
  -5   2  -3   38.10    8.40
  -5   2  -3   35.80    8.80
   5  -2   3   21.70    7.40
   5  -2   3   27.00    7.90
   5  -2   3   32.50    8.00
   5  -2   3   19.90   12.00
   5  -2   3   31.90    8.00
   5  -2   3   32.00    9.30
  -6   2  -3   26.40   10.20
  -6   2  -3   23.50   10.20
  -6   2  -3   35.90   12.70
   6  -2   3   20.50    8.50
   6  -2   3   26.90    9.00
   6  -2   3   40.80    9.50
   6  -2   3   29.20   12.00
   6  -2   3   47.30    9.20
  -7   2  -3   74.19   21.80
  -7   2  -3   94.59   18.40
   7  -2   3  101.49   17.30
   7  -2   3   83.09   17.30
   7  -2   3  108.59   17.60
   7  -2   3   47.30   17.60
  -8   2  -3    0.80   19.90
   8  -2   3  -15.10   11.80
   8  -2   3   -4.10   11.40
   8  -2   3   13.20   12.70
   8  -2   3   -5.60   11.40
   8   1  -3   22.00   12.30
   8   1  -3   37.80   12.80
   8   1  -3   49.70   11.20
  -8  -1   3    8.40   13.30
  -8  -1   3   33.50   18.30
   7   1  -3   30.70    9.30
   7   1  -3   19.00    9.40
  -7  -1   3   32.20   13.30
  -7  -1   3    4.20   10.20
   6   1  -3   81.69   13.10
   6   1  -3   43.70   13.10
   6   1  -3   82.19   13.90
  -6  -1   3   62.39   14.20
  -6  -1   3   47.60   13.30
  -6  -1   3   93.89   16.50
  -6  -1   3   66.29   13.90
   5   1  -3   58.49   15.90
   5   1  -3   65.39   14.10
   5   1  -3   63.49   14.10
   5   1  -3   81.29   15.00
   5   1  -3   72.89   13.70
  -5  -1   3   92.29   15.00
  -5  -1   3   83.49   14.70
  -5  -1   3   76.19   14.00
  -5  -1   3   98.79   14.70
  -5  -1   3   65.49   14.10
  -5  -1   3   88.89   15.00
   4   1  -3  144.39   30.40
   4   1  -3  215.88   30.50
   4   1  -3  188.98   30.30
   4   1  -3  142.49   30.10
   4   1  -3  175.18   30.40
  -4  -1   3  188.78   30.40
  -4  -1   3  175.48   30.30
  -4  -1   3  208.78   30.70
  -4  -1   3  139.79   30.20
  -4  -1   3  184.08   30.50
  -4  -1   3  199.58   30.20
   3   1  -3   77.99   11.40
   3   1  -3   74.89   11.70
   3   1  -3   47.00   11.70
   3   1  -3   77.79   11.60
   3   1  -3   61.39   11.50
  -3  -1   3   56.79   11.50
  -3  -1   3   66.69   11.70
  -3  -1   3   56.49   11.60
  -3  -1   3   66.39   11.60
  -3  -1   3   61.89   11.50
  -3  -1   3   65.19   11.30
   2   1  -3  760.12  129.79
   2   1  -3  765.52  129.79
   2   1  -3  772.92  129.69
   2   1  -3  732.13  129.79
   2   1  -3  786.22  129.79
  -2  -1   3  752.72  129.69
  -2  -1   3  759.52  129.79
  -2  -1   3  792.82  129.79
  -2  -1   3  789.92  129.79
  -2  -1   3  798.32  129.79
   1   1  -3  190.48   40.20
  -1  -1   3  264.17   40.20
  -1  -1   3  245.08   40.20
  -1  -1   3  251.77   40.20
  -1  -1   3  239.68   40.20
   0  -1   3 1365.46  228.38
   0  -1   3 1351.36  228.38
  -1   1  -3  178.88   28.40
  -1   1  -3  163.58   28.40
  -1   1  -3  163.48   28.50
  -1   1  -3  165.38   28.50
  -1   1  -3  177.88   28.50
   1  -1   3  167.58   28.50
   1  -1   3  165.68   28.60
   1  -1   3  163.28   28.50
   1  -1   3  176.98   28.50
   1  -1   3  159.68   28.50
   1  -1   3  167.28   28.50
  -2   1  -3    7.60    3.20
  -2   1  -3    1.90    2.00
  -2   1  -3    4.90    2.30
  -2   1  -3    7.70    2.40
  -2   1  -3    6.10    2.40
   2  -1   3    4.30    2.00
   2  -1   3    6.40    2.50
   2  -1   3    1.30    2.20
   2  -1   3    7.00    2.40
   2  -1   3   -5.40    2.10
   2  -1   3    1.50    2.80
  -3   1  -3   20.70    4.80
  -3   1  -3   18.20    4.60
  -3   1  -3   21.00    5.40
  -3   1  -3    7.30    4.10
  -3   1  -3   17.60    4.60
  -3   1  -3   20.30    4.50
   3  -1   3   16.90    5.40
   3  -1   3   18.10    5.00
   3  -1   3   22.60    4.60
   3  -1   3   19.40    4.10
   3  -1   3   15.40    4.30
   3  -1   3   12.50    4.40
  -4   1  -3  291.87   54.89
  -4   1  -3  329.47   54.89
  -4   1  -3  316.77   54.89
  -4   1  -3  363.56   54.79
  -4   1  -3  332.77   54.79
  -4   1  -3  311.07   54.49
   4  -1   3  327.07   54.69
   4  -1   3  315.87   55.29
   4  -1   3  314.27   54.99
   4  -1   3  306.17   54.49
   4  -1   3  316.47   54.89
   4  -1   3  338.47   54.69
  -5   1  -3   38.60   11.40
  -5   1  -3   75.79   11.80
  -5   1  -3   36.50   13.00
  -5   1  -3   71.79   11.20
  -5   1  -3   51.49   12.30
  -5   1  -3   91.89   15.90
   5  -1   3   56.79   10.80
   5  -1   3   61.29   11.20
   5  -1   3   62.59   11.40
   5  -1   3   50.49   14.50
   5  -1   3   49.20   12.40
   5  -1   3   33.40   11.20
  -6   1  -3   -3.80    7.80
  -6   1  -3    7.90    7.90
  -6   1  -3   -9.60   12.20
   6  -1   3    8.90    7.30
   6  -1   3   13.50    7.80
   6  -1   3   10.10    6.50
   6  -1   3    3.50   11.90
   6  -1   3   17.40    6.90
  -7   1  -3   14.10   16.40
  -7   1  -3    5.30   15.10
   7  -1   3   50.39   11.80
   7  -1   3   39.30   10.70
   7  -1   3   19.60   11.80
   7  -1   3   49.99   11.40
   8  -1   3    2.40   12.70
   8  -1   3   19.60   13.10
   8   0  -3   41.80   12.60
   8   0  -3   19.50   10.10
   8   0  -3   28.00   12.00
  -8   0   3   33.00   16.40
  -8   0   3   20.60   15.40
   7   0  -3    5.90    8.00
   7   0  -3   17.40    6.90
   7   0  -3   12.60    8.10
  -7   0   3   16.00    9.60
  -7   0   3    6.70   11.70
   6   0  -3   38.10    8.40
   6   0  -3   33.70   15.00
   6   0  -3   60.59   10.00
   6   0  -3   20.40    8.80
  -6   0   3   47.30    9.80
  -6   0   3   42.00    9.40
  -6   0   3   43.40   10.80
  -6   0   3   27.60   10.60
   5   0  -3  213.18   38.10
   5   0  -3  232.48   38.30
   5   0  -3  283.77   39.20
   5   0  -3  200.98   37.70
   5   0  -3  201.48   38.70
  -5   0   3  221.18   38.10
  -5   0   3  230.18   38.10
  -5   0   3  205.48   37.80
  -5   0   3  222.78   38.60
  -5   0   3  222.78   38.10
  -5   0   3  228.18   38.60
   4   0  -3  521.35   90.69
   4   0  -3  548.05   90.49
   4   0  -3  534.15   90.29
   4   0  -3  508.55   90.49
   4   0  -3  513.95   90.49
  -4   0   3  509.45   90.59
  -4   0   3  553.04   90.49
  -4   0   3  523.95   90.49
  -4   0   3  581.64   90.49
  -4   0   3  561.44   90.59
   3   0  -3  466.95   76.99
   3   0  -3  463.25   76.89
   3   0  -3  466.85   76.89
   3   0  -3  452.05   76.99
   3   0  -3  463.25   76.79
  -3   0   3  438.76   76.89
  -3   0   3  470.95   77.49
  -3   0   3  440.36   76.89
  -3   0   3  452.95   76.79
  -3   0   3  457.75   76.89
  -3   0   3  442.06   76.99
   2   0  -3  757.62  129.39
   2   0  -3  772.12  129.49
   2   0  -3  801.82  129.49
   2   0  -3  765.72  129.49
   2   0  -3  768.12  129.49
  -2   0   3  791.52  129.49
  -2   0   3  739.13  129.49
  -2   0   3  786.12  129.49
  -2   0   3  757.92  129.49
  -2   0   3  761.92  129.39
  -2   0   3  763.72  129.49
   1   0  -3  283.67   50.29
   1   0  -3  310.07   50.29
  -1   0   3  288.57   50.29
  -1   0   3  299.97   50.29
  -1   0   3  308.17   50.29
  -1   0   3  300.67   50.29
   0   0   3  606.04  100.99
   0   0   3  552.84  100.99
   0   0   3  638.84  100.89
   0   0   3  614.74  100.89
   0   0   3  587.94  100.89
   0   0   3  593.74  100.99
  -1   0  -3 2067.69  333.77
  -1   0  -3 1954.30  333.77
  -1   0  -3 2077.79  333.87
  -1   0  -3 1907.91  333.77
  -1   0  -3 1985.40  333.77
  -1   0  -3 2009.40  333.77
   1   0   3 1905.71  333.77
   1   0   3 1962.10  333.77
   1   0   3 1898.61  333.77
   1   0   3 2008.20  333.87
   1   0   3 2071.39  333.77
  -2   0  -3    2.20    2.20
  -2   0  -3    1.20    2.60
  -2   0  -3    2.20    2.20
  -2   0  -3    2.70    2.30
  -2   0  -3    4.10    1.60
  -2   0  -3   -2.80    1.90
   2   0   3    1.10    1.60
   2   0   3   -2.30    2.30
   2   0   3    1.00    2.40
   2   0   3    3.50    3.00
   2   0   3    0.00    2.20
   2   0   3   -2.10    2.40
  -3   0  -3   18.60    4.70
  -3   0  -3    6.30    4.00
  -3   0  -3   13.10    4.50
  -3   0  -3   11.60    3.50
  -3   0  -3   11.40    4.40
   3   0   3   18.20    4.80
   3   0   3    8.30    4.10
   3   0   3   16.30    3.60
   3   0   3   18.60    4.20
   3   0   3   15.60    5.30
   3   0   3   23.50    4.60
  -4   0  -3  184.78   31.90
  -4   0  -3  171.48   31.90
  -4   0  -3  179.88   31.60
  -4   0  -3  178.48   31.90
  -4   0  -3  211.18   32.00
   4   0   3  204.48   32.10
   4   0   3  151.28   31.70
   4   0   3  189.68   31.90
   4   0   3  183.38   32.20
   4   0   3  190.18   31.50
   4   0   3  194.98   31.90
  -5   0  -3   -8.90    7.90
  -5   0  -3    0.40    7.10
  -5   0  -3    3.20    4.90
  -5   0  -3    3.30    6.60
   5   0   3    0.30    5.70
   5   0   3    2.30    5.30
   5   0   3    6.30    5.70
   5   0   3    1.30   16.30
   5   0   3    3.40    4.50
   5   0   3    0.80    8.60
  -6   0  -3   -9.90    9.30
  -6   0  -3   11.30    7.40
   6   0   3   10.90    6.40
   6   0   3   20.50   13.00
   6   0   3    7.00    7.50
   6   0   3    4.50    7.40
   6   0   3   14.10    7.80
  -7   0  -3    8.50   12.00
   7   0   3    8.50    9.90
   7   0   3    3.70   10.00
   7   0   3    6.50   10.00
   8  -1  -3   21.30   10.50
   8  -1  -3    7.10    8.20
   8  -1  -3    1.00    9.60
  -8   1   3    6.90   12.10
  -8   1   3    9.80   15.10
   7  -1  -3    5.80    8.10
   7  -1  -3    4.60    7.70
   7  -1  -3    7.10    5.90
  -7   1   3    5.40   10.90
  -7   1   3    1.60    8.10
  -7   1   3    6.90    8.70
   6  -1  -3   37.80    8.60
   6  -1  -3   34.90   14.30
   6  -1  -3   36.90    9.60
   6  -1  -3   51.69    9.50
   6  -1  -3   29.50    9.40
  -6   1   3   42.90   11.20
  -6   1   3   73.29   10.50
  -6   1   3   40.10   11.60
  -6   1   3   34.90    9.00
   5  -1  -3  246.18   43.40
   5  -1  -3  262.77   43.10
   5  -1  -3  260.87   43.90
   5  -1  -3  271.27   43.40
   5  -1  -3  237.18   42.90
   5  -1  -3  284.47   43.40
  -5   1   3  211.18   43.10
  -5   1   3  240.28   42.90
  -5   1   3  230.98   43.30
  -5   1   3  263.97   43.70
  -5   1   3  258.67   43.80
  -5   1   3  274.07   43.30
   4  -1  -3 5640.64  941.31
   4  -1  -3 5420.26  941.31
   4  -1  -3 5549.44  941.11
   4  -1  -3 5623.04  941.31
   4  -1  -3 5426.46  941.31
   4  -1  -3 5750.42  941.31
  -4   1   3 5682.33  941.31
  -4   1   3 5646.23  941.31
  -4   1   3 5551.64  941.31
  -4   1   3 5593.34  941.31
  -4   1   3 5705.63  941.11
   3  -1  -3  456.15   74.09
   3  -1  -3  457.25   74.29
   3  -1  -3  468.55   74.39
   3  -1  -3  446.46   74.29
   3  -1  -3  426.16   74.29
   3  -1  -3  436.36   74.29
  -3   1   3  418.46   74.39
  -3   1   3  441.96   74.29
  -3   1   3  428.86   74.09
  -3   1   3  448.46   74.29
  -3   1   3  447.06   74.29
  -3   1   3  404.56   74.39
   2  -1  -3  409.76   69.69
   2  -1  -3  403.86   69.79
   2  -1  -3  407.26   69.79
   2  -1  -3  422.16   69.59
   2  -1  -3  411.86   69.79
   2  -1  -3  384.26   69.69
  -2   1   3  403.16   69.79
  -2   1   3  416.56   69.79
  -2   1   3  420.66   69.79
  -2   1   3  444.86   69.59
  -2   1   3  414.96   69.79
  -2   1   3  399.26   69.79
   1  -1  -3 6921.41 1137.89
   1  -1  -3 6757.12 1137.79
   1  -1  -3 6619.24 1137.89
   1  -1  -3 6672.63 1137.89
  -1   1   3 7015.80 1137.79
  -1   1   3 6625.34 1137.89
  -1   1   3 6680.73 1137.89
  -1   1   3 6719.33 1137.89
  -1   1   3 7157.48 1137.89
  -1   1   3 6535.15 1137.89
   0  -1  -3  187.78   33.30
   0  -1  -3  197.68   33.30
   0  -1  -3  214.58   33.30
   0  -1  -3  188.28   33.30
   0  -1  -3  196.38   33.30
   0   1   3  190.88   33.30
   0   1   3  195.78   33.30
   0   1   3  203.08   33.30
   0   1   3  203.58   33.30
   0   1   3  194.48   33.30
  -1  -1  -3  810.22  136.19
  -1  -1  -3  810.72  136.19
  -1  -1  -3  791.12  136.19
  -1  -1  -3  808.72  136.09
  -1  -1  -3  855.01  136.19
  -1  -1  -3  837.82  136.19
   1   1   3  800.92  136.19
   1   1   3  796.72  136.09
   1   1   3  810.82  136.19
   1   1   3  777.12  136.19
   1   1   3  826.32  136.29
   1   1   3  792.82  136.19
  -2  -1  -3 3271.07  555.84
  -2  -1  -3 3237.38  555.84
  -2  -1  -3 3297.37  555.84
  -2  -1  -3 3299.77  555.84
  -2  -1  -3 3270.27  555.84
  -2  -1  -3 3247.78  555.64
   2   1   3 3313.37  555.84
   2   1   3 3686.63  556.24
   2   1   3 3285.37  555.64
   2   1   3 3245.48  555.84
   2   1   3 3378.46  555.84
   2   1   3 3193.38  555.84
  -3  -1  -3  261.17   41.10
  -3  -1  -3  228.78   41.20
  -3  -1  -3  252.77   40.70
  -3  -1  -3  250.17   41.00
  -3  -1  -3  228.58   41.10
  -3  -1  -3  222.68   41.00
   3   1   3  229.28   41.20
   3   1   3  245.18   41.00
   3   1   3  249.38   41.10
   3   1   3  213.98   41.30
   3   1   3  243.68   40.60
   3   1   3  237.98   41.00
  -4  -1  -3  394.16   66.09
  -4  -1  -3  385.96   65.79
  -4  -1  -3  372.56   66.29
  -4  -1  -3  396.76   66.39
  -4  -1  -3  386.56   66.39
  -4  -1  -3  365.66   66.19
   4   1   3  384.36   66.09
   4   1   3  398.96   66.09
   4   1   3  410.26   65.79
   4   1   3  363.46   66.39
   4   1   3  401.86   66.29
  -5  -1  -3  261.27   47.00
  -5  -1  -3  300.77   47.30
  -5  -1  -3  258.67   46.50
   5   1   3  271.07   47.00
   5   1   3  233.78   46.90
   5   1   3  312.97   47.50
   5   1   3  287.87   46.90
  -6  -1  -3   42.20   19.90
  -6  -1  -3  128.99   20.10
   6   1   3  144.29   20.70
   6   1   3   95.29   20.10
   6   1   3  120.09   19.90
  -7  -1  -3   10.90   12.40
  -7  -1  -3   11.20   10.50
   7   1   3    2.50   10.70
   7   1   3   31.30   11.00
   7   1   3   17.30   10.90
   8  -2  -3   40.20    9.90
   8  -2  -3   20.10   11.70
   8  -2  -3   36.90   12.60
  -8   2   3   32.70   16.20
  -8   2   3   29.10   13.80
   7  -2  -3    8.90    8.30
   7  -2  -3   14.40    6.10
   7  -2  -3   14.70    8.40
   7  -2  -3    4.80    7.60
  -7   2   3   17.60   11.30
  -7   2   3   18.60   13.10
  -7   2   3   12.10    8.90
   6  -2  -3    1.10    5.70
   6  -2  -3    1.60    6.20
   6  -2  -3   -2.30    5.80
   6  -2  -3    8.40    4.20
   6  -2  -3   -4.70   12.60
  -6   2   3    0.40    6.30
  -6   2   3    6.10    4.90
  -6   2   3    5.90    7.80
  -6   2   3    8.60    8.60
   5  -2  -3  253.37   41.80
   5  -2  -3  246.28   42.40
   5  -2  -3  237.58   42.20
   5  -2  -3  261.97   43.00
   5  -2  -3  271.57   42.50
   5  -2  -3  285.57   43.10
  -5   2   3  274.17   43.20
  -5   2   3  207.28   43.20
  -5   2   3  230.68   42.40
  -5   2   3  225.98   41.90
  -5   2   3  226.78   42.70
  -5   2   3  245.48   42.40
   4  -2  -3 8355.16 1368.46
   4  -2  -3 8290.97 1368.26
   4  -2  -3 8110.19 1368.46
   4  -2  -3 8006.20 1368.46
   4  -2  -3 8031.80 1368.46
  -4   2   3 8466.75 1368.26
  -4   2   3 7943.11 1368.46
  -4   2   3 8218.28 1368.56
  -4   2   3 7916.41 1368.46
  -4   2   3 8119.39 1368.56
  -4   2   3 8078.89 1368.46
   3  -2  -3  167.18   29.30
   3  -2  -3  192.48   29.60
   3  -2  -3  171.18   29.40
   3  -2  -3  158.68   28.90
   3  -2  -3  182.18   29.40
   3  -2  -3  171.68   29.50
  -3   2   3  180.08   28.90
  -3   2   3  164.48   29.40
  -3   2   3  167.48   29.30
  -3   2   3  171.48   29.60
  -3   2   3  166.18   29.50
   2  -2  -3  624.44  104.19
   2  -2  -3  584.54  104.19
   2  -2  -3  613.94  104.19
   2  -2  -3  605.04  104.19
   2  -2  -3  615.64  104.19
  -2   2   3  589.24  104.19
  -2   2   3  624.14  104.19
  -2   2   3  632.34  104.19
  -2   2   3  648.54  104.19
  -2   2   3  648.54  104.19
   1  -2  -3  424.46   68.49
   1  -2  -3  391.66   68.59
   1  -2  -3  410.46   68.59
   1  -2  -3  418.16   68.59
   1  -2  -3  419.06   68.59
   1  -2  -3  377.16   68.39
  -1   2   3  397.26   68.39
  -1   2   3  400.76   68.49
  -1   2   3  416.76   68.59
  -1   2   3  401.46   68.59
  -1   2   3  421.36   68.59
  -1   2   3  416.96   68.59
   0  -2  -3  793.72  130.99
   0  -2  -3  751.32  130.99
   0  -2  -3  725.33  130.99
   0  -2  -3  771.12  130.99
   0  -2  -3  807.72  130.99
   0   2   3  759.42  130.99
   0   2   3  762.72  130.99
   0   2   3  792.12  130.99
   0   2   3  788.62  130.79
   0   2   3  769.02  130.99
   0   2   3  844.82  130.99
  -1  -2  -3  296.77   46.40
  -1  -2  -3  249.78   46.30
  -1  -2  -3  261.27   46.30
  -1  -2  -3  270.87   46.30
  -1  -2  -3  287.57   46.40
   1   2   3  277.47   46.30
   1   2   3  277.77   46.30
   1   2   3  275.67   46.30
   1   2   3  280.67   46.30
   1   2   3  262.07   46.30
  -2  -2  -3 1108.19  178.88
  -2  -2  -3 1045.50  178.88
  -2  -2  -3 1077.59  178.88
  -2  -2  -3 1061.29  178.88
  -2  -2  -3 1037.10  178.58
  -2  -2  -3 1055.09  178.88
   2   2   3 1118.79  178.88
   2   2   3 1004.70  178.98
   2   2   3 1028.70  178.88
   2   2   3 1058.69  178.88
   2   2   3 1094.79  178.98
  -3  -2  -3  104.69   18.40
  -3  -2  -3  114.49   19.10
  -3  -2  -3  111.89   19.00
  -3  -2  -3  113.59   19.10
  -3  -2  -3  103.69   19.00
  -3  -2  -3  102.49   18.80
   3   2   3  120.49   19.00
   3   2   3  136.69   19.70
   3   2   3   85.89   18.90
   3   2   3  117.69   19.20
   3   2   3   89.79   18.60
  -4  -2  -3   11.70    6.80
  -4  -2  -3   13.80    6.90
  -4  -2  -3   16.20    7.50
  -4  -2  -3   28.80    6.00
  -4  -2  -3   17.30    7.00
   4   2   3   13.70    7.70
   4   2   3    8.30    5.90
   4   2   3   13.00    5.80
   4   2   3   21.70    9.50
   4   2   3   21.50    5.80
  -5  -2  -3   82.09   14.90
  -5  -2  -3   85.89   15.60
  -5  -2  -3   70.29   16.30
   5   2   3   98.39   16.00
   5   2   3   78.49   17.70
   5   2   3   82.39   15.60
   5   2   3   67.79   15.40
  -6  -2  -3   17.80   15.20
  -6  -2  -3   67.19   13.40
  -6  -2  -3   96.59   14.20
   6   2   3   78.29   14.50
   6   2   3   41.90   13.70
   6   2   3   61.89   13.80
  -7  -2  -3    0.20   14.50
  -7  -2  -3  -12.40   10.70
   7   2   3    7.00   12.30
   7   2   3   -2.80   16.00
   8  -3  -3   13.10    8.10
   8  -3  -3    0.10   10.20
   8  -3  -3   21.60   10.80
   8  -3  -3   24.60   11.20
  -8   3   3   29.70   15.50
  -8   3   3   13.50   12.00
   7  -3  -3  114.19   17.90
   7  -3  -3   89.69   16.70
   7  -3  -3   93.39   18.10
   7  -3  -3   82.69   17.70
  -7   3   3   73.99   18.00
  -7   3   3   77.69   19.70
  -7   3   3   99.29   17.30
   6  -3  -3    8.50    5.00
   6  -3  -3   20.70    7.50
   6  -3  -3   18.40    7.00
   6  -3  -3   16.10    6.50
  -6   3   3   18.80    7.40
  -6   3   3   11.00    9.00
  -6   3   3   26.80    5.70
  -6   3   3    9.80    9.50
   5  -3  -3  270.77   52.89
   5  -3  -3  304.17   53.79
   5  -3  -3  308.57   52.79
   5  -3  -3  319.97   52.39
   5  -3  -3  313.67   53.39
   5  -3  -3  329.77   52.99
  -5   3   3  324.87   53.39
  -5   3   3  296.77   53.09
  -5   3   3  315.07   52.89
  -5   3   3  325.57   52.39
  -5   3   3  299.87   53.19
  -5   3   3  284.97   52.89
   4  -3  -3    5.60    5.90
   4  -3  -3    1.90    3.50
   4  -3  -3   10.00    5.00
   4  -3  -3   10.70    4.00
   4  -3  -3    4.10    2.20
   4  -3  -3    6.30    4.00
  -4   3   3    9.60    2.40
  -4   3   3    7.10    5.20
  -4   3   3    6.20    4.20
  -4   3   3   19.60    4.60
  -4   3   3    1.70    4.30
  -4   3   3    2.80    4.80
   3  -3  -3   89.09   15.30
   3  -3  -3   83.79   15.80
   3  -3  -3   97.39   15.90
   3  -3  -3   80.79   15.90
   3  -3  -3  130.99   16.60
   3  -3  -3   65.09   16.10
  -3   3   3   98.39   16.10
  -3   3   3   83.99   15.90
  -3   3   3   91.39   15.90
  -3   3   3   96.99   16.20
  -3   3   3   97.69   16.10
   2  -3  -3  327.07   55.19
   2  -3  -3  321.07   55.49
   2  -3  -3  327.87   55.49
   2  -3  -3  318.17   55.39
   2  -3  -3  334.07   55.19
   2  -3  -3  310.57   55.49
   2  -3  -3  320.97   55.59
  -2   3   3  358.76   55.49
  -2   3   3  327.07   55.49
  -2   3   3  332.77   55.59
  -2   3   3  311.77   56.39
  -2   3   3  331.37   55.49
   1  -3  -3    1.60    1.70
   1  -3  -3    3.40    1.40
   1  -3  -3    3.80    2.40
   1  -3  -3    1.80    2.20
   1  -3  -3    2.60    2.20
  -1   3   3    4.30    1.40
  -1   3   3   -1.50    1.60
  -1   3   3    1.10    2.30
  -1   3   3   -4.40    2.70
  -1   3   3    0.10    2.40
  -1   3   3    1.20    2.60
   0  -3  -3  152.38   27.90
   0  -3  -3  184.98   28.10
   0  -3  -3  157.68   28.10
   0  -3  -3  146.79   28.00
   0  -3  -3  151.88   28.00
   0  -3  -3  152.38   27.60
   0   3   3  161.78   28.10
   0   3   3  167.28   27.90
   0   3   3  178.48   28.00
   0   3   3  183.18   28.10
   0   3   3  186.48   28.10
   0   3   3  166.68   27.60
  -1  -3  -3   32.60    7.10
  -1  -3  -3   42.40    7.30
  -1  -3  -3   33.40    7.00
  -1  -3  -3   32.50    7.00
  -1  -3  -3   48.50    7.40
   1   3   3   39.60    7.30
   1   3   3   32.30    6.90
   1   3   3   37.20    7.20
   1   3   3   31.60    7.10
   1   3   3   41.30    6.90
  -2  -3  -3  480.85   83.89
  -2  -3  -3  515.35   84.49
  -2  -3  -3  497.15   84.39
  -2  -3  -3  519.95   84.39
  -2  -3  -3  527.45   84.39
  -2  -3  -3  463.85   84.29
  -2  -3  -3  492.55   83.89
   2   3   3  515.95   84.39
   2   3   3  519.05   84.39
   2   3   3  513.25   84.29
   2   3   3  472.15   84.39
  -3  -3  -3   38.70    7.40
  -3  -3  -3   50.69    8.70
  -3  -3  -3   51.99    9.60
  -3  -3  -3   43.50    9.20
  -3  -3  -3   40.80    9.10
  -3  -3  -3   39.00    9.00
   3   3   3   33.00    8.40
   3   3   3   43.40   11.00
   3   3   3   37.70    8.30
   3   3   3   35.90    9.40
   3   3   3   43.10    8.60
  -4  -3  -3    9.10    7.10
  -4  -3  -3   16.50    4.50
  -4  -3  -3   27.10    8.60
  -4  -3  -3   20.40    6.30
   4   3   3   25.20    8.40
   4   3   3   11.00    6.00
   4   3   3   12.10    6.20
   4   3   3   24.30   12.00
   4   3   3    9.80    6.60
  -5  -3  -3   33.80    7.60
  -5  -3  -3   26.50   10.50
  -5  -3  -3   36.70   10.60
   5   3   3   26.30    9.10
   5   3   3   42.50   13.10
   5   3   3   15.30    8.40
   5   3   3   37.60    9.20
  -6  -3  -3    5.20   10.50
  -6  -3  -3   15.60    9.20
  -6  -3  -3   -1.00    7.70
   6   3   3    1.00    9.80
   6   3   3   -6.70    8.90
   6   3   3   19.00    9.10
  -7  -3  -3    1.50   12.30
   7   3   3   26.70   13.70
   7   3   3    6.30   11.90
   7   3   3   15.00   12.60
   8  -4  -3   -8.70    7.10
   8  -4  -3   -1.60   11.40
   8  -4  -3    9.60   11.30
   8  -4  -3  -10.20    9.90
  -8   4   3   -0.70   10.40
  -8   4   3    0.10   15.60
  -8   4   3   -1.30   11.30
   7  -4  -3    7.70    8.30
   7  -4  -3   -7.00    8.50
   7  -4  -3   13.80    5.90
   7  -4  -3   25.80    8.40
  -7   4   3   13.60    7.10
  -7   4   3   10.10    8.70
  -7   4   3   20.90   12.00
   6  -4  -3  125.19   21.60
   6  -4  -3   99.89   21.70
   6  -4  -3  110.29   20.90
   6  -4  -3  138.59   21.60
  -6   4   3  126.69   20.40
  -6   4   3  110.09   21.20
  -6   4   3  128.49   22.20
  -6   4   3   75.79   22.00
   5  -4  -3   34.60    6.50
   5  -4  -3   26.10    7.50
   5  -4  -3   34.20    8.10
   5  -4  -3   37.40    8.20
   5  -4  -3   41.20    9.70
   5  -4  -3   48.50   11.30
  -5   4   3   25.00    8.90
  -5   4   3   30.60    8.50
  -5   4   3   47.60    8.90
  -5   4   3   23.60    8.40
  -5   4   3   31.10    8.40
   4  -4  -3  264.87   39.00
   4  -4  -3  229.58   38.20
   4  -4  -3  220.38   38.40
   4  -4  -3  204.68   38.30
   4  -4  -3  219.98   38.70
   4  -4  -3  222.38   37.70
  -4   4   3  248.18   38.80
  -4   4   3  192.78   38.30
  -4   4   3  229.18   38.30
  -4   4   3  224.08   38.40
  -4   4   3  217.28   38.60
   3  -4  -3  152.68   21.60
   3  -4  -3  113.49   21.10
   3  -4  -3  102.89   20.90
   3  -4  -3  102.39   21.00
   3  -4  -3  141.39   21.30
   3  -4  -3  113.99   20.50
  -3   4   3  106.89   21.00
  -3   4   3  154.28   21.60
  -3   4   3  163.38   21.60
  -3   4   3  116.29   21.10
  -3   4   3  117.79   21.20
   2  -4  -3    0.50    3.00
   2  -4  -3    3.00    3.30
   2  -4  -3    8.20    1.80
   2  -4  -3    6.40    3.80
   2  -4  -3   11.20    3.10
   2  -4  -3    1.90    2.60
  -2   4   3    0.00    3.60
  -2   4   3    5.70    3.50
  -2   4   3    6.30    2.70
  -2   4   3    8.70    3.00
  -2   4   3    0.30    3.40
   1  -4  -3  255.57   44.40
   1  -4  -3  281.27   44.60
   1  -4  -3  239.58   44.70
   1  -4  -3  262.37   44.40
   1  -4  -3  265.37   44.70
   1  -4  -3  251.27   44.60
  -1   4   3  261.87   44.60
  -1   4   3  257.87   44.70
  -1   4   3  265.27   44.40
  -1   4   3  253.67   44.70
  -1   4   3  264.67   44.40
  -1   4   3  293.17   44.80
   0  -4  -3   35.10    7.00
   0  -4  -3   32.00    7.40
   0  -4  -3   41.60    7.50
   0  -4  -3   42.40    7.40
   0  -4  -3   33.50    7.50
   0  -4  -3   35.40    6.50
   0   4   3   35.70    7.70
   0   4   3   33.30    6.90
   0   4   3   40.70    6.60
   0   4   3   35.20    7.50
   0   4   3   34.70    7.10
   0   4   3   46.70    7.60
  -1  -4  -3  186.58   32.10
  -1  -4  -3  175.18   32.00
  -1  -4  -3  185.88   32.20
  -1  -4  -3  195.78   31.90
  -1  -4  -3  191.08   32.30
   1   4   3  202.38   32.20
   1   4   3  187.08   32.00
   1   4   3  169.08   32.20
   1   4   3  177.48   32.10
   1   4   3  194.28   31.90
  -2  -4  -3  295.07   50.69
  -2  -4  -3  295.67   50.49
  -2  -4  -3  300.47   50.49
  -2  -4  -3  291.57   50.59
  -2  -4  -3  286.77   49.80
  -2  -4  -3  278.27   50.49
  -2  -4  -3  293.97   49.80
   2   4   3  288.57   50.69
   2   4   3  339.47   50.59
   2   4   3  307.07   50.39
   2   4   3  294.57   50.39
  -3  -4  -3   -2.10    2.20
  -3  -4  -3    8.00    6.40
  -3  -4  -3    3.80    4.70
  -3  -4  -3  -11.30    5.10
  -3  -4  -3   -2.60    6.80
  -3  -4  -3   -2.50    5.90
  -3  -4  -3    0.20    2.40
   3   4   3    2.30    6.80
   3   4   3    0.60    4.50
   3   4   3   -2.90    4.60
   3   4   3   -8.00    8.30
   3   4   3    6.50    4.70
  -4  -4  -3  731.13  112.69
  -4  -4  -3  667.53  111.99
   4   4   3  537.65  113.19
   4   4   3  655.13  113.19
   4   4   3  691.23  114.29
  -5  -4  -3    6.40    7.80
  -5  -4  -3   -2.20   13.70
  -5  -4  -3    7.10    5.60
   5   4   3   14.80    7.90
   5   4   3    5.50    7.90
   5   4   3   18.20    8.50
  -6  -4  -3   -1.00   13.00
  -6  -4  -3   -1.90    8.10
  -6  -4  -3   12.50   10.10
   6   4   3    0.80   10.30
   6   4   3    5.70   10.60
   6   4   3   16.20   10.20
   8  -5  -3   29.20   13.40
   8  -5  -3   36.00   11.90
   8  -5  -3   32.00   11.60
   8  -5  -3   21.30    9.10
  -8   5   3   37.80   13.40
  -8   5   3   32.00   17.80
   7  -5  -3   25.20    7.50
   7  -5  -3   53.09   11.20
   7  -5  -3   42.30   11.10
   7  -5  -3   21.30    9.50
  -7   5   3   24.40    9.90
  -7   5   3   22.10   12.90
   6  -5  -3    3.50    3.80
   6  -5  -3    3.20    7.10
   6  -5  -3    5.30    6.20
   6  -5  -3   17.80    6.50
  -6   5   3    4.10    7.00
  -6   5   3  -11.20    7.80
   5  -5  -3  165.98   28.50
   5  -5  -3  172.88   29.50
   5  -5  -3  162.48   29.40
   5  -5  -3  174.68   29.40
   5  -5  -3  163.28   30.00
   5  -5  -3  213.08   30.90
  -5   5   3  154.58   29.70
  -5   5   3  193.08   30.00
  -5   5   3  178.18   29.50
  -5   5   3  140.49   29.30
  -5   5   3  141.79   29.50
   4  -5  -3   26.80    8.10
   4  -5  -3   25.40    5.70
   4  -5  -3   24.80    6.30
   4  -5  -3   25.70    7.90
   4  -5  -3   12.90    5.50
   4  -5  -3   19.00    4.10
  -4   5   3   16.20   10.30
  -4   5   3   16.30    7.40
  -4   5   3   23.00    6.40
  -4   5   3   13.40    6.70
  -4   5   3   26.80    6.40
   3  -5  -3   19.40    6.30
   3  -5  -3   18.10    3.90
   3  -5  -3   15.30    5.40
   3  -5  -3   15.00    4.80
   3  -5  -3   14.60    5.00
   3  -5  -3   28.30    7.00
   3  -5  -3   25.00    3.90
  -3   5   3   13.50    5.20
  -3   5   3   15.40    5.90
  -3   5   3   20.50    6.20
  -3   5   3   23.30    6.20
  -3   5   3   20.20    5.30
   2  -5  -3   45.00    8.10
   2  -5  -3   27.30    7.50
   2  -5  -3   37.60    6.90
   2  -5  -3   42.80    6.50
   2  -5  -3   32.20    7.30
  -2   5   3   29.20    7.70
  -2   5   3   40.30    7.80
  -2   5   3   20.50    7.70
  -2   5   3   40.20    7.50
  -2   5   3   29.40    7.00
   1  -5  -3  247.78   40.50
   1  -5  -3  229.78   40.70
   1  -5  -3  225.38   40.50
   1  -5  -3  266.07   40.10
   1  -5  -3  233.48   40.10
   1  -5  -3  238.58   40.60
  -1   5   3  238.48   40.50
  -1   5   3  231.88   40.10
  -1   5   3  239.38   40.70
  -1   5   3  219.08   40.70
  -1   5   3  211.78   40.60
  -1   5   3  244.58   40.20
   0  -5  -3  588.94  101.69
   0  -5  -3  605.34  101.69
   0  -5  -3  616.24  101.59
   0  -5  -3  607.84  101.49
   0  -5  -3  580.54  101.29
   0   5   3  579.04  101.69
   0   5   3  616.94  101.49
   0   5   3  616.14  101.69
   0   5   3  618.84  101.59
   0   5   3  579.34  101.29
   0   5   3  633.04  101.69
  -1  -5  -3   32.70    5.50
  -1  -5  -3   28.40    7.50
  -1  -5  -3   33.60    7.80
  -1  -5  -3   33.10    7.50
  -1  -5  -3   32.00    6.70
  -1  -5  -3   22.70    6.70
   1   5   3   31.90    7.30
   1   5   3   36.00    7.50
   1   5   3   35.00    8.20
   1   5   3   23.60    6.70
   1   5   3   30.30    6.70
  -2  -5  -3   98.49   18.00
  -2  -5  -3   98.89   19.00
  -2  -5  -3  128.69   19.50
  -2  -5  -3  103.99   18.00
  -2  -5  -3  117.99   19.30
  -2  -5  -3  116.29   19.50
  -2  -5  -3  101.69   19.50
   2   5   3  132.09   19.40
   2   5   3  120.99   19.40
   2   5   3   88.39   18.70
   2   5   3  116.29   19.50
   2   5   3   94.09   19.60
  -3  -5  -3   93.29   15.50
  -3  -5  -3   93.99   15.40
  -3  -5  -3   90.19   16.80
  -3  -5  -3   58.19   16.70
  -3  -5  -3   78.49   17.80
   3   5   3   85.59   16.90
   3   5   3   78.59   18.10
   3   5   3   85.49   16.70
   3   5   3  118.59   17.40
  -4  -5  -3   49.10    7.80
  -4  -5  -3   45.00    8.00
  -4  -5  -3   11.50   10.30
  -4  -5  -3   32.50   10.20
   4   5   3   28.40    9.90
   4   5   3   65.29   18.90
   4   5   3   35.90   10.60
   4   5   3   43.90   10.60
  -5  -5  -3   56.29   11.10
  -5  -5  -3   -5.50   13.80
  -5  -5  -3   63.89   10.80
  -5  -5  -3   58.09   14.00
   5   5   3   61.29   13.60
   5   5   3   59.39   13.00
   5   5   3   67.99   13.90
  -6  -5  -3   13.00   14.70
  -6  -5  -3   11.00    9.90
  -6  -5  -3   17.90    7.50
  -6  -5  -3   26.00   12.20
   6   5   3   -3.10   11.90
   6   5   3   25.80   11.30
   6   5   3    1.30   12.20
   8  -6  -3   -4.80    7.20
   8  -6  -3   -0.40   11.50
   8  -6  -3   -0.80   11.00
   8  -6  -3    3.70   12.40
  -8   6   3    6.70   12.60
  -8   6   3    2.10   17.00
   7  -6  -3    7.60    9.10
   7  -6  -3   -5.30    9.20
   7  -6  -3   20.00    9.40
   7  -6  -3   20.10    5.90
  -7   6   3    3.90    9.60
  -7   6   3    6.00   10.50
   6  -6  -3   38.80    7.20
   6  -6  -3   31.40    9.80
   6  -6  -3   27.40   11.00
   6  -6  -3   29.70    9.40
  -6   6   3   26.00    9.70
  -6   6   3   39.40   11.30
   5  -6  -3   17.80    7.40
   5  -6  -3   18.10    7.40
   5  -6  -3   27.10    7.00
   5  -6  -3   19.40    4.50
  -5   6   3   14.60    7.70
  -5   6   3   23.80    9.50
  -5   6   3   14.10    7.10
   4  -6  -3   48.40   10.80
   4  -6  -3   57.19    9.60
   4  -6  -3   49.40   12.90
   4  -6  -3   57.99    9.60
   4  -6  -3   51.29   10.80
   4  -6  -3   51.59   10.80
   4  -6  -3   41.40   12.10
  -4   6   3   55.59   11.70
  -4   6   3   58.59   12.10
  -4   6   3   45.00   11.00
  -4   6   3   55.59   11.50
  -4   6   3   48.10   12.30
   3  -6  -3  895.21  160.18
   3  -6  -3  946.41  159.68
   3  -6  -3  940.91  159.68
   3  -6  -3  905.71  160.28
   3  -6  -3  949.51  160.08
   3  -6  -3  994.50  159.98
   3  -6  -3 1013.90  160.18
  -3   6   3  955.20  160.08
  -3   6   3  955.60  159.98
  -3   6   3  888.81  160.18
  -3   6   3  912.91  160.18
  -3   6   3 1037.70  160.58
   2  -6  -3  212.98   37.90
   2  -6  -3  209.48   37.70
   2  -6  -3  234.38   37.80
   2  -6  -3  232.38   38.00
   2  -6  -3  212.18   37.30
   2  -6  -3  233.28   37.20
  -2   6   3  201.68   37.80
  -2   6   3  215.98   37.30
  -2   6   3  231.48   37.70
  -2   6   3  204.98   38.00
  -2   6   3  206.08   37.90
   1  -6  -3  362.46   61.99
   1  -6  -3  371.36   62.29
   1  -6  -3  328.37   61.49
   1  -6  -3  379.96   62.19
   1  -6  -3  371.26   61.99
   1  -6  -3  380.96   61.59
  -1   6   3  346.07   61.89
  -1   6   3  360.06   61.49
  -1   6   3  360.16   62.09
  -1   6   3  388.86   62.19
  -1   6   3  382.26   61.99
   0  -6  -3   20.20    6.50
   0  -6  -3   25.70    5.30
   0  -6  -3   29.10    6.40
   0  -6  -3   28.20    7.70
   0  -6  -3   22.90    7.70
   0  -6  -3   31.50    7.40
   0   6   3   28.60    7.70
   0   6   3   24.30    8.40
   0   6   3   28.80    5.40
   0   6   3   30.90    6.30
   0   6   3   33.00    6.90
   0   6   3   30.20    7.20
  -1  -6  -3 1169.08  197.28
  -1  -6  -3 1142.99  197.18
  -1  -6  -3 1137.99  197.38
  -1  -6  -3 1156.58  197.38
  -1  -6  -3 1126.39  197.38
  -1  -6  -3 1152.78  196.78
   1   6   3 1194.98  197.38
   1   6   3 1159.68  197.28
   1   6   3 1232.78  197.48
   1   6   3 1222.78  197.18
   1   6   3 1189.58  197.48
  -2  -6  -3  276.97   52.59
  -2  -6  -3  312.07   51.49
  -2  -6  -3  295.17   51.49
  -2  -6  -3  335.07   52.69
  -2  -6  -3  303.87   52.59
  -2  -6  -3  323.27   52.79
   2   6   3  289.87   52.29
   2   6   3  318.57   52.59
   2   6   3  288.17   52.69
   2   6   3  316.67   52.69
  -3  -6  -3   61.39   13.30
  -3  -6  -3   71.59   11.30
  -3  -6  -3   56.69   11.30
  -3  -6  -3   62.79   14.30
   3   6   3   76.09   14.00
   3   6   3   63.69   13.30
   3   6   3   58.09   16.30
   3   6   3   62.59   13.30
  -4  -6  -3    4.30    4.30
  -4  -6  -3   18.20    8.80
  -4  -6  -3   15.70   10.20
  -4  -6  -3    8.50    3.90
   4   6   3    9.00    8.30
   4   6   3    5.50    7.90
   4   6   3   14.50    8.70
  -5  -6  -3   12.80   10.20
  -5  -6  -3   -0.80    6.60
  -5  -6  -3   -3.10    4.80
  -5  -6  -3   -2.40   12.50
   5   6   3   -1.40   10.10
   5   6   3   -4.70   10.40
   5   6   3    5.60    9.70
   8  -7  -3   -2.40   12.40
   8  -7  -3    0.40    7.70
   8  -7  -3   -1.20   12.60
   8  -7  -3   28.00   13.80
  -8   7   3   -6.60   13.20
  -8   7   3   23.10   20.00
   7  -7  -3   10.20   10.10
   7  -7  -3    8.50   10.30
   7  -7  -3   18.80    6.00
   7  -7  -3   14.20    9.90
  -7   7   3    9.30   10.00
  -7   7   3   13.60   11.10
   6  -7  -3   75.19   14.70
   6  -7  -3   67.59   15.30
   6  -7  -3   78.39   15.40
   6  -7  -3   78.89   13.00
  -6   7   3   69.79   15.40
  -6   7   3   31.40   16.70
   5  -7  -3    8.60    6.60
   5  -7  -3   -1.10   10.40
   5  -7  -3    4.90    3.30
   5  -7  -3    3.70    6.30
  -5   7   3    0.80    6.90
  -5   7   3   10.40    8.60
   4  -7  -3  525.45   88.29
   4  -7  -3  490.25   87.89
   4  -7  -3  512.45   87.49
   4  -7  -3  517.05   87.49
   4  -7  -3  680.23   90.79
   4  -7  -3  575.84   88.29
  -4   7   3  492.45   88.09
  -4   7   3  497.25   88.19
  -4   7   3  503.05   88.29
  -4   7   3  506.55   88.69
   3  -7  -3   21.60    6.80
   3  -7  -3   32.40    9.50
   3  -7  -3   27.00    6.00
   3  -7  -3   43.00    8.10
   3  -7  -3   34.60    7.60
   3  -7  -3   36.70   10.00
  -3   7   3   27.40    9.10
  -3   7   3   19.70    7.30
  -3   7   3   40.20    7.60
  -3   7   3   15.70    8.10
  -3   7   3   30.30    9.20
   2  -7  -3   13.10    4.70
   2  -7  -3    4.00    7.30
   2  -7  -3   19.50    4.90
   2  -7  -3   16.90    7.90
   2  -7  -3   19.20    6.10
   2  -7  -3   21.80    6.10
  -2   7   3   16.10    7.80
  -2   7   3   20.80    5.30
  -2   7   3   20.10    7.30
  -2   7   3    8.90    6.00
  -2   7   3   14.00    6.40
   1  -7  -3  183.28   29.40
   1  -7  -3  145.79   29.80
   1  -7  -3  169.58   29.50
   1  -7  -3  153.08   30.00
   1  -7  -3  162.38   30.20
   1  -7  -3  209.78   31.50
  -1   7   3  228.48   30.60
  -1   7   3  175.08   30.10
  -1   7   3  166.98   30.20
  -1   7   3  162.88   29.40
  -1   7   3  167.68   30.30
   0  -7  -3  222.28   33.30
   0  -7  -3  173.98   31.90
   0  -7  -3  166.38   32.70
   0  -7  -3  222.18   33.10
   0  -7  -3  187.88   32.90
   0  -7  -3  187.28   32.40
   0   7   3  228.98   33.50
   0   7   3  149.99   32.50
   0   7   3  169.88   32.90
   0   7   3  189.08   32.00
   0   7   3  174.38   32.30
   0   7   3  237.58   33.20
  -1  -7  -3   53.79   15.30
  -1  -7  -3   72.79   12.80
  -1  -7  -3   66.89   14.60
  -1  -7  -3   72.49   14.30
  -1  -7  -3   82.49   14.40
   1   7   3   86.39   14.50
   1   7   3   76.39   14.50
   1   7   3   71.59   13.90
  -2  -7  -3   86.89   21.50
  -2  -7  -3  118.69   20.00
  -2  -7  -3  111.99   19.90
  -2  -7  -3  170.78   22.00
   2   7   3  106.59   22.90
   2   7   3  130.79   21.40
   2   7   3   81.09   21.20
   2   7   3  140.29   21.60
  -3  -7  -3   54.29    9.40
  -3  -7  -3   52.99   12.80
  -3  -7  -3   53.09    9.50
  -3  -7  -3   48.40   13.10
   3   7   3   38.40   12.80
   3   7   3   63.39   12.60
   3   7   3   51.89   12.00
  -4  -7  -3    2.30   10.80
  -4  -7  -3    0.00    3.40
  -4  -7  -3    2.80    3.70
  -4  -7  -3    8.70    9.80
   4   7   3   -8.90    8.90
   4   7   3   -2.00    9.70
   4   7   3   -0.80    8.80
  -5  -7  -3    3.80   13.40
  -5  -7  -3    8.20    4.80
  -5  -7  -3    8.90   12.30
   5   7   3  -18.40   11.00
   5   7   3   17.40   12.50
   5   7   3    9.10   12.90
   7  -8  -3   -0.90    5.80
   7  -8  -3   21.40   11.80
   7  -8  -3    6.40   11.30
   7  -8  -3   -7.10   10.40
  -7   8   3    3.60   12.90
  -7   8   3   15.50   10.90
   6  -8  -3   -8.80    8.90
   6  -8  -3   -7.00    7.60
   6  -8  -3    4.60    4.50
   6  -8  -3    4.70    8.90
  -6   8   3  -12.70   13.60
  -6   8   3   22.90   10.00
   5  -8  -3    0.70    7.70
   5  -8  -3   23.60    8.40
   5  -8  -3   17.50    6.40
   5  -8  -3    8.80    4.20
   5  -8  -3   15.90    8.80
  -5   8   3    3.40   12.20
  -5   8   3   -8.00    8.50
   4  -8  -3   59.99   15.20
   4  -8  -3   91.19   13.90
   4  -8  -3   59.29   14.70
   4  -8  -3   72.29   15.60
  -4   8   3   75.39   16.40
  -4   8   3   96.59   15.70
   3  -8  -3   21.30    8.00
   3  -8  -3   23.30    6.10
   3  -8  -3   32.50    7.10
  -3   8   3   13.90   11.00
  -3   8   3   27.80    7.80
   2  -8  -3   62.29   14.00
   2  -8  -3   77.59   13.20
   2  -8  -3   73.29   13.10
   2  -8  -3   46.60   13.70
  -2   8   3   95.49   14.70
  -2   8   3   63.79   14.10
  -2   8   3   60.59   15.90
  -2   8   3   81.49   13.50
   1  -8  -3  361.96   64.79
   1  -8  -3  393.56   64.39
   1  -8  -3  356.56   64.89
   1  -8  -3  399.16   64.09
  -1   8   3  370.16   64.79
  -1   8   3  380.36   64.19
  -1   8   3  380.06   65.49
  -1   8   3  365.76   64.89
   0  -8  -3  106.59   18.40
   0  -8  -3  137.09   21.50
   0  -8  -3   91.99   19.40
   0  -8  -3   74.09   19.40
   0   8   3  120.09   18.60
   0   8   3  110.19   19.80
   0   8   3  108.39   20.90
   0   8   3  106.19   19.10
  -1  -8  -3  121.39   21.10
  -1  -8  -3  127.99   23.00
  -1  -8  -3   87.39   22.50
   1   8   3  137.59   22.40
   1   8   3  124.79   22.60
   1   8   3  134.49   23.00
   1   8   3  197.98   30.50
  -2  -8  -3    5.60    9.30
  -2  -8  -3   12.50    3.80
  -2  -8  -3   15.10    4.10
  -2  -8  -3   14.10    8.10
   2   8   3   25.80    8.40
   2   8   3    8.70    8.20
   2   8   3    7.30    8.40
  -3  -8  -3   26.30   12.70
  -3  -8  -3   39.50   11.80
   3   8   3   45.70   12.10
   3   8   3   45.90   12.30
   3   8   3   34.10   11.60
  -4  -8  -3   -8.50   10.90
  -4  -8  -3    4.60   13.40
   4   8   3    9.90   13.50
   4   8   3   10.60   11.40
   4   8   3   -3.80   10.70
   7  -9  -3   86.99   20.60
   7  -9  -3   98.89   17.30
   7  -9  -3  127.99   19.50
   7  -9  -3   46.20   19.40
  -7   9   3   53.89   24.40
  -7   9   3   87.29   20.10
   6  -9  -3   48.80   15.30
   6  -9  -3   65.69   12.00
   6  -9  -3   78.09   14.60
   6  -9  -3   36.20   14.80
   6  -9  -3   73.69   12.60
  -6   9   3   20.90   19.50
  -6   9   3   82.39   16.40
   5  -9  -3   33.40   10.90
   5  -9  -3   35.50    7.80
   5  -9  -3   17.20    9.60
   5  -9  -3   36.80    7.30
   5  -9  -3   28.80   10.80
  -5   9   3   24.30   10.60
  -5   9   3   21.60   14.80
   4  -9  -3    3.90    5.30
   4  -9  -3    1.70    5.40
   4  -9  -3    3.60    7.80
   4  -9  -3    2.00    8.50
   4  -9  -3   -6.90   11.40
  -4   9   3    2.70    8.50
  -4   9   3  -14.80   11.90
   3  -9  -3    2.60    7.20
   3  -9  -3    8.30    5.70
   3  -9  -3    5.00    5.80
  -3   9   3   -9.00    7.60
  -3   9   3    0.80    7.00
  -3   9   3   -0.10   11.10
   2  -9  -3  332.07   59.19
   2  -9  -3  344.67   59.79
   2  -9  -3  341.37   59.09
   2  -9  -3  328.67   59.89
  -2   9   3  350.16   59.29
  -2   9   3  358.56   59.69
  -2   9   3  375.96   60.19
   1  -9  -3  451.55   75.79
   1  -9  -3  454.45   76.09
   1  -9  -3  393.76   76.09
   1  -9  -3  484.15   75.29
  -1   9   3  417.76   76.19
  -1   9   3  451.85   76.09
  -1   9   3  437.56   75.39
   0  -9  -3  359.26   61.99
   0  -9  -3  349.17   63.29
   0  -9  -3  364.56   63.09
   0   9   3  410.36   63.29
   0   9   3  353.76   63.29
  -1  -9  -3   46.90   12.60
  -1  -9  -3   27.30   11.30
  -1  -9  -3   55.69    9.10
   1   9   3   49.90   11.50
   1   9   3   43.80   11.60
   1   9   3   39.80   12.10
  -2  -9  -3   21.10   10.30
  -2  -9  -3   13.60   11.60
  -2  -9  -3   22.90    4.90
  -2  -9  -3   19.70    5.40
   2   9   3    1.90    9.10
   2   9   3   33.50   10.80
   2   9   3   14.60    9.90
  -3  -9  -3  -15.00   13.30
  -3  -9  -3   -3.30   10.60
   3   9   3   -4.70   12.40
   3   9   3    3.60   10.80
   3   9   3   -1.10   11.00
   6 -10  -3  -16.10   10.20
   6 -10  -3    8.40   11.50
   6 -10  -3    4.90    7.60
   6 -10  -3   -1.50   18.80
  -6  10   3    0.60   12.70
  -6  10   3   31.10   19.40
   5 -10  -3   51.49   12.80
   5 -10  -3   29.80    9.30
   5 -10  -3   36.20   11.40
   5 -10  -3   48.00    8.60
   5 -10  -3   31.30   12.40
  -5  10   3   23.30   17.00
  -5  10   3   13.70   12.30
   4 -10  -3   13.10    9.50
   4 -10  -3   16.00    7.10
   4 -10  -3   10.20    5.80
   4 -10  -3   31.90    9.00
   4 -10  -3   -6.20   10.30
  -4  10   3   -4.00    9.80
  -4  10   3   -6.70   14.30
   3 -10  -3  196.18   35.50
   3 -10  -3  240.78   34.40
   3 -10  -3  195.88   34.50
  -3  10   3  109.19   35.90
  -3  10   3  213.98   35.50
   2 -10  -3   75.49   15.90
   2 -10  -3   69.59   17.00
   2 -10  -3  117.69   19.00
   2 -10  -3   87.09   17.20
  -2  10   3   91.89   17.40
  -2  10   3   84.69   17.60
  -2  10   3   76.29   16.40
   1 -10  -3    2.10    9.10
   1 -10  -3   10.60    9.60
   1 -10  -3   28.80    6.80
   1 -10  -3    8.20    9.80
  -1  10   3   24.60    7.60
  -1  10   3   11.10    9.90
  -1  10   3    9.20    9.10
   0 -10  -3    0.30    9.60
   0 -10  -3    6.60    5.70
   0 -10  -3   20.80    9.80
   0  10   3   -1.50    8.80
   0  10   3    3.70   10.40
  -1 -10  -3   12.80   10.80
  -1 -10  -3   22.40   11.50
  -1 -10  -3   24.90    6.40
   1  10   3   16.90   12.10
   1  10   3   41.40   11.50
   1  10   3   10.00    9.90
  -2 -10  -3   28.90   17.80
  -2 -10  -3   61.69   11.80
  -2 -10  -3   74.79   17.10
  -2 -10  -3   70.79   11.70
   2  10   3   24.50   23.90
   2  10   3   56.79   15.80
   2  10   3   72.79   16.90
   5 -11  -3    5.40   12.20
   5 -11  -3   -1.30    6.90
   5 -11  -3    5.60   12.40
   5 -11  -3  -10.90   13.70
   5 -11  -3    0.00   11.30
  -5  11   3   -3.70   19.20
  -5  11   3    1.20   18.70
   4 -11  -3    9.80   12.20
   4 -11  -3   10.80   11.50
   4 -11  -3   -7.10    9.40
   4 -11  -3    4.10    6.70
   4 -11  -3   -9.40    8.80
  -4  11   3  -17.30   11.60
  -4  11   3  -23.10   20.00
   3 -11  -3   -5.10    8.10
   3 -11  -3   -8.20    9.20
   3 -11  -3  -16.40   10.20
  -3  11   3    8.00   15.60
  -3  11   3  -12.60   10.70
   2 -11  -3   25.20   11.80
   2 -11  -3   29.00    9.70
   2 -11  -3   25.80   12.10
   2 -11  -3   33.90   12.00
  -2  11   3   45.00   13.00
  -2  11   3   23.60   12.70
   1 -11  -3   14.60   12.30
   1 -11  -3   28.70   11.80
   1 -11  -3   26.80    8.50
  -1  11   3   12.10   12.90
  -1  11   3   30.20   11.30
   0 -11  -3    0.20   12.30
   0 -11  -3    3.50    6.90
   0 -11  -3    5.00   10.80
   0  11   3   12.20   11.60
   0  11   3   18.40   12.90
  -1 -11  -3  117.79   23.60
   1  11   3  152.48   24.40
   1  11   3   74.99   23.80
   4 -12  -3   20.10   23.90
   4 -12  -3   10.60   12.20
  -4  12   3   46.40   14.50
   3 -12  -3  -17.70   12.40
   3 -12  -3   19.90   10.70
  -3  12   3    4.50   19.40
  -3  12   3   -1.60   13.20
   2 -12  -3  -10.80   12.60
   2 -12  -3    6.50   13.10
   2 -12  -3   18.70    9.80
  -2  12   3    2.50   13.40
  -2  12   3   12.90   18.70
   1 -12  -3    7.40    9.10
   1 -12  -3    0.00   13.30
   1 -12  -3   19.50   13.70
  -1  12   3   21.70   15.00
  -1  12   3   13.60   14.20
   0  13  -4   24.10   18.80
   0  13  -4   11.00   13.90
   0 -13   4   26.60   13.40
   0 -13   4    1.80   11.50
   0 -13   4   14.60   11.50
  -1  13  -4    8.70   21.10
  -1  13  -4   92.79   18.30
   1 -13   4   53.29   17.30
   1 -13   4   75.29   16.00
   1 -13   4   68.79   15.90
  -2  13  -4    1.40   13.60
  -2  13  -4    7.40   19.20
   2 -13   4    6.20   11.50
   2 -13   4    7.30   12.70
  -3  13  -4    0.10   17.20
  -3  13  -4   21.80   14.90
   3 -13   4   25.00   13.70
   3 -13   4   12.40   12.70
   3 -13   4    2.10   13.10
   3 -13   4   30.50   12.30
   2  12  -4   30.80   13.70
   2  12  -4   15.90   13.50
  -2 -12   4   27.50   12.20
  -2 -12   4   21.10   13.00
  -2 -12   4   23.80   11.90
   1  12  -4    9.60   11.70
   1  12  -4    0.90   12.40
  -1 -12   4    1.80   10.40
  -1 -12   4    6.30    9.80
  -1 -12   4    4.10   10.70
   0  12  -4   13.70   11.60
   0  12  -4    2.10   14.70
   0 -12   4   22.00   10.20
   0 -12   4    8.80    9.70
   0 -12   4   31.90   10.40
  -1  12  -4    3.00   14.60
  -1  12  -4   24.10   10.50
   1 -12   4   10.60    9.20
   1 -12   4    8.50   10.20
   1 -12   4   13.20    9.50
  -2  12  -4    4.80   11.30
  -2  12  -4   13.30   15.60
   2 -12   4    7.80   11.00
   2 -12   4    8.60    9.60
  -3  12  -4   21.80   18.30
  -3  12  -4   64.59   16.70
   3 -12   4   70.89   16.60
   3 -12   4   70.29   15.20
   3 -12   4   75.29   15.50
   3 -12   4   57.29   15.40
  -4  12  -4    4.60   15.50
  -4  12  -4   19.70   13.30
   4 -12   4  -18.40   10.00
   4 -12   4   16.40   11.90
   4 -12   4  -13.30   15.90
   4 -12   4  -27.30   18.00
   5 -12   4   -5.60   12.40
   3  11  -4   -3.10   11.00
   3  11  -4   13.30   12.10
  -3 -11   4    0.30   11.60
  -3 -11   4   -3.10   12.80
  -3 -11   4    9.20   10.30
   2  11  -4   75.29   14.00
   2  11  -4   63.19   14.10
  -2 -11   4   42.70   11.90
  -2 -11   4   25.10   11.90
  -2 -11   4   32.80   13.30
   1  11  -4   27.00   10.80
   1  11  -4   15.80   10.30
  -1 -11   4   23.20    9.00
  -1 -11   4   12.10    9.40
  -1 -11   4   20.90    8.70
   0  11  -4   62.19   14.00
   0  11  -4   36.60   15.40
   0 -11   4   60.99   12.80
   0 -11   4   67.29   13.20
   0 -11   4   51.39   13.50
  -1  11  -4    9.20   14.70
  -1  11  -4   70.89   12.60
   1 -11   4   37.90   12.20
   1 -11   4   50.19   15.80
   1 -11   4   48.40   11.30
   1 -11   4   71.39   12.30
  -2  11  -4    8.90    9.30
  -2  11  -4   12.60   12.80
   2 -11   4    5.20    8.70
   2 -11   4   13.50   13.30
   2 -11   4   12.10    8.90
  -3  11  -4   49.70   13.20
  -3  11  -4   17.90   15.10
   3 -11   4   61.19   12.70
   3 -11   4   42.80   13.30
   3 -11   4   54.69   12.30
   3 -11   4   48.10   12.10
  -4  11  -4   15.70   12.60
  -4  11  -4   13.20   13.70
   4 -11   4   22.30   10.30
   4 -11   4   28.80    9.90
   4 -11   4   30.30   11.10
   4 -11   4   31.00   11.70
  -5  11  -4  135.79   23.30
  -5  11  -4   50.49   24.40
   5 -11   4  140.09   22.00
   5 -11   4  109.09   23.40
   4  10  -4    1.30   11.80
   4  10  -4    6.20   11.40
  -4 -10   4    6.40    9.70
  -4 -10   4   -3.80   14.60
   3  10  -4    9.80    9.80
   3  10  -4    9.20    9.40
  -3 -10   4   -1.80    9.20
  -3 -10   4   -0.30    7.90
  -3 -10   4   -7.10    9.90
   2  10  -4  280.97   42.60
   2  10  -4  346.27   42.70
  -2 -10   4  181.08   41.80
  -2 -10   4  206.58   42.00
   1  10  -4    2.20    7.30
   1  10  -4    2.40    8.20
  -1 -10   4   10.60    6.50
  -1 -10   4   12.00    7.40
  -1 -10   4   -4.80   10.60
  -1 -10   4    3.40    7.20
   0  10  -4   -5.50    6.80
   0  10  -4   12.20    8.10
   0  10  -4    9.50    8.80
   0 -10   4   20.60    6.90
   0 -10   4    7.20    7.10
   0 -10   4    7.70    6.40
  -1  10  -4   76.59   21.10
  -1  10  -4  162.38   20.90
  -1  10  -4  140.49   21.10
   1 -10   4   95.79   19.80
   1 -10   4   95.29   21.90
   1 -10   4  109.09   21.30
   1 -10   4   94.39   20.00
  -2  10  -4  646.74  106.59
  -2  10  -4  615.14  106.59
  -2  10  -4  640.44  106.49
   2 -10   4  582.04  106.79
   2 -10   4  636.34  106.19
   2 -10   4  626.94  106.49
  -3  10  -4  371.46   59.79
  -3  10  -4  232.98   59.39
   3 -10   4  351.06   59.59
   3 -10   4  358.56   59.29
   3 -10   4  373.56   59.39
   3 -10   4  427.26   60.19
   3 -10   4  350.66   59.89
  -4  10  -4   20.10   10.20
  -4  10  -4   -3.60   12.30
   4 -10   4   30.60    9.20
   4 -10   4   23.70   14.00
   4 -10   4   16.40    8.10
   4 -10   4    9.20    9.00
   4 -10   4   14.50    8.20
  -5  10  -4   36.80   18.10
  -5  10  -4  104.69   22.30
   5 -10   4   63.69   16.00
   5 -10   4   78.69   15.50
   5 -10   4   62.79   15.40
   5 -10   4   71.39   14.70
  -6  10  -4  -10.90   17.20
  -6  10  -4    5.40   13.10
   6 -10   4   11.50   11.80
   6 -10   4   13.80   10.70
   6 -10   4   -7.80   10.70
   6 -10   4   17.30   12.60
   5   9  -4  108.19   19.10
   5   9  -4  116.39   18.90
   5   9  -4   75.79   19.00
  -5  -9   4  101.69   17.70
  -5  -9   4    9.60   18.70
  -5  -9   4   73.29   18.30
   4   9  -4   -8.40    9.40
   4   9  -4   11.70    9.40
  -4  -9   4    4.20   10.10
  -4  -9   4    7.10    9.20
  -4  -9   4   -1.20    8.10
   3   9  -4   -3.90    7.60
   3   9  -4   -3.00    8.20
  -3  -9   4   15.60    8.90
  -3  -9   4    1.80    7.60
  -3  -9   4   19.30   12.80
  -3  -9   4    7.40    6.70
   2   9  -4   -0.10    7.60
   2   9  -4    7.40    7.50
   2   9  -4   16.90   16.40
  -2  -9   4    8.60   10.00
  -2  -9   4   12.30    7.80
  -2  -9   4   22.50    6.50
  -2  -9   4    4.50    6.60
   1   9  -4  526.85   90.09
   1   9  -4  505.55   89.99
  -1  -9   4  533.85   90.39
  -1  -9   4  520.15   89.99
  -1  -9   4  558.34   89.79
   0   9  -4    2.80    6.70
   0   9  -4   -4.70    6.70
   0   9  -4    7.40    6.50
   0   9  -4    2.50    5.50
   0  -9   4    2.10    5.20
   0  -9   4   -1.00    7.60
   0  -9   4    2.00    5.20
   0  -9   4    4.90    5.50
  -1   9  -4   22.90    8.90
  -1   9  -4   35.80   10.10
  -1   9  -4   30.70    8.10
  -1   9  -4   30.40    8.70
   1  -9   4   28.60    9.50
   1  -9   4   35.60   10.40
   1  -9   4   35.20    8.00
   1  -9   4   24.60    8.90
   1  -9   4   19.10    7.80
   1  -9   4   38.70    8.10
  -2   9  -4    4.00    7.10
  -2   9  -4   -1.80    6.00
  -2   9  -4    6.20    8.30
   2  -9   4   12.50    8.10
   2  -9   4    0.30    6.20
   2  -9   4    7.20    5.70
  -3   9  -4    3.80    6.50
  -3   9  -4   -1.90    7.90
  -3   9  -4    3.10    8.80
   3  -9   4    2.70    6.00
   3  -9   4    3.10    9.30
   3  -9   4    3.30    6.30
   3  -9   4   -1.60    6.40
   3  -9   4   -1.50    6.60
  -4   9  -4   82.99   14.90
  -4   9  -4   62.09   15.60
  -4   9  -4   64.79   15.30
   4  -9   4   64.39   13.90
   4  -9   4   69.09   13.90
   4  -9   4   52.59   13.60
   4  -9   4   79.79   14.50
  -5   9  -4   39.90   16.50
  -5   9  -4   57.19   14.20
   5  -9   4   62.39   13.90
   5  -9   4   52.49   14.00
   5  -9   4   83.69   18.30
   5  -9   4   67.09   13.20
   5  -9   4   65.19   14.00
  -6   9  -4    7.90   11.90
  -6   9  -4    9.00   15.40
   6  -9   4    2.50    9.40
   6  -9   4    5.90   10.70
   6  -9   4   15.10    8.80
   6  -9   4   -4.00    9.30
   7  -9   4   39.70   13.00
   7  -9   4   13.50   11.90
   7  -9   4    4.80   12.10
   6   8  -4   15.30   13.70
   6   8  -4   31.40   15.00
   6   8  -4   21.10   12.10
  -6  -8   4    5.70   13.00
  -6  -8   4   19.90   11.30
   5   8  -4  111.59   20.70
   5   8  -4  145.69   21.30
   5   8  -4  125.39   20.80
  -5  -8   4  137.89   20.00
  -5  -8   4   16.60   20.10
  -5  -8   4   90.49   20.70
   4   8  -4   13.10    8.80
   4   8  -4    7.00    7.50
   4   8  -4    5.60    8.50
  -4  -8   4    0.10    8.20
  -4  -8   4   14.30    7.40
  -4  -8   4   15.30    9.40
   3   8  -4    2.30    6.50
   3   8  -4   -4.00   11.90
   3   8  -4    2.10    6.60
  -3  -8   4    4.50    7.90
  -3  -8   4   -4.70   10.50
  -3  -8   4   -3.20    5.80
  -3  -8   4    5.70    6.70
   2   8  -4  232.08   30.20
   2   8  -4  168.98   27.60
   2   8  -4  163.38   27.60
  -2  -8   4  141.99   27.50
  -2  -8   4  156.48   27.80
  -2  -8   4  141.69   27.00
  -2  -8   4  135.89   27.30
   1   8  -4  113.69   18.40
   1   8  -4   94.69   17.20
   1   8  -4   97.19   17.10
  -1  -8   4   75.59   17.50
  -1  -8   4  105.09   16.90
  -1  -8   4   84.89   17.00
  -1  -8   4   75.29   16.70
  -1  -8   4   80.59   17.40
  -1  -8   4  122.49   18.10
   0   8  -4   12.90    6.00
   0   8  -4    1.80    5.30
   0   8  -4    9.30    5.00
   0   8  -4   10.70    7.60
   0   8  -4   11.20    9.70
   0  -8   4   18.90    6.10
   0  -8   4   12.60    5.10
   0  -8   4   10.60    6.30
   0  -8   4    4.10    4.70
   0  -8   4   16.60    5.30
  -1   8  -4  731.53  132.59
  -1   8  -4  757.02  132.69
  -1   8  -4  787.22  132.59
  -1   8  -4  811.42  132.69
  -1   8  -4  824.92  132.59
   1  -8   4  790.12  132.59
   1  -8   4  773.92  132.69
   1  -8   4  795.92  132.59
   1  -8   4  790.42  132.99
   1  -8   4  792.42  132.69
  -2   8  -4  745.73  124.99
  -2   8  -4  746.73  125.19
  -2   8  -4  718.63  124.89
  -2   8  -4  740.83  125.09
  -2   8  -4  713.73  124.99
   2  -8   4  745.43  125.49
   2  -8   4  772.12  124.89
   2  -8   4  741.53  125.09
   2  -8   4  735.03  125.09
   2  -8   4  731.13  124.99
  -3   8  -4   11.90    6.20
  -3   8  -4   19.70    7.10
  -3   8  -4    3.50    8.00
   3  -8   4    2.90    5.60
   3  -8   4   24.30   10.80
   3  -8   4   16.80    7.90
   3  -8   4    1.90    5.40
   3  -8   4   18.50    6.50
   3  -8   4   12.40    6.10
  -4   8  -4   73.59   16.20
  -4   8  -4   91.69   15.60
  -4   8  -4   67.19   16.30
   4  -8   4   94.29   16.70
   4  -8   4   76.39   15.60
   4  -8   4   82.59   15.50
   4  -8   4   83.79   15.20
   4  -8   4   70.99   15.20
  -5   8  -4   21.50   11.50
  -5   8  -4    6.60    8.60
   5  -8   4    7.80   11.70
   5  -8   4   -0.80    7.00
   5  -8   4  -12.40    7.50
   5  -8   4   -2.00    7.30
   5  -8   4    1.70    7.70
  -6   8  -4  -17.40   12.60
   6  -8   4    8.50   10.30
   6  -8   4    5.60    8.80
   6  -8   4    2.60    8.00
   6  -8   4   25.40    8.90
  -7   8  -4    7.10   13.20
  -7   8  -4    9.60   15.00
   7  -8   4   -3.10   10.50
   7  -8   4   -6.10   12.00
   7  -8   4   13.90   12.80
   7  -8   4    2.50   10.50
   6   7  -4    1.40   11.10
   6   7  -4   11.20   11.40
   6   7  -4   -1.00   11.10
  -6  -7   4    1.60   16.50
  -6  -7   4   -1.70    9.60
  -6  -7   4   -9.40   10.80
   5   7  -4    6.40    9.00
   5   7  -4   11.10    8.20
  -5  -7   4    6.10    7.60
  -5  -7   4   -4.90    8.10
  -5  -7   4    3.40    9.50
   4   7  -4   11.90    7.20
   4   7  -4   10.90    7.00
   4   7  -4   -0.80    6.50
  -4  -7   4    7.30    7.00
  -4  -7   4   12.50    6.70
  -4  -7   4   -1.70    5.80
  -4  -7   4   -1.30    9.80
   3   7  -4    9.70    5.90
   3   7  -4    2.40    5.40
   3   7  -4   -7.50    9.20
   3   7  -4   -9.70    5.40
  -3  -7   4    4.00    4.90
  -3  -7   4    6.50    5.80
  -3  -7   4   10.90    6.60
  -3  -7   4    3.70    7.30
   2   7  -4  130.99   21.30
   2   7  -4  118.69   21.20
   2   7  -4  149.88   22.40
   2   7  -4  128.89   21.80
  -2  -7   4  145.79   22.00
  -2  -7   4  109.19   21.00
  -2  -7   4  104.59   21.20
  -2  -7   4  107.69   20.90
  -2  -7   4  108.39   21.40
  -2  -7   4  104.59   21.40
   1   7  -4  311.17   51.09
   1   7  -4  280.87   51.19
   1   7  -4  308.57   50.79
   1   7  -4  265.97   50.99
  -1  -7   4  342.87   50.59
  -1  -7   4  316.37   50.89
  -1  -7   4  281.47   50.69
  -1  -7   4  272.87   50.79
  -1  -7   4  299.17   50.79
  -1  -7   4  284.37   51.09
   0   7  -4    1.10    4.00
   0   7  -4    3.90    3.80
   0   7  -4   10.00    5.60
   0   7  -4   -0.80    4.50
   0   7  -4   -2.90    4.00
   0  -7   4    2.60    5.00
   0  -7   4    0.60    3.80
   0  -7   4    0.40    3.40
   0  -7   4   -3.70    4.80
   0  -7   4    0.50    3.60
   0  -7   4   -1.80    4.50
  -1   7  -4  104.69   16.10
  -1   7  -4   79.49   15.30
  -1   7  -4  117.29   16.00
  -1   7  -4   96.19   15.40
  -1   7  -4   65.89   15.30
   1  -7   4   79.79   15.80
   1  -7   4  107.69   15.70
   1  -7   4   66.29   15.10
   1  -7   4   71.89   15.20
  -2   7  -4   15.40    5.70
  -2   7  -4   13.20    5.30
  -2   7  -4   18.20    7.30
  -2   7  -4   25.00    6.90
  -2   7  -4   17.60    6.00
   2  -7   4   21.80    6.30
   2  -7   4   11.90    5.40
   2  -7   4   18.00    7.50
   2  -7   4   32.20    6.00
   2  -7   4   19.80    5.70
   2  -7   4   18.00    5.40
  -3   7  -4   96.49   15.20
  -3   7  -4   70.49   15.30
  -3   7  -4   80.69   15.30
  -3   7  -4   89.89   15.30
  -3   7  -4   88.79   15.80
   3  -7   4   95.59   15.60
   3  -7   4   69.69   18.80
   3  -7   4   83.79   14.90
   3  -7   4   54.29   14.70
   3  -7   4   96.79   15.00
   3  -7   4   66.59   15.00
  -4   7  -4    4.90    5.70
  -4   7  -4    7.00    7.00
  -4   7  -4    7.80    8.10
   4  -7   4   -9.20    5.20
   4  -7   4    0.30    5.20
   4  -7   4   -2.40    4.70
   4  -7   4   -0.30    7.60
   4  -7   4   -7.10   10.60
   4  -7   4    3.10    5.90
  -5   7  -4   59.09   14.60
  -5   7  -4   61.79   14.10
  -5   7  -4   52.19   13.40
   5  -7   4   62.29   14.80
   5  -7   4   67.49   12.70
   5  -7   4   61.09   13.30
   5  -7   4   62.09   13.00
   5  -7   4   58.29   12.70
  -6   7  -4   24.90   18.10
  -6   7  -4   88.59   17.70
   6  -7   4   95.39   17.00
   6  -7   4   87.69   17.30
   6  -7   4  107.79   16.80
   6  -7   4   88.99   21.00
   6  -7   4   79.49   17.30
  -7   7  -4   10.80   12.50
  -7   7  -4   16.00   14.30
   7  -7   4   35.40   10.30
   7  -7   4   22.40   11.80
   7  -7   4   -8.00   13.20
   7  -7   4   -4.50   11.30
   7   6  -4   41.10   14.40
   7   6  -4   11.60   13.30
   7   6  -4   33.80   13.90
  -7  -6   4   15.00   13.10
   6   6  -4    0.80    9.80
   6   6  -4    1.90    9.20
   6   6  -4    4.70    9.60
  -6  -6   4    3.60   11.80
  -6  -6   4   -0.40    8.70
   5   6  -4   34.50   12.30
   5   6  -4   23.70    9.90
   5   6  -4   29.20    9.50
  -5  -6   4   32.90   12.30
  -5  -6   4   40.20    9.60
  -5  -6   4   22.90   11.00
   4   6  -4  211.38   37.40
   4   6  -4  206.08   37.30
   4   6  -4  202.48   37.20
  -4  -6   4  212.88   37.70
  -4  -6   4  229.88   37.00
  -4  -6   4  212.58   37.40
  -4  -6   4  222.28   37.70
   3   6  -4   65.09   11.50
   3   6  -4   47.00   11.30
   3   6  -4   46.90   12.40
   3   6  -4   73.69   11.60
   3   6  -4   62.69   12.70
  -3  -6   4   49.70   12.00
  -3  -6   4   46.20   11.30
  -3  -6   4   69.59   11.40
  -3  -6   4   50.59   11.90
  -3  -6   4   64.19   12.40
  -3  -6   4   47.20   10.80
   2   6  -4   20.90    5.70
   2   6  -4   30.90    7.60
   2   6  -4    9.40    5.30
  -2  -6   4   30.50    5.50
  -2  -6   4   21.90    6.40
  -2  -6   4   22.60    6.30
  -2  -6   4   32.70    6.70
  -2  -6   4   11.70    5.60
  -2  -6   4   16.60    5.40
   1   6  -4 1807.22  310.17
   1   6  -4 1887.01  310.17
   1   6  -4 1986.90  310.27
   1   6  -4 1829.92  310.17
  -1  -6   4 1762.12  310.17
  -1  -6   4 1815.52  310.17
  -1  -6   4 1796.72  310.17
  -1  -6   4 1799.92  310.17
  -1  -6   4 1895.21  310.17
  -1  -6   4 1854.91  310.17
   0   6  -4   55.49   10.20
   0   6  -4   57.89   10.40
   0   6  -4   49.99   10.30
   0   6  -4   56.19    9.90
   0   6  -4   57.29   10.10
   0  -6   4   53.39   10.20
   0  -6   4   45.00    9.80
   0  -6   4   66.89   10.50
   0  -6   4   47.80   10.00
   0  -6   4   55.99   10.10
   0  -6   4   48.70    9.90
  -1   6  -4    3.80    3.10
  -1   6  -4    7.10    4.50
  -1   6  -4    2.50    4.60
  -1   6  -4   -1.50    5.20
  -1   6  -4    5.30    3.70
   1  -6   4    8.70    3.80
   1  -6   4    1.70    4.10
   1  -6   4    6.20    3.10
   1  -6   4    3.20    3.20
   1  -6   4    3.10    3.80
  -2   6  -4  179.18   33.00
  -2   6  -4  182.88   33.00
  -2   6  -4  191.38   33.20
  -2   6  -4  207.58   33.10
  -2   6  -4  232.58   33.60
   2  -6   4  190.68   33.00
   2  -6   4  177.78   33.00
   2  -6   4  184.48   33.00
   2  -6   4  164.48   33.00
   2  -6   4  203.88   33.10
   2  -6   4  218.68   33.40
  -3   6  -4 1588.94  261.17
  -3   6  -4 1645.74  261.17
  -3   6  -4 1480.45  261.17
  -3   6  -4 1515.05  261.07
  -3   6  -4 1561.84  261.17
   3  -6   4 1458.65  261.07
   3  -6   4 1620.84  261.17
   3  -6   4 1522.65  261.27
   3  -6   4 1545.25  261.17
   3  -6   4 1556.04  261.17
   3  -6   4 1565.34  261.17
  -4   6  -4    1.10    7.30
  -4   6  -4    5.20    6.30
  -4   6  -4   -1.10    6.20
  -4   6  -4   -2.20    4.90
  -4   6  -4    0.00    6.10
   4  -6   4    9.30    4.70
   4  -6   4    3.80    5.30
   4  -6   4   -6.20    5.00
   4  -6   4   -1.30    4.30
   4  -6   4   -0.20    9.20
   4  -6   4   -6.10    6.10
  -5   6  -4   47.50   13.70
  -5   6  -4   67.29   12.80
  -5   6  -4   67.89   13.60
   5  -6   4   49.70   11.80
   5  -6   4   53.99   12.90
   5  -6   4   83.49   13.80
   5  -6   4   49.60   11.80
   5  -6   4   68.29   12.80
  -6   6  -4    8.20    8.60
  -6   6  -4   11.60   20.10
   6  -6   4    3.50    8.40
   6  -6   4   -1.60    7.10
   6  -6   4    9.60    7.40
   6  -6   4   17.20    8.20
   6  -6   4    2.60   12.80
  -7   6  -4   18.10   13.00
  -7   6  -4   -6.50   11.60
   7  -6   4    9.80   10.20
   7  -6   4   13.60   10.10
   7  -6   4    5.00   10.90
   7  -6   4   -0.20    9.80
   7   5  -4   55.29   15.50
   7   5  -4   50.09   16.10
   7   5  -4   64.89   16.10
  -7  -5   4   73.59   17.20
   6   5  -4   -0.40    8.10
   6   5  -4  -10.10    8.30
   6   5  -4    8.40   11.30
  -6  -5   4    1.00    8.10
  -6  -5   4  -15.30    9.60
   5   5  -4   14.60   11.60
   5   5  -4   27.60    8.10
   5   5  -4   19.80    8.00
  -5  -5   4   27.30    9.70
  -5  -5   4   22.10    8.00
  -5  -5   4   12.70    8.70
  -5  -5   4   14.10    8.40
   4   5  -4  630.94  109.09
   4   5  -4  609.64  109.39
   4   5  -4  668.73  109.09
   4   5  -4  641.84  109.09
  -4  -5   4  657.63  109.19
  -4  -5   4  632.94  109.19
  -4  -5   4  644.04  109.19
  -4  -5   4  675.33  109.59
  -4  -5   4  638.34  109.19
   3   5  -4  717.33  130.19
   3   5  -4  767.22  130.09
   3   5  -4  807.32  130.49
   3   5  -4  789.32  130.09
  -3  -5   4  746.03  130.09
  -3  -5   4  773.72  130.19
  -3  -5   4  775.62  130.19
  -3  -5   4  803.52  130.29
  -3  -5   4  760.02  130.19
   2   5  -4  115.09   21.20
   2   5  -4  157.08   21.70
   2   5  -4  110.29   21.20
   2   5  -4  130.79   21.50
  -2  -5   4  124.39   21.20
  -2  -5   4  125.19   21.50
  -2  -5   4  103.19   21.10
  -2  -5   4  121.69   21.30
  -2  -5   4  134.79   21.40
  -2  -5   4  112.49   21.40
   1   5  -4   19.80    4.60
   1   5  -4   15.90    4.40
   1   5  -4   21.70    5.40
   1   5  -4   19.40    5.40
  -1  -5   4   20.90    5.00
  -1  -5   4   13.30    4.40
  -1  -5   4   23.00    5.10
  -1  -5   4   27.20    4.70
  -1  -5   4   20.00    4.60
  -1  -5   4   17.00    5.00
   0   5  -4 2167.78  377.56
   0   5  -4 2231.38  377.46
   0   5  -4 2286.57  377.56
   0   5  -4 2275.17  377.56
   0   5  -4 2212.38  377.46
   0  -5   4 2213.68  377.56
   0  -5   4 2241.88  377.56
   0  -5   4 2297.27  377.56
   0  -5   4 2229.08  377.56
   0  -5   4 2297.37  377.56
  -1   5  -4  360.56   54.89
  -1   5  -4  329.87   54.79
  -1   5  -4  336.27   54.89
  -1   5  -4  319.27   54.79
  -1   5  -4  301.87   54.89
   1  -5   4  303.27   54.79
   1  -5   4  292.77   55.39
   1  -5   4  349.37   54.89
   1  -5   4  313.97   54.79
  -2   5  -4  669.83  117.09
  -2   5  -4  733.73  117.09
  -2   5  -4  650.33  116.99
  -2   5  -4  694.73  116.99
  -2   5  -4  713.63  116.99
   2  -5   4  732.03  117.09
   2  -5   4  697.63  117.59
   2  -5   4  657.53  116.99
   2  -5   4  692.03  117.09
   2  -5   4  715.83  117.19
   2  -5   4  684.43  116.99
  -3   5  -4   97.89   17.00
  -3   5  -4   88.39   16.70
  -3   5  -4  102.89   16.70
  -3   5  -4   83.39   16.60
  -3   5  -4   91.59   16.60
   3  -5   4  103.59   16.90
   3  -5   4   94.39   16.60
   3  -5   4   89.49   17.20
   3  -5   4  101.69   16.70
   3  -5   4   83.89   16.50
   3  -5   4   89.29   16.60
  -4   5  -4  134.39   29.20
  -4   5  -4  168.08   29.40
  -4   5  -4  179.58   29.40
  -4   5  -4  175.68   29.30
  -4   5  -4  153.88   29.40
   4  -5   4  168.28   29.30
   4  -5   4  160.88   29.20
   4  -5   4  193.68   29.40
   4  -5   4  172.08   29.50
   4  -5   4  149.69   29.10
   4  -5   4  217.78   30.60
  -5   5  -4   34.00    8.70
  -5   5  -4   33.10   11.40
  -5   5  -4   26.80    9.60
   5  -5   4   35.10    8.90
   5  -5   4   28.10    8.40
   5  -5   4   39.10   10.70
   5  -5   4   36.00    9.20
   5  -5   4   32.90    8.30
  -6   5  -4    6.30    9.70
  -6   5  -4    9.00    8.70
   6  -5   4   24.40    8.10
   6  -5   4   14.60    7.90
   6  -5   4   14.30    7.60
   6  -5   4   20.10   12.90
   6  -5   4   10.80    8.60
  -7   5  -4   -5.40   14.50
  -7   5  -4    7.40   11.90
   7  -5   4   22.70    9.90
   7  -5   4    0.20    9.30
   7  -5   4    3.90    9.00
   7  -5   4   -4.30   11.10
   7   4  -4   12.50    9.20
   7   4  -4    3.10    9.60
   7   4  -4   16.60   10.50
  -7  -4   4    1.00   10.80
   6   4  -4   -9.40    7.20
   6   4  -4    1.50    7.00
   6   4  -4    2.80    7.90
  -6  -4   4    0.70    9.30
  -6  -4   4  -17.20   10.90
   5   4  -4   19.20   13.10
   5   4  -4   31.40    8.30
   5   4  -4   37.90    8.10
   5   4  -4   42.40    8.30
  -5  -4   4   34.50    9.60
  -5  -4   4   40.80    8.90
  -5  -4   4   32.10    9.50
  -5  -4   4   20.50    8.90
  -5  -4   4   16.30   10.50
   4   4  -4   28.60    7.70
   4   4  -4   27.00    6.10
   4   4  -4   17.50    6.10
   4   4  -4   20.00    5.60
   4   4  -4   30.90    9.30
  -4  -4   4   23.00    7.80
  -4  -4   4   18.80    6.80
  -4  -4   4    8.70    6.50
  -4  -4   4    6.90    7.70
  -4  -4   4   26.20    6.70
   3   4  -4 1006.40  173.78
   3   4  -4 1036.50  173.78
   3   4  -4 1045.50  173.78
   3   4  -4 1018.00  173.68
  -3  -4   4 1070.19  173.78
  -3  -4   4 1041.70  173.78
  -3  -4   4 1003.50  173.88
   2   4  -4  104.59   17.80
   2   4  -4   89.29   17.90
   2   4  -4   84.89   17.80
   2   4  -4  103.69   17.80
  -2  -4   4   82.89   17.70
  -2  -4   4  110.09   17.90
  -2  -4   4  119.29   18.00
  -2  -4   4  109.49   17.90
  -2  -4   4  147.29   18.10
  -2  -4   4   93.49   17.70
   1   4  -4   83.09   14.10
   1   4  -4   96.49   14.10
   1   4  -4   71.59   14.00
   1   4  -4   83.49   14.10
  -1  -4   4   77.79   14.10
  -1  -4   4   83.59   14.30
  -1  -4   4   93.49   14.20
  -1  -4   4   74.49   14.00
  -1  -4   4   65.19   13.90
  -1  -4   4   88.49   14.20
   0   4  -4  847.82  143.29
   0   4  -4  829.52  143.39
   0   4  -4  851.11  143.29
   0   4  -4  879.61  143.29
   0  -4   4  843.32  143.29
   0  -4   4  854.11  143.29
   0  -4   4  853.21  143.39
   0  -4   4  846.62  143.29
   0  -4   4  854.01  143.29
  -1   4  -4   83.09   14.10
  -1   4  -4   90.79   14.10
  -1   4  -4   76.79   14.20
  -1   4  -4   77.59   14.00
  -1   4  -4   70.09   14.00
   1  -4   4   84.89   14.10
   1  -4   4   79.89   14.10
   1  -4   4   78.69   14.20
   1  -4   4   76.09   14.00
   1  -4   4   86.79   14.30
   1  -4   4   87.89   14.20
  -2   4  -4  710.13  114.69
  -2   4  -4  663.03  114.59
  -2   4  -4  700.93  114.69
  -2   4  -4  693.33  114.59
  -2   4  -4  696.73  114.69
   2  -4   4  681.73  114.59
   2  -4   4  585.34  115.09
   2  -4   4  686.43  114.69
   2  -4   4  688.83  114.69
   2  -4   4  682.13  114.59
   2  -4   4  670.23  114.69
  -3   4  -4  833.42  147.99
  -3   4  -4  870.31  147.99
  -3   4  -4  956.50  148.09
  -3   4  -4  880.81  147.99
  -3   4  -4  863.91  147.99
  -3   4  -4  885.11  147.99
   3  -4   4  892.81  147.99
   3  -4   4  876.51  148.09
   3  -4   4  872.81  148.09
   3  -4   4  880.81  147.99
   3  -4   4  845.92  147.99
   3  -4   4  891.41  147.99
  -4   4  -4   83.99   21.50
  -4   4  -4  136.99   21.70
  -4   4  -4  120.89   21.70
  -4   4  -4  108.19   21.80
  -4   4  -4  112.09   21.50
   4  -4   4  146.89   22.00
   4  -4   4  134.29   22.70
   4  -4   4  154.38   22.00
   4  -4   4  112.89   21.50
   4  -4   4  156.88   21.80
   4  -4   4  105.59   21.50
  -5   4  -4    0.40    6.60
  -5   4  -4    7.30    6.80
  -5   4  -4    3.60    7.40
  -5   4  -4    2.60    6.90
  -5   4  -4    7.20    6.20
   5  -4   4   -1.40    5.10
   5  -4   4   -5.70    5.30
   5  -4   4   -1.20    5.90
   5  -4   4   -3.00   13.70
   5  -4   4   -2.60    5.10
   5  -4   4   -1.20    7.70
  -6   4  -4   19.80   11.10
  -6   4  -4   12.00    8.40
   6  -4   4    4.30    7.30
   6  -4   4   15.20   12.10
   6  -4   4    6.10    8.00
   6  -4   4    0.70    7.30
   6  -4   4    3.10    6.50
  -7   4  -4  125.69   28.60
  -7   4  -4  134.39   27.30
   7  -4   4  183.28   26.80
   7  -4   4  159.88   26.80
   7  -4   4  168.98   26.60
   7  -4   4   90.29   26.60
   8  -4   4   -6.90   12.80
   8  -4   4   16.50   12.00
   8   3  -4   18.00   12.50
   8   3  -4   10.90   12.20
   8   3  -4    9.10   11.40
  -8  -3   4    3.90   15.70
  -8  -3   4   34.20   18.50
   7   3  -4    9.30    9.50
   7   3  -4    3.20    9.00
   7   3  -4   14.40    8.60
  -7  -3   4   15.50   11.80
  -7  -3   4   20.30   15.60
   6   3  -4   18.40    7.40
   6   3  -4   18.20    8.00
   6   3  -4    2.00    6.90
  -6  -3   4   10.40   11.90
  -6  -3   4    6.10    7.80
  -6  -3   4   27.50   10.00
   5   3  -4   44.90   21.00
   5   3  -4   44.60   10.70
   5   3  -4   43.40    8.50
   5   3  -4   48.90    8.00
   5   3  -4   39.90    8.70
  -5  -3   4   15.20    8.60
  -5  -3   4   30.00    9.80
  -5  -3   4   33.90    9.10
  -5  -3   4   45.80   10.50
  -5  -3   4   24.80    9.00
  -5  -3   4   16.60    8.30
   4   3  -4   46.70    7.50
   4   3  -4   21.70    6.90
   4   3  -4   37.80    7.20
   4   3  -4   42.90    8.40
   4   3  -4   19.10    9.30
  -4  -3   4   35.80    7.50
  -4  -3   4   38.90    7.80
  -4  -3   4   39.70    7.30
  -4  -3   4   24.60    8.40
  -4  -3   4   17.70    7.80
  -4  -3   4   28.60    7.30
   3   3  -4 1332.07  224.98
   3   3  -4 1298.57  224.98
   3   3  -4 1301.37  224.98
   3   3  -4 1359.66  224.98
   3   3  -4 1349.16  224.98
  -3  -3   4 1344.27  225.08
  -3  -3   4 1333.67  225.08
  -3  -3   4 1353.56  224.98
  -3  -3   4 1337.17  224.98
  -3  -3   4 1356.76  224.98
   2   3  -4   26.90    5.50
   2   3  -4   35.50    5.40
   2   3  -4   27.30    5.60
   2   3  -4   22.90    5.10
  -2  -3   4   21.30    5.80
  -2  -3   4   29.00    5.50
  -2  -3   4   23.90    5.50
  -2  -3   4   26.10    5.30
  -2  -3   4   19.60    5.30
   1   3  -4  148.49   25.50
   1   3  -4  148.19   25.50
   1   3  -4  154.08   25.50
   1   3  -4  148.09   25.60
  -1  -3   4  147.79   25.60
  -1  -3   4  143.59   25.60
  -1  -3   4  159.18   25.50
  -1  -3   4  149.79   25.60
   0   3  -4  208.88   34.60
   0   3  -4  205.78   34.40
   0   3  -4  194.18   34.40
   0  -3   4  197.98   34.40
   0  -3   4  223.38   34.60
   0  -3   4  205.18   34.40
   0  -3   4  205.68   34.40
   0  -3   4  198.18   34.40
  -1   3  -4 1114.59  181.08
  -1   3  -4 1088.49  180.98
  -1   3  -4 1050.69  180.98
  -1   3  -4 1078.19  181.08
  -1   3  -4 1075.99  181.18
   1  -3   4 1046.20  181.08
   1  -3   4 1084.59  181.08
   1  -3   4 1055.69  181.08
   1  -3   4 1114.19  181.08
   1  -3   4 1062.09  181.18
   1  -3   4 1071.99  181.18
  -2   3  -4   -2.80    2.40
  -2   3  -4    3.90    2.50
  -2   3  -4   -4.10    2.50
  -2   3  -4    1.10    2.50
  -2   3  -4   -0.80    3.10
  -2   3  -4    0.60    2.20
   2  -3   4   -1.60    2.50
   2  -3   4    1.20    2.50
   2  -3   4    2.50    2.40
   2  -3   4   -2.10    2.00
   2  -3   4    3.10    2.40
   2  -3   4    0.40    3.50
  -3   3  -4   -3.60    3.40
  -3   3  -4    6.00    3.30
  -3   3  -4    0.70    5.00
  -3   3  -4    4.10    3.90
  -3   3  -4    0.90    3.50
  -3   3  -4    0.60    3.50
   3  -3   4    3.60    3.20
   3  -3   4    2.30    2.90
   3  -3   4    8.40    3.40
   3  -3   4    2.20    3.70
   3  -3   4   -0.90    5.00
   3  -3   4    0.90    3.30
  -4   3  -4  911.71  140.29
  -4   3  -4  817.82  140.09
  -4   3  -4  903.31  140.49
  -4   3  -4  833.52  140.19
  -4   3  -4  820.22  140.19
  -4   3  -4  862.01  140.29
   4  -3   4  811.52  140.29
   4  -3   4  839.32  140.09
   4  -3   4  782.52  140.19
   4  -3   4  847.02  140.09
   4  -3   4  773.32  140.09
   4  -3   4  781.12  140.39
  -5   3  -4  197.38   28.40
  -5   3  -4  181.38   28.20
  -5   3  -4  152.98   27.60
  -5   3  -4  148.39   27.70
  -5   3  -4  153.98   27.40
   5  -3   4  163.78   27.70
   5  -3   4  177.38   29.30
   5  -3   4  153.48   27.20
   5  -3   4  157.78   27.50
   5  -3   4  112.09   27.00
   5  -3   4  167.48   28.10
  -6   3  -4    2.30   11.70
  -6   3  -4    2.00    8.20
   6  -3   4    1.20    6.90
   6  -3   4    2.60    6.30
   6  -3   4   13.20   12.20
   6  -3   4    7.00    7.80
   6  -3   4    4.30    7.10
  -7   3  -4   32.30   12.60
  -7   3  -4   14.90   17.00
   7  -3   4   29.90   10.20
   7  -3   4   33.40   11.10
   7  -3   4   23.90   10.40
   7  -3   4   20.60   11.20
   8  -3   4    4.20   11.70
   8  -3   4   18.60   12.70
   8   2  -4   -3.00   12.20
   8   2  -4   12.90   11.60
   8   2  -4    1.30    9.70
  -8  -2   4    1.80   13.40
  -8  -2   4    4.60   26.30
   7   2  -4   37.20   11.50
   7   2  -4   50.49   10.10
   7   2  -4   47.70   11.40
  -7  -2   4   43.20   15.60
  -7  -2   4    1.80   11.20
   6   2  -4  295.97   49.10
   6   2  -4  286.57   48.50
   6   2  -4  286.97   49.10
  -6  -2   4  257.57   48.50
  -6  -2   4  321.47   49.70
  -6  -2   4  256.97   48.80
   5   2  -4    6.20    4.10
   5   2  -4    2.10    5.00
   5   2  -4    5.50    7.30
   5   2  -4   -9.40    9.10
   5   2  -4    8.00    5.10
  -5  -2   4   11.80    6.10
  -5  -2   4    9.10    6.30
  -5  -2   4   16.00    7.00
  -5  -2   4    6.20    5.30
  -5  -2   4    7.70    7.00
  -5  -2   4    9.80    5.80
   4   2  -4    8.20    3.90
   4   2  -4    6.30    5.40
   4   2  -4   23.30    4.60
   4   2  -4    9.00    4.60
   4   2  -4    9.80    6.60
  -4  -2   4   11.60    4.70
  -4  -2   4   11.30    5.30
  -4  -2   4   18.60    5.30
  -4  -2   4    9.70    4.30
  -4  -2   4   12.40    4.90
  -4  -2   4   12.00    4.90
   3   2  -4  218.08   41.40
   3   2  -4  236.48   41.50
   3   2  -4  245.38   41.50
   3   2  -4  238.28   41.60
  -3  -2   4  259.17   41.60
  -3  -2   4  257.97   41.60
  -3  -2   4  250.17   41.60
  -3  -2   4  233.28   41.60
  -3  -2   4  261.97   41.50
   2   2  -4  109.59   23.10
   2   2  -4  135.59   23.20
   2   2  -4  145.29   23.10
   2   2  -4  148.89   23.20
  -2  -2   4  125.99   23.20
  -2  -2   4  143.89   23.20
  -2  -2   4  134.79   23.10
  -2  -2   4  141.19   23.20
  -2  -2   4  137.49   23.20
   1   2  -4  547.25   95.29
  -1  -2   4  582.24   95.29
  -1  -2   4  576.54   95.29
  -1  -2   4  568.34   95.29
  -1  -2   4  556.14   95.19
   0   2  -4 1274.57  201.48
   0   2  -4 1079.89  201.48
   0   2  -4 1185.38  201.58
   0  -2   4 1280.77  201.48
   0  -2   4 1262.27  201.58
   0  -2   4 1121.69  201.48
  -1   2  -4 1773.92  285.97
  -1   2  -4 1676.33  286.07
  -1   2  -4 1741.43  285.97
  -1   2  -4 1684.23  285.97
   1  -2   4 1739.13  285.97
   1  -2   4 1667.13  285.97
   1  -2   4 1674.53  285.97
   1  -2   4 1684.03  285.97
   1  -2   4 1649.13  286.07
   1  -2   4 1715.83  286.07
  -2   2  -4  309.47   50.59
  -2   2  -4  272.77   50.59
  -2   2  -4  313.47   50.49
  -2   2  -4  290.77   50.49
  -2   2  -4  318.47   50.49
   2  -2   4  274.37   50.49
   2  -2   4  320.27   50.69
   2  -2   4  300.57   50.49
   2  -2   4  304.77   50.49
   2  -2   4  285.77   50.59
  -3   2  -4  349.67   63.49
  -3   2  -4  376.36   63.49
  -3   2  -4  407.56   63.39
  -3   2  -4  387.26   63.49
  -3   2  -4  364.76   63.49
   3  -2   4  381.26   63.69
   3  -2   4  377.76   63.49
   3  -2   4  380.56   63.39
   3  -2   4  362.76   63.49
   3  -2   4  359.66   63.49
  -4   2  -4   -4.20    6.20
  -4   2  -4    6.90    4.90
  -4   2  -4    3.20    4.30
  -4   2  -4   -8.90    4.70
  -4   2  -4   -0.90    5.20
  -4   2  -4    1.70    5.00
   4  -2   4  -11.10    6.90
   4  -2   4    0.20    3.90
   4  -2   4   -5.20    4.00
   4  -2   4   10.50    4.70
   4  -2   4    0.50    4.10
   4  -2   4   -4.40    5.30
  -5   2  -4  287.27   47.80
  -5   2  -4  256.27   47.30
  -5   2  -4  280.27   48.10
  -5   2  -4  323.17   48.00
   5  -2   4  257.87   47.50
   5  -2   4  287.87   47.50
   5  -2   4  244.48   48.30
   5  -2   4  285.87   47.90
   5  -2   4  246.18   47.30
   5  -2   4  303.17   47.90
  -6   2  -4   -3.10   12.50
  -6   2  -4   24.90    9.00
  -6   2  -4   10.80   10.30
   6  -2   4   11.90    7.40
   6  -2   4   12.90   11.50
   6  -2   4   24.20    7.40
   6  -2   4   12.60    7.80
   6  -2   4    4.30    8.00
  -7   2  -4   -0.80   15.90
  -7   2  -4   -5.80   13.90
   7  -2   4   -1.90   10.30
   7  -2   4   12.20    9.50
   7  -2   4   21.00    9.70
   7  -2   4   14.50    9.20
   8   1  -4   48.20   12.00
   8   1  -4   52.29   13.90
   8   1  -4   32.90   13.10
  -8  -1   4   59.29   17.20
  -8  -1   4    4.30   14.40
   7   1  -4   20.60    8.10
   7   1  -4   22.90    8.90
  -7  -1   4   10.60    9.50
  -7  -1   4   34.60   13.10
   6   1  -4   36.50    7.40
   6   1  -4   23.70    8.00
   6   1  -4    9.60   13.70
   6   1  -4   29.50    8.20
  -6  -1   4   29.40   13.30
  -6  -1   4   23.90   13.70
  -6  -1   4   29.50    9.90
  -6  -1   4   33.10   11.90
   5   1  -4    6.00    4.70
   5   1  -4    6.80    4.10
   5   1  -4   11.60    4.90
   5   1  -4   20.60    7.40
   5   1  -4   10.30    8.90
  -5  -1   4    6.30    7.60
  -5  -1   4   -3.10    7.50
  -5  -1   4    9.70    4.70
  -5  -1   4   -1.20    5.60
  -5  -1   4    7.30    6.20
  -5  -1   4    9.90    5.70
   4   1  -4   26.80    7.40
   4   1  -4   45.90    8.80
   4   1  -4   36.10    6.70
   4   1  -4   25.30    6.80
  -4  -1   4   26.90    7.60
  -4  -1   4   31.70    6.80
  -4  -1   4   41.90    7.20
  -4  -1   4   47.70    7.80
  -4  -1   4   28.40    6.90
  -4  -1   4   38.80    7.40
   3   1  -4  133.39   22.80
   3   1  -4  131.69   22.40
   3   1  -4  143.29   23.00
   3   1  -4  133.39   22.60
   3   1  -4  153.18   22.70
  -3  -1   4  135.69   22.80
  -3  -1   4  135.49   22.70
  -3  -1   4  102.19   22.90
  -3  -1   4  120.99   22.60
  -3  -1   4  111.49   22.50
  -3  -1   4  134.29   22.50
   2   1  -4    0.50    1.70
   2   1  -4    0.80    2.30
   2   1  -4    3.70    1.70
   2   1  -4    2.90    2.00
  -2  -1   4    2.30    2.50
  -2  -1   4   -1.20    1.80
  -2  -1   4   -1.60    1.60
  -2  -1   4    0.30    2.00
  -2  -1   4    1.90    1.70
   1   1  -4  277.77   44.40
  -1  -1   4  260.57   44.40
  -1  -1   4  270.57   44.40
  -1  -1   4  271.27   44.40
  -1  -1   4  240.38   44.40
   0  -1   4   15.90    3.10
   0  -1   4   15.20    3.20
  -1   1  -4  391.06   60.49
  -1   1  -4  381.26   60.39
  -1   1  -4  344.17   60.39
  -1   1  -4  341.67   60.29
   1  -1   4  379.96   60.39
   1  -1   4  324.67   60.39
   1  -1   4  360.46   60.49
   1  -1   4  362.96   60.39
   1  -1   4  358.16   60.39
   1  -1   4  350.96   60.29
  -2   1  -4   -2.00    2.30
  -2   1  -4   -1.00    2.70
  -2   1  -4    4.60    2.50
  -2   1  -4   -2.90    2.00
  -2   1  -4    4.30    2.30
  -2   1  -4   -1.10    1.90
   2  -1   4    1.40    2.70
   2  -1   4   -3.00    2.40
   2  -1   4   -3.90    2.40
   2  -1   4    0.40    1.90
   2  -1   4    2.60    2.20
  -3   1  -4    4.10    3.50
  -3   1  -4    4.80    3.60
  -3   1  -4    0.60    3.50
  -3   1  -4    2.10    3.60
  -3   1  -4    9.20    4.40
   3  -1   4   -3.00    3.40
   3  -1   4   -0.90    3.20
   3  -1   4    3.20    3.10
   3  -1   4   -4.00    2.90
   3  -1   4   -0.10    4.90
   3  -1   4   -1.50    2.50
  -4   1  -4  410.76   73.69
  -4   1  -4  429.66   74.69
  -4   1  -4  456.25   73.39
  -4   1  -4  454.75   73.89
   4  -1   4  402.76   74.09
   4  -1   4  396.56   73.69
   4  -1   4  469.95   73.39
   4  -1   4  410.06   73.69
   4  -1   4  434.96   73.59
   4  -1   4  452.85   73.59
  -5   1  -4   38.90    8.80
  -5   1  -4   39.10    8.70
  -5   1  -4    2.70    9.20
  -5   1  -4   20.60    7.40
  -5   1  -4   18.30   13.00
   5  -1   4   25.30    7.60
   5  -1   4   23.50    7.30
   5  -1   4   26.30    7.40
   5  -1   4   27.30    6.90
   5  -1   4   43.30    9.80
  -6   1  -4  -14.70   10.50
  -6   1  -4   42.20   10.80
   6  -1   4   68.79    9.90
   6  -1   4   54.09   10.40
   6  -1   4   31.90   10.40
   6  -1   4   38.20   10.10
   6  -1   4   40.00   14.80
  -7   1  -4  -18.20   15.00
   7  -1   4   44.40   10.70
   7  -1   4   -5.20    9.90
   7  -1   4   15.10   10.20
   7  -1   4    2.40    9.00
   8   0  -4   -4.70    9.90
   8   0  -4  -11.30    8.30
   8   0  -4    1.50   10.60
  -8   0   4   -4.20   15.50
  -8   0   4    9.10   11.90
   7   0  -4   12.80    8.60
   7   0  -4   17.30    7.50
   7   0  -4   24.40    9.10
  -7   0   4   23.80    9.50
  -7   0   4   23.90   12.00
  -7   0   4   51.09   10.30
   6   0  -4   32.00    7.30
   6   0  -4    9.80    6.40
   6   0  -4   10.80   12.50
   6   0  -4   11.90    5.50
  -6   0   4   18.40    6.60
  -6   0   4    6.50    8.40
  -6   0   4    9.90    8.90
  -6   0   4   30.60    7.40
   5   0  -4  222.18   41.30
   5   0  -4  242.08   41.40
   5   0  -4  239.28   40.90
   5   0  -4  226.78   41.60
   5   0  -4  278.07   41.70
  -5   0   4  257.67   41.80
  -5   0   4  259.87   41.90
  -5   0   4  227.08   41.40
  -5   0   4  236.28   41.60
  -5   0   4  226.18   41.00
   4   0  -4 1097.29  190.18
   4   0  -4 1125.09  190.18
   4   0  -4 1139.19  189.98
   4   0  -4 1114.69  190.18
   4   0  -4 1163.28  190.18
  -4   0   4 1183.98  190.28
  -4   0   4 1096.09  190.18
  -4   0   4 1125.49  190.18
  -4   0   4 1071.19  190.18
  -4   0   4 1162.78  189.98
   3   0  -4  187.68   30.30
   3   0  -4  181.98   30.50
   3   0  -4  179.98   30.60
   3   0  -4  171.08   30.70
   3   0  -4  179.38   30.50
  -3   0   4  159.78   30.60
  -3   0   4  181.58   30.60
  -3   0   4  180.68   31.30
  -3   0   4  180.38   30.60
  -3   0   4  183.28   30.50
  -3   0   4  173.08   30.30
   2   0  -4 1732.63  302.27
   2   0  -4 1831.72  302.27
   2   0  -4 1851.21  302.27
   2   0  -4 1767.62  302.27
  -2   0   4 1789.72  302.27
  -2   0   4 1736.63  302.27
  -2   0   4 1825.42  302.27
  -2   0   4 1816.32  302.27
  -2   0   4 1825.22  302.37
  -2   0   4 1803.12  302.27
   1   0  -4   18.60    4.00
  -1   0   4   24.80    4.00
  -1   0   4   22.50    4.00
  -1   0   4   19.40    4.00
  -1   0   4   21.60    4.00
  -1   0   4   25.90    4.00
   0   0  -4   35.70    5.60
   0   0  -4   29.00    5.70
   0   0   4   26.80    5.50
   0   0   4   30.20    5.60
   0   0   4   39.40    5.50
   0   0   4   34.10    5.70
   0   0   4   29.80    5.60
   0   0   4   29.70    5.50
  -1   0  -4 1093.59  190.18
  -1   0  -4 1167.18  190.28
  -1   0  -4 1113.49  190.28
  -1   0  -4 1138.99  190.28
  -1   0  -4 1168.18  190.28
  -1   0  -4 1121.29  190.38
   1   0   4 1164.68  190.28
   1   0   4 1061.69  190.28
   1   0   4 1093.89  190.38
   1   0   4 1182.38  190.28
   1   0   4 1127.59  190.28
   1   0   4 1139.39  190.28
  -2   0  -4 1856.61  300.77
  -2   0  -4 1755.42  300.67
  -2   0  -4 1790.32  300.77
  -2   0  -4 1891.71  300.87
  -2   0  -4 1823.22  300.87
  -2   0  -4 1739.93  300.87
   2   0   4 1748.82  300.77
   2   0   4 1823.92  300.77
   2   0   4 1688.03  300.87
   2   0   4 1742.73  300.87
   2   0   4 1795.82  300.87
   2   0   4 1807.02  300.87
  -3   0  -4  101.49   17.80
  -3   0  -4  102.59   17.80
  -3   0  -4   93.29   17.60
  -3   0  -4  116.59   17.80
  -3   0  -4  101.09   17.60
  -3   0  -4   97.99   17.20
   3   0   4   98.29   17.70
   3   0   4   90.79   17.70
   3   0   4  111.59   18.00
   3   0   4  109.99   17.60
   3   0   4   93.09   17.20
   3   0   4   89.89   17.60
  -4   0  -4   -3.80    3.90
  -4   0  -4   -0.60    3.80
  -4   0  -4   -2.60    5.00
  -4   0  -4    2.10    5.90
  -4   0  -4   -2.90    5.10
  -4   0  -4    1.20    5.40
   4   0   4    5.70    3.70
   4   0   4    3.40    4.60
   4   0   4    6.70    4.90
   4   0   4    1.20    4.60
   4   0   4   -8.90    6.20
   4   0   4   -1.30    8.20
  -5   0  -4    5.60    5.60
  -5   0  -4    2.80    7.80
  -5   0  -4   -3.00    5.50
  -5   0  -4   -5.60    6.80
   5   0   4    0.90    6.30
   5   0   4    4.50    4.70
   5   0   4   -0.70    8.50
   5   0   4    2.90    5.90
  -6   0  -4    0.70    9.90
  -6   0  -4   -2.40    8.10
  -6   0  -4   21.80    8.80
   6   0   4   34.20    7.70
   6   0   4   28.80    8.60
   6   0   4   17.40    9.10
   6   0   4   17.80    9.10
   6   0   4   46.20   14.30
  -7   0  -4  -10.80   13.40
  -7   0  -4   13.90   10.20
   7   0   4    1.50   10.40
   7   0   4  -11.00   10.40
   7   0   4    1.70   11.00
   8  -1  -4    0.90    7.50
   8  -1  -4    2.30   10.00
   8  -1  -4   -7.20   10.50
  -8   1   4  -11.30   14.30
  -8   1   4    5.80   11.40
   7  -1  -4   12.30    8.10
   7  -1  -4   12.00    5.90
   7  -1  -4   -1.50    8.10
  -7   1   4    5.50    7.80
  -7   1   4   12.30   11.40
  -7   1   4   12.00    8.50
   6  -1  -4    0.70   12.20
   6  -1  -4    8.80    4.60
   6  -1  -4   10.80    5.90
   6  -1  -4   11.90    5.90
  -6   1   4   14.50    8.80
  -6   1   4    7.80    6.10
  -6   1   4    4.10    5.10
  -6   1   4   -2.00    7.20
   5  -1  -4   82.49   16.10
   5  -1  -4   64.29   15.70
   5  -1  -4   81.39   15.20
   5  -1  -4  105.39   17.50
   5  -1  -4   94.79   17.30
  -5   1   4  103.39   16.80
  -5   1   4  105.99   17.50
  -5   1   4   85.79   16.00
  -5   1   4   83.39   15.90
  -5   1   4  110.99   16.80
  -5   1   4   88.59   15.40
   4  -1  -4   46.10    9.10
   4  -1  -4   52.69    9.40
   4  -1  -4   72.29   10.40
   4  -1  -4   44.60    9.20
   4  -1  -4   56.89    9.10
   4  -1  -4   41.50    8.30
  -4   1   4   38.50    9.70
  -4   1   4   41.60    9.20
  -4   1   4   43.10    8.40
  -4   1   4   56.69    9.20
  -4   1   4   43.50    9.30
  -4   1   4   42.50    9.30
   3  -1  -4   19.70    6.80
   3  -1  -4   29.30    5.50
   3  -1  -4   25.50    4.90
   3  -1  -4   34.30    5.40
   3  -1  -4   17.70    4.20
   3  -1  -4   22.80    4.80
  -3   1   4   14.00    5.00
  -3   1   4   21.50    5.00
  -3   1   4   32.90    5.80
  -3   1   4   18.10    5.00
  -3   1   4   25.80    4.20
   2  -1  -4 1080.09  187.98
   2  -1  -4 1145.89  187.98
   2  -1  -4 1090.79  187.98
   2  -1  -4 1128.39  187.98
  -2   1   4 1129.09  188.08
  -2   1   4 1135.99  187.98
  -2   1   4 1107.59  187.88
  -2   1   4 1110.99  187.98
  -2   1   4 1133.09  188.08
   1  -1  -4    3.10    1.10
   1  -1  -4    0.70    1.50
   1  -1  -4   -1.50    1.20
   1  -1  -4    0.90    1.50
   1  -1  -4    0.20    1.20
  -1   1   4    2.70    1.60
  -1   1   4   -0.20    1.00
  -1   1   4   -0.20    1.60
  -1   1   4   -0.60    1.50
  -1   1   4    0.10    1.40
  -1   1   4   -2.20    1.40
   0  -1  -4   24.40    4.30
   0  -1  -4   22.40    4.40
   0  -1  -4   20.20    4.30
   0  -1  -4   22.70    4.20
   0  -1  -4   22.00    4.10
   0   1   4   21.20    4.30
   0   1   4   24.40    4.30
   0   1   4   21.60    4.30
   0   1   4   28.30    4.50
   0   1   4   20.60    4.00
   0   1   4   25.30    4.30
  -1  -1  -4   35.20    6.00
  -1  -1  -4   33.80    6.00
  -1  -1  -4   43.40    6.40
  -1  -1  -4   36.80    6.20
  -1  -1  -4   29.80    5.60
  -1  -1  -4   22.90    6.00
   1   1   4   29.90    6.10
   1   1   4   31.60    6.20
   1   1   4   28.00    6.10
   1   1   4   34.10    6.10
   1   1   4   35.70    5.60
   1   1   4   28.70    6.20
  -2  -1  -4  148.79   25.50
  -2  -1  -4  137.79   25.50
  -2  -1  -4  146.29   25.60
  -2  -1  -4  136.39   25.00
  -2  -1  -4  128.19   25.30
  -2  -1  -4  153.78   25.50
   2   1   4  141.79   25.40
   2   1   4  155.88   25.00
   2   1   4  153.68   25.50
   2   1   4  149.29   25.50
   2   1   4  185.68   25.90
   2   1   4  159.58   25.60
  -3  -1  -4   13.90    5.10
  -3  -1  -4    8.70    4.30
  -3  -1  -4    7.60    3.00
  -3  -1  -4   14.30    5.10
  -3  -1  -4   13.10    4.00
  -3  -1  -4   13.60    4.90
   3   1   4   11.10    6.20
   3   1   4   12.00    4.10
   3   1   4    0.50    4.20
   3   1   4   14.00    3.10
   3   1   4    4.50    4.00
  -4  -1  -4    3.20    4.50
  -4  -1  -4   -0.90    5.50
  -4  -1  -4    4.00    5.80
  -4  -1  -4    2.00    6.10
  -4  -1  -4    1.60    6.20
  -4  -1  -4    0.00    3.70
   4   1   4   11.40    5.20
   4   1   4    6.00    6.90
   4   1   4    6.50    3.50
   4   1   4   -3.80    4.40
   4   1   4    4.60    8.60
   4   1   4   11.40    5.40
  -5  -1  -4  113.69   15.80
  -5  -1  -4   76.99   17.40
  -5  -1  -4   52.99   16.80
  -5  -1  -4   92.69   16.20
   5   1   4   97.89   18.20
   5   1   4   86.29   16.10
   5   1   4   92.19   16.50
   5   1   4   48.70   17.10
  -6  -1  -4   12.80    8.50
  -6  -1  -4   14.30   10.80
  -6  -1  -4   26.00    8.50
   6   1   4   12.10    8.50
   6   1   4   12.90    8.90
   6   1   4    8.90    8.70
  -7  -1  -4   29.00   18.70
  -7  -1  -4  113.29   17.20
   7   1   4   31.60   18.00
   7   1   4   82.79   22.80
   7   1   4   94.99   18.10
   8  -2  -4    8.50   10.90
   8  -2  -4    1.60   10.10
   8  -2  -4   11.80    7.50
  -8   2   4   -4.70   11.10
  -8   2   4    9.20   12.10
  -8   2   4   22.50   15.40
   7  -2  -4   12.80    8.60
   7  -2  -4   11.70    7.90
   7  -2  -4    9.20    5.50
  -7   2   4    8.70    7.10
  -7   2   4   -5.20   11.30
  -7   2   4   12.50    8.20
   6  -2  -4 1327.67  229.58
   6  -2  -4 1435.36  229.18
   6  -2  -4 1411.16  229.08
   6  -2  -4 1401.76  229.18
   6  -2  -4 1383.66  228.68
  -6   2   4 1369.46  228.78
  -6   2   4 1179.08  229.28
  -6   2   4 1347.17  229.08
   5  -2  -4   70.79   12.90
   5  -2  -4   99.19   14.90
   5  -2  -4   69.19   12.00
   5  -2  -4   64.79   12.70
   5  -2  -4   67.39   12.90
   5  -2  -4   82.99   13.80
  -5   2   4   77.09   13.50
  -5   2   4   60.09   12.00
  -5   2   4   59.39   13.00
  -5   2   4   65.59   13.20
  -5   2   4   56.49   12.80
   4  -2  -4  204.18   36.60
   4  -2  -4  195.88   36.10
   4  -2  -4  215.88   36.30
   4  -2  -4  221.58   35.60
   4  -2  -4  191.28   36.20
   4  -2  -4  203.38   36.10
  -4   2   4  224.88   35.60
  -4   2   4  194.88   36.30
  -4   2   4  203.88   36.40
  -4   2   4  201.98   36.20
  -4   2   4  218.78   36.50
  -4   2   4  213.38   36.20
   3  -2  -4  835.82  135.89
   3  -2  -4  826.52  135.89
   3  -2  -4  822.72  135.89
   3  -2  -4  814.12  135.89
   3  -2  -4  643.54  136.19
  -3   2   4  813.02  135.89
  -3   2   4  831.62  135.89
  -3   2   4  823.72  135.89
  -3   2   4  784.82  135.89
  -3   2   4  842.42  135.89
   2  -2  -4  107.99   17.70
   2  -2  -4  107.69   17.70
   2  -2  -4  100.39   17.60
   2  -2  -4   98.69   17.60
   2  -2  -4   89.29   17.60
  -2   2   4  107.19   17.60
  -2   2   4   96.99   17.60
  -2   2   4  110.89   17.70
  -2   2   4  100.29   17.70
   1  -2  -4 1190.18  196.78
   1  -2  -4 1182.78  196.68
   1  -2  -4 1139.19  196.58
   1  -2  -4 1163.48  196.68
   1  -2  -4 1189.88  196.78
  -1   2   4 1170.28  196.58
  -1   2   4 1121.39  196.78
  -1   2   4 1163.58  196.78
  -1   2   4 1150.78  196.68
  -1   2   4 1176.28  196.78
  -1   2   4 1221.48  196.78
   0  -2  -4  260.47   43.00
   0  -2  -4  265.37   43.10
   0  -2  -4  265.47   43.00
   0  -2  -4  256.97   43.10
   0  -2  -4  243.58   43.00
   0   2   4  252.87   43.10
   0   2   4  254.37   43.10
   0   2   4  272.87   43.00
   0   2   4  247.78   43.10
   0   2   4  244.68   42.80
   0   2   4  242.78   43.10
  -1  -2  -4  598.84   96.99
  -1  -2  -4  544.85   96.99
  -1  -2  -4  591.64   96.99
  -1  -2  -4  588.14   97.09
  -1  -2  -4  560.84   96.99
   1   2   4  568.64   97.09
   1   2   4  559.84   96.99
   1   2   4  582.24   97.09
   1   2   4  576.54   96.99
   1   2   4  582.24   97.09
  -2  -2  -4  104.59   20.30
  -2  -2  -4  114.79   19.80
  -2  -2  -4  124.99   20.60
  -2  -2  -4  138.99   20.60
  -2  -2  -4  119.89   20.50
  -2  -2  -4  113.69   20.30
   2   2   4  124.39   20.50
   2   2   4  119.79   20.40
   2   2   4   95.59   20.20
   2   2   4  135.59   20.90
   2   2   4  118.79   20.50
  -3  -2  -4   29.90    9.40
  -3  -2  -4   42.20    7.80
  -3  -2  -4   50.59    9.40
  -3  -2  -4   45.30    9.30
  -3  -2  -4   51.49    8.90
  -3  -2  -4   41.60    9.20
   3   2   4   49.50    9.20
   3   2   4   52.29    9.50
   3   2   4   41.70    9.10
   3   2   4   48.90   10.70
   3   2   4   31.20    8.50
  -4  -2  -4  289.47   45.90
  -4  -2  -4  279.67   46.20
  -4  -2  -4  231.68   45.20
  -4  -2  -4  266.27   46.40
   4   2   4  281.17   45.90
   4   2   4  256.77   46.10
   4   2   4  256.87   46.10
   4   2   4  298.77   46.70
   4   2   4  274.67   45.90
  -5  -2  -4   70.39   21.40
  -5  -2  -4  118.49   20.10
  -5  -2  -4  132.79   21.00
   5   2   4   83.59   20.70
   5   2   4  103.49   20.90
   5   2   4  151.68   23.30
   5   2   4  142.59   21.30
  -6  -2  -4  178.28   26.90
  -6  -2  -4  151.58   25.90
  -6  -2  -4   65.89   27.10
   6   2   4  123.29   26.30
   6   2   4  196.58   27.30
   6   2   4  145.09   26.70
  -7  -2  -4   30.40   12.60
   7   2   4   17.10   12.60
   7   2   4    8.40   13.30
   7   2   4   26.50   13.40
   8  -3  -4   52.99   12.50
   8  -3  -4   30.20   12.50
   8  -3  -4   57.79   12.10
   8  -3  -4   19.10    8.90
  -8   3   4   10.10   11.90
  -8   3   4   26.10   15.90
  -8   3   4   26.70   11.70
   7  -3  -4  201.38   38.70
   7  -3  -4  216.58   38.00
   7  -3  -4  257.37   39.50
  -7   3   4  234.48   38.30
  -7   3   4  247.78   40.30
  -7   3   4  181.18   38.90
   6  -3  -4 1977.70  321.87
   6  -3  -4 1961.30  321.87
   6  -3  -4 1885.61  321.37
   6  -3  -4 1958.90  322.17
   6  -3  -4 1878.31  321.77
  -6   3   4 1879.71  321.37
  -6   3   4 1926.81  321.77
  -6   3   4 1833.62  321.87
   5  -3  -4   89.69   18.10
   5  -3  -4   82.99   18.10
   5  -3  -4  104.29   18.50
   5  -3  -4  122.79   19.10
   5  -3  -4   95.39   19.60
   5  -3  -4   97.69   17.40
  -5   3   4  111.59   18.40
  -5   3   4  103.89   17.50
  -5   3   4  109.49   18.90
  -5   3   4  117.09   18.80
  -5   3   4  104.09   18.60
  -5   3   4   91.69   18.80
   4  -3  -4   57.29   10.30
   4  -3  -4   77.09   11.60
   4  -3  -4   79.49   12.50
   4  -3  -4   55.69   11.40
   4  -3  -4   50.59   11.70
   4  -3  -4   55.09   11.20
  -4   3   4   69.99   11.70
  -4   3   4   53.89   11.40
  -4   3   4   59.89   11.20
  -4   3   4   50.09   11.40
  -4   3   4   70.89   12.10
   3  -3  -4  500.55   89.89
   3  -3  -4  556.24   89.79
   3  -3  -4  514.05   89.69
   3  -3  -4  540.25   89.79
   3  -3  -4  520.75   89.79
  -3   3   4  514.75   89.79
  -3   3   4  554.64   89.79
  -3   3   4  547.85   89.89
  -3   3   4  530.05   89.89
  -3   3   4  538.75   89.79
   2  -3  -4  116.99   22.50
   2  -3  -4  119.99   22.30
   2  -3  -4  126.69   22.70
   2  -3  -4  156.68   22.60
  -2   3   4  129.89   22.50
  -2   3   4  136.49   22.50
  -2   3   4  118.09   22.30
  -2   3   4  132.99   22.60
  -2   3   4  140.99   22.60
   1  -3  -4 2162.98  356.06
   1  -3  -4 2170.58  356.16
   1  -3  -4 2081.89  356.16
   1  -3  -4 2103.39  356.16
   1  -3  -4 2107.09  356.06
   1  -3  -4 2172.98  356.16
  -1   3   4 2044.90  356.06
  -1   3   4 2162.08  356.16
  -1   3   4 2024.00  356.16
  -1   3   4 2162.08  356.06
  -1   3   4 2035.60  356.16
  -1   3   4 2189.48  356.16
   0  -3  -4 1837.02  298.37
   0  -3  -4 1808.32  298.47
   0  -3  -4 1794.12  298.47
   0  -3  -4 1703.93  298.37
   0  -3  -4 1816.62  298.47
   0   3   4 1724.13  298.17
   0   3   4 1871.61  298.67
   0   3   4 1757.02  298.47
   0   3   4 1691.83  298.47
   0   3   4 1747.33  298.47
   0   3   4 1787.92  298.37
  -1  -3  -4  300.47   47.70
  -1  -3  -4  277.37   47.70
  -1  -3  -4  294.57   47.80
  -1  -3  -4  285.27   47.80
  -1  -3  -4  302.47   47.80
   1   3   4  277.57   47.70
   1   3   4  269.87   47.80
   1   3   4  270.37   47.80
   1   3   4  270.47   47.70
   1   3   4  261.87   47.80
  -2  -3  -4  252.67   44.30
  -2  -3  -4  253.17   44.20
  -2  -3  -4  247.28   44.30
  -2  -3  -4  268.37   44.30
  -2  -3  -4  237.38   44.30
   2   3   4  276.67   44.10
   2   3   4  265.37   44.30
   2   3   4  270.07   44.20
   2   3   4  253.27   44.40
  -3  -3  -4  111.69   20.80
  -3  -3  -4  138.19   22.10
  -3  -3  -4  110.39   21.90
  -3  -3  -4  123.09   21.80
  -3  -3  -4  139.89   22.10
  -3  -3  -4  105.59   21.90
   3   3   4  119.49   21.90
   3   3   4  225.18   27.40
   3   3   4  150.98   22.40
   3   3   4  101.09   21.50
   3   3   4  155.58   22.00
  -4  -3  -4   35.80    7.50
  -4  -3  -4   25.00    9.90
  -4  -3  -4   45.80    9.20
  -4  -3  -4   29.60   10.60
   4   3   4   45.50   11.60
   4   3   4   34.50    9.30
   4   3   4   51.59   10.20
   4   3   4   42.90    9.30
  -5  -3  -4   24.10    6.20
  -5  -3  -4   11.80   10.10
  -5  -3  -4   13.60    8.10
   5   3   4   11.40    8.30
   5   3   4    9.00    8.40
   5   3   4   25.60   14.90
   5   3   4   17.00    8.30
  -6  -3  -4    1.90    8.10
  -6  -3  -4    7.40    9.70
  -6  -3  -4    8.40   12.80
   6   3   4   -2.70    8.60
   6   3   4   12.20   10.00
   6   3   4   -2.40    9.40
   8  -4  -4   -3.30   11.00
   8  -4  -4   -0.40   10.00
   8  -4  -4   -6.40    6.70
   8  -4  -4   10.20   10.90
  -8   4   4   -2.20   15.10
  -8   4   4    3.10   11.40
  -8   4   4  -15.00    9.40
   7  -4  -4    7.10    8.30
   7  -4  -4    2.20    4.90
   7  -4  -4    2.00    7.90
   7  -4  -4   15.40    8.30
  -7   4   4   -2.80   11.60
  -7   4   4    3.70    8.70
  -7   4   4    8.30    6.30
   6  -4  -4  408.76   68.79
   6  -4  -4  396.36   68.59
   6  -4  -4  405.56   67.69
   6  -4  -4  428.86   68.49
  -6   4   4  390.66   67.79
  -6   4   4  400.56   68.59
  -6   4   4  375.56   68.79
  -6   4   4  403.86   69.39
   5  -4  -4   10.50    3.10
   5  -4  -4   13.30    7.70
   5  -4  -4    1.00    5.20
   5  -4  -4   15.60    5.90
   5  -4  -4   15.50    6.10
   5  -4  -4    4.30   10.80
  -5   4   4   20.60    7.70
  -5   4   4   13.40    6.60
  -5   4   4   13.20    5.60
  -5   4   4    8.70    6.30
   4  -4  -4  318.07   51.89
   4  -4  -4  316.37   51.79
   4  -4  -4  283.97   51.59
   4  -4  -4  304.17   51.99
   4  -4  -4  295.27   52.19
  -4   4   4  325.07   52.19
  -4   4   4  308.27   51.79
  -4   4   4  307.17   51.99
  -4   4   4  269.07   51.69
  -4   4   4  312.27   51.99
   3  -4  -4  606.84  100.69
   3  -4  -4  631.34  100.59
   3  -4  -4  557.54  100.49
   3  -4  -4  586.34  100.59
   3  -4  -4  593.84  100.39
  -3   4   4  603.04  100.59
  -3   4   4  579.24  100.59
  -3   4   4  599.74  100.69
  -3   4   4  591.64  100.49
  -3   4   4  607.34  100.49
   2  -4  -4    4.70    3.80
   2  -4  -4   -4.40    3.00
   2  -4  -4    1.60    3.50
   2  -4  -4   -3.10    3.80
   2  -4  -4    1.00    2.60
   2  -4  -4    0.80    1.40
  -2   4   4    2.60    2.90
  -2   4   4    3.90    3.50
  -2   4   4   -3.70    3.80
  -2   4   4    5.50    3.70
  -2   4   4   -1.90    2.60
   1  -4  -4 1430.76  232.98
   1  -4  -4 1326.47  232.78
   1  -4  -4 1352.36  232.98
   1  -4  -4 1400.16  232.98
   1  -4  -4 1324.87  232.98
   1  -4  -4 1413.26  232.78
  -1   4   4 1393.26  232.98
  -1   4   4 1388.46  232.98
  -1   4   4 1481.15  232.98
  -1   4   4 1356.06  232.98
  -1   4   4 1399.66  232.78
  -1   4   4 1351.56  232.78
   0  -4  -4    3.30    3.50
   0  -4  -4    0.40    3.60
   0  -4  -4    5.40    1.40
   0  -4  -4    3.90    3.90
   0  -4  -4    1.40    3.60
   0  -4  -4    1.90    3.50
   0   4   4    1.50    3.70
   0   4   4   -0.40    2.50
   0   4   4    2.20    3.20
   0   4   4    3.40    4.70
   0   4   4    2.60    1.40
   0   4   4    5.10    3.00
  -1  -4  -4  594.34  101.69
  -1  -4  -4  565.54  101.89
  -1  -4  -4  629.64  101.79
  -1  -4  -4  589.24  101.89
  -1  -4  -4  638.84  101.89
   1   4   4  576.74  101.89
   1   4   4  620.84  101.79
   1   4   4  606.94  101.69
   1   4   4  593.84  101.99
   1   4   4  611.04  101.89
  -2  -4  -4  227.28   41.30
  -2  -4  -4  216.98   42.00
  -2  -4  -4  233.18   41.20
  -2  -4  -4  240.58   41.70
  -2  -4  -4  248.78   41.40
   2   4   4  249.88   41.60
   2   4   4  240.68   41.20
   2   4   4  247.08   41.70
   2   4   4  213.68   41.30
   2   4   4  277.87   41.20
  -3  -4  -4  381.46   68.29
  -3  -4  -4  339.67   67.39
  -3  -4  -4  389.26   67.49
  -3  -4  -4  446.36   67.39
   3   4   4  407.06   67.39
   3   4   4  396.56   67.19
   3   4   4  439.56   67.19
   3   4   4  370.86   68.39
   3   4   4  338.17   67.69
  -4  -4  -4   24.20    7.70
  -4  -4  -4   18.30    4.60
  -4  -4  -4    6.30    8.80
   4   4   4   17.80    7.40
   4   4   4   16.30    7.30
   4   4   4    4.90   11.80
   4   4   4   19.40    7.40
  -5  -4  -4    7.70   12.20
  -5  -4  -4   42.80   10.60
  -5  -4  -4   31.40    9.70
   5   4   4   49.10   11.00
   5   4   4   15.90   10.30
   5   4   4   31.10   10.50
  -6  -4  -4    8.50   13.70
  -6  -4  -4   -5.20    8.10
  -6  -4  -4   21.20   11.40
   6   4   4    1.00   15.60
   6   4   4   -0.30   14.20
   6   4   4    6.20   11.40
   8  -5  -4    7.30   11.40
   8  -5  -4   15.80   11.70
   8  -5  -4    8.30   11.30
   8  -5  -4    5.70    6.70
  -8   5   4   11.60   12.30
  -8   5   4   -6.50   20.10
   7  -5  -4   23.60    9.20
   7  -5  -4   19.70    9.60
   7  -5  -4   18.30    8.90
  -7   5   4   12.50   10.20
  -7   5   4    9.90    8.70
   6  -5  -4   32.10    8.50
   6  -5  -4   17.80    4.70
   6  -5  -4   13.60    7.80
   6  -5  -4    0.70   12.10
  -6   5   4   14.80   10.80
  -6   5   4   23.90    8.20
  -6   5   4   21.60    9.30
   5  -5  -4   -8.40    9.90
   5  -5  -4   -3.40    5.40
   5  -5  -4    3.30    5.30
   5  -5  -4   -2.30    5.70
   5  -5  -4    1.20    2.10
  -5   5   4   -1.70    5.50
  -5   5   4    0.70    7.40
  -5   5   4    2.70    6.40
  -5   5   4   -0.80    7.20
   4  -5  -4  756.22  131.59
   4  -5  -4  797.82  131.39
   4  -5  -4  743.03  131.49
   4  -5  -4  781.32  131.19
   4  -5  -4  844.12  131.39
   4  -5  -4  762.72  130.69
  -4   5   4  767.52  131.39
  -4   5   4  770.72  131.29
  -4   5   4  739.23  131.49
  -4   5   4  824.62  131.59
  -4   5   4  778.22  131.39
   3  -5  -4   99.39   17.20
   3  -5  -4   90.79   18.20
   3  -5  -4  110.69   17.80
   3  -5  -4   92.59   17.20
   3  -5  -4   95.69   18.00
   3  -5  -4   99.99   18.50
   3  -5  -4  100.09   18.00
  -3   5   4  125.89   18.60
  -3   5   4   93.99   17.80
  -3   5   4  108.59   18.30
  -3   5   4  126.29   18.40
  -3   5   4  113.49   18.20
   2  -5  -4   82.39   18.10
   2  -5  -4  123.39   18.30
   2  -5  -4   95.79   17.70
   2  -5  -4   93.09   17.50
   2  -5  -4  101.79   18.20
  -2   5   4  130.29   18.60
  -2   5   4  108.59   18.00
  -2   5   4   97.49   17.70
  -2   5   4  111.59   18.40
  -2   5   4   93.59   18.20
   1  -5  -4  107.49   17.80
   1  -5  -4  101.69   17.80
   1  -5  -4   98.09   18.20
   1  -5  -4   89.39   18.30
   1  -5  -4  126.19   18.60
   1  -5  -4  107.29   18.20
  -1   5   4   91.59   18.30
  -1   5   4  106.09   18.30
  -1   5   4  118.99   18.90
  -1   5   4   89.79   17.70
  -1   5   4  123.69   18.70
  -1   5   4  102.19   17.80
   0  -5  -4  123.79   22.00
   0  -5  -4  144.29   23.00
   0  -5  -4  134.59   23.20
   0  -5  -4  129.69   22.90
   0  -5  -4  131.79   22.70
   0  -5  -4  116.39   22.40
   0   5   4  127.49   22.70
   0   5   4  124.79   22.00
   0   5   4  144.39   22.90
   0   5   4  142.29   22.50
   0   5   4  115.59   22.80
   0   5   4  160.98   23.20
  -1  -5  -4    8.20    5.70
  -1  -5  -4    0.20    4.40
  -1  -5  -4    4.70    4.30
  -1  -5  -4    2.40    5.00
   1   5   4    6.50    5.80
   1   5   4    3.90    4.20
   1   5   4    9.40    6.10
   1   5   4   -1.00    4.40
   1   5   4    2.10    3.90
  -2  -5  -4 1286.47  210.48
  -2  -5  -4 1281.87  210.28
  -2  -5  -4 1273.07  210.28
  -2  -5  -4 1160.18  210.28
  -2  -5  -4 1260.37  210.38
   2   5   4 1208.68  210.38
   2   5   4 1184.18  210.48
   2   5   4 1202.28  210.38
   2   5   4 1277.57  210.28
   2   5   4 1339.17  210.28
  -3  -5  -4  138.49   23.30
  -3  -5  -4  127.39   24.00
   3   5   4  115.49   23.50
   3   5   4  164.48   25.20
   3   5   4  106.39   23.20
   3   5   4  143.99   23.50
  -4  -5  -4   15.50    3.60
  -4  -5  -4   15.30    3.60
  -4  -5  -4    7.00    9.10
  -4  -5  -4   10.40    8.20
   4   5   4   29.30    8.10
   4   5   4   19.20    8.00
   4   5   4    6.70    8.40
  -5  -5  -4   32.00    7.30
  -5  -5  -4   10.70   12.60
  -5  -5  -4   33.50    7.10
  -5  -5  -4   30.50   11.80
   5   5   4   51.29   11.80
   5   5   4   43.10   11.40
   5   5   4   25.70   11.20
  -6  -5  -4   -0.60    6.40
  -6  -5  -4   10.90   12.90
   6   5   4  -10.10   12.00
   6   5   4    1.60   12.50
   8  -6  -4   -3.50    6.30
   8  -6  -4    0.40   11.40
   8  -6  -4   -0.80   10.90
   8  -6  -4    7.80   12.20
  -8   6   4  -13.00   16.40
  -8   6   4   -5.70   11.70
   7  -6  -4    8.40    8.60
   7  -6  -4    5.50    4.60
   7  -6  -4    4.40    9.20
   7  -6  -4    0.70    8.90
  -7   6   4    1.70   10.40
  -7   6   4   -4.80    9.60
   6  -6  -4   22.00    8.50
   6  -6  -4   29.20    8.90
   6  -6  -4   23.00    4.80
   6  -6  -4   21.50    8.70
  -6   6   4    8.40    8.30
  -6   6   4    8.90    9.10
   5  -6  -4   28.70    9.60
   5  -6  -4   42.50    7.50
   5  -6  -4   41.10    7.40
   5  -6  -4   57.79   10.00
   5  -6  -4   32.30    9.50
  -5   6   4   58.09   11.50
  -5   6   4   19.30   17.10
   4  -6  -4    5.50    5.60
   4  -6  -4   14.10    5.50
   4  -6  -4    9.10    9.60
   4  -6  -4    8.50    5.90
   4  -6  -4   11.70    2.80
   4  -6  -4   10.10    2.60
   4  -6  -4   18.80    8.80
  -4   6   4    9.50    7.70
  -4   6   4   25.10    6.90
  -4   6   4    4.40    5.50
  -4   6   4    2.60    7.60
  -4   6   4   22.50    6.30
   3  -6  -4    1.30    4.00
   3  -6  -4    2.10    4.50
   3  -6  -4   -4.70    4.60
   3  -6  -4    2.60    2.20
   3  -6  -4    2.80    2.20
   3  -6  -4   -2.90    6.90
   3  -6  -4   -2.80    6.60
  -3   6   4    5.00    6.40
  -3   6   4    0.30    6.10
  -3   6   4   -2.50    4.70
  -3   6   4   -1.50    5.80
  -3   6   4   -5.90    4.50
   2  -6  -4    6.00    2.90
   2  -6  -4    4.50    6.10
   2  -6  -4    0.60    4.60
   2  -6  -4    5.30    4.60
   2  -6  -4    2.70    3.40
  -2   6   4   -2.10    6.30
  -2   6   4    3.90    3.70
  -2   6   4    0.80    5.50
  -2   6   4    3.00    5.10
  -2   6   4    8.70    4.50
   1  -6  -4   -2.80    2.60
   1  -6  -4   -1.20    3.40
   1  -6  -4    6.00    4.40
   1  -6  -4    1.60    4.80
   1  -6  -4    0.50    5.80
  -1   6   4    2.00    5.00
  -1   6   4    3.70    6.60
  -1   6   4   -0.50    5.60
  -1   6   4    2.70    2.90
  -1   6   4   -4.80    4.20
  -1   6   4   -0.90    3.20
   0  -6  -4  144.79   26.40
   0  -6  -4  137.49   26.60
   0  -6  -4  152.78   26.00
   0  -6  -4  139.29   25.40
   0  -6  -4  176.58   26.50
   0  -6  -4  146.89   26.10
   0   6   4  166.68   26.90
   0   6   4  174.78   26.10
   0   6   4  159.88   26.30
   0   6   4  145.39   26.30
   0   6   4  158.38   27.20
   0   6   4  138.99   25.40
  -1  -6  -4   30.20    7.30
  -1  -6  -4   13.60    7.70
  -1  -6  -4   22.60    7.30
  -1  -6  -4   22.40    8.30
   1   6   4   20.70    6.60
   1   6   4   36.40    8.90
   1   6   4   53.99    8.10
   1   6   4   18.90    9.00
   1   6   4   22.80    7.30
  -2  -6  -4  458.95   78.69
  -2  -6  -4  502.55   77.89
  -2  -6  -4  413.96   77.89
   2   6   4  466.65   78.79
   2   6   4  479.85   78.19
   2   6   4  415.66   77.69
   2   6   4  462.75   78.09
  -3  -6  -4   37.10   11.90
  -3  -6  -4   28.30   11.30
   3   6   4   45.00   10.50
   3   6   4   49.20   15.60
   3   6   4   46.60   11.40
   3   6   4   54.39   10.80
  -4  -6  -4   23.00    9.50
  -4  -6  -4   -2.60   10.20
   4   6   4   21.40    9.30
   4   6   4   22.60    9.50
   4   6   4    6.60    9.10
  -5  -6  -4  -17.70   12.50
  -5  -6  -4   12.80   11.50
   5   6   4   -6.70   14.90
   5   6   4    7.90   15.80
   8  -7  -4   -8.50   12.30
   8  -7  -4   -2.60   13.10
   8  -7  -4   -9.80   12.50
  -8   7   4  -13.30   11.80
  -8   7   4    6.80   19.20
   7  -7  -4   67.69   11.40
   7  -7  -4   67.09   15.30
   7  -7  -4   42.80   14.90
   7  -7  -4   65.59   14.70
  -7   7   4   61.49   15.70
  -7   7   4   43.00   15.10
   6  -7  -4    4.40    8.50
   6  -7  -4    3.40    8.50
   6  -7  -4   -0.40    3.20
   6  -7  -4   -1.90    3.50
   6  -7  -4   10.10    7.90
  -6   7   4   -3.20    8.00
  -6   7   4   11.10   12.40
   5  -7  -4    6.20    7.30
   5  -7  -4   14.60    3.70
   5  -7  -4    4.20    7.30
   5  -7  -4   18.80    3.90
   5  -7  -4   21.00   10.60
  -5   7   4   26.40    7.80
  -5   7   4    7.50   11.40
   4  -7  -4  148.19   24.00
   4  -7  -4  169.08   23.60
   4  -7  -4  131.19   23.70
   4  -7  -4  121.49   22.40
   4  -7  -4  120.79   22.30
  -4   7   4  162.48   24.00
  -4   7   4  104.49   24.20
  -4   7   4  113.99   23.40
  -4   7   4  157.88   24.50
   3  -7  -4   34.70    8.60
   3  -7  -4   37.30   11.10
   3  -7  -4   33.60    6.80
   3  -7  -4   28.70    7.70
  -3   7   4   41.00    8.90
  -3   7   4   41.10    8.40
  -3   7   4   42.40   10.30
  -3   7   4   30.00    9.20
   2  -7  -4  507.25   82.39
   2  -7  -4  491.25   82.89
   2  -7  -4  455.05   83.19
   2  -7  -4  436.46   83.39
   2  -7  -4  505.65   82.89
   2  -7  -4  500.95   82.39
  -2   7   4  492.35   82.49
  -2   7   4  477.55   82.99
  -2   7   4  489.75   82.79
  -2   7   4  503.35   83.29
  -2   7   4  458.25   83.29
   1  -7  -4  706.53  113.79
   1  -7  -4  676.23  114.09
   1  -7  -4  675.73  113.39
   1  -7  -4  659.33  113.79
   1  -7  -4  639.34  113.99
   1  -7  -4  710.83  113.29
  -1   7   4  656.23  113.29
  -1   7   4  666.53  113.79
  -1   7   4  661.93  113.39
  -1   7   4  634.54  114.09
  -1   7   4  680.93  113.89
  -1   7   4  673.83  113.99
   0  -7  -4  568.94   97.19
   0  -7  -4  581.74   96.79
   0  -7  -4  607.24   97.59
   0  -7  -4  574.74   97.89
   0  -7  -4  563.04   97.49
   0   7   4  555.64   97.99
   0   7   4  595.84   97.59
   0   7   4  565.84   97.09
   0   7   4  564.24   97.49
   0   7   4  566.44   96.79
  -1  -7  -4    0.50    6.70
  -1  -7  -4   10.30    9.20
  -1  -7  -4    1.80    5.90
  -1  -7  -4    0.60    7.00
   1   7   4   16.30   11.60
   1   7   4    2.60    7.30
   1   7   4    1.00    5.30
  -2  -7  -4   78.99   15.10
  -2  -7  -4   39.90   17.00
   2   7   4   67.69   14.70
   2   7   4   44.90   17.10
   2   7   4   83.19   14.40
   2   7   4   80.99   17.50
  -3  -7  -4   30.10   10.10
  -3  -7  -4   37.20   11.80
   3   7   4   36.70   10.10
   3   7   4   11.70    9.90
   3   7   4   30.30    9.80
  -4  -7  -4   25.90   11.60
  -4  -7  -4    5.80   13.30
   4   7   4   42.70   11.20
   4   7   4   41.40   11.80
   4   7   4   32.70   12.60
   7  -8  -4    0.10    4.10
   7  -8  -4    7.40   11.70
   7  -8  -4    4.30    5.00
   7  -8  -4  -10.80   11.70
   7  -8  -4    1.40   10.80
  -7   8   4  -12.90   12.20
  -7   8   4  -11.70   18.40
   6  -8  -4   17.30    4.30
   6  -8  -4    9.60    4.70
   6  -8  -4   26.80    9.20
   6  -8  -4   10.20    9.70
   6  -8  -4   18.10   10.00
  -6   8   4   25.90   10.60
  -6   8   4   19.00   14.40
   5  -8  -4  155.48   25.20
   5  -8  -4  144.59   23.30
   5  -8  -4   89.49   24.60
   5  -8  -4  144.59   24.60
   5  -8  -4  133.79   23.10
  -5   8   4  117.59   26.70
  -5   8   4  158.88   25.50
   4  -8  -4    3.80    3.30
   4  -8  -4   -0.10    7.00
   4  -8  -4    0.20    3.70
   4  -8  -4   -6.20    5.80
   4  -8  -4    6.80    7.40
  -4   8   4    2.60    6.60
  -4   8   4   -4.70   11.00
   3  -8  -4  124.59   20.30
   3  -8  -4  118.29   19.60
  -3   8   4   89.99   20.40
  -3   8   4  116.69   20.20
  -3   8   4   96.79   20.30
  -3   8   4   86.49   21.80
   2  -8  -4   50.09   10.90
   2  -8  -4   51.99    9.70
   2  -8  -4   58.89   11.40
   2  -8  -4   42.90    9.60
  -2   8   4   28.90   15.00
  -2   8   4   50.89   10.10
  -2   8   4   39.70   13.50
  -2   8   4   40.70   12.40
   1  -8  -4  152.58   29.10
   1  -8  -4  165.58   28.70
   1  -8  -4  187.08   28.80
   1  -8  -4  148.79   29.10
  -1   8   4  180.28   28.40
  -1   8   4  158.88   30.40
  -1   8   4  181.38   29.50
  -1   8   4  122.59   29.80
   0  -8  -4  221.38   32.20
   0  -8  -4  179.48   31.30
   0  -8  -4  152.48   32.20
   0  -8  -4  181.28   32.50
   0   8   4  168.78   32.40
   0   8   4  217.58   32.00
   0   8   4  157.28   32.20
   0   8   4  210.78   34.10
  -1  -8  -4    3.80    6.90
  -1  -8  -4   -0.40    8.90
   1   8   4   11.50    8.30
   1   8   4    4.70    6.80
   1   8   4   12.00    7.60
  -2  -8  -4   13.60    8.50
  -2  -8  -4    8.40   10.30
   2   8   4    8.60    8.90
   2   8   4   13.40    8.50
   2   8   4   30.70    9.10
  -3  -8  -4    6.10   10.00
  -3  -8  -4    2.90   11.20
   3   8   4   -9.20   10.10
   3   8   4   -6.70    9.50
   3   8   4    4.30    9.40
  -4  -8  -4   15.40   14.80
  -4  -8  -4    3.30   12.20
   4   8   4    0.20   13.30
   4   8   4    4.70   11.90
   4   8   4   15.80   13.40
   7  -9  -4   10.30   13.00
   7  -9  -4    7.00   13.80
   7  -9  -4   18.70   12.20
  -7   9   4   33.80   14.60
  -7   9   4   31.30   19.50
   6  -9  -4    3.10   10.80
   6  -9  -4    5.30    3.90
   6  -9  -4   -9.40   11.00
   6  -9  -4   -9.70    9.00
  -6   9   4   25.10   16.50
  -6   9   4    4.10   11.60
   5  -9  -4    6.90    8.40
   5  -9  -4    8.20   10.10
   5  -9  -4   10.90    4.80
   5  -9  -4   11.50    9.60
   5  -9  -4   10.90    4.20
  -5   9   4    3.40   14.00
  -5   9   4    9.30   10.20
   4  -9  -4    6.50    4.40
   4  -9  -4   -6.50    8.70
   4  -9  -4    7.30    8.50
   4  -9  -4   13.70    9.10
  -4   9   4    7.90   12.80
  -4   9   4   -1.10    8.00
   3  -9  -4   -3.20    6.30
   3  -9  -4    3.10    7.80
   3  -9  -4    2.80    5.20
  -3   9   4   -0.20   11.60
  -3   9   4   -2.50    7.20
  -3   9   4   -7.00    7.90
   2  -9  -4   89.99   16.70
   2  -9  -4   66.49   17.40
   2  -9  -4  104.19   16.50
   2  -9  -4   86.39   17.80
  -2   9   4   94.69   17.70
  -2   9   4   91.39   16.80
  -2   9   4   82.99   18.40
   1  -9  -4   -2.30    4.70
   1  -9  -4  -14.60    7.60
   1  -9  -4    5.00    7.90
   1  -9  -4   -4.70    8.00
  -1   9   4    6.00    7.60
  -1   9   4   -2.20    5.20
  -1   9   4    0.10    8.20
   0  -9  -4   69.69   13.60
   0  -9  -4   99.19   16.10
   0  -9  -4   60.49   16.60
   0   9   4   73.59   15.00
   0   9   4   74.59   16.30
   0   9   4   78.29   15.90
  -1  -9  -4   29.10   12.80
  -1  -9  -4   42.00    7.80
  -1  -9  -4   44.30   11.80
   1   9   4   54.99   11.40
   1   9   4   36.40   11.60
   1   9   4   40.20   12.40
  -2  -9  -4    6.30    9.80
  -2  -9  -4   -7.70   11.50
   2   9   4    4.70   10.10
   2   9   4    9.70    9.80
   2   9   4    5.90    9.80
  -3  -9  -4   13.30   12.20
  -3  -9  -4    5.10   14.00
   3   9   4    0.50   11.40
   3   9   4    0.30   11.60
   3   9   4    9.10   12.20
   6 -10  -4   16.90   11.30
   6 -10  -4   28.70   25.20
   6 -10  -4   17.40   13.70
  -6  10   4   19.30   12.50
  -6  10   4   14.70   20.00
   5 -10  -4    8.40   10.00
   5 -10  -4    3.30    5.10
   5 -10  -4   10.90   11.20
   5 -10  -4    5.00    5.70
   5 -10  -4   11.70   11.00
  -5  10   4   17.20   17.70
  -5  10   4   12.40   11.60
   4 -10  -4   -3.50   10.70
   4 -10  -4   -0.20    9.40
   4 -10  -4    4.10    8.40
   4 -10  -4    3.40    5.40
   4 -10  -4   -6.20    6.10
  -4  10   4    0.20    9.40
  -4  10   4  -11.60   15.00
   3 -10  -4  329.17   56.09
   3 -10  -4  333.97   56.29
   3 -10  -4  270.27   56.39
  -3  10   4  416.56   57.59
   2 -10  -4    4.30    6.70
   2 -10  -4   16.50   10.00
   2 -10  -4   11.60    8.30
   2 -10  -4   13.00    9.20
  -2  10   4    7.50    9.40
  -2  10   4    6.10   10.60
  -2  10   4   -2.90   10.70
   1 -10  -4   10.00    6.50
   1 -10  -4   27.10   10.00
   1 -10  -4    2.00    9.80
   1 -10  -4   20.90    9.80
  -1  10   4   13.50    7.30
  -1  10   4    4.50   10.30
  -1  10   4   15.30    9.60
   0 -10  -4    4.10   10.30
   0 -10  -4    2.00    5.10
   0 -10  -4    2.70    9.70
   0  10   4    4.10    9.20
   0  10   4    3.20   10.70
  -1 -10  -4   13.90   12.90
  -1 -10  -4   31.20   11.80
   1  10   4   13.60   12.50
   1  10   4   21.30   11.70
   1  10   4   28.70   10.90
  -2 -10  -4   31.60   16.80
  -2 -10  -4   51.69   15.30
   2  10   4   52.79   14.70
   2  10   4   34.50   14.20
   2  10   4   58.89   15.90
   5 -11  -4    3.10   11.20
   5 -11  -4   19.50   13.00
   5 -11  -4    8.40    6.40
   5 -11  -4   -4.10   13.10
  -5  11   4  -14.50   20.10
  -5  11   4   -6.60   13.70
   4 -11  -4   31.70   13.30
   4 -11  -4    4.60   10.40
   4 -11  -4   19.60    9.10
   4 -11  -4   10.60   11.90
   4 -11  -4   16.90    7.30
  -4  11   4    2.70   18.30
   3 -11  -4   21.70   11.50
   3 -11  -4   18.70   10.00
   3 -11  -4   20.90   10.20
  -3  11   4   19.40   27.10
  -3  11   4   18.90   11.40
   2 -11  -4   98.39   20.90
   2 -11  -4  104.89   21.50
   2 -11  -4   68.69   21.10
   2 -11  -4  130.99   19.50
  -2  11   4  107.49   21.20
  -2  11   4   88.99   20.30
  -2  11   4   94.59   22.00
   1 -11  -4   83.99   21.20
   1 -11  -4   77.69   20.60
   1 -11  -4   97.79   18.40
  -1  11   4  100.49   20.90
  -1  11   4  129.29   29.50
  -1  11   4  111.09   19.10
   0 -11  -4    2.70   13.70
   0 -11  -4   -1.10   12.20
   0 -11  -4    3.30    7.00
   0  11   4   -8.50   12.20
   0  11   4   -6.00   12.50
   1  11   4   28.90   15.10
   2 -12  -4    8.80   10.30
   0  13  -5   -1.70   18.30
   0  13  -5   -3.60   12.90
   0 -13   5   14.70   11.40
   0 -13   5   -3.10   11.40
   0 -13   5    0.40   12.00
  -1  13  -5   -0.20   13.50
  -1  13  -5   -3.30   18.40
   1 -13   5    5.00   11.60
   1 -13   5   16.40   12.50
   1 -13   5    4.70   10.50
  -2  13  -5   34.60   15.60
  -2  13  -5   -3.10   20.20
   2 -13   5   59.79   15.80
   2 -13   5   57.49   14.40
   2 -13   5   72.69   23.40
  -3  13  -5  -15.80   14.10
   3 -13   5   -3.30   12.90
   3 -13   5   -0.50   12.30
   2  12  -5   11.40   13.20
   2  12  -5   34.50   13.90
  -2 -12   5   13.60   12.20
  -2 -12   5   23.20   12.00
  -2 -12   5   13.30   11.20
   1  12  -5   -2.20   11.20
   1  12  -5   13.90   15.70
  -1 -12   5    1.10    9.50
  -1 -12   5    6.30    9.20
  -1 -12   5    0.90   10.00
   0  12  -5   25.90   17.40
   0  12  -5    5.00   15.90
   0 -12   5   42.40   12.20
   0 -12   5   45.70   12.50
   0 -12   5   63.19   12.30
  -1  12  -5   10.70   10.80
  -1  12  -5    4.40   14.50
   1 -12   5    3.90    9.60
   1 -12   5    8.70   10.00
   1 -12   5    5.10    8.70
  -2  12  -5   15.30   11.40
  -2  12  -5   14.20   13.60
   2 -12   5    6.60   10.50
   2 -12   5    7.50   10.70
  -3  12  -5   10.90   15.10
  -3  12  -5   20.10   12.00
   3 -12   5    8.10   10.90
   3 -12   5   15.70   10.50
   3 -12   5   -0.30   11.00
   3 -12   5    7.60   10.90
  -4  12  -5   37.10   22.70
  -4  12  -5   98.69   21.60
   4 -12   5  102.59   20.40
   4 -12   5   46.20   23.10
   4 -12   5  127.29   20.60
   4 -12   5  135.39   20.80
   3  11  -5   25.80   12.20
   3  11  -5   16.20   12.70
  -3 -11   5   41.30   11.80
  -3 -11   5   36.30   15.60
  -3 -11   5   26.30   13.30
   2  11  -5   -1.50   10.30
  -2 -11   5  -11.80    8.80
  -2 -11   5    2.30    9.30
  -2 -11   5   -8.50    8.90
   1  11  -5  119.99   20.30
   1  11  -5  120.29   20.20
  -1 -11   5  126.39   22.20
  -1 -11   5   79.49   19.20
  -1 -11   5  121.19   19.20
  -1 -11   5   63.39   18.60
   0  11  -5    1.60   11.60
   0  11  -5    6.00    8.60
   0 -11   5   21.50    9.10
   0 -11   5    9.10    8.30
   0 -11   5   16.00   12.40
   0 -11   5    9.20    8.00
  -1  11  -5    4.50   12.50
  -1  11  -5   14.00    8.90
   1 -11   5   32.50    9.40
   1 -11   5    9.40    8.70
   1 -11   5    7.60    7.80
   1 -11   5   14.20   12.50
  -2  11  -5   49.90   15.80
  -2  11  -5   65.89   14.20
   2 -11   5   58.89   16.10
   2 -11   5   53.59   13.10
   2 -11   5   40.80   13.50
   2 -11   5   82.99   14.50
  -3  11  -5    5.70   10.20
   3 -11   5   -5.10    8.50
   3 -11   5   20.60    9.00
   3 -11   5    8.20   14.60
   3 -11   5    3.70    8.70
   3 -11   5    2.50    9.10
  -4  11  -5    7.40   13.60
  -4  11  -5   -1.00   11.00
   4 -11   5   -0.80    9.30
   4 -11   5    4.00    9.70
   4 -11   5    2.50   10.40
   4 -11   5    9.20    9.30
  -5  11  -5   16.90   17.30
  -5  11  -5   25.00   12.80
   5 -11   5   24.70   10.80
   5 -11   5   20.40   18.60
   5 -11   5    9.60   10.70
   5 -11   5   11.20   11.60
   4  10  -5   16.00   12.00
   4  10  -5   27.60   12.80
  -4 -10   5   19.60   11.30
  -4 -10   5   13.10   10.30
   3  10  -5   67.09   16.10
   3  10  -5   98.99   16.80
  -3 -10   5   29.00   15.60
  -3 -10   5   80.49   16.40
  -3 -10   5   95.49   15.50
   2  10  -5   24.60    9.50
   2  10  -5   15.90    9.10
  -2 -10   5   14.30    8.00
  -2 -10   5   10.80    9.10
  -2 -10   5   32.20   11.70
  -2 -10   5   19.80    8.80
   1  10  -5  129.49   19.70
   1  10  -5  124.79   19.60
   1  10  -5  200.28   24.30
  -1 -10   5   72.79   18.40
  -1 -10   5  103.89   18.60
  -1 -10   5  104.19   20.40
  -1 -10   5   65.29   18.30
   0  10  -5    2.30    7.30
   0  10  -5   12.70    8.00
   0  10  -5  -15.30    9.50
   0 -10   5    2.50    6.30
   0 -10   5    2.10    6.50
   0 -10   5    3.50    8.90
   0 -10   5    6.30    7.30
  -1  10  -5  602.04  104.99
  -1  10  -5  579.44  105.09
   1 -10   5  604.84  104.89
   1 -10   5  592.84  105.09
   1 -10   5  670.53  105.49
   1 -10   5  682.93  104.99
  -2  10  -5  213.38   32.30
  -2  10  -5  174.48   31.20
  -2  10  -5  177.58   31.50
   2 -10   5  149.79   31.70
   2 -10   5  174.78   31.20
   2 -10   5  219.98   31.80
   2 -10   5  136.09   31.00
  -3  10  -5   63.99   13.70
  -3  10  -5   74.19   14.20
  -3  10  -5   38.70   14.40
   3 -10   5   48.80   15.00
   3 -10   5   51.89   12.70
   3 -10   5   50.89   13.10
   3 -10   5   75.99   13.20
   3 -10   5   66.49   13.50
  -4  10  -5   31.90   15.30
  -4  10  -5   72.49   14.80
   4 -10   5   73.49   14.00
   4 -10   5   66.49   13.80
   4 -10   5   54.99   14.20
   4 -10   5   97.09   18.20
   4 -10   5   51.09   13.50
  -5  10  -5   -4.30   10.40
  -5  10  -5   -3.70   14.60
   5 -10   5   -2.20    9.10
   5 -10   5    7.90    8.90
   5 -10   5    3.10   10.20
   5 -10   5    1.40   10.60
  -6  10  -5   -0.30   14.60
  -6  10  -5  -13.40   16.40
   6 -10   5    6.90   11.60
   6 -10   5    0.10   10.80
   6 -10   5    5.30   11.00
   6 -10   5  -14.40   12.10
   5   9  -5   17.70   12.10
   5   9  -5   -3.10   11.20
  -5  -9   5   -0.30   13.00
  -5  -9   5    4.50   14.50
  -5  -9   5   -0.10   10.30
   4   9  -5   18.40   10.20
  -4  -9   5   10.30   11.40
  -4  -9   5    0.10    9.20
  -4  -9   5   21.10    8.80
   3   9  -5   -4.30    7.50
   3   9  -5    7.20    7.80
  -3  -9   5   -2.30   10.90
  -3  -9   5   -4.60    7.70
  -3  -9   5   -4.00    6.90
  -3  -9   5   -2.60    8.80
   2   9  -5  267.37   44.60
   2   9  -5  319.27   45.50
   2   9  -5  212.88   44.30
  -2  -9   5  243.78   44.60
  -2  -9   5  244.78   44.60
  -2  -9   5  273.37   44.40
   1   9  -5  745.93  123.49
   1   9  -5  738.83  124.09
   1   9  -5  780.92  123.49
  -1  -9   5  603.24  123.69
  -1  -9   5  765.72  123.59
  -1  -9   5  704.13  123.69
  -1  -9   5  745.83  123.39
   0   9  -5  227.08   43.10
   0   9  -5  286.67   43.60
   0  -9   5  265.17   43.30
   0  -9   5  240.78   43.60
   0  -9   5  263.37   43.30
   0  -9   5  223.88   43.20
   0  -9   5  255.37   43.70
  -1   9  -5  506.35   87.59
  -1   9  -5  540.05   87.69
  -1   9  -5  468.05   87.69
   1  -9   5  525.95   87.49
   1  -9   5  530.15   88.19
   1  -9   5  491.15   87.69
   1  -9   5  535.65   87.79
   1  -9   5  536.65   87.59
  -2   9  -5  220.98   36.30
  -2   9  -5  242.68   36.50
  -2   9  -5  170.18   36.60
   2  -9   5  213.18   36.70
   2  -9   5  222.08   36.60
   2  -9   5  188.08   36.20
   2  -9   5  201.08   38.60
  -3   9  -5  142.09   35.30
  -3   9  -5  200.18   35.00
  -3   9  -5  225.48   35.30
   3  -9   5  200.38   35.40
   3  -9   5  205.78   35.10
   3  -9   5  190.48   34.90
   3  -9   5  215.38   35.10
   3  -9   5  232.38   35.80
  -4   9  -5   13.70    8.90
  -4   9  -5   21.20    9.80
  -4   9  -5    9.90   10.80
   4  -9   5   17.00    7.80
   4  -9   5   14.30    8.20
   4  -9   5   11.30   11.40
   4  -9   5   17.40    7.40
   4  -9   5   15.00    8.20
  -5   9  -5   73.89   21.10
  -5   9  -5   89.59   19.70
   5  -9   5   69.49   18.90
   5  -9   5  147.29   23.00
   5  -9   5  125.79   19.10
   5  -9   5   95.99   19.70
   5  -9   5   94.39   19.00
  -6   9  -5   60.29   20.80
  -6   9  -5  101.79   19.50
   6  -9   5   98.69   18.30
   6  -9   5   73.99   18.40
   6  -9   5   65.99   19.10
   6  -9   5  109.79   18.80
   6   8  -5   -7.60   12.40
   6   8  -5   14.10   11.90
   6   8  -5    1.00   12.60
  -6  -8   5    2.70   12.10
  -6  -8   5   -5.50   10.90
  -6  -8   5    4.60   14.10
   5   8  -5    4.70    9.80
   5   8  -5    1.10    9.80
   5   8  -5    9.00    9.30
  -5  -8   5   -0.30    9.40
  -5  -8   5   -9.00   10.60
  -5  -8   5   -9.60    8.70
   4   8  -5  378.16   59.29
   4   8  -5  316.37   58.99
  -4  -8   5  306.67   59.19
  -4  -8   5  368.16   58.69
  -4  -8   5  334.77   59.19
   3   8  -5   53.19   15.30
   3   8  -5   49.40   12.70
   3   8  -5   70.39   13.10
  -3  -8   5   69.39   14.50
  -3  -8   5   66.79   12.80
  -3  -8   5   61.89   13.20
  -3  -8   5   60.89   13.80
   2   8  -5   15.80    9.10
   2   8  -5   -0.10    5.70
   2   8  -5    0.30    6.20
  -2  -8   5   11.50    8.10
  -2  -8   5    5.20    5.70
  -2  -8   5   14.40    6.90
  -2  -8   5   12.10    5.80
  -2  -8   5    0.60    6.20
   1   8  -5   -0.20    5.70
   1   8  -5    0.30    7.60
   1   8  -5   -2.20    9.70
   1   8  -5   -5.80    4.50
  -1  -8   5   -1.30    5.80
  -1  -8   5   -2.40    4.40
  -1  -8   5   -5.10    4.90
  -1  -8   5   -4.10    4.80
  -1  -8   5    1.30    7.00
  -1  -8   5    3.00    6.10
   0   8  -5  541.35   94.39
   0   8  -5  585.84   94.49
   0   8  -5  511.45   94.39
   0   8  -5  518.35   94.59
   0   8  -5  577.64   94.29
   0  -8   5  554.64   94.39
   0  -8   5  555.24   94.39
   0  -8   5  541.15   94.39
   0  -8   5  575.14   94.69
   0  -8   5  598.24   94.59
   0  -8   5  579.34   94.29
  -1   8  -5  417.36   73.69
  -1   8  -5  466.55   73.69
  -1   8  -5  438.96   73.89
  -1   8  -5  438.76   74.09
  -1   8  -5  421.56   73.89
   1  -8   5  430.56   73.79
   1  -8   5  447.96   73.69
   1  -8   5  442.26   73.79
   1  -8   5  420.36   73.89
   1  -8   5  414.26   74.19
  -2   8  -5  702.03  132.99
  -2   8  -5  774.72  133.19
  -2   8  -5  817.52  133.09
  -2   8  -5  828.32  133.09
  -2   8  -5  794.62  132.99
   2  -8   5  817.52  133.09
   2  -8   5  760.82  133.09
   2  -8   5  802.32  132.99
   2  -8   5  790.82  133.09
   2  -8   5  784.12  133.39
   2  -8   5  800.52  132.99
  -3   8  -5  690.43  115.29
  -3   8  -5  658.23  115.29
  -3   8  -5  654.23  115.19
   3  -8   5  672.03  115.29
   3  -8   5  729.93  115.19
   3  -8   5  720.43  115.19
   3  -8   5  638.64  115.89
   3  -8   5  680.33  115.19
   3  -8   5  675.63  115.39
  -4   8  -5    4.70    7.90
  -4   8  -5    1.80    9.40
  -4   8  -5    0.40    6.60
   4  -8   5   -4.80    5.50
   4  -8   5    0.80    6.10
   4  -8   5    6.60    6.60
   4  -8   5   -7.20    8.80
   4  -8   5   -3.40    7.60
  -5   8  -5   -1.90   10.70
  -5   8  -5   14.60   10.40
  -5   8  -5   10.40    8.60
   5  -8   5   25.70    9.10
   5  -8   5    2.10    7.30
   5  -8   5    3.70   21.60
   5  -8   5   14.10    7.60
   5  -8   5    8.50    8.50
  -6   8  -5   17.10   15.00
  -6   8  -5   64.39   14.70
   6  -8   5   47.60   14.10
   6  -8   5   70.49   13.10
   6  -8   5   35.30   13.90
   6  -8   5   71.59   13.00
  -7   8  -5   -1.00   14.30
  -7   8  -5   -1.10   15.00
   7  -8   5    5.00   11.40
   7  -8   5    5.60   13.40
   7  -8   5   20.70   13.10
   6   7  -5   17.40   11.20
   6   7  -5   20.80   11.20
   6   7  -5    1.20   10.30
  -6  -7   5   -3.00   15.50
  -6  -7   5    7.00   10.60
  -6  -7   5   10.30    9.90
   5   7  -5   -3.60    8.90
   5   7  -5    5.50    8.60
   5   7  -5  -11.50    8.50
  -5  -7   5    4.90    8.30
  -5  -7   5   -0.20    7.40
  -5  -7   5    1.30    8.60
   4   7  -5    6.30    6.80
   4   7  -5    4.80   12.60
   4   7  -5    3.30    6.80
  -4  -7   5   11.10    6.80
  -4  -7   5   11.40    9.70
  -4  -7   5    6.70    6.60
  -4  -7   5   -0.20    7.00
   3   7  -5   76.29   24.30
   3   7  -5  131.79   23.70
   3   7  -5  149.79   23.80
  -3  -7   5  135.59   23.60
  -3  -7   5  134.49   24.20
  -3  -7   5  143.59   24.00
  -3  -7   5  148.29   24.00
  -3  -7   5  135.89   24.60
   2   7  -5   83.49   16.20
   2   7  -5   93.59   15.20
   2   7  -5   96.89   16.40
   2   7  -5   65.09   15.30
  -2  -7   5   92.39   15.60
  -2  -7   5   86.99   15.20
  -2  -7   5   62.29   15.50
  -2  -7   5   85.09   16.10
  -2  -7   5   73.79   15.20
  -2  -7   5   97.59   15.70
   1   7  -5    1.50    4.00
   1   7  -5   10.40    4.90
   1   7  -5   13.20    7.30
   1   7  -5    7.30    6.30
  -1  -7   5    6.60    4.20
  -1  -7   5   14.50    5.70
  -1  -7   5    2.30    5.60
  -1  -7   5   10.30    4.60
  -1  -7   5    0.60    4.30
  -1  -7   5   11.60    5.50
   0   7  -5   71.59   11.60
   0   7  -5   77.09   12.30
   0   7  -5   63.69   11.60
   0   7  -5   51.29   11.80
   0   7  -5   66.89   12.00
   0  -7   5   52.59   11.30
   0  -7   5   62.69   12.10
   0  -7   5   53.59   11.60
   0  -7   5   61.69   11.70
   0  -7   5   67.89   11.70
   0  -7   5   55.39   12.00
  -1   7  -5   48.70    8.80
  -1   7  -5   39.20    8.80
  -1   7  -5   37.00    9.00
  -1   7  -5   57.89    9.80
  -1   7  -5   45.50    9.70
   1  -7   5   34.90    8.90
   1  -7   5   49.90    9.70
   1  -7   5   31.70    8.30
   1  -7   5   54.99    9.00
   1  -7   5   55.19    9.20
  -2   7  -5   21.00    5.60
  -2   7  -5   16.40    5.60
  -2   7  -5   12.40    6.50
  -2   7  -5   19.40    6.90
   2  -7   5   21.60    5.50
   2  -7   5   18.90    6.20
   2  -7   5   16.10    5.90
   2  -7   5   25.60    5.90
   2  -7   5   13.90    5.40
   2  -7   5   19.30    7.70
  -3   7  -5    3.00    6.60
  -3   7  -5    9.90    6.40
  -3   7  -5    2.40    5.20
  -3   7  -5    5.40    7.20
  -3   7  -5    3.90    6.60
   3  -7   5   11.40    5.30
   3  -7   5    4.10    5.00
   3  -7   5    6.50    6.20
   3  -7   5    3.60    5.10
   3  -7   5    4.20   12.30
   3  -7   5   11.10    4.80
  -4   7  -5   33.20   10.00
  -4   7  -5   32.90    8.90
  -4   7  -5   32.80    8.90
   4  -7   5   26.90    9.00
   4  -7   5   32.90    8.00
   4  -7   5   28.00    8.20
   4  -7   5   20.00    9.70
   4  -7   5   27.00   15.20
   4  -7   5   43.70    9.00
  -5   7  -5   12.70    8.80
  -5   7  -5   12.60    9.10
  -5   7  -5   -0.90    7.60
   5  -7   5    7.30    7.10
   5  -7   5    2.80    7.70
   5  -7   5    1.00    6.30
   5  -7   5   13.00    6.80
   5  -7   5   18.60   10.40
  -6   7  -5   -2.60    9.70
  -6   7  -5   14.20   15.90
   6  -7   5   -2.70    9.20
   6  -7   5  -10.50   14.10
   6  -7   5    0.30    7.80
   6  -7   5    7.30    8.50
   6  -7   5   -2.50    9.40
  -7   7  -5   21.00   15.40
  -7   7  -5    7.10   14.20
   7  -7   5   -9.30   11.70
   7  -7   5    8.10   10.50
   7  -7   5  -12.40   14.30
   7  -7   5    6.10   10.30
   7   6  -5   12.80   18.00
   7   6  -5   43.80   14.80
   7   6  -5   37.10   14.50
  -7  -6   5   11.30   15.90
  -7  -6   5   22.80   13.70
   6   6  -5   22.90    9.40
   6   6  -5    4.50    9.80
   6   6  -5   30.90   11.00
  -6  -6   5   19.60   10.70
  -6  -6   5    8.00   11.90
   5   6  -5   -1.40    7.20
   5   6  -5    1.90    7.50
   5   6  -5    2.80    7.00
  -5  -6   5    0.00    9.00
  -5  -6   5    4.60   10.20
  -5  -6   5    4.10    7.40
   4   6  -5   47.90    9.60
   4   6  -5   45.50    9.50
   4   6  -5   42.90    9.70
  -4  -6   5   29.40    9.00
  -4  -6   5   36.40   10.50
  -4  -6   5   41.20    9.50
  -4  -6   5   32.90   10.30
   3   6  -5  405.86   80.29
   3   6  -5  472.75   79.99
   3   6  -5  503.65   80.09
  -3  -6   5  467.35   80.19
  -3  -6   5  426.76   79.99
  -3  -6   5  488.05   80.19
  -3  -6   5  486.95   80.09
  -3  -6   5  519.35   79.99
   2   6  -5   -5.20    3.50
   2   6  -5    2.80    4.10
   2   6  -5   -2.00    5.30
   2   6  -5   -3.90    5.30
  -2  -6   5    5.20    4.30
  -2  -6   5    3.60    3.80
  -2  -6   5    6.70    4.90
  -2  -6   5    0.30    4.90
  -2  -6   5    0.50    3.80
  -2  -6   5    3.90    4.80
   1   6  -5  307.67   50.79
   1   6  -5  309.47   50.59
   1   6  -5  308.97   50.69
   1   6  -5  295.77   50.49
  -1  -6   5  331.57   50.79
  -1  -6   5  264.17   50.59
  -1  -6   5  290.07   50.69
  -1  -6   5  306.27   50.59
  -1  -6   5  304.07   50.59
  -1  -6   5  257.57   50.49
   0   6  -5  736.03  131.69
   0   6  -5  776.02  131.79
   0   6  -5  758.42  131.69
   0   6  -5  786.12  131.69
   0  -6   5  778.62  131.69
   0  -6   5  784.52  131.79
   0  -6   5  831.02  131.69
   0  -6   5  758.02  131.79
   0  -6   5  828.82  131.79
  -1   6  -5   11.90    4.40
  -1   6  -5   15.10    5.00
  -1   6  -5   16.30    3.90
  -1   6  -5   13.10    5.00
  -1   6  -5    7.70    3.40
   1  -6   5    5.90    3.90
   1  -6   5    1.00    3.50
   1  -6   5   13.90    4.10
   1  -6   5    9.90    4.80
  -2   6  -5  246.58   44.00
  -2   6  -5  247.28   44.10
  -2   6  -5  276.97   44.10
  -2   6  -5  275.57   44.20
  -2   6  -5  263.87   44.10
   2  -6   5  236.98   44.10
   2  -6   5  266.87   44.10
   2  -6   5  265.97   44.50
   2  -6   5  246.28   44.00
   2  -6   5  244.58   44.10
   2  -6   5  265.97   44.00
  -3   6  -5   90.19   19.70
  -3   6  -5  123.39   20.10
  -3   6  -5  113.49   19.50
  -3   6  -5  109.49   19.50
  -3   6  -5  128.19   19.90
   3  -6   5  100.79   20.20
   3  -6   5  120.59   19.80
   3  -6   5  111.69   19.70
   3  -6   5  113.49   19.50
   3  -6   5  113.19   19.70
   3  -6   5   94.39   19.40
  -4   6  -5    7.70    6.10
  -4   6  -5    7.00    7.10
  -4   6  -5    2.60    7.50
  -4   6  -5   -4.80    5.60
   4  -6   5    7.80    5.10
   4  -6   5    4.80    4.90
   4  -6   5   13.60    9.70
   4  -6   5    5.70    5.30
   4  -6   5    3.70    5.70
   4  -6   5   -2.30    6.70
  -5   6  -5    6.80   13.50
  -5   6  -5   10.90    8.10
  -5   6  -5    8.90    7.60
   5  -6   5    5.90    6.20
   5  -6   5   11.40    9.10
   5  -6   5   -3.80    9.50
   5  -6   5   22.50    7.10
   5  -6   5    5.20    6.20
  -6   6  -5   89.39   16.50
  -6   6  -5   69.09   16.20
   6  -6   5   64.19   15.20
   6  -6   5   60.89   15.80
   6  -6   5   87.99   15.20
   6  -6   5   48.70   18.60
   6  -6   5   71.99   15.30
  -7   6  -5    2.20   12.70
  -7   6  -5   -7.30   15.40
   7  -6   5   14.00   11.00
   7  -6   5   -2.30   17.40
   7  -6   5   11.50   11.90
   7  -6   5   12.30   10.00
   7   5  -5    8.50   11.30
   7   5  -5   23.20   12.70
   7   5  -5   15.50   10.70
  -7  -5   5   -0.30   11.00
   6   5  -5   21.90   10.00
   6   5  -5   31.70   10.10
   6   5  -5   21.70    9.20
  -6  -5   5    9.50   10.10
   5   5  -5   13.40   13.10
   5   5  -5   20.10    7.60
   5   5  -5   21.40    7.90
   5   5  -5    4.10    6.80
  -5  -5   5   19.10    8.50
  -5  -5   5   11.80    8.70
   4   5  -5   46.70   11.30
   4   5  -5   52.09   11.50
   4   5  -5   48.40   11.60
   4   5  -5   47.10   13.80
   4   5  -5   58.29   12.80
  -4  -5   5   58.99   12.10
  -4  -5   5   79.49   12.20
  -4  -5   5   85.39   12.50
  -4  -5   5   60.29   12.90
   3   5  -5    4.60    5.60
   3   5  -5    1.60    4.00
   3   5  -5   -3.30    3.80
   3   5  -5   -8.00    6.20
  -3  -5   5   -0.30    4.70
  -3  -5   5    1.40    3.70
  -3  -5   5   -4.90    4.70
  -3  -5   5    3.70    5.00
  -3  -5   5    9.70    3.90
  -3  -5   5    1.20    5.10
   2   5  -5  157.68   25.30
   2   5  -5  173.48   25.50
   2   5  -5  140.09   25.30
  -2  -5   5  136.99   25.40
  -2  -5   5  151.08   25.40
  -2  -5   5  165.28   25.50
  -2  -5   5  123.19   25.10
  -2  -5   5  143.89   25.40
  -2  -5   5  138.19   25.30
   1   5  -5  250.27   42.30
   1   5  -5  269.67   42.20
   1   5  -5  249.08   42.20
   1   5  -5  260.57   42.40
  -1  -5   5  249.48   42.30
  -1  -5   5  218.88   42.40
  -1  -5   5  243.78   42.30
  -1  -5   5  248.38   42.30
  -1  -5   5  251.37   42.20
  -1  -5   5  238.68   42.20
   0   5  -5  423.16   74.59
   0   5  -5  437.66   74.39
   0   5  -5  436.86   74.39
   0   5  -5  449.46   74.39
   0   5  -5  419.56   74.49
   0  -5   5  433.56   74.49
   0  -5   5  493.75   74.59
   0  -5   5  447.36   74.49
   0  -5   5  432.26   74.39
   0  -5   5  444.06   74.59
  -1   5  -5   66.99   12.00
  -1   5  -5   78.49   12.30
  -1   5  -5   76.39   11.90
  -1   5  -5   71.29   11.90
  -1   5  -5   58.59   11.60
   1  -5   5   51.69   12.00
   1  -5   5   69.79   12.30
   1  -5   5   63.69   11.90
   1  -5   5   64.09   11.80
   1  -5   5   75.89   11.90
  -2   5  -5   -0.80    3.10
  -2   5  -5    0.10    3.50
  -2   5  -5   -1.70    3.60
  -2   5  -5   -3.60    2.70
  -2   5  -5    2.00    4.00
   2  -5   5   -5.40    3.00
   2  -5   5   -2.40    2.60
   2  -5   5   -1.30    3.30
   2  -5   5    3.10    3.30
   2  -5   5    2.60    4.40
  -3   5  -5  159.38   31.60
  -3   5  -5  181.58   31.70
  -3   5  -5  202.68   31.70
  -3   5  -5  186.68   31.90
   3  -5   5  184.48   31.60
   3  -5   5  197.58   31.60
   3  -5   5  169.18   31.60
   3  -5   5  189.18   31.70
   3  -5   5  203.58   32.10
   3  -5   5  172.98   31.60
  -4   5  -5  164.48   24.60
  -4   5  -5  101.19   25.80
  -4   5  -5  145.09   24.50
  -4   5  -5  100.89   24.00
  -4   5  -5  155.68   24.30
   4  -5   5  147.49   24.40
   4  -5   5  114.79   29.50
   4  -5   5  122.99   24.20
   4  -5   5  128.69   24.30
   4  -5   5  151.98   24.10
   4  -5   5  161.68   24.30
  -5   5  -5   22.40    8.10
  -5   5  -5   25.70    8.00
  -5   5  -5    8.50    7.40
   5  -5   5   11.30    9.50
   5  -5   5   12.00    7.20
   5  -5   5    7.90    6.20
   5  -5   5    7.90    6.60
   5  -5   5   13.90    6.40
  -6   5  -5    9.40   11.50
  -6   5  -5    6.90    9.70
   6  -5   5   11.20   13.20
   6  -5   5   28.80    8.00
   6  -5   5   11.20    7.90
   6  -5   5    4.30    7.30
   6  -5   5   -1.20    9.00
  -7   5  -5   92.89   20.80
  -7   5  -5   46.70   17.80
   7  -5   5   58.59   17.10
   7  -5   5   67.89   16.30
   7  -5   5   88.49   16.50
   7  -5   5   59.29   15.60
   8   4  -5   -2.90   13.60
   7   4  -5   14.20    9.90
   7   4  -5   -5.20    9.10
   7   4  -5   16.10   10.40
  -7  -4   5    7.70   14.80
  -7  -4   5    5.00   11.10
   6   4  -5   10.00    8.00
   6   4  -5   23.40    8.40
   6   4  -5   21.70    8.20
  -6  -4   5   11.00   12.50
  -6  -4   5    8.40    8.60
  -6  -4   5   14.40   11.70
   5   4  -5  331.17   58.99
   5   4  -5  378.06   59.19
   5   4  -5  324.67   58.89
  -5  -4   5  370.26   59.19
  -5  -4   5  368.16   59.59
  -5  -4   5  321.37   59.79
  -5  -4   5  334.57   59.29
  -5  -4   5  323.17   59.19
   4   4  -5    1.80    6.30
   4   4  -5    0.60    4.30
   4   4  -5    3.10    4.40
   4   4  -5    0.70    4.60
   4   4  -5    5.30    8.50
  -4  -4   5    4.50    5.10
  -4  -4   5   -0.40    7.50
  -4  -4   5    0.70    5.20
  -4  -4   5    7.10    5.40
  -4  -4   5   -1.30    6.20
   3   4  -5  582.94   99.49
   3   4  -5  596.44   99.39
   3   4  -5  580.84   99.39
   3   4  -5  579.94   99.49
  -3  -4   5  556.14   99.39
  -3  -4   5  591.34   99.49
  -3  -4   5  624.44   99.39
  -3  -4   5  596.04   99.49
   2   4  -5   60.29   15.00
   2   4  -5   73.39   14.90
   2   4  -5   88.99   15.00
   2   4  -5   85.69   15.20
  -2  -4   5   79.19   15.00
  -2  -4   5   97.39   15.20
  -2  -4   5   85.39   15.10
  -2  -4   5  114.59   15.20
  -2  -4   5  109.89   15.40
   1   4  -5  385.36   65.29
   1   4  -5  378.06   65.39
   1   4  -5  367.56   65.29
   1   4  -5  403.66   65.29
  -1  -4   5  409.36   65.49
  -1  -4   5  369.46   65.39
  -1  -4   5  401.66   65.39
  -1  -4   5  392.26   65.39
  -1  -4   5  382.56   65.29
   0   4  -5  438.66   75.29
   0   4  -5  477.55   75.09
   0   4  -5  452.35   75.09
   0  -4   5  458.95   75.09
   0  -4   5  468.45   75.29
   0  -4   5  407.06   75.09
   0  -4   5  438.96   75.09
   0  -4   5  432.56   75.09
  -1   4  -5 3417.16  592.14
  -1   4  -5 3404.86  592.04
  -1   4  -5 3509.55  592.34
  -1   4  -5 3474.85  592.24
  -1   4  -5 3574.84  592.04
   1  -4   5 3466.05  592.24
   1  -4   5 3560.34  592.34
   1  -4   5 3377.36  592.14
   1  -4   5 3654.03  592.34
   1  -4   5 3724.93  592.24
   1  -4   5 3604.94  592.24
  -2   4  -5   29.80    5.70
  -2   4  -5   33.70    5.20
  -2   4  -5   23.50    4.90
  -2   4  -5   18.60    5.20
   2  -4   5   22.70    5.10
   2  -4   5   29.90    5.60
   2  -4   5   22.40    5.10
   2  -4   5   29.30    7.40
   2  -4   5   22.90    5.40
   2  -4   5   17.50    5.20
  -3   4  -5  364.16   62.79
  -3   4  -5  365.56   62.59
  -3   4  -5  329.77   62.49
  -3   4  -5  386.66   62.49
  -3   4  -5  375.86   62.49
  -3   4  -5  396.46   62.69
   3  -4   5  341.67   62.99
   3  -4   5  369.56   62.69
   3  -4   5  365.96   62.59
   3  -4   5  378.76   62.49
   3  -4   5  383.36   62.59
   3  -4   5  361.66   62.69
  -4   4  -5  112.49   24.20
  -4   4  -5  143.29   24.20
  -4   4  -5  131.89   24.30
  -4   4  -5  153.08   24.30
  -4   4  -5  126.19   24.30
  -4   4  -5  188.38   24.70
   4  -4   5  131.09   25.20
   4  -4   5  127.49   24.20
   4  -4   5  159.58   24.50
   4  -4   5  123.59   24.00
   4  -4   5  143.79   24.20
   4  -4   5  118.69   24.20
  -5   4  -5   48.00   12.10
  -5   4  -5   52.19   12.50
  -5   4  -5   60.59   12.50
  -5   4  -5   72.69   13.40
   5  -4   5   63.29   13.10
   5  -4   5   35.60   11.40
   5  -4   5   75.79   12.10
   5  -4   5   52.99   11.90
  -6   4  -5  176.18   35.70
  -6   4  -5  223.58   36.70
   6  -4   5  227.28   35.70
   6  -4   5  241.68   35.80
   6  -4   5  181.38   35.40
   6  -4   5  244.08   37.50
   6  -4   5  157.68   35.50
  -7   4  -5  115.59   24.20
  -7   4  -5  109.79   26.90
   7  -4   5  134.29   22.90
   7  -4   5  141.19   23.50
   7  -4   5   81.79   23.50
   7  -4   5  127.09   23.20
   8   3  -5   11.50   11.80
   8   3  -5   -4.50   10.90
   8   3  -5    4.00   13.20
  -8  -3   5  -30.80   19.20
  -8  -3   5   -1.30   15.40
   7   3  -5    7.30    8.50
   7   3  -5   14.00    9.60
   7   3  -5    7.10    9.10
  -7  -3   5   19.40   15.30
  -7  -3   5    6.40   11.10
   6   3  -5  281.37   43.70
   6   3  -5  270.87   43.50
   6   3  -5  219.58   43.30
  -6  -3   5  190.88   43.50
  -6  -3   5  282.97   44.10
  -6  -3   5  277.27   44.50
   5   3  -5  113.49   28.10
   5   3  -5  146.79   27.20
   5   3  -5  165.58   27.40
   5   3  -5  146.09   27.10
  -5  -3   5  215.58   29.70
  -5  -3   5  164.48   27.70
  -5  -3   5  213.98   28.30
  -5  -3   5  145.09   27.90
  -5  -3   5  135.59   27.40
  -5  -3   5  151.08   27.50
   4   3  -5    9.40    6.00
   4   3  -5   10.00    4.40
   4   3  -5   13.90    7.20
   4   3  -5    6.00    4.40
   4   3  -5   10.80    4.50
  -4  -3   5   14.80    5.30
  -4  -3   5    3.70    4.80
  -4  -3   5    9.20    4.60
  -4  -3   5    7.30    5.50
  -4  -3   5   15.30    6.50
  -4  -3   5   11.70    5.60
   3   3  -5  113.89   22.00
   3   3  -5  133.79   21.80
   3   3  -5  134.09   22.00
   3   3  -5  128.69   22.00
   3   3  -5  132.09   21.80
  -3  -3   5  128.89   22.00
  -3  -3   5  119.69   21.80
  -3  -3   5  135.09   22.10
  -3  -3   5   98.19   21.70
  -3  -3   5  150.98   22.10
   2   3  -5 1636.64  269.67
   2   3  -5 1589.14  269.77
   2   3  -5 1582.24  269.77
  -2  -3   5 1604.04  269.77
  -2  -3   5 1558.54  269.77
  -2  -3   5 1691.03  269.87
  -2  -3   5 1595.54  269.77
  -2  -3   5 1571.34  269.87
   1   3  -5  137.39   25.00
   1   3  -5  145.49   25.10
  -1  -3   5  162.88   25.10
  -1  -3   5  162.18   25.10
  -1  -3   5  150.98   25.30
  -1  -3   5  132.89   25.00
   0   3  -5   60.99    9.50
   0   3  -5   63.49   10.00
   0  -3   5   61.79    9.50
   0  -3   5   52.19    9.50
   0  -3   5   51.49    9.40
   0  -3   5   38.70    9.70
  -1   3  -5   86.79   15.40
  -1   3  -5   94.59   15.50
  -1   3  -5   81.09   15.50
   1  -3   5   81.39   15.40
   1  -3   5   84.29   15.40
   1  -3   5   95.39   15.60
   1  -3   5  107.79   15.50
   1  -3   5  108.39   16.10
   1  -3   5   78.39   15.50
  -2   3  -5   59.99   14.40
  -2   3  -5   97.19   14.60
  -2   3  -5   74.99   14.40
  -2   3  -5   92.79   14.70
  -2   3  -5   80.99   14.40
  -2   3  -5  110.09   15.10
   2  -3   5   95.09   14.60
   2  -3   5   96.99   14.80
   2  -3   5   54.39   14.60
   2  -3   5   86.09   14.70
   2  -3   5   93.29   14.60
   2  -3   5   87.29   14.50
  -3   3  -5  259.67   45.10
  -3   3  -5  264.77   45.00
  -3   3  -5  252.17   45.00
  -3   3  -5  284.67   45.10
  -3   3  -5  261.37   45.20
  -3   3  -5  269.77   45.20
   3  -3   5  269.97   45.10
   3  -3   5  260.97   45.00
   3  -3   5  265.37   45.10
   3  -3   5  267.57   45.40
   3  -3   5  275.07   45.00
   3  -3   5  247.08   45.10
  -4   3  -5   13.90    5.20
  -4   3  -5   12.10    6.90
  -4   3  -5    8.40    5.60
  -4   3  -5   15.00    6.00
  -4   3  -5    2.20    5.10
  -4   3  -5    1.90    5.20
   4  -3   5   -1.10    4.20
   4  -3   5   12.80    5.20
   4  -3   5    8.20    4.60
   4  -3   5    4.50    4.90
   4  -3   5    3.90    7.60
   4  -3   5    7.50    5.70
  -5   3  -5   96.29   17.10
  -5   3  -5   96.39   18.20
  -5   3  -5   92.19   16.80
  -5   3  -5   80.49   16.90
   5  -3   5  113.79   17.20
   5  -3   5   77.49   16.40
   5  -3   5   61.49   16.20
   5  -3   5   90.09   17.60
   5  -3   5  104.99   17.70
  -6   3  -5   16.70    9.20
  -6   3  -5   -8.50   13.00
   6  -3   5    4.30    8.60
   6  -3   5    4.10    7.80
   6  -3   5   20.70   12.40
   6  -3   5   14.90    7.70
   6  -3   5    7.30    7.40
  -7   3  -5   15.60   18.40
  -7   3  -5   54.49   15.70
   7  -3   5   58.39   14.00
   7  -3   5   37.70   14.70
   7  -3   5   71.19   14.10
   7  -3   5   80.89   15.10
   8   2  -5   26.70   11.90
   8   2  -5   13.40   10.30
   8   2  -5   18.40   12.60
  -8  -2   5    4.90   13.60
  -8  -2   5    0.80   28.70
   7   2  -5   24.90   14.80
   7   2  -5   39.10   11.20
   7   2  -5   34.70   10.60
  -7  -2   5    9.60   10.90
  -7  -2   5   44.00   14.10
   6   2  -5   39.90   10.00
   6   2  -5   60.89   10.60
   6   2  -5   48.70    9.60
   6   2  -5   62.19   15.30
  -6  -2   5   42.20   10.50
  -6  -2   5   11.10   10.30
  -6  -2   5   55.29   13.40
  -6  -2   5   38.70   11.30
   5   2  -5   41.40    8.80
   5   2  -5   41.80    9.10
   5   2  -5   37.50   10.30
   5   2  -5   47.70   12.30
   5   2  -5   40.30    9.10
  -5  -2   5   43.10    9.90
  -5  -2   5   45.40    9.90
  -5  -2   5   42.00    9.00
  -5  -2   5   38.00   10.40
  -5  -2   5   61.69   10.40
  -5  -2   5   35.20    9.50
   4   2  -5    7.60    3.40
   4   2  -5    6.80    5.00
   4   2  -5    0.90    3.90
   4   2  -5   -0.90    3.50
   4   2  -5   13.80    6.70
  -4  -2   5   -6.60    4.60
  -4  -2   5    5.60    4.80
  -4  -2   5    7.30    4.10
  -4  -2   5    0.50    3.60
  -4  -2   5    3.80    4.30
  -4  -2   5    0.60    4.90
   3   2  -5   -0.10    2.60
   3   2  -5   -3.60    4.30
   3   2  -5   -1.30    2.70
   3   2  -5    0.70    3.20
  -3  -2   5   -0.50    3.00
  -3  -2   5    3.80    3.60
  -3  -2   5    2.00    2.60
  -3  -2   5    1.20    3.20
  -3  -2   5   -0.40    2.80
   2   2  -5 1698.53  289.57
   2   2  -5 1743.03  289.57
   2   2  -5 1780.52  289.67
   2   2  -5 1621.74  289.67
  -2  -2   5 1771.12  289.67
  -2  -2   5 1720.13  289.67
  -2  -2   5 1734.73  289.77
  -2  -2   5 1758.92  289.67
  -2  -2   5 1679.53  289.67
   1   2  -5 1527.65  250.97
   1   2  -5 1419.46  250.87
  -1  -2   5 1548.65  250.87
  -1  -2   5 1522.15  251.07
  -1  -2   5 1471.25  250.87
  -1  -2   5 1413.06  250.87
  -1  -2   5 1553.34  250.97
   0   2  -5  490.25   94.39
   0   2  -5  583.84   94.69
   0   2  -5  609.24   94.49
   0  -2   5  570.34   94.69
   0  -2   5  575.04   94.69
  -1   2  -5  405.86   69.39
  -1   2  -5  422.16   69.19
  -1   2  -5  390.76   69.29
   1  -2   5  391.66   69.09
   1  -2   5  404.86   69.19
   1  -2   5  394.86   69.19
   1  -2   5  393.46   69.29
   1  -2   5  461.95   69.19
   1  -2   5  427.46   69.29
  -2   2  -5   18.40    3.50
  -2   2  -5   13.00    3.40
  -2   2  -5   22.90    4.20
  -2   2  -5   12.60    4.20
  -2   2  -5   21.00    3.90
   2  -2   5   16.70    4.40
   2  -2   5   17.80    4.10
   2  -2   5   13.40    3.80
   2  -2   5   11.70    4.00
   2  -2   5   14.70    4.00
   2  -2   5   14.10    3.70
  -3   2  -5  637.64  108.19
  -3   2  -5  611.64  108.39
  -3   2  -5  617.44  108.29
  -3   2  -5  617.54  108.19
  -3   2  -5  645.84  108.29
   3  -2   5  674.83  108.49
   3  -2   5  677.03  108.29
   3  -2   5  631.54  108.39
   3  -2   5  686.63  108.39
   3  -2   5  640.34  108.29
   3  -2   5  618.14  108.19
  -4   2  -5   82.79   13.30
  -4   2  -5   66.79   13.50
  -4   2  -5   75.39   14.00
  -4   2  -5   87.59   13.60
  -4   2  -5   56.69   13.80
  -4   2  -5   78.09   13.90
   4  -2   5   68.89   14.70
   4  -2   5   59.19   13.80
   4  -2   5   77.29   13.30
   4  -2   5   66.79   13.00
   4  -2   5   77.79   13.30
   4  -2   5   57.89   13.30
  -5   2  -5  608.04  110.19
  -5   2  -5  663.93  110.39
  -5   2  -5  651.63  110.49
   5  -2   5  645.94  110.59
   5  -2   5  688.83  110.09
   5  -2   5  646.24  110.49
  -6   2  -5   23.20   10.00
   6  -2   5   22.70    8.80
   6  -2   5   22.50    9.00
   6  -2   5   15.00    9.00
   6  -2   5   16.90    8.00
   6  -2   5   30.60   13.30
  -7   2  -5   21.70   19.40
   7  -2   5   78.49   15.00
   7  -2   5   91.59   16.10
   7  -2   5   63.59   15.60
   7  -2   5   43.80   15.70
   8   1  -5   39.50   12.80
   8   1  -5   54.19   11.60
   8   1  -5   33.40   13.10
  -8  -1   5   37.70   17.40
  -8  -1   5   11.90   14.60
   7   1  -5    5.30    8.10
   7   1  -5    9.60    9.00
   7   1  -5   10.50    6.80
  -7  -1   5   11.90    9.30
  -7  -1   5   25.60   11.90
   6   1  -5    3.30    5.90
   6   1  -5   -4.10    4.90
   6   1  -5   -1.30    5.90
   6   1  -5    6.00   12.60
  -6  -1   5    7.60    6.20
  -6  -1   5    0.40    7.80
  -6  -1   5  -12.80    8.00
  -6  -1   5   -1.60    7.70
  -6  -1   5   14.20    8.10
   5   1  -5  318.17   52.89
   5   1  -5  321.77   52.59
   5   1  -5  305.57   52.79
   5   1  -5  301.07   53.79
   5   1  -5  275.97   53.19
  -5  -1   5  335.37   53.09
  -5  -1   5  289.27   52.79
  -5  -1   5  322.97   52.59
  -5  -1   5  277.77   52.99
  -5  -1   5  331.97   53.39
   4   1  -5  263.37   45.20
   4   1  -5  256.07   45.70
   4   1  -5  264.87   45.00
   4   1  -5  268.37   45.40
  -4  -1   5  277.07   45.60
  -4  -1   5  280.97   45.30
  -4  -1   5  253.67   45.30
  -4  -1   5  256.87   45.50
  -4  -1   5  259.07   45.00
  -4  -1   5  273.57   45.30
   3   1  -5  353.66   62.29
   3   1  -5  375.06   62.29
   3   1  -5  385.26   62.29
   3   1  -5  365.96   62.29
  -3  -1   5  373.76   62.19
  -3  -1   5  364.46   62.39
  -3  -1   5  385.66   62.39
  -3  -1   5  391.86   62.29
  -3  -1   5  352.56   62.69
  -3  -1   5  330.87   62.29
   2   1  -5  134.79   24.30
   2   1  -5  150.58   24.30
   2   1  -5  151.48   24.50
   2   1  -5  142.89   24.40
  -2  -1   5  138.99   24.60
  -2  -1   5  144.19   24.50
  -2  -1   5  143.29   24.50
  -2  -1   5  142.29   24.40
  -2  -1   5  147.09   24.50
   1   1  -5  849.22  135.69
   1   1  -5  736.63  135.69
  -1  -1   5  850.61  135.69
  -1  -1   5  793.22  135.69
   0   1  -5  388.76   68.79
   0   1  -5  453.05   68.89
   0  -1   5  389.56   68.99
   0  -1   5  392.06   68.99
  -1   1  -5   26.80    5.70
  -1   1  -5   27.60    5.40
  -1   1  -5   34.80    5.50
  -1   1  -5   28.00    5.40
   1  -1   5   28.60    5.60
   1  -1   5   34.90    5.40
   1  -1   5   24.30    5.40
   1  -1   5   26.90    5.40
   1  -1   5   30.40    5.40
   1  -1   5   29.40    5.70
  -2   1  -5 1828.32  311.47
  -2   1  -5 1853.71  311.27
  -2   1  -5 1873.71  311.37
  -2   1  -5 1792.02  311.37
  -2   1  -5 1906.61  311.37
  -2   1  -5 1953.50  311.37
   2  -1   5 1819.12  311.37
   2  -1   5 1883.91  311.47
   2  -1   5 1803.52  311.37
   2  -1   5 1788.12  311.47
   2  -1   5 1842.72  311.47
   2  -1   5 1859.91  311.37
  -3   1  -5  123.29   26.90
  -3   1  -5  147.89   26.90
  -3   1  -5  186.78   27.20
  -3   1  -5  161.38   26.80
  -3   1  -5  169.88   27.00
   3  -1   5  153.58   27.00
   3  -1   5  167.58   27.20
   3  -1   5  157.58   27.10
   3  -1   5  136.19   26.80
   3  -1   5  143.69   27.00
   3  -1   5  186.08   27.40
  -4   1  -5   69.59   13.40
  -4   1  -5   59.89   13.40
  -4   1  -5   69.99   12.90
  -4   1  -5   88.49   13.00
  -4   1  -5   62.39   13.60
   4  -1   5   78.09   14.00
   4  -1   5   62.79   13.10
   4  -1   5   76.49   14.90
   4  -1   5   85.39   12.80
   4  -1   5   45.40   12.90
   4  -1   5   67.09   13.30
  -5   1  -5   39.20    8.10
  -5   1  -5   35.10   13.10
  -5   1  -5   19.90    9.00
  -5   1  -5   35.20    8.00
   5  -1   5   12.80    8.30
   5  -1   5   42.60    7.60
   5  -1   5   26.10    8.40
   5  -1   5   30.50   10.60
   5  -1   5   17.40    7.90
  -6   1  -5   -2.90    8.40
  -6   1  -5    3.50    7.60
  -6   1  -5    1.70   10.10
   6  -1   5  -20.70   13.50
   6  -1   5   -0.80    8.00
   6  -1   5   -8.40    7.90
   6  -1   5   10.50    7.20
   6  -1   5   -6.20    9.00
  -7   1  -5   15.30   14.50
  -7   1  -5   22.00   11.50
   7  -1   5   34.90   18.00
   7  -1   5   32.70   12.30
   7  -1   5   42.70   12.60
   7  -1   5    8.90   10.60
   8   0  -5   55.59   14.60
   8   0  -5   65.89   14.90
   8   0  -5   41.60   14.10
  -8   0   5   81.29   18.70
  -8   0   5   46.60   15.10
   7   0  -5   -0.30    6.00
   7   0  -5  -10.40    7.20
   7   0  -5    4.80    7.90
  -7   0   5  -15.00    7.60
  -7   0   5    3.50    8.50
  -7   0   5   -2.80   11.20
   6   0  -5    1.70    6.20
   6   0  -5    3.00    6.20
   6   0  -5   14.70    5.00
   6   0  -5   21.80   12.60
  -6   0   5    3.50    9.00
  -6   0   5   11.70    8.50
  -6   0   5   16.90    8.30
  -6   0   5   10.20    5.60
   5   0  -5  317.77   57.09
   5   0  -5  344.97   56.79
   5   0  -5  319.07   56.69
   5   0  -5  343.87   56.59
   5   0  -5  318.47   57.49
  -5   0   5  345.27   56.79
  -5   0   5  360.86   56.89
  -5   0   5  329.77   57.19
  -5   0   5  326.17   56.39
  -5   0   5  334.27   57.19
  -5   0   5  311.67   56.89
   4   0  -5  360.96   62.19
   4   0  -5  360.36   62.09
   4   0  -5  363.26   61.99
   4   0  -5  366.86   61.69
   4   0  -5  356.16   62.19
  -4   0   5  372.06   61.69
  -4   0   5  353.96   62.19
  -4   0   5  396.16   62.29
  -4   0   5  379.76   61.99
  -4   0   5  356.26   61.99
  -4   0   5  352.76   61.99
   3   0  -5    6.80    2.70
   3   0  -5    0.60    3.10
   3   0  -5   13.00    3.50
   3   0  -5    3.40    2.50
  -3   0   5    5.10    2.80
  -3   0   5   -0.60    2.00
  -3   0   5    5.10    3.20
  -3   0   5    4.40    3.40
  -3   0   5    6.20    2.50
  -3   0   5   18.50    3.90
   2   0  -5  174.48   33.10
   2   0  -5  190.68   33.20
   2   0  -5  202.48   33.00
   2   0  -5  197.18   33.00
  -2   0   5  201.28   33.20
  -2   0   5  200.78   33.20
  -2   0   5  175.28   33.10
  -2   0   5  218.68   33.30
  -2   0   5  194.68   33.10
  -2   0   5  211.98   33.20
   1   0  -5 2427.06  402.56
  -1   0   5 2313.57  402.66
  -1   0   5 2310.07  402.56
  -1   0   5 2404.46  402.56
  -1   0   5 2440.76  402.56
  -1   0   5 2472.45  402.56
   0   0  -5   12.70    2.40
   0   0  -5   12.60    2.90
   0   0   5    9.90    2.40
   0   0   5    9.70    2.50
   0   0   5   11.20    2.40
   0   0   5   12.70    2.40
   0   0   5   15.20    2.40
   0   0   5    3.30    2.60
  -1   0  -5  194.08   33.40
  -1   0  -5  183.18   33.60
  -1   0  -5  200.78   33.30
  -1   0  -5  200.88   33.50
  -1   0  -5  188.78   33.30
  -1   0  -5  187.78   33.50
   1   0   5  211.78   33.60
   1   0   5  200.08   33.50
   1   0   5  183.88   33.50
   1   0   5  201.98   33.40
   1   0   5  200.88   33.50
   1   0   5  219.58   33.50
  -2   0  -5    7.80    2.20
  -2   0  -5    3.80    2.50
  -2   0  -5    4.60    3.40
  -2   0  -5    7.20    3.20
  -2   0  -5    4.60    3.40
  -2   0  -5    4.20    2.70
   2   0   5   -0.30    5.00
   2   0   5    5.70    2.90
   2   0   5    4.00    2.70
   2   0   5    5.30    2.00
   2   0   5    3.50    3.30
   2   0   5    3.20    3.20
  -3   0  -5   71.59   13.70
  -3   0  -5   69.79   13.60
  -3   0  -5   86.99   14.00
  -3   0  -5   66.89   14.00
  -3   0  -5   88.29   14.00
  -3   0  -5   87.79   13.40
   3   0   5   72.29   13.30
   3   0   5   70.49   14.20
   3   0   5   70.99   13.70
   3   0   5   87.79   14.10
   3   0   5   79.39   13.80
   3   0   5   59.99   13.70
  -4   0  -5   11.40    6.50
  -4   0  -5   14.70    4.70
  -4   0  -5    6.00    4.10
  -4   0  -5    3.30    6.60
  -4   0  -5    1.80    6.00
  -4   0  -5   -2.20    6.00
   4   0   5   14.80    5.10
   4   0   5    6.80    6.60
   4   0   5    3.00    4.80
   4   0   5    8.30    9.60
   4   0   5    6.70    5.30
   4   0   5    4.50    5.30
  -5   0  -5   -3.90    5.50
  -5   0  -5   13.40    8.50
  -5   0  -5    1.10    7.90
  -5   0  -5   10.10    6.00
   5   0   5   -0.30    5.20
   5   0   5   -0.50   12.00
   5   0   5    6.90    6.90
   5   0   5    0.60    9.60
   5   0   5   -0.20    6.20
  -6   0  -5   42.00   16.40
  -6   0  -5   65.99   15.20
  -6   0  -5   60.29   15.00
   6   0   5   67.29   15.60
   6   0   5   85.49   15.80
   6   0   5   69.59   15.60
   6   0   5   93.69   20.20
   6   0   5  100.09   14.70
  -7   0  -5  -10.50   14.30
  -7   0  -5    6.50   10.70
   7   0   5   -4.70   12.40
   7   0   5   -0.90   11.20
   7   0   5    8.70   11.70
   8  -1  -5   35.50   13.30
   8  -1  -5   36.40   12.30
   8  -1  -5   47.00   10.50
  -8   1   5   21.00   16.40
  -8   1   5   44.20   14.00
   7  -1  -5   49.50   12.50
   7  -1  -5   69.39   11.30
   7  -1  -5   57.49   12.70
  -7   1   5   42.90   11.80
  -7   1   5   53.39   13.20
  -7   1   5   46.70   15.40
   6  -1  -5  633.44  110.99
   6  -1  -5  636.64  109.69
   6  -1  -5  648.54  110.19
   6  -1  -5  660.93  110.19
  -6   1   5  648.74  110.19
  -6   1   5  695.03  110.49
  -6   1   5  665.03  110.59
  -6   1   5  629.54  109.69
   5  -1  -5  103.39   18.70
   5  -1  -5   84.19   19.10
   5  -1  -5  115.19   19.30
   5  -1  -5  171.58   20.90
   5  -1  -5  103.99   19.90
  -5   1   5  103.19   19.40
  -5   1   5  103.09   18.70
  -5   1   5  130.99   19.80
  -5   1   5  102.89   19.80
  -5   1   5  118.19   20.20
  -5   1   5   96.29   19.50
   4  -1  -5   12.80    5.30
   4  -1  -5   13.80    4.30
   4  -1  -5   10.80    3.00
   4  -1  -5   11.80    5.70
   4  -1  -5    8.40    5.20
  -4   1   5   16.80    3.20
  -4   1   5    8.30    5.20
  -4   1   5   10.20    4.70
  -4   1   5   13.80    4.80
  -4   1   5   14.50    4.50
  -4   1   5   12.20    4.70
   3  -1  -5  460.95   83.39
   3  -1  -5  501.95   83.49
   3  -1  -5  497.05   83.49
   3  -1  -5  524.75   83.49
  -3   1   5  483.05   83.49
  -3   1   5  498.55   83.59
  -3   1   5  460.25   83.39
  -3   1   5  516.95   83.49
  -3   1   5  486.85   83.19
  -3   1   5  524.55   83.49
   2  -1  -5  119.79   17.90
   2  -1  -5   97.59   17.50
   2  -1  -5  103.89   17.50
   2  -1  -5   96.69   17.50
  -2   1   5  106.59   17.70
  -2   1   5  102.49   17.20
  -2   1   5  114.69   17.70
  -2   1   5   97.89   17.20
  -2   1   5  104.69   17.70
  -2   1   5   99.19   17.60
  -2   1   5   94.59   17.60
   1  -1  -5 1025.40  171.78
   1  -1  -5 1028.70  171.78
   1  -1  -5 1003.00  171.78
  -1   1   5  970.30  171.78
  -1   1   5  983.00  171.78
  -1   1   5 1041.90  171.78
  -1   1   5 1031.00  171.78
  -1   1   5 1073.99  171.78
  -1   1   5 1036.20  171.78
   0  -1  -5 2915.61  485.25
   0  -1  -5 2965.00  485.15
   0  -1  -5 2856.01  485.25
   0  -1  -5 2839.42  485.15
   0  -1  -5 2845.82  485.25
   0   1   5 2928.91  485.25
   0   1   5 2885.91  485.15
   0   1   5 2836.72  485.25
   0   1   5 2921.61  485.25
   0   1   5 2965.00  485.25
   0   1   5 2791.02  485.25
  -1  -1  -5  152.08   24.30
  -1  -1  -5  139.29   24.30
  -1  -1  -5  139.49   24.10
  -1  -1  -5  152.98   24.10
  -1  -1  -5  139.99   24.30
   1   1   5  147.39   24.20
   1   1   5  135.09   24.20
   1   1   5  141.99   24.20
   1   1   5  126.69   24.20
   1   1   5  144.09   24.30
   1   1   5  136.99   23.80
  -2  -1  -5  313.57   55.59
  -2  -1  -5  334.27   55.19
  -2  -1  -5  320.17   55.49
  -2  -1  -5  342.37   55.59
  -2  -1  -5  332.97   55.59
  -2  -1  -5  330.37   55.39
   2   1   5  346.37   55.59
   2   1   5  333.77   55.19
   2   1   5  296.97   55.79
   2   1   5  283.67   55.89
   2   1   5  325.27   55.49
   2   1   5  342.97   55.59
  -3  -1  -5  766.22  124.39
  -3  -1  -5  735.43  124.09
  -3  -1  -5  731.23  124.49
  -3  -1  -5  751.02  124.49
  -3  -1  -5  784.82  124.49
  -3  -1  -5  739.83  124.39
   3   1   5  758.92  124.39
   3   1   5  684.93  124.39
   3   1   5  753.52  124.49
   3   1   5  724.63  124.09
   3   1   5  672.43  124.59
  -4  -1  -5    2.50    6.70
  -4  -1  -5    3.50    4.90
  -4  -1  -5    3.10    6.50
   4   1   5   16.50    5.70
   4   1   5   11.00   10.50
   4   1   5    2.30    7.50
   4   1   5    0.00    3.60
   4   1   5    1.70    5.00
   4   1   5    2.20    5.30
  -5  -1  -5   51.09   10.80
  -5  -1  -5   66.99   13.50
  -5  -1  -5   68.39   11.90
  -5  -1  -5   36.20   12.90
   5   1   5   42.30   11.70
   5   1   5   66.39   11.90
   5   1   5   49.20   12.30
   5   1   5   32.80   14.30
  -6  -1  -5   83.59   15.00
  -6  -1  -5   80.49   15.40
   6   1   5   56.69   15.00
   6   1   5   45.90   15.80
   6   1   5   98.59   16.70
  -7  -1  -5   83.09   19.30
   7   1   5  132.79   20.80
   7   1   5   48.90   19.20
   7   1   5   96.59   19.10
   8  -2  -5    9.20   10.20
   8  -2  -5   -4.00   10.30
   8  -2  -5    0.20    7.20
  -8   2   5    3.70   15.70
  -8   2   5   -3.90   11.10
  -8   2   5   11.90   10.10
   7  -2  -5   25.90    7.50
   7  -2  -5   37.90    9.90
   7  -2  -5   35.30   10.00
  -7   2   5   27.20   10.30
  -7   2   5   34.70    8.40
  -7   2   5   20.90   12.70
   6  -2  -5  614.24  108.99
   6  -2  -5  655.33  109.69
   6  -2  -5  653.33  110.49
   6  -2  -5  720.33  109.69
  -6   2   5  678.83  109.99
  -6   2   5  614.54  109.09
  -6   2   5  633.84  109.99
   5  -2  -5   91.19   15.70
   5  -2  -5   57.29   13.90
   5  -2  -5   70.69   14.10
   5  -2  -5   74.09   14.90
   5  -2  -5   82.69   13.20
   5  -2  -5   80.99   14.30
  -5   2   5   63.29   15.60
  -5   2   5   84.19   14.90
  -5   2   5   74.49   14.40
  -5   2   5   89.29   14.20
  -5   2   5   76.09   14.40
  -5   2   5   68.69   13.10
   4  -2  -5  309.77   54.59
   4  -2  -5  339.97   54.29
   4  -2  -5  314.67   54.19
   4  -2  -5  321.57   53.69
   4  -2  -5  318.67   54.29
   4  -2  -5  310.57   54.39
  -4   2   5  302.57   54.29
  -4   2   5  342.37   54.29
  -4   2   5  305.77   54.39
  -4   2   5  314.87   53.69
  -4   2   5  322.17   54.49
   3  -2  -5   35.60    6.80
   3  -2  -5   29.70    6.70
   3  -2  -5   46.40    7.20
   3  -2  -5   29.30    6.90
   3  -2  -5   36.50    7.20
  -3   2   5   42.60    7.60
  -3   2   5   39.90    7.20
  -3   2   5   35.50    7.20
  -3   2   5   24.30    6.80
  -3   2   5   32.00    6.90
   2  -2  -5   40.80    6.50
   2  -2  -5   25.80    6.30
   2  -2  -5   32.20    6.20
   2  -2  -5   35.80    6.20
  -2   2   5   34.30    6.50
  -2   2   5   24.70    6.30
  -2   2   5   36.00    6.50
  -2   2   5   35.40    6.30
  -2   2   5   31.20    6.40
   1  -2  -5  968.60  165.98
   1  -2  -5  953.90  165.98
   1  -2  -5 1039.10  165.98
   1  -2  -5  976.30  165.98
   1  -2  -5 1019.60  165.88
  -1   2   5  964.10  165.88
  -1   2   5  986.00  165.98
  -1   2   5  988.50  165.98
  -1   2   5  960.90  165.88
  -1   2   5  998.50  165.98
  -1   2   5  993.10  165.98
   0  -2  -5 1732.83  290.47
   0  -2  -5 1740.53  290.37
   0  -2  -5 1724.53  290.37
   0  -2  -5 1815.52  290.47
   0  -2  -5 1753.42  290.47
   0   2   5 1711.93  290.27
   0   2   5 1716.13  290.47
   0   2   5 1797.32  290.47
   0   2   5 1636.64  290.47
   0   2   5 1743.53  290.47
   0   2   5 1666.63  290.27
   0   2   5 1698.43  290.47
  -1  -2  -5   48.60   13.30
  -1  -2  -5   74.29   13.50
  -1  -2  -5   91.19   13.70
  -1  -2  -5   73.79   13.30
  -1  -2  -5   87.09   13.70
   1   2   5   80.89   13.50
   1   2   5   82.09   13.50
   1   2   5   71.09   13.50
   1   2   5   94.69   13.70
   1   2   5   74.79   13.50
  -2  -2  -5   14.10    5.10
  -2  -2  -5   10.60    4.10
  -2  -2  -5   12.90    5.00
  -2  -2  -5   16.70    4.80
  -2  -2  -5   13.10    4.70
   2   2   5   11.60    4.40
   2   2   5   20.10    4.50
   2   2   5   11.20    5.10
   2   2   5   12.00    4.00
  -3  -2  -5   88.89   13.20
  -3  -2  -5   59.89   11.00
  -3  -2  -5   62.29   12.50
  -3  -2  -5   57.69   11.90
  -3  -2  -5   73.99   12.60
  -3  -2  -5   57.49   12.20
   3   2   5   64.49   12.30
   3   2   5   80.19   14.10
   3   2   5   55.29   12.00
   3   2   5   74.19   13.00
   3   2   5   58.99   12.20
  -4  -2  -5  225.48   38.80
  -4  -2  -5  224.48   39.50
  -4  -2  -5  267.37   40.10
  -4  -2  -5  179.88   39.50
   4   2   5  246.68   39.80
   4   2   5  222.98   39.50
   4   2   5  234.18   40.00
   4   2   5  239.28   39.80
  -5  -2  -5    5.00    7.40
  -5  -2  -5   10.80    9.30
  -5  -2  -5   27.30    6.10
   5   2   5   19.90   13.30
   5   2   5   23.50    8.10
   5   2   5    9.50    8.20
   5   2   5   13.60    7.80
  -6  -2  -5   84.59   17.40
  -6  -2  -5   10.70   18.20
  -6  -2  -5   94.39   16.40
   6   2   5   66.89   18.00
   6   2   5  120.89   18.40
   6   2   5  110.19   17.60
   8  -3  -5   63.39   15.50
   8  -3  -5   58.39   12.70
   8  -3  -5   66.59   16.10
  -8   3   5   41.10   16.00
  -8   3   5   52.79   19.20
  -8   3   5   79.99   14.30
   7  -3  -5   47.80   11.70
   7  -3  -5   37.40   11.50
   7  -3  -5   49.30    9.10
   7  -3  -5   46.10   11.20
  -7   3   5   41.20   12.00
  -7   3   5   44.60    9.70
  -7   3   5   33.30   14.40
   6  -3  -5   91.49   18.00
   6  -3  -5   76.79   17.40
   6  -3  -5  105.89   17.90
   6  -3  -5  116.59   20.80
   6  -3  -5   84.79   16.20
  -6   3   5   98.79   16.40
  -6   3   5   82.59   17.40
  -6   3   5  115.09   21.40
  -6   3   5  117.39   18.90
   5  -3  -5   78.79   15.00
   5  -3  -5  110.99   17.80
   5  -3  -5   73.29   16.20
   5  -3  -5  103.19   17.40
   5  -3  -5   92.79   16.20
   5  -3  -5   86.09   16.20
  -5   3   5   82.69   16.60
  -5   3   5   89.79   16.80
  -5   3   5  111.99   17.30
  -5   3   5   93.99   15.10
  -5   3   5   81.99   16.10
  -5   3   5   82.39   16.30
   4  -3  -5  571.34   96.29
   4  -3  -5  571.44   96.19
   4  -3  -5  563.04   96.19
   4  -3  -5  567.84   96.19
   4  -3  -5  588.84   96.39
  -4   3   5  594.94   96.19
  -4   3   5  565.34   96.39
  -4   3   5  553.34   96.29
  -4   3   5  558.04   96.19
  -4   3   5  554.44   96.29
   3  -3  -5  185.88   27.30
   3  -3  -5  160.48   27.30
   3  -3  -5  164.38   27.20
   3  -3  -5  169.38   27.30
   3  -3  -5  149.49   27.20
  -3   3   5  154.98   27.50
  -3   3   5  140.69   27.20
  -3   3   5  158.08   27.30
  -3   3   5  127.39   27.00
  -3   3   5  176.28   27.20
   2  -3  -5   20.10    4.30
   2  -3  -5   19.20    4.20
   2  -3  -5   16.80    4.80
   2  -3  -5    7.50    4.50
  -2   3   5   32.00    5.20
  -2   3   5   19.30    4.80
  -2   3   5   18.90    4.50
  -2   3   5   18.70    4.40
  -2   3   5   22.90    4.70
   1  -3  -5    9.10    4.10
   1  -3  -5   17.90    4.10
   1  -3  -5   16.70    3.90
   1  -3  -5   15.60    4.10
   1  -3  -5   19.30    3.40
  -1   3   5   15.40    3.40
  -1   3   5   14.30    3.40
  -1   3   5   11.80    4.20
  -1   3   5   18.40    4.40
  -1   3   5   18.10    4.90
  -1   3   5   18.70    4.10
   0  -3  -5  760.72  134.79
   0  -3  -5  811.92  134.79
   0  -3  -5  777.22  134.89
   0  -3  -5  822.72  134.89
   0  -3  -5  801.72  134.89
   0   3   5  806.02  134.89
   0   3   5  800.42  134.89
   0   3   5  822.42  134.89
   0   3   5  854.41  134.79
   0   3   5  765.62  134.89
   0   3   5  790.42  134.59
  -1  -3  -5   17.70    4.10
  -1  -3  -5   19.50    4.70
  -1  -3  -5   10.70    4.30
  -1  -3  -5    7.70    4.60
  -1  -3  -5   11.60    4.80
   1   3   5   10.50    4.20
   1   3   5    8.50    4.70
   1   3   5   18.40    5.00
   1   3   5   14.70    4.20
   1   3   5   14.70    4.30
  -2  -3  -5   26.40    6.10
  -2  -3  -5   25.90    6.50
  -2  -3  -5   14.20    5.90
  -2  -3  -5   21.20    5.50
  -2  -3  -5   21.60    6.70
   2   3   5   17.90    5.70
   2   3   5   26.30    5.50
   2   3   5   12.40    5.50
   2   3   5   22.20    6.90
  -3  -3  -5   46.80   10.50
  -3  -3  -5   47.50    9.60
  -3  -3  -5   50.89   11.10
  -3  -3  -5   40.30   10.40
  -3  -3  -5   20.00   10.00
   3   3   5   40.60   10.90
   3   3   5   60.09    9.90
   3   3   5   53.69    9.90
   3   3   5   35.20    9.50
   3   3   5   60.49   13.30
  -4  -3  -5   22.60    4.70
  -4  -3  -5   10.20    8.60
  -4  -3  -5   23.70    9.80
  -4  -3  -5   10.90    7.30
   4   3   5   20.50    7.40
   4   3   5   31.20    8.10
   4   3   5   18.80    7.90
   4   3   5   19.70   10.40
  -5  -3  -5   79.99   14.00
  -5  -3  -5   83.79   16.10
  -5  -3  -5   15.60   16.90
   5   3   5   86.09   15.90
   5   3   5   98.69   16.60
   5   3   5  116.59   23.30
   5   3   5   69.89   16.00
  -6  -3  -5   -5.30   13.90
  -6  -3  -5    4.70    7.80
  -6  -3  -5   -1.00   10.30
   6   3   5   16.10   12.50
   6   3   5    3.00   19.40
   8  -4  -5  493.95   79.29
   8  -4  -5  454.35   79.29
   8  -4  -5  505.65   77.49
   8  -4  -5  480.05   78.89
  -8   4   5  314.07   78.29
  -8   4   5  476.85   79.69
  -8   4   5  462.65   77.99
   7  -4  -5   19.40    5.60
   7  -4  -5   23.70    8.60
   7  -4  -5   20.30    9.60
  -7   4   5   13.20    8.60
  -7   4   5   15.90   12.70
  -7   4   5   16.90    6.30
   6  -4  -5   65.39   15.20
   6  -4  -5   80.29   15.10
   6  -4  -5   73.89   13.20
   6  -4  -5  114.59   15.50
  -6   4   5   50.89   14.80
  -6   4   5   80.09   15.80
   5  -4  -5   84.49   17.00
   5  -4  -5   38.60   20.60
   5  -4  -5   50.89   12.10
   5  -4  -5   73.79   12.50
   5  -4  -5   55.99   12.20
  -5   4   5   53.89   12.80
  -5   4   5   70.49   13.10
  -5   4   5   46.00   12.90
  -5   4   5   77.79   12.70
  -5   4   5   66.99   13.50
   4  -4  -5  362.26   59.09
   4  -4  -5  332.67   59.39
   4  -4  -5  314.57   58.89
   4  -4  -5  384.46   59.39
   4  -4  -5  329.07   58.99
  -4   4   5  307.37   58.99
  -4   4   5  341.17   59.39
  -4   4   5  360.86   58.99
  -4   4   5  382.96   59.29
  -4   4   5  358.76   59.19
   3  -4  -5    6.50    3.60
   3  -4  -5   -1.30    3.60
   3  -4  -5    3.90    3.30
   3  -4  -5    0.20    4.90
   3  -4  -5    5.80    5.10
  -3   4   5   -0.10    4.00
  -3   4   5    3.50    4.40
  -3   4   5    4.50    4.60
  -3   4   5    4.90    4.00
  -3   4   5   13.80    4.90
   2  -4  -5  213.98   35.60
   2  -4  -5  211.78   34.80
   2  -4  -5  214.08   35.30
   2  -4  -5  200.28   35.80
   2  -4  -5  204.18   35.50
   2  -4  -5  203.18   35.10
  -2   4   5  199.88   35.50
  -2   4   5  195.18   35.50
  -2   4   5  208.58   35.40
  -2   4   5  197.28   35.60
   1  -4  -5  169.88   29.60
   1  -4  -5  159.78   29.00
   1  -4  -5  159.88   29.40
   1  -4  -5  162.38   29.00
   1  -4  -5  149.69   29.30
   1  -4  -5  182.98   29.50
  -1   4   5  204.68   29.70
  -1   4   5  168.58   29.50
  -1   4   5  186.28   29.60
  -1   4   5  169.28   29.00
  -1   4   5  183.68   29.60
  -1   4   5  176.18   29.00
   0  -4  -5  667.53  102.29
   0  -4  -5  569.14  102.19
   0  -4  -5  661.73  102.09
   0  -4  -5  567.34  102.19
   0   4   5  592.54  102.19
   0   4   5  610.94  102.09
   0   4   5  579.74  102.29
   0   4   5  602.34  102.29
   0   4   5  595.14  102.29
  -1  -4  -5   74.89   12.80
  -1  -4  -5   61.39   13.00
  -1  -4  -5   78.19   13.10
  -1  -4  -5   74.19   13.10
  -1  -4  -5   67.79   12.50
   1   4   5   49.80   12.40
   1   4   5   73.49   12.50
   1   4   5   87.99   13.30
   1   4   5   64.29   13.10
   1   4   5   61.89   12.80
  -2  -4  -5   15.20    7.10
  -2  -4  -5   16.40    6.60
  -2  -4  -5   14.30    5.60
  -2  -4  -5   22.90   11.50
  -2  -4  -5   16.50    6.60
   2   4   5   15.00    7.90
   2   4   5   22.60    5.80
   2   4   5   17.60    5.90
   2   4   5   10.90    5.30
   2   4   5   30.10    8.00
  -3  -4  -5   21.40    8.10
  -3  -4  -5   26.80    9.20
  -3  -4  -5   30.40    7.20
   3   4   5   13.90    7.10
   3   4   5   28.20    7.60
   3   4   5   25.90   10.30
   3   4   5   14.30    7.20
  -4  -4  -5  103.49   18.70
  -4  -4  -5   40.70   18.70
   4   4   5  121.19   19.10
   4   4   5  103.99   18.60
   4   4   5   91.79   18.60
   4   4   5  139.99   21.30
  -5  -4  -5  -10.40   12.00
  -5  -4  -5   -6.30    9.10
  -5  -4  -5    0.30    3.60
  -5  -4  -5   -2.90    3.90
   5   4   5    3.70    8.70
   5   4   5   23.00    9.60
   5   4   5   -3.10    9.80
  -6  -4  -5   -5.30   12.00
   6   4   5  -17.80   11.70
   6   4   5  -12.50   11.60
   6   4   5    7.20   12.40
   8  -5  -5   66.09   17.90
   8  -5  -5  103.19   18.20
  -8   5   5   38.60   28.00
   7  -5  -5   46.80   11.90
   7  -5  -5   33.80   11.90
   7  -5  -5   53.09   12.60
   7  -5  -5   43.30    8.40
  -7   5   5   21.90   12.90
  -7   5   5   53.69   12.30
   6  -5  -5   14.50    8.80
   6  -5  -5   10.10    7.60
   6  -5  -5    5.20    7.80
  -6   5   5   17.20    8.30
  -6   5   5   12.50   11.00
  -6   5   5   16.00    8.30
   5  -5  -5   24.10    6.80
   5  -5  -5   23.40   10.90
   5  -5  -5    9.40    6.60
   5  -5  -5    9.90    6.60
  -5   5   5   12.70    7.10
  -5   5   5   21.70    9.80
  -5   5   5   19.00    8.20
  -5   5   5   17.40    8.50
   4  -5  -5   15.60    5.00
   4  -5  -5   10.70    8.40
   4  -5  -5    8.20    5.00
   4  -5  -5   13.60    7.40
   4  -5  -5    5.90    5.20
  -4   5   5    7.20    5.50
  -4   5   5    6.90    6.70
  -4   5   5   14.60    5.70
  -4   5   5   -1.90    6.50
  -4   5   5    5.10    6.90
   3  -5  -5  121.39   18.90
   3  -5  -5   99.49   18.60
   3  -5  -5  119.99   19.50
   3  -5  -5  118.89   19.00
  -3   5   5  103.69   19.20
  -3   5   5  106.39   18.90
  -3   5   5   84.09   18.90
  -3   5   5  114.99   19.20
  -3   5   5   88.79   18.60
   2  -5  -5  234.58   38.50
   2  -5  -5  234.58   38.20
   2  -5  -5  206.88   38.80
   2  -5  -5  230.78   38.90
   2  -5  -5  240.98   39.10
   2  -5  -5  220.58   39.20
  -2   5   5  229.78   39.20
  -2   5   5  228.98   38.90
  -2   5   5  236.98   39.10
  -2   5   5  196.38   38.90
  -2   5   5  213.38   38.50
   1  -5  -5  721.33  116.49
   1  -5  -5  676.93  115.99
   1  -5  -5  716.73  116.39
   1  -5  -5  660.33  116.39
   1  -5  -5  678.63  116.09
   1  -5  -5  720.73  116.39
  -1   5   5  671.63  116.39
  -1   5   5  674.13  116.39
  -1   5   5  705.73  116.09
  -1   5   5  696.13  116.49
  -1   5   5  659.03  115.99
  -1   5   5  711.03  116.49
   0  -5  -5  278.67   45.90
   0  -5  -5  255.57   46.20
   0  -5  -5  281.17   46.30
   0  -5  -5  284.87   45.70
   0   5   5  262.97   45.10
   0   5   5  288.67   45.60
   0   5   5  235.78   45.80
   0   5   5  253.37   46.20
   0   5   5  267.47   46.10
   0   5   5  280.37   46.10
  -1  -5  -5   97.89   16.30
  -1  -5  -5   87.49   16.70
  -1  -5  -5  101.19   16.30
  -1  -5  -5  100.79   16.70
  -1  -5  -5  106.49   16.90
   1   5   5   95.99   17.00
   1   5   5   72.59   16.20
   1   5   5   66.99   15.90
   1   5   5   79.49   16.30
   1   5   5   96.19   17.00
  -2  -5  -5    5.90    7.10
  -2  -5  -5   34.00   13.70
  -2  -5  -5   23.20    6.60
  -2  -5  -5   14.70    7.40
   2   5   5   18.80    7.00
   2   5   5   28.80    9.60
   2   5   5   20.60    7.00
   2   5   5   24.40    9.60
   2   5   5   20.90    7.20
  -3  -5  -5   88.19   17.40
  -3  -5  -5   53.19   16.00
  -3  -5  -5   94.09   15.80
   3   5   5   91.79   16.10
   3   5   5   71.79   16.00
   3   5   5  107.09   23.80
   3   5   5   77.69   15.60
  -4  -5  -5   81.89   15.50
  -4  -5  -5   24.70   16.10
   4   5   5   77.99   15.30
   4   5   5  103.99   16.00
   4   5   5   71.19   15.80
  -5  -5  -5    1.80   13.00
  -5  -5  -5   -7.90   10.60
   5   5   5    0.70   10.50
   5   5   5   -5.40   10.00
   5   5   5   -1.70   10.20
   8  -6  -5   13.20   12.60
   8  -6  -5   12.70    5.60
   8  -6  -5    2.30   12.20
   8  -6  -5   12.40   13.00
  -8   6   5   24.70   17.70
  -8   6   5   24.60   12.50
   7  -6  -5    5.20    9.10
   7  -6  -5    2.00    8.90
   7  -6  -5   -1.20    9.40
  -7   6   5   -5.10    9.90
  -7   6   5    0.20   11.20
   6  -6  -5   11.00    8.40
   6  -6  -5   28.90    8.90
   6  -6  -5    6.40    7.50
  -6   6   5    2.50    7.60
  -6   6   5    5.30    9.00
   5  -6  -5   66.49   13.70
   5  -6  -5   72.69   13.80
   5  -6  -5   71.39   14.00
  -5   6   5   68.19   14.40
  -5   6   5   73.09   15.50
  -5   6   5   59.09   13.50
   4  -6  -5   34.80    8.30
   4  -6  -5   34.60    8.80
   4  -6  -5   36.90   11.00
   4  -6  -5   30.70    8.70
  -4   6   5   39.10    8.90
  -4   6   5   53.09    9.80
  -4   6   5   32.70   10.30
  -4   6   5   30.60    8.70
   3  -6  -5  402.26   67.59
   3  -6  -5  455.55   67.69
   3  -6  -5  379.56   66.79
   3  -6  -5  387.16   66.79
   3  -6  -5  409.56   67.29
   3  -6  -5  390.26   68.19
   3  -6  -5  376.96   67.99
  -3   6   5  361.66   67.39
  -3   6   5  390.76   67.99
  -3   6   5  419.86   67.79
  -3   6   5  425.96   67.69
  -3   6   5  417.76   67.99
   2  -6  -5    1.00    4.70
   2  -6  -5    0.60    2.70
   2  -6  -5    6.80    5.20
   2  -6  -5    1.90    3.60
   2  -6  -5   -9.30    6.80
   2  -6  -5   10.40    6.90
  -2   6   5   13.50    5.70
  -2   6   5   -7.60    6.10
  -2   6   5   -0.90    4.60
  -2   6   5    5.10    3.90
  -2   6   5    2.70    7.40
   1  -6  -5  128.59   23.90
   1  -6  -5  130.79   24.00
   1  -6  -5  122.39   24.60
   1  -6  -5  159.78   24.70
   1  -6  -5  143.19   24.90
   1  -6  -5  114.99   24.80
  -1   6   5  152.78   24.70
  -1   6   5  128.59   24.90
  -1   6   5  159.58   24.00
  -1   6   5  138.19   25.00
  -1   6   5  135.89   24.00
  -1   6   5  148.49   24.90
   0  -6  -5 1760.82  300.07
   0  -6  -5 1759.32  300.07
   0  -6  -5 1805.92  300.07
   0  -6  -5 1884.31  299.87
   0  -6  -5 1827.02  299.97
   0  -6  -5 1728.53  299.47
   0   6   5 1694.63  300.17
   0   6   5 1799.42  300.07
   0   6   5 1735.93  300.17
   0   6   5 1782.02  299.87
   0   6   5 1828.52  300.07
  -1  -6  -5  195.18   29.30
  -1  -6  -5  169.58   28.90
  -1  -6  -5  144.59   29.20
  -1  -6  -5  160.08   28.50
   1   6   5  196.88   29.60
   1   6   5  170.48   29.00
   1   6   5  129.19   28.30
   1   6   5  159.48   28.30
  -2  -6  -5   12.60    9.60
  -2  -6  -5   -5.10    6.10
  -2  -6  -5   -5.20    7.80
   2   6   5    0.00    5.70
   2   6   5    2.50   12.10
   2   6   5   -3.10    6.00
   2   6   5   10.20    7.20
  -3  -6  -5   72.19   24.10
  -3  -6  -5  139.79   24.20
   3   6   5  158.08   27.20
   3   6   5  137.19   24.60
   3   6   5  184.58   24.70
   3   6   5  117.19   24.00
  -4  -6  -5   13.80   14.20
  -4  -6  -5   42.20   13.70
   4   6   5   68.79   14.40
   4   6   5   57.09   14.30
   4   6   5   90.89   14.20
  -5  -6  -5   15.70   13.50
   5   6   5   50.59   14.20
   5   6   5   34.40   13.10
   5   6   5   32.40   14.40
   8  -7  -5   16.50   14.60
   8  -7  -5   15.60   13.30
   7  -7  -5   13.60   10.40
   7  -7  -5    1.70   10.10
   7  -7  -5    4.00   10.50
  -7   7   5   -2.70   16.00
  -7   7   5   -2.90   11.10
   6  -7  -5  256.57   35.00
   6  -7  -5  236.68   35.30
   6  -7  -5  200.78   35.20
  -6   7   5   79.99   35.90
  -6   7   5  190.58   35.00
   5  -7  -5    2.00    7.40
   5  -7  -5    4.10    7.00
   5  -7  -5   -2.10    6.80
  -5   7   5    6.50   11.50
  -5   7   5    6.40   11.10
  -5   7   5   -2.40    7.20
   4  -7  -5   13.80    6.60
   4  -7  -5   -5.40    7.00
   4  -7  -5    1.20    5.90
  -4   7   5    5.00    7.80
  -4   7   5    9.70    7.50
  -4   7   5    8.30    6.30
  -4   7   5   11.60    9.90
   3  -7  -5  337.07   56.49
   3  -7  -5  341.57   54.99
   3  -7  -5  323.27   55.59
   3  -7  -5  319.17   54.49
  -3   7   5  341.17   55.29
  -3   7   5  320.67   55.59
  -3   7   5  332.57   55.59
  -3   7   5  265.87   55.59
   2  -7  -5   51.59    9.80
   2  -7  -5   47.20    9.70
   2  -7  -5   45.80    8.70
   2  -7  -5   46.90   11.90
  -2   7   5   35.20   10.00
  -2   7   5   39.00   12.40
  -2   7   5   36.10    8.80
  -2   7   5   40.80    9.70
   1  -7  -5   29.80    8.80
   1  -7  -5   39.50    9.00
   1  -7  -5   35.40   10.70
   1  -7  -5   39.60    8.20
   1  -7  -5   36.90    7.40
  -1   7   5   47.40    8.00
  -1   7   5   24.70    8.90
  -1   7   5   45.10    9.60
  -1   7   5   38.10    7.40
  -1   7   5   24.80   10.90
   0  -7  -5  754.62  118.29
   0  -7  -5  686.23  117.39
   0  -7  -5  718.93  117.99
   0  -7  -5  662.63  118.29
   0  -7  -5  633.44  118.59
   0   7   5  692.03  118.69
   0   7   5  741.43  117.89
   0   7   5  679.23  118.29
  -1  -7  -5  102.19   20.50
  -1  -7  -5   87.29   20.70
  -1  -7  -5  110.99   20.00
   1   7   5  119.09   20.30
   1   7   5   89.99   20.40
   1   7   5  136.79   20.10
   1   7   5  110.79   22.10
  -2  -7  -5   11.90    9.30
  -2  -7  -5    9.00    7.70
   2   7   5    3.40   13.40
   2   7   5   -5.30    7.10
   2   7   5   -6.50    7.70
   2   7   5    6.50    7.60
  -3  -7  -5  -15.90    9.80
  -3  -7  -5    5.50    9.20
   3   7   5   -0.50    9.50
   3   7   5   -3.10    8.50
   3   7   5   -2.50    8.60
  -4  -7  -5   -9.10   11.10
  -4  -7  -5   13.50   14.20
   4   7   5   -6.10   10.70
   4   7   5   -6.50   11.90
   4   7   5    0.70   10.70
   7  -8  -5   10.50   12.10
   7  -8  -5   -0.40   11.40
   7  -8  -5    6.90   12.40
  -7   8   5   10.70   12.10
  -7   8   5    4.70   17.80
   6  -8  -5   -1.90    9.40
   6  -8  -5    2.70   10.40
   6  -8  -5    4.80    9.60
  -6   8   5    7.90   10.70
  -6   8   5   -3.00   15.70
   5  -8  -5  -10.10    7.90
   5  -8  -5  -12.90    8.60
  -5   8   5    7.00    8.50
  -5   8   5  -12.50   13.40
   4  -8  -5   22.10    8.10
   4  -8  -5   14.20    3.60
   4  -8  -5   12.20    3.50
   4  -8  -5   13.20    7.10
   4  -8  -5   16.30    9.00
  -4   8   5   -2.10    8.60
  -4   8   5    5.60   20.10
  -4   8   5   20.60    7.70
   3  -8  -5  302.37   57.09
   3  -8  -5  348.47   55.99
   3  -8  -5  361.86   56.49
  -3   8   5  320.37   57.09
  -3   8   5  354.36   57.09
  -3   8   5  264.97   57.39
  -3   8   5  319.17   56.79
   2  -8  -5   89.59   17.40
   2  -8  -5   80.99   16.20
   2  -8  -5   81.69   17.20
   2  -8  -5  102.59   16.30
  -2   8   5   92.49   16.40
  -2   8   5   93.49   17.10
  -2   8   5   79.89   17.90
  -2   8   5   97.19   19.40
   1  -8  -5   29.50    7.20
   1  -8  -5   12.00    5.10
   1  -8  -5   16.80    8.20
   1  -8  -5   17.00    7.90
  -1   8   5   16.00    7.80
  -1   8   5   30.40   11.50
  -1   8   5   15.60    8.40
  -1   8   5   16.70    5.40
   0  -8  -5   21.40    5.00
   0  -8  -5   31.70    9.70
   0  -8  -5    7.50    8.60
   0  -8  -5   31.60   10.10
   0   8   5   24.20    7.40
   0   8   5   32.20    9.60
   0   8   5    3.50   12.20
   0   8   5   30.20    8.80
  -1  -8  -5  105.39   23.70
  -1  -8  -5  137.69   23.50
   1   8   5  116.69   23.50
   1   8   5  133.49   23.40
   1   8   5  130.19   26.30
  -2  -8  -5   -8.90    8.90
  -2  -8  -5   -1.70   10.50
   2   8   5  -17.50    9.20
   2   8   5  -13.40    8.70
   2   8   5   -6.50    9.00
  -3  -8  -5    4.70   13.70
  -3  -8  -5   16.50   11.00
   3   8   5   17.70   11.00
   3   8   5   13.80   15.70
   3   8   5   13.90   18.40
   7  -9  -5  -11.40   13.10
   6  -9  -5    9.90   10.70
   6  -9  -5   -1.00   11.40
   6  -9  -5    2.30   11.00
  -6   9   5    2.90   11.20
  -6   9   5  -13.00   20.70
   5  -9  -5   12.50   10.00
   5  -9  -5   -6.80    9.60
   5  -9  -5   12.30    8.70
  -5   9   5    7.50    9.60
  -5   9   5    2.90   15.10
   4  -9  -5   90.49   19.70
   4  -9  -5   88.59   19.50
   4  -9  -5  121.99   19.20
   4  -9  -5  100.89   17.10
   4  -9  -5   95.89   17.00
  -4   9   5   75.99   21.80
  -4   9   5   96.89   19.30
   3  -9  -5  272.97   45.30
   3  -9  -5  242.28   44.80
   3  -9  -5  273.27   45.60
  -3   9   5  259.87   45.20
  -3   9   5  266.17   45.70
   2  -9  -5  191.88   37.90
   2  -9  -5  246.78   37.00
   2  -9  -5  233.08   36.90
   2  -9  -5  188.38   37.60
  -2   9   5  177.98   37.80
  -2   9   5  222.58   37.90
   1  -9  -5    6.60    8.40
   1  -9  -5   -4.40    9.20
   1  -9  -5   -4.10    6.00
   1  -9  -5   -0.30    8.60
  -1   9   5   -2.00    9.50
  -1   9   5    5.30    7.80
  -1   9   5    1.80    5.20
   0  -9  -5    0.30    8.60
   0  -9  -5   18.20    9.10
   0  -9  -5    2.60    3.40
   0   9   5   -1.80    8.20
   0   9   5   -0.70    7.40
   0   9   5    3.60    9.70
  -1  -9  -5   42.20   13.40
  -1  -9  -5   41.20   12.40
   1   9   5   45.50   13.30
   1   9   5   50.29   12.50
   1   9   5   31.50   11.70
  -2  -9  -5   79.59   17.50
  -2  -9  -5   51.69   19.00
   2   9   5  106.69   26.90
   2   9   5   71.89   16.90
   6 -10  -5    1.80   11.90
   6 -10  -5   -4.70   12.80
  -6  10   5   -5.10   13.60
   5 -10  -5  117.49   25.00
   5 -10  -5  163.38   24.50
   5 -10  -5  153.48   25.90
  -5  10   5   45.80   27.70
   4 -10  -5   46.00    8.60
   4 -10  -5   37.90   12.30
   4 -10  -5   28.80   13.30
   4 -10  -5   34.00    8.20
   4 -10  -5   44.40   10.90
  -4  10   5   15.40   16.90
  -4  10   5   25.80   13.00
   3 -10  -5   35.10    8.80
   3 -10  -5   24.60    9.20
   3 -10  -5   19.60   11.20
  -3  10   5   35.00   11.90
  -3  10   5   23.10   16.40
  -3  10   5   43.90   17.20
   2 -10  -5    8.70    8.80
   2 -10  -5    8.40   10.00
   2 -10  -5    1.50    9.50
   2 -10  -5    1.80    6.80
  -2  10   5  -10.30    8.20
  -2  10   5   12.90   10.60
  -2  10   5   -6.80   11.20
   1 -10  -5    3.30   10.30
   1 -10  -5   -3.70   10.70
   1 -10  -5   14.60   15.60
   1 -10  -5    7.10    5.90
  -1  10   5    3.50    9.70
  -1  10   5   20.20   11.50
  -1  10   5    2.10    6.60
   0 -10  -5   10.80   12.40
   0 -10  -5   12.10    4.40
   0 -10  -5   -4.20   10.60
   0  10   5   -7.00   11.70
   0  10   5   13.70   10.70
  -1 -10  -5   38.10   15.20
  -1 -10  -5   49.30   15.40
   1  10   5   46.70   15.20
   1  10   5   66.89   13.90
   1  10   5   30.30   15.40
   4 -11  -5    3.10   10.40
   4 -11  -5   -0.10   13.30
   4 -11  -5   -6.10   12.20
  -4  11   5   -7.30   18.70
  -4  11   5   -8.80   12.90
   3 -11  -5    4.70   11.90
   3 -11  -5   16.10   17.10
   3 -11  -5  -12.80   10.10
  -3  11   5   19.80   18.70
  -3  11   5   -6.10   11.60
   2 -11  -5   34.50   13.10
   2 -11  -5   33.20    9.90
   2 -11  -5   23.00   13.20
   2 -11  -5   22.90   13.50
  -2  11   5   40.40   14.00
  -2  11   5   41.70   16.80
  -2  11   5    6.90   13.70
   1 -11  -5   56.99   10.70
   1 -11  -5   26.00   14.80
   1 -11  -5   19.40   15.60
  -1  11   5   36.70   16.40
  -1  11   5   59.49   14.90
   0  11   5   -0.80   13.10
   0  13  -6    9.40   14.20
   0 -13   6   -0.80   12.20
   0 -13   6   -2.60   10.70
   0 -13   6    0.20   12.20
  -1  13  -6   10.40   13.70
  -1  13  -6    4.50   18.60
   1 -13   6    8.60   10.40
   1 -13   6    8.40   13.00
   1 -13   6   49.00   21.10
  -2  13  -6   -2.60   13.40
  -2  13  -6    4.90   16.70
   2 -13   6    9.50   12.70
   2 -13   6    2.30   12.50
   2 -13   6   -6.90   11.30
   2  12  -6   94.29   18.00
   2  12  -6   54.49   19.70
  -2 -12   6   54.49   16.30
  -2 -12   6   36.80   15.00
  -2 -12   6   76.39   15.80
   1  12  -6   24.60   15.60
  -1 -12   6    3.60   10.10
  -1 -12   6    2.30   10.50
  -1 -12   6   17.50   10.40
   0  12  -6    0.30   14.90
   0  12  -6   37.40   11.60
   0 -12   6   26.70   10.30
   0 -12   6   22.00   10.50
   0 -12   6   27.80   10.60
  -1  12  -6   55.39   29.40
  -1  12  -6  117.69   19.90
   1 -12   6   47.10   17.50
   1 -12   6  127.59   19.00
   1 -12   6  129.09   22.10
   1 -12   6   94.69   19.10
  -2  12  -6   19.10   27.20
  -2  12  -6   -5.60   10.60
   2 -12   6    3.10    9.20
   2 -12   6   -7.40   10.00
   2 -12   6    7.90   15.80
   2 -12   6    5.60   10.70
  -3  12  -6   -6.80   14.20
  -3  12  -6    4.80   12.00
   3 -12   6   10.00   11.00
   3 -12   6    0.60   11.60
   3 -12   6   12.50   11.60
   3 -12   6    7.10   10.90
  -4  12  -6   35.10   16.10
  -4  12  -6    7.40   17.60
   4 -12   6   65.39   14.40
   4 -12   6   49.50   14.40
   4 -12   6   60.49   14.90
   4 -12   6   35.20   15.50
   3  11  -6    7.30   11.80
   3  11  -6   33.20   12.40
  -3 -11   6   32.40   11.40
  -3 -11   6    7.60   10.80
  -3 -11   6    4.40   11.80
   2  11  -6   42.30   12.00
   2  11  -6   32.10   11.90
  -2 -11   6   29.70   10.80
  -2 -11   6   31.90   10.90
  -2 -11   6   12.00   10.60
   1  11  -6   27.00   12.30
   1  11  -6   31.00   14.60
  -1 -11   6   56.69   12.10
  -1 -11   6   54.89   12.10
  -1 -11   6   59.19   15.20
  -1 -11   6   42.60   11.20
   0  11  -6   -4.60   17.50
   0  11  -6    5.00   11.60
   0  11  -6    6.10    8.90
   0 -11   6   15.00    7.70
   0 -11   6    3.80    8.30
   0 -11   6   21.40   13.10
   0 -11   6   10.90    8.70
  -1  11  -6   65.19   13.80
  -1  11  -6   63.59   13.70
  -1  11  -6   50.79   15.00
   1 -11   6   63.89   12.90
   1 -11   6   69.79   13.70
   1 -11   6   47.10   15.30
   1 -11   6   36.50   11.90
  -2  11  -6  -15.10   11.40
  -2  11  -6    3.20    8.70
  -2  11  -6   -0.50    9.80
   2 -11   6    0.60    7.80
   2 -11   6   -3.80   12.10
   2 -11   6    4.20    8.60
   2 -11   6    1.70    9.00
  -3  11  -6   69.09   15.30
  -3  11  -6   32.60   16.30
  -3  11  -6   78.99   15.00
   3 -11   6   45.10   17.90
   3 -11   6   52.59   14.20
   3 -11   6   59.09   14.60
   3 -11   6   63.59   14.60
   3 -11   6   69.89   14.10
  -4  11  -6   10.50   24.90
  -4  11  -6   44.40   13.70
   4 -11   6   43.10   11.50
   4 -11   6   28.70   11.30
   4 -11   6   17.00   10.80
   4 -11   6   10.80   17.70
   4 -11   6   17.40   11.80
  -5  11  -6   -3.20   17.10
  -5  11  -6   38.00   14.50
   5 -11   6   17.20   16.90
   5 -11   6   29.60   12.20
   5 -11   6   38.30   13.40
   5 -11   6   23.10   12.40
   4  10  -6   77.59   16.40
   4  10  -6   44.10   15.20
  -4 -10   6   21.30   26.00
  -4 -10   6   62.59   16.00
  -4 -10   6   60.59   15.00
   3  10  -6    8.10    9.20
   3  10  -6   -1.80   10.50
  -3 -10   6    6.90    8.90
  -3 -10   6    4.50    8.70
  -3 -10   6   -5.30   13.60
  -3 -10   6   -2.80    9.60
   2  10  -6   74.99   13.40
   2  10  -6   70.59   17.20
   2  10  -6   66.19   13.90
  -2 -10   6   41.20   13.40
  -2 -10   6   75.39   13.40
  -2 -10   6   40.20   13.00
   1  10  -6    1.10    7.40
   1  10  -6   22.70   13.20
   1  10  -6   13.40   10.20
  -1 -10   6    4.20    6.90
  -1 -10   6    2.90    6.80
  -1 -10   6    3.50    6.80
  -1 -10   6    1.50    9.30
   0  10  -6   57.49   12.60
   0  10  -6   27.60   13.90
   0 -10   6   77.49   13.00
   0 -10   6   78.19   14.00
   0 -10   6   57.09   12.50
   0 -10   6   53.19   11.90
  -1  10  -6   81.09   13.10
  -1  10  -6   56.19   14.40
  -1  10  -6   57.99   12.80
   1 -10   6   58.39   12.80
   1 -10   6   51.99   13.40
   1 -10   6   38.00   12.20
   1 -10   6   95.59   14.10
  -2  10  -6  243.78   46.70
  -2  10  -6  286.07   46.80
   2 -10   6  253.27   46.90
   2 -10   6  284.67   47.00
   2 -10   6  293.47   47.30
   2 -10   6  271.47   47.00
   2 -10   6  260.87   46.70
  -3  10  -6   77.59   22.70
  -3  10  -6  109.49   22.10
   3 -10   6  116.19   23.30
   3 -10   6  120.59   22.30
   3 -10   6  154.28   22.40
   3 -10   6  114.19   21.60
   3 -10   6  128.99   21.90
  -4  10  -6   -2.40   13.30
  -4  10  -6   20.60   11.40
  -4  10  -6   19.00   10.60
   4 -10   6   27.30   10.30
   4 -10   6   28.00    9.60
   4 -10   6   46.60    9.90
   4 -10   6   16.50    9.10
  -5  10  -6    2.00   11.80
   5 -10   6   -7.20    9.30
   5 -10   6   -4.00   10.60
   5 -10   6   -6.20   17.70
   5 -10   6    4.90    9.40
   5 -10   6    9.90   10.20
   6 -10   6   49.50   15.70
   6 -10   6   50.69   15.60
   6 -10   6   80.49   16.60
   5   9  -6   10.00   12.10
   5   9  -6   -3.00   11.30
  -5  -9   6   17.40   11.10
  -5  -9   6  -10.50   15.50
  -5  -9   6   -1.90   12.80
   4   9  -6    9.00    9.40
   4   9  -6   10.10   10.40
  -4  -9   6   -1.60   10.40
  -4  -9   6   10.90    9.50
  -4  -9   6    8.90    9.10
  -4  -9   6   10.70   17.90
   3   9  -6   18.40   14.40
   3   9  -6   40.10   10.40
   3   9  -6   48.30   11.10
  -3  -9   6   45.00   13.10
  -3  -9   6   27.70   11.00
  -3  -9   6   43.20   10.60
  -3  -9   6   35.70   10.30
   2   9  -6   74.59   15.80
   2   9  -6   72.89   18.10
   2   9  -6   84.59   16.40
  -2  -9   6   96.69   17.00
  -2  -9   6   92.29   18.50
  -2  -9   6  103.79   16.20
  -2  -9   6   62.19   15.90
   1   9  -6   71.19   14.30
   1   9  -6   63.89   11.70
   1   9  -6   72.69   12.10
  -1  -9   6   53.99   12.30
  -1  -9   6   60.99   11.60
  -1  -9   6   40.70   11.50
  -1  -9   6   36.90   10.80
   0   9  -6    7.80    8.00
   0   9  -6   -5.00    5.60
   0  -9   6   -0.30    5.10
   0  -9   6   -2.70    5.50
   0  -9   6    1.40    8.10
   0  -9   6   -7.20    6.90
   0  -9   6    1.70    5.50
  -1   9  -6   31.80    8.90
  -1   9  -6   17.20    6.50
  -1   9  -6   12.70    6.80
   1  -9   6   19.10    6.80
   1  -9   6   10.80    7.70
   1  -9   6   19.90    9.70
   1  -9   6   21.90   10.70
   1  -9   6   17.60    6.10
  -2   9  -6   27.20    7.80
  -2   9  -6   26.10    7.70
  -2   9  -6   12.50    9.20
   2  -9   6   13.60   12.10
   2  -9   6   31.80   12.20
   2  -9   6   19.00    7.60
   2  -9   6   25.90    9.10
   2  -9   6   24.60    7.90
   2  -9   6   30.60   15.50
  -3   9  -6   31.40    9.70
  -3   9  -6   34.40    9.80
  -3   9  -6   26.20   10.80
   3  -9   6   43.80    9.50
   3  -9   6   37.20   11.30
   3  -9   6   27.80    9.20
   3  -9   6   47.80   10.10
   3  -9   6   45.20   10.00
  -4   9  -6  -11.50   10.50
  -4   9  -6    8.50    8.70
   4  -9   6   -6.30    7.10
   4  -9   6    3.80    8.30
   4  -9   6    8.10   11.00
   4  -9   6    4.40    7.80
   4  -9   6   10.40    8.10
  -5   9  -6   73.19   21.30
  -5   9  -6   83.09   21.10
  -5   9  -6  109.49   20.50
   5  -9   6  105.79   19.60
   5  -9   6  149.69   23.40
   5  -9   6   97.19   20.50
   5  -9   6  108.69   20.10
   5  -9   6   99.99   19.50
  -6   9  -6    2.90   13.40
   6  -9   6    0.50   12.00
   6  -9   6   20.10   11.40
   6  -9   6   12.20   11.70
   6  -9   6    8.60   10.80
   6   8  -6   26.70   13.10
   6   8  -6   23.40   13.10
  -6  -8   6   12.90   12.60
  -6  -8   6    1.80   11.80
  -6  -8   6   16.10   13.00
   5   8  -6   43.90   13.70
   5   8  -6   63.89   13.50
  -5  -8   6   45.80   13.60
  -5  -8   6   26.30   13.90
  -5  -8   6   54.19   12.80
   4   8  -6  154.68   20.90
   4   8  -6   27.30   23.70
   4   8  -6  126.39   20.90
  -4  -8   6  144.89   20.60
  -4  -8   6   86.69   20.70
  -4  -8   6   81.39   20.40
  -4  -8   6   96.19   23.10
   3   8  -6   17.50    7.90
   3   8  -6   33.30    8.50
   3   8  -6   -0.90   11.40
  -3  -8   6   24.90    9.10
  -3  -8   6   26.30   10.50
  -3  -8   6   30.40    8.10
  -3  -8   6   40.60   10.10
   2   8  -6  326.17   55.89
   2   8  -6  316.47   55.89
   2   8  -6  409.76   56.69
  -2  -8   6  279.17   55.79
  -2  -8   6  284.77   55.99
  -2  -8   6  297.87   55.99
  -2  -8   6  397.06   56.49
   1   8  -6 2116.39  354.26
   1   8  -6 2001.90  354.36
   1   8  -6 2145.09  354.36
   1   8  -6 2030.80  354.26
  -1  -8   6 2084.29  354.36
  -1  -8   6 2168.98  354.96
  -1  -8   6 2087.69  354.36
  -1  -8   6 2156.38  354.36
  -1  -8   6 2168.68  354.46
   0   8  -6 1080.19  201.28
   0   8  -6 1145.79  201.48
   0   8  -6 1106.39  201.48
   0   8  -6 1257.77  201.48
   0   8  -6 1189.98  201.38
   0  -8   6 1225.58  201.48
   0  -8   6 1177.38  201.58
   0  -8   6 1206.68  201.58
   0  -8   6 1270.97  201.48
   0  -8   6 1191.28  201.38
   0  -8   6 1293.57  201.38
  -1   8  -6  215.28   41.30
  -1   8  -6  261.67   41.60
  -1   8  -6  226.98   41.40
  -1   8  -6  219.08   41.10
   1  -8   6  245.28   41.50
   1  -8   6  298.07   41.80
   1  -8   6  243.98   41.40
   1  -8   6  230.28   41.40
  -2   8  -6  220.58   40.80
  -2   8  -6  235.08   40.50
  -2   8  -6  218.28   40.50
  -2   8  -6  222.78   40.60
   2  -8   6  255.37   41.00
   2  -8   6  231.98   40.60
   2  -8   6  235.88   41.90
   2  -8   6  253.37   40.80
   2  -8   6  221.18   40.50
   2  -8   6  281.67   40.90
  -3   8  -6   -7.60    6.30
  -3   8  -6    0.10    7.90
  -3   8  -6    0.40    5.90
   3  -8   6   11.20    5.60
   3  -8   6    8.30    7.60
   3  -8   6   -0.40    5.90
   3  -8   6   -2.40    5.80
   3  -8   6   -2.00   10.50
   3  -8   6    7.60    6.20
  -4   8  -6    3.70    8.50
  -4   8  -6   -2.60    7.30
  -4   8  -6    4.70    7.40
   4  -8   6    3.10    6.80
   4  -8   6    6.90    6.70
   4  -8   6    2.60    9.40
   4  -8   6   15.00    6.60
   4  -8   6  -16.40   10.50
  -5   8  -6   17.30   10.10
  -5   8  -6   20.90    9.90
  -5   8  -6   18.30   10.40
   5  -8   6   20.90    9.10
   5  -8   6   16.80   12.80
   5  -8   6   18.90    8.10
   5  -8   6   10.20    9.10
   5  -8   6    8.00    7.70
  -6   8  -6  146.49   27.90
  -6   8  -6  109.19   34.70
   6  -8   6  161.58   27.20
   6  -8   6  178.68   30.90
   6  -8   6  140.49   27.80
   6  -8   6  122.29   27.80
   6  -8   6  155.38   27.40
   6   7  -6   13.90   11.30
   6   7  -6   -1.20   10.90
   6   7  -6   13.10   10.40
  -6  -7   6   -3.50   13.10
  -6  -7   6    7.60   10.10
  -6  -7   6   -1.90   10.10
   5   7  -6   80.89   15.20
   5   7  -6   71.09   15.00
  -5  -7   6   24.50   14.60
  -5  -7   6   82.49   16.90
  -5  -7   6   77.59   14.70
  -5  -7   6   73.29   14.70
   4   7  -6  153.78   21.70
   4   7  -6  111.79   21.30
   4   7  -6   81.19   23.40
  -4  -7   6  123.79   22.30
  -4  -7   6   81.29   21.40
  -4  -7   6  132.69   21.70
   3   7  -6  291.37   53.59
   3   7  -6  307.67   53.69
  -3  -7   6  322.07   53.89
  -3  -7   6  313.37   53.99
  -3  -7   6  308.67   53.79
  -3  -7   6  313.57   53.59
  -3  -7   6  342.77   54.49
   2   7  -6   29.50    9.90
   2   7  -6   44.10    9.20
   2   7  -6   53.59    9.50
   2   7  -6   52.59   10.70
  -2  -7   6   42.30   10.10
  -2  -7   6   47.30   10.40
  -2  -7   6   41.00    9.30
  -2  -7   6   47.60   10.40
  -2  -7   6   44.60    9.70
  -2  -7   6   45.60    9.50
   1   7  -6  156.68   25.40
   1   7  -6  161.18   24.60
   1   7  -6  209.18   25.10
   1   7  -6  135.99   24.60
  -1  -7   6  136.99   24.60
  -1  -7   6  110.29   24.80
  -1  -7   6  141.09   24.60
  -1  -7   6  124.39   24.60
  -1  -7   6  137.79   24.70
  -1  -7   6  108.59   24.80
   0   7  -6  182.88   34.70
   0   7  -6  192.08   34.70
   0   7  -6  257.67   34.80
   0   7  -6  177.78   34.60
   0   7  -6  215.48   34.80
   0  -7   6  205.68   34.70
   0  -7   6  219.78   34.90
   0  -7   6  193.38   34.60
   0  -7   6  186.78   34.50
   0  -7   6  186.78   34.60
  -1   7  -6    9.70    3.90
  -1   7  -6    5.90    5.40
  -1   7  -6   12.90    5.70
  -1   7  -6   10.80    6.00
  -1   7  -6   12.00    4.40
   1  -7   6    7.70    5.90
   1  -7   6   13.90    4.40
   1  -7   6   14.70    4.80
   1  -7   6   -1.40    4.70
  -2   7  -6   57.99   10.70
  -2   7  -6   74.49   10.50
  -2   7  -6   41.60   10.60
  -2   7  -6   63.49   11.00
   2  -7   6   58.39   10.10
   2  -7   6   43.20   11.50
   2  -7   6   40.00   10.30
   2  -7   6   53.09   10.20
   2  -7   6   45.40   10.50
   2  -7   6   35.10   10.50
  -3   7  -6  309.97   56.09
  -3   7  -6  349.37   55.69
  -3   7  -6  333.97   55.69
   3  -7   6  244.68   58.29
   3  -7   6  332.87   55.79
   3  -7   6  331.87   55.69
   3  -7   6  331.67   55.79
   3  -7   6  312.57   55.89
  -4   7  -6  288.07   48.80
  -4   7  -6  280.67   48.50
  -4   7  -6  267.67   48.50
   4  -7   6  235.78   49.40
   4  -7   6  275.27   48.60
   4  -7   6  285.97   48.40
   4  -7   6  299.47   48.50
   4  -7   6  287.47   48.40
  -5   7  -6    9.50    8.50
  -5   7  -6    9.00    8.60
   5  -7   6   10.30    8.20
   5  -7   6   10.80    7.40
   5  -7   6   14.00   10.70
   5  -7   6  -11.70    7.30
   5  -7   6   -4.60    6.60
  -6   7  -6   17.00   12.20
  -6   7  -6    8.00   10.80
   6  -7   6   26.90   10.70
   6  -7   6    7.40    8.90
   6  -7   6    5.90    9.20
   6  -7   6   -1.50    9.20
   6  -7   6   50.69   15.70
  -7   7  -6   16.80   17.60
   7  -7   6   15.10   11.40
   7  -7   6   16.90   12.80
   7  -7   6    3.40   18.40
   7   6  -6   -0.50   10.90
   7   6  -6    1.60   12.60
   7   6  -6   -1.00   12.90
  -7  -6   6   -1.00   12.60
  -7  -6   6   21.50   14.70
   6   6  -6  130.29   22.20
   6   6  -6  134.89   22.80
   6   6  -6  145.59   22.80
  -6  -6   6  115.59   22.60
  -6  -6   6   50.09   22.50
   5   6  -6    2.00   14.60
   5   6  -6    3.10    7.50
   5   6  -6   -3.40    7.40
   5   6  -6   -4.10    7.30
  -5  -6   6    2.10    8.80
  -5  -6   6    2.00    9.60
  -5  -6   6   10.50    7.60
   4   6  -6    4.20    5.80
   4   6  -6    6.20   10.70
   4   6  -6    0.90    5.80
  -4  -6   6    0.90    7.30
  -4  -6   6   -4.70    5.90
  -4  -6   6   10.40    5.60
  -4  -6   6   -1.70    9.10
   3   6  -6  236.58   43.70
   3   6  -6  245.38   43.80
   3   6  -6  269.57   44.40
   3   6  -6  321.87   44.10
  -3  -6   6  227.58   43.70
  -3  -6   6  245.58   43.80
  -3  -6   6  251.37   43.70
  -3  -6   6  239.48   43.90
  -3  -6   6  251.57   43.70
  -3  -6   6  276.37   44.10
   2   6  -6  168.48   28.70
   2   6  -6  156.88   28.50
   2   6  -6  161.88   28.60
  -2  -6   6  186.58   28.80
  -2  -6   6  144.39   28.50
  -2  -6   6  139.49   28.50
  -2  -6   6  181.48   28.70
  -2  -6   6  175.08   28.50
  -2  -6   6  192.38   29.30
   1   6  -6  197.28   25.80
   1   6  -6  155.38   25.70
   1   6  -6  152.88   25.90
   1   6  -6  131.49   25.60
  -1  -6   6  142.99   25.70
  -1  -6   6  140.69   25.70
  -1  -6   6  151.28   25.80
  -1  -6   6  153.68   25.90
  -1  -6   6  140.19   26.10
  -1  -6   6  115.59   25.70
   0   6  -6  504.35   79.99
   0   6  -6  450.65   79.69
   0   6  -6  491.35   79.89
   0   6  -6  445.76   79.79
   0  -6   6  472.15   79.79
   0  -6   6  434.06   79.89
   0  -6   6  475.15   79.99
   0  -6   6  502.65   79.99
   0  -6   6  487.25   79.79
  -1   6  -6  666.93  110.09
  -1   6  -6  638.94  109.89
  -1   6  -6  657.03  110.19
  -1   6  -6  663.83  110.29
   1  -6   6  638.84  110.29
   1  -6   6  662.03  110.29
   1  -6   6  627.84  110.09
   1  -6   6  683.93  110.09
   1  -6   6  642.24  110.39
  -2   6  -6   10.20    5.60
  -2   6  -6   -2.60    4.40
  -2   6  -6   10.80    4.70
  -2   6  -6    2.80    3.20
  -2   6  -6    8.50    3.90
   2  -6   6    4.50    3.60
   2  -6   6   14.00    4.70
   2  -6   6   -0.40    5.60
   2  -6   6    0.60    3.80
   2  -6   6    3.40    4.20
   2  -6   6    6.40    4.00
  -3   6  -6  454.35   81.19
  -3   6  -6  487.75   81.09
  -3   6  -6  469.65   80.89
  -3   6  -6  441.16   80.99
   3  -6   6  476.75   81.09
   3  -6   6  495.15   80.99
   3  -6   6  480.35   81.09
   3  -6   6  496.45   81.09
   3  -6   6  460.85   81.49
   3  -6   6  516.85   81.09
  -4   6  -6    4.40    6.00
  -4   6  -6   -6.20    5.70
  -4   6  -6   -0.90    6.00
   4  -6   6    1.40    5.10
   4  -6   6   -5.90    6.90
   4  -6   6    0.80    5.80
   4  -6   6   -2.80    6.00
   4  -6   6   -3.70    5.40
   4  -6   6   13.50    9.70
  -5   6  -6   -3.60    8.60
  -5   6  -6    6.30    7.80
  -5   6  -6    8.10    8.00
   5  -6   6    1.20    6.90
   5  -6   6    1.00    7.70
   5  -6   6    6.60    6.40
   5  -6   6    5.10    7.40
   5  -6   6    5.60    9.60
  -6   6  -6  124.89   19.60
  -6   6  -6   79.29   18.90
  -6   6  -6   49.00   17.60
   6  -6   6   83.29   20.30
   6  -6   6   54.69   17.20
   6  -6   6   97.09   17.00
   6  -6   6   97.09   17.30
   6  -6   6   81.69   17.10
  -7   6  -6  154.08   36.70
  -7   6  -6  277.47   38.50
   7  -6   6  228.28   36.00
   7  -6   6  246.58   36.20
   7  -6   6  202.88   35.50
   7  -6   6   86.99   37.00
   7   5  -6   13.60   11.20
   7   5  -6    1.70   10.30
   7   5  -6    6.00   11.20
  -7  -5   6  -23.10   17.50
   6   5  -6   58.39   11.80
   6   5  -6   55.29   12.30
  -6  -5   6   44.90   14.30
  -6  -5   6   27.90   12.90
   5   5  -6   23.40    8.30
   5   5  -6   42.90    9.20
   5   5  -6   37.70    9.00
   5   5  -6   17.50   13.20
  -5  -5   6    4.40   13.50
  -5  -5   6   32.10    9.30
  -5  -5   6   26.10    9.70
   4   5  -6   95.59   16.80
   4   5  -6   93.49   16.00
   4   5  -6  106.49   16.00
   4   5  -6   76.79   17.50
  -4  -5   6   79.19   16.00
  -4  -5   6   88.09   16.30
  -4  -5   6   57.39   16.00
   3   5  -6   12.50    6.20
   3   5  -6    9.20    4.50
   3   5  -6   19.80    6.80
   3   5  -6    8.70    4.60
  -3  -5   6   12.00    5.80
  -3  -5   6   10.90    5.10
  -3  -5   6    9.80    5.70
  -3  -5   6   20.20    5.50
  -3  -5   6    6.30    5.00
   2   5  -6  198.68   35.90
   2   5  -6  214.98   35.70
   2   5  -6  230.88   36.10
   2   5  -6  211.08   35.80
  -2  -5   6  209.08   36.10
  -2  -5   6  207.58   35.80
  -2  -5   6  212.48   35.90
  -2  -5   6  212.18   36.00
  -2  -5   6  215.88   35.90
  -2  -5   6  188.68   35.80
   1   5  -6   29.00    5.90
   1   5  -6   27.90    5.80
   1   5  -6   33.00    5.90
   1   5  -6   32.60    6.60
  -1  -5   6   25.60    6.30
  -1  -5   6   34.10    6.00
  -1  -5   6   29.20    6.40
  -1  -5   6   34.60    5.90
  -1  -5   6   21.80    6.00
   0   5  -6  412.06   67.09
   0   5  -6  443.36   67.29
   0   5  -6  369.56   66.99
   0  -5   6  376.06   66.99
   0  -5   6  392.26   67.29
   0  -5   6  404.76   66.99
   0  -5   6  402.56   67.09
   0  -5   6  396.36   67.19
  -1   5  -6   62.09   10.80
  -1   5  -6   64.29   11.10
  -1   5  -6   52.79   10.60
   1  -5   6   65.89   11.20
   1  -5   6   70.19   10.70
   1  -5   6   55.09   10.50
   1  -5   6   48.90   10.90
   1  -5   6   45.60   10.80
   1  -5   6   68.99   10.70
  -2   5  -6   53.79   12.60
  -2   5  -6   65.19   12.00
  -2   5  -6   68.29   11.80
  -2   5  -6   73.69   12.30
  -2   5  -6   81.59   12.40
   2  -5   6   59.69   12.30
   2  -5   6   68.99   12.20
   2  -5   6   65.39   12.60
   2  -5   6   58.89   12.20
   2  -5   6   82.19   12.90
  -3   5  -6  389.56   69.09
  -3   5  -6  414.86   69.29
  -3   5  -6  402.06   69.09
  -3   5  -6  418.46   68.99
   3  -5   6  431.76   69.59
   3  -5   6  412.16   69.09
   3  -5   6  411.96   69.19
   3  -5   6  375.26   69.19
   3  -5   6  408.76   69.19
   3  -5   6  409.86   69.19
  -4   5  -6    2.20    6.50
  -4   5  -6    0.30    6.70
  -4   5  -6    2.40    5.20
  -4   5  -6   -7.20    5.40
   4  -5   6   -1.10    5.40
   4  -5   6    9.20    6.20
   4  -5   6    1.60    8.70
   4  -5   6    5.10    5.20
   4  -5   6    3.30    5.40
   4  -5   6    3.40    4.60
  -5   5  -6   29.00    9.00
  -5   5  -6   23.10    9.90
  -5   5  -6   18.80    8.90
   5  -5   6   14.90    7.70
   5  -5   6   25.20   10.40
   5  -5   6   16.60    7.70
   5  -5   6   40.30   10.20
   5  -5   6   34.90   10.60
  -6   5  -6   38.80   13.90
  -6   5  -6   65.09   15.00
  -6   5  -6   75.99   16.90
   6  -5   6   94.59   14.00
   6  -5   6   55.69   13.70
   6  -5   6   39.80   12.70
   6  -5   6   55.89   13.90
  -7   5  -6   72.59   27.80
  -7   5  -6   89.69   24.90
   7  -5   6  159.18   24.10
   7  -5   6  144.99   24.30
   7  -5   6  144.89   24.10
   7  -5   6   90.89   24.80
   7   4  -6   18.20   10.70
   7   4  -6    8.40    9.90
   7   4  -6   -9.40    8.80
  -7  -4   6    1.90   11.10
  -7  -4   6   13.10   15.30
   6   4  -6   20.50    8.50
   6   4  -6   22.10    9.00
   6   4  -6   20.30    8.50
  -6  -4   6   25.30    9.50
  -6  -4   6   18.70   13.40
  -6  -4   6    9.50   11.10
   5   4  -6  586.94   94.49
   5   4  -6  590.24   94.39
   5   4  -6  577.54   94.59
  -5  -4   6  578.04   94.69
  -5  -4   6  510.25   94.99
  -5  -4   6  482.25   94.59
   4   4  -6    0.10    4.90
   4   4  -6   10.70    7.80
   4   4  -6   10.00    6.60
   4   4  -6   12.50    4.70
  -4  -4   6   22.10    6.30
  -4  -4   6    9.70    5.40
  -4  -4   6    3.70    7.40
  -4  -4   6    3.50    5.20
  -4  -4   6    3.70    6.30
   3   4  -6   24.70    6.40
   3   4  -6   23.80    6.70
   3   4  -6   32.70    5.70
   3   4  -6   16.90    5.60
  -3  -4   6   20.90    7.20
  -3  -4   6   26.90    6.40
  -3  -4   6   30.70    6.10
  -3  -4   6   18.50    6.30
  -3  -4   6   25.30    6.40
   2   4  -6  221.78   37.60
   2   4  -6  229.38   37.90
   2   4  -6  220.18   37.70
   2   4  -6  222.38   37.80
  -2  -4   6  238.08   37.90
  -2  -4   6  227.38   38.10
  -2  -4   6  220.08   38.00
  -2  -4   6  200.38   37.90
  -2  -4   6  221.98   37.80
   1   4  -6  190.48   35.00
   1   4  -6  220.38   35.10
  -1  -4   6  211.98   35.10
  -1  -4   6  212.18   35.00
  -1  -4   6  212.28   35.00
  -1  -4   6  198.88   35.20
  -1  -4   6  198.98   34.90
   0   4  -6 1078.39  180.58
   0   4  -6 1139.79  180.78
   0  -4   6 1056.79  180.58
   0  -4   6 1089.29  180.78
   0  -4   6 1096.09  180.58
   0  -4   6 1004.40  180.58
  -1   4  -6  724.73  120.69
  -1   4  -6  720.23  120.49
  -1   4  -6  697.53  120.49
   1  -4   6  698.03  120.49
   1  -4   6  724.73  120.59
   1  -4   6  714.73  120.69
   1  -4   6  687.93  120.59
   1  -4   6  749.03  120.79
   1  -4   6  739.23  120.49
  -2   4  -6   69.39   11.90
  -2   4  -6   74.49   12.30
  -2   4  -6   71.99   12.70
   2  -4   6   73.69   12.70
   2  -4   6   75.19   12.30
   2  -4   6   64.99   13.00
   2  -4   6   70.09   12.40
   2  -4   6   65.79   12.20
   2  -4   6   54.29   12.40
  -3   4  -6    4.20    4.40
  -3   4  -6    6.90    3.20
  -3   4  -6   -1.50    3.70
  -3   4  -6  -13.60    5.00
  -3   4  -6   -2.70    4.20
  -3   4  -6   -1.30    6.20
   3  -4   6   -3.10    4.00
   3  -4   6    2.00    4.20
   3  -4   6    0.80    3.90
   3  -4   6    3.60    3.40
   3  -4   6    0.40    5.70
   3  -4   6   -0.60    3.90
  -4   4  -6   34.90    7.80
  -4   4  -6   30.20    9.10
  -4   4  -6   32.50    7.50
  -4   4  -6   18.50    8.30
  -4   4  -6   27.10    8.50
   4  -4   6   26.00    7.30
   4  -4   6   22.60    7.50
   4  -4   6   40.10   10.90
   4  -4   6   25.30    7.00
   4  -4   6   35.60    7.60
  -5   4  -6    2.70    7.00
  -5   4  -6    3.80    7.70
  -5   4  -6   -6.40   10.10
   5  -4   6    7.00    8.90
   5  -4   6    7.80    6.00
   5  -4   6   -3.30    6.60
   5  -4   6   16.40    6.30
   5  -4   6   -1.60    6.80
  -6   4  -6   10.80   13.60
  -6   4  -6   -1.90    9.60
  -6   4  -6   -4.30   11.00
   6  -4   6    3.10    7.90
   6  -4   6    2.90    8.00
   6  -4   6   17.10   14.40
   6  -4   6    2.20    7.70
   6  -4   6   -3.30    9.20
  -7   4  -6  121.79   25.50
  -7   4  -6   39.50   25.90
   7  -4   6  179.08   25.00
   7  -4   6  144.69   24.40
   7  -4   6  208.68   26.30
   7  -4   6   79.99   24.90
   8   3  -6   11.40   11.20
   8   3  -6   17.10   13.40
   8   3  -6    6.70   12.50
  -8  -3   6    8.90   20.60
  -8  -3   6    5.90   14.30
   7   3  -6   31.30   10.20
   7   3  -6   45.60   11.50
   7   3  -6   37.00   10.70
  -7  -3   6   23.30   15.30
  -7  -3   6   18.60   12.30
   6   3  -6   21.30   14.10
   6   3  -6    8.00    7.20
   6   3  -6   14.60    6.60
   6   3  -6    8.30    7.10
  -6  -3   6   19.10   10.80
  -6  -3   6    9.00    8.90
  -6  -3   6    3.30    8.10
   5   3  -6  113.19   22.20
   5   3  -6  113.99   20.80
   5   3  -6  108.29   20.80
   5   3  -6   97.29   20.50
  -5  -3   6  114.49   21.10
  -5  -3   6  153.88   21.90
  -5  -3   6  111.09   21.10
  -5  -3   6  120.39   20.80
  -5  -3   6  128.49   21.70
   4   3  -6  138.49   23.50
   4   3  -6  117.49   23.70
   4   3  -6  127.59   23.10
   4   3  -6  132.19   23.50
  -4  -3   6  152.38   23.70
  -4  -3   6  150.78   23.40
  -4  -3   6  125.09   23.50
  -4  -3   6  120.59   23.20
  -4  -3   6  128.49   23.20
   3   3  -6   98.79   16.20
   3   3  -6   96.09   16.30
   3   3  -6   85.59   15.90
   3   3  -6   89.79   15.90
  -3  -3   6   86.19   16.00
  -3  -3   6   95.69   16.10
  -3  -3   6   97.89   16.20
  -3  -3   6   84.49   16.10
  -3  -3   6   85.49   16.60
   2   3  -6    9.20    2.50
   2   3  -6    6.50    2.90
  -2  -3   6    6.40    3.10
  -2  -3   6    7.80    3.10
  -2  -3   6    2.80    3.20
  -2  -3   6    8.30    3.00
  -2  -3   6    4.10    2.40
   1   3  -6   22.60    4.60
  -1  -3   6   24.40    4.60
  -1  -3   6   23.20    4.80
  -1  -3   6   27.40    4.50
  -1  -3   6   26.90    5.10
  -1  -3   6   21.40    4.40
   0   3  -6  146.99   24.30
   0   3  -6  140.59   24.70
   0   3  -6  141.39   24.30
   0  -3   6  144.39   24.30
   0  -3   6  166.18   24.30
   0  -3   6  142.29   24.20
   0  -3   6  127.29   24.20
   0  -3   6  142.59   24.60
  -1   3  -6   -0.30    2.00
  -1   3  -6    0.50    3.00
   1  -3   6    2.20    1.70
   1  -3   6    2.30    3.90
   1  -3   6    0.70    3.20
   1  -3   6   -1.60    1.80
   1  -3   6   -0.20    2.50
  -2   3  -6  283.27   48.70
  -2   3  -6  267.27   48.30
  -2   3  -6  259.67   48.40
  -2   3  -6  308.67   48.40
   2  -3   6  296.47   48.60
   2  -3   6  296.77   48.30
   2  -3   6  281.97   48.40
   2  -3   6  291.37   48.30
   2  -3   6  286.57   48.40
   2  -3   6  278.27   48.50
  -3   3  -6   19.60    5.30
  -3   3  -6   19.40    6.40
  -3   3  -6   19.30    5.20
  -3   3  -6   11.80    5.20
  -3   3  -6   24.50    4.90
   3  -3   6   10.90    5.30
   3  -3   6   13.60    4.80
   3  -3   6   26.10    5.70
   3  -3   6   22.60    6.80
   3  -3   6   23.40    5.40
   3  -3   6   21.20    5.10
  -4   3  -6   12.90    7.80
  -4   3  -6    8.10    5.90
  -4   3  -6   10.30    5.60
  -4   3  -6    4.40    5.30
  -4   3  -6    0.40    6.30
   4  -3   6    3.50    5.20
   4  -3   6   23.10    9.70
   4  -3   6    1.80    5.40
   4  -3   6   11.20    4.90
   4  -3   6   12.10    8.50
   4  -3   6    7.60    4.80
  -5   3  -6    4.20    7.40
  -5   3  -6   -4.10    7.20
  -5   3  -6   -8.90    7.30
   5  -3   6   12.30    6.20
   5  -3   6    3.80    6.20
   5  -3   6    1.10    6.60
   5  -3   6    5.00    5.90
   5  -3   6    0.60    8.90
  -6   3  -6    8.60    9.70
  -6   3  -6    7.90   11.20
   6  -3   6    2.70    7.70
   6  -3   6    6.90    8.70
   6  -3   6    0.00    9.90
   6  -3   6   11.10    9.40
  -7   3  -6  104.59   17.70
  -7   3  -6   45.40   21.70
   7  -3   6   76.89   17.90
   7  -3   6   89.39   17.70
   7  -3   6   47.40   18.30
   7  -3   6  106.39   21.70
   8   2  -6    8.50   11.30
   8   2  -6   18.90   12.80
   8   2  -6   19.90   10.30
  -8  -2   6    3.70   13.30
  -8  -2   6    4.70   29.50
   7   2  -6   80.49   15.10
   7   2  -6   97.79   16.60
   7   2  -6   73.19   15.90
  -7  -2   6   78.89   18.70
  -7  -2   6   43.20   16.40
   6   2  -6    4.10    6.60
   6   2  -6  -12.80   13.00
   6   2  -6   11.70    5.80
   6   2  -6   -1.30    6.30
  -6  -2   6   14.10   14.30
  -6  -2   6    0.50    7.70
  -6  -2   6   -6.10    8.20
  -6  -2   6   -1.50    6.80
   5   2  -6  151.68   24.60
   5   2  -6  135.99   23.20
   5   2  -6  127.09   22.90
   5   2  -6  131.09   23.80
   5   2  -6  122.89   23.30
  -5  -2   6  117.09   23.20
  -5  -2   6  137.99   23.50
  -5  -2   6  146.99   23.90
  -5  -2   6  136.79   24.00
  -5  -2   6   98.79   23.40
  -5  -2   6  157.48   23.30
   4   2  -6   39.70    9.80
   4   2  -6   63.69   11.00
   4   2  -6   53.39   10.30
   4   2  -6   75.69   10.10
  -4  -2   6   54.89   10.30
  -4  -2   6   50.49   10.30
  -4  -2   6   51.59   10.10
  -4  -2   6   39.90    9.70
  -4  -2   6   37.90   10.10
  -4  -2   6   45.80    9.70
   3   2  -6   34.10    6.10
   3   2  -6   30.30    6.40
   3   2  -6   37.70    6.00
   3   2  -6   33.30    6.50
  -3  -2   6   24.80    6.10
  -3  -2   6   33.00    6.30
  -3  -2   6   28.80    6.50
  -3  -2   6   18.80    6.10
  -3  -2   6   25.70    6.00
   2   2  -6  103.59   16.00
   2   2  -6   91.89   15.80
  -2  -2   6   85.19   15.80
  -2  -2   6   96.09   16.00
  -2  -2   6   88.89   15.90
  -2  -2   6  107.59   15.90
  -2  -2   6   78.99   15.80
   1   2  -6 2875.31  546.25
   1   2  -6 3531.35  546.25
  -1  -2   6 3361.06  546.55
   0  -2   6   49.80    9.60
   0  -2   6   57.59    9.70
  -1   2  -6  475.35   76.79
  -1   2  -6  431.96   76.99
  -1   2  -6  479.15   76.89
   1  -2   6  425.26   76.69
   1  -2   6  443.06   76.79
   1  -2   6  475.15   76.79
   1  -2   6  462.75   76.79
   1  -2   6  445.66   76.89
   1  -2   6  465.05   76.99
  -2   2  -6   10.20    3.30
  -2   2  -6    3.00    3.90
  -2   2  -6   10.10    3.40
  -2   2  -6   10.30    3.30
   2  -2   6    5.70    2.80
   2  -2   6    4.40    3.00
   2  -2   6   15.20    4.10
   2  -2   6    9.60    4.00
   2  -2   6    4.40    2.90
   2  -2   6    4.40    3.10
  -3   2  -6  478.65   83.89
  -3   2  -6  506.55   83.89
  -3   2  -6  513.95   84.09
  -3   2  -6  458.65   84.19
  -3   2  -6  531.65   83.89
  -3   2  -6  493.85   83.99
   3  -2   6  499.45   83.89
   3  -2   6  514.25   84.29
   3  -2   6  437.06   83.99
   3  -2   6  503.75   83.99
   3  -2   6  497.05   84.09
   3  -2   6  512.25   84.09
  -4   2  -6  188.48   32.60
  -4   2  -6  215.48   32.90
  -4   2  -6  192.88   33.00
  -4   2  -6  188.28   32.50
  -4   2  -6  192.38   32.70
   4  -2   6  189.28   32.90
   4  -2   6  197.18   33.70
   4  -2   6  174.08   32.90
   4  -2   6  175.68   32.40
   4  -2   6  197.18   33.50
   4  -2   6  173.58   32.60
  -5   2  -6  129.79   25.10
  -5   2  -6  170.68   26.50
  -5   2  -6  131.99   24.40
  -5   2  -6  126.59   24.90
   5  -2   6  136.19   24.60
   5  -2   6  144.79   24.40
   5  -2   6  148.69   24.90
   5  -2   6  112.89   24.70
   5  -2   6  171.68   25.90
  -6   2  -6   90.29   15.20
  -6   2  -6    8.50   15.70
   6  -2   6  109.79   19.00
   6  -2   6   77.99   15.70
   6  -2   6   68.89   15.10
   6  -2   6   84.09   15.90
   6  -2   6   66.59   14.70
  -7   2  -6   -1.30   10.40
  -7   2  -6   -3.60   13.90
   7  -2   6    0.60   11.00
   7  -2   6    0.80   10.40
   7  -2   6    2.90   11.10
   7  -2   6   -0.50   15.20
   8   1  -6    0.20   11.20
   8   1  -6   22.80    8.80
   8   1  -6   13.80   12.10
  -8  -1   6   -0.10   16.50
   7   1  -6    2.60    8.10
   7   1  -6    8.90    6.70
   7   1  -6    9.10    7.90
  -7  -1   6  -12.20   11.80
  -7  -1   6    3.80   11.00
  -7  -1   6   11.90    8.70
  -7  -1   6   -6.20    8.90
   6   1  -6   16.60   12.80
   6   1  -6    6.70    6.30
   6   1  -6    8.60    6.60
   6   1  -6   11.40    5.20
  -6  -1   6   -1.70    8.20
  -6  -1   6    4.00    8.90
  -6  -1   6   15.10    6.30
  -6  -1   6   15.10    6.90
   5   1  -6   92.89   16.70
   5   1  -6   89.49   17.10
   5   1  -6  109.49   18.10
   5   1  -6   93.49   17.10
   5   1  -6   88.79   18.40
  -5  -1   6  106.49   17.40
  -5  -1   6   98.09   21.10
  -5  -1   6   87.09   17.70
  -5  -1   6   99.29   17.40
  -5  -1   6   84.09   17.40
  -5  -1   6   92.79   16.80
   4   1  -6   40.80    8.40
   4   1  -6   31.70    7.10
   4   1  -6   44.90    7.30
   4   1  -6   36.70    7.80
  -4  -1   6   27.50    7.20
  -4  -1   6   31.10    7.80
  -4  -1   6   33.60    8.00
  -4  -1   6   23.40    7.40
  -4  -1   6   31.90    6.80
  -4  -1   6   49.70    7.70
   3   1  -6  876.41  141.09
   3   1  -6  808.52  140.99
   3   1  -6  828.42  140.99
   3   1  -6  812.42  141.09
  -3  -1   6  833.72  141.19
  -3  -1   6  847.02  141.19
  -3  -1   6  876.41  141.19
  -3  -1   6  839.92  141.09
  -3  -1   6  792.72  141.09
  -3  -1   6  868.11  140.99
   2   1  -6   98.79   15.60
   2   1  -6   75.29   15.40
  -2  -1   6   99.79   15.60
  -2  -1   6  103.69   15.70
  -2  -1   6   91.79   15.50
  -2  -1   6   81.39   15.40
   1   1  -6  506.55   98.79
   1   1  -6  658.93   98.79
  -1  -1   6  611.14   98.99
   0   1  -6  157.88   30.50
   0   1  -6  167.78   30.20
   0   1  -6  201.68   30.20
   0  -1   6  174.98   30.50
   0  -1   6  177.18   30.40
  -1   1  -6   19.90    3.40
  -1   1  -6   15.80    3.20
  -1   1  -6   12.10    3.80
   1  -1   6   16.10    3.30
   1  -1   6   11.60    3.20
   1  -1   6   11.40    3.10
   1  -1   6   15.50    3.70
   1  -1   6   12.50    3.50
   1  -1   6   12.90    3.10
  -2   1  -6  242.08   39.60
  -2   1  -6  213.78   40.10
  -2   1  -6  227.88   39.80
  -2   1  -6  247.38   39.90
  -2   1  -6  232.38   39.70
  -2   1  -6  233.18   39.50
   2  -1   6  240.38   40.00
   2  -1   6  232.48   40.00
   2  -1   6  253.77   39.80
   2  -1   6  207.18   39.80
   2  -1   6  236.08   39.70
   2  -1   6  231.68   39.90
  -3   1  -6  203.18   36.30
  -3   1  -6  187.08   37.50
  -3   1  -6  210.28   36.10
  -3   1  -6  192.88   36.50
  -3   1  -6  209.68   36.60
  -3   1  -6  225.58   36.10
   3  -1   6  230.18   36.30
   3  -1   6  221.18   37.00
   3  -1   6  206.98   36.50
   3  -1   6  219.88   36.50
   3  -1   6  215.78   36.10
   3  -1   6  199.78   36.50
  -4   1  -6  360.46   63.99
  -4   1  -6  383.86   63.89
  -4   1  -6  374.96   64.29
  -4   1  -6  383.16   64.49
   4  -1   6  345.47   64.19
   4  -1   6  372.36   63.89
   4  -1   6  418.76   64.19
   4  -1   6  346.47   64.49
   4  -1   6  407.96   65.09
   4  -1   6  377.96   64.39
  -5   1  -6   12.00    6.20
  -5   1  -6   22.80    8.80
  -5   1  -6   -5.20    8.00
  -5   1  -6   10.70    6.70
   5  -1   6    1.20   10.50
   5  -1   6   16.20    9.20
   5  -1   6    5.50    5.70
   5  -1   6    0.90    6.60
   5  -1   6    4.90    6.60
  -6   1  -6   18.30   10.20
  -6   1  -6   18.30    8.60
  -6   1  -6    8.10   11.20
   6  -1   6   12.00   10.10
   6  -1   6   34.20    8.60
   6  -1   6   12.90   15.80
   6  -1   6   24.50    9.00
   6  -1   6    2.30    9.30
  -7   1  -6   -7.70   11.00
   7  -1   6  -14.40   10.70
   7  -1   6    1.70   12.50
   7  -1   6    3.00   12.20
   7  -1   6  -18.30   10.00
   8   0  -6   28.10   11.40
   8   0  -6   24.60    9.20
   8   0  -6   32.30   11.90
  -8   0   6   11.00   12.10
  -8   0   6    7.90   15.50
   7   0  -6    3.00    8.30
   7   0  -6    8.70    6.10
  -7   0   6    8.70    8.10
  -7   0   6    7.50   11.70
  -7   0   6   13.30    9.30
  -7   0   6    1.00   11.80
   6   0  -6   41.70    9.10
   6   0  -6   50.49    9.10
   6   0  -6   26.90    7.50
   6   0  -6   33.80   14.20
  -6   0   6   41.20    8.20
  -6   0   6   36.70   10.20
  -6   0   6    6.20    9.80
  -6   0   6   33.10   11.00
   5   0  -6   83.79   15.20
   5   0  -6  104.19   17.30
   5   0  -6   84.19   16.60
   5   0  -6   87.99   15.90
   5   0  -6   76.19   15.60
  -5   0   6   75.49   16.10
  -5   0   6   91.99   16.10
  -5   0   6   91.99   16.80
  -5   0   6   82.59   15.30
  -5   0   6   98.09   16.70
  -5   0   6   93.39   16.40
   4   0  -6  817.42  143.89
   4   0  -6  872.21  143.89
   4   0  -6  937.31  143.99
   4   0  -6  806.92  143.79
  -4   0   6  842.42  143.89
  -4   0   6  847.12  143.99
  -4   0   6  821.72  143.89
  -4   0   6  864.41  143.99
  -4   0   6  884.11  143.99
  -4   0   6  851.01  143.69
   3   0  -6  559.64   94.39
   3   0  -6  517.95   94.39
   3   0  -6  588.84   94.39
   3   0  -6  578.84   94.49
  -3   0   6  557.84   94.49
  -3   0   6  546.35   94.39
  -3   0   6  549.74   94.49
  -3   0   6  578.04   94.39
  -3   0   6  564.74   94.49
  -3   0   6  554.64   94.29
   2   0  -6  251.57   43.70
   2   0  -6  251.17   43.70
  -2   0   6  261.77   43.80
  -2   0   6  269.17   43.70
  -2   0   6  265.27   43.70
  -2   0   6  239.78   43.70
  -2   0   6  273.47   43.80
   1   0  -6  699.33  136.19
   1   0  -6  871.91  136.19
  -1   0   6  786.32  136.19
  -1   0   6  824.32  136.29
  -1   0   6  883.31  136.19
  -1   0   6  802.02  136.19
   0   0  -6    0.70    2.50
   0   0  -6    3.10    1.90
   0   0   6    1.70    1.90
   0   0   6    3.10    2.20
   0   0   6    4.20    1.70
   0   0   6    4.50    1.60
   0   0   6    6.20    1.80
   0   0   6    4.20    1.80
  -1   0  -6  875.31  150.48
  -1   0  -6  846.72  150.58
  -1   0  -6  900.01  150.48
   1   0   6  897.51  150.38
   1   0   6  908.71  150.48
   1   0   6  942.41  150.58
   1   0   6  894.61  150.48
   1   0   6  840.42  150.38
   1   0   6  944.31  150.48
  -2   0  -6  126.59   19.90
  -2   0  -6  107.99   19.70
  -2   0  -6  106.59   19.80
  -2   0  -6  103.79   19.80
  -2   0  -6   99.99   19.60
  -2   0  -6  131.79   20.20
   2   0   6  137.49   20.20
   2   0   6  121.59   19.80
   2   0   6  117.49   19.80
   2   0   6  133.89   20.30
   2   0   6   99.49   19.90
   2   0   6  116.19   19.60
  -3   0  -6  205.48   31.80
  -3   0  -6  188.18   32.00
  -3   0  -6  162.98   32.10
  -3   0  -6  177.38   32.00
  -3   0  -6  207.18   32.10
  -3   0  -6  163.58   31.50
   3   0   6  176.78   32.00
   3   0   6  167.18   31.90
   3   0   6  229.88   32.40
   3   0   6  191.38   32.00
   3   0   6  181.18   31.50
   3   0   6  181.78   31.90
  -4   0  -6   -1.20    4.70
  -4   0  -6    3.90    4.20
  -4   0  -6    2.10    6.60
  -4   0  -6    1.20    6.20
   4   0   6   -0.60    7.00
   4   0   6    3.00   10.30
   4   0   6    2.30    4.90
   4   0   6    0.50    6.20
   4   0   6    8.10    5.40
   4   0   6    5.80    5.80
  -5   0  -6   11.00    9.40
  -5   0  -6   27.70    7.80
  -5   0  -6   19.10    7.10
  -5   0  -6   24.70   10.00
   5   0   6   16.50    8.30
   5   0   6   22.70    8.10
   5   0   6   19.40   11.60
   5   0   6   21.10    8.40
   5   0   6   25.80    6.90
  -6   0  -6   39.60   12.60
  -6   0  -6   54.79   13.50
  -6   0  -6   12.20   13.90
   6   0   6   49.10   12.10
   6   0   6   41.90   12.20
   6   0   6   67.29   18.70
   6   0   6   57.59   10.60
   6   0   6   17.40   11.90
  -7   0  -6   -5.10   11.50
   7   0   6   -4.80   11.20
   7   0   6   16.50   13.10
   8  -1  -6    9.60   10.00
   8  -1  -6    9.50   10.30
   8  -1  -6   -3.40    7.30
  -8   1   6  -10.70   10.50
  -8   1   6    5.50   11.80
  -8   1   6   -6.70   14.60
   7  -1  -6   20.60    8.70
   7  -1  -6    1.10    5.50
  -7   1   6    8.90    9.00
  -7   1   6    9.40   12.10
  -7   1   6    1.50   11.70
  -7   1   6   11.00    6.80
   6  -1  -6   88.19   15.70
   6  -1  -6   84.09   17.90
   6  -1  -6   92.29   15.70
  -6   1   6   65.39   16.40
  -6   1   6   54.59   15.90
  -6   1   6   90.89   14.70
  -6   1   6   70.59   16.90
   5  -1  -6   50.89   10.50
   5  -1  -6   22.40    7.70
   5  -1  -6   44.40    9.80
   5  -1  -6   38.50    7.00
   5  -1  -6   32.60    8.10
  -5   1   6   37.20    7.10
  -5   1   6   43.00    9.90
  -5   1   6   33.30    8.80
  -5   1   6   30.90    8.80
  -5   1   6   49.30    9.60
  -5   1   6   38.20    8.30
   4  -1  -6  429.36   72.69
   4  -1  -6  426.66   72.79
   4  -1  -6  432.26   72.79
   4  -1  -6  442.06   72.59
  -4   1   6  413.16   72.79
  -4   1   6  402.06   72.69
  -4   1   6  419.76   72.29
  -4   1   6  456.15   72.79
  -4   1   6  423.36   72.79
  -4   1   6  458.25   72.69
   3  -1  -6   96.49   15.90
   3  -1  -6   87.99   15.70
   3  -1  -6  101.29   16.00
   3  -1  -6  102.39   15.90
  -3   1   6   95.89   15.90
  -3   1   6  107.19   16.20
  -3   1   6   76.09   15.40
  -3   1   6   99.99   16.10
  -3   1   6   75.69   16.10
   2  -1  -6  533.15   90.39
   2  -1  -6  512.25   90.39
   2  -1  -6  557.64   90.29
   2  -1  -6  526.15   90.29
  -2   1   6  546.75   90.39
  -2   1   6  572.74   90.49
  -2   1   6  547.65   90.49
  -2   1   6  539.45   90.29
  -2   1   6  513.25   90.39
  -2   1   6  519.75   90.39
   1  -1  -6   30.70    5.40
   1  -1  -6   37.10    5.60
   1  -1  -6   23.90    5.30
  -1   1   6   29.10    5.40
  -1   1   6   30.90    5.60
  -1   1   6   20.60    5.30
  -1   1   6   28.60    5.60
  -1   1   6   35.30    5.60
  -1   1   6   29.80    5.60
   0  -1  -6 1164.28  195.98
   0  -1  -6 1158.78  195.88
   0  -1  -6 1180.08  195.98
   0   1   6 1102.49  195.88
   0   1   6 1199.28  195.98
   0   1   6 1211.28  195.98
   0   1   6 1188.38  195.98
   0   1   6 1176.08  195.98
   0   1   6 1111.29  195.88
  -1  -1  -6   92.49   18.40
  -1  -1  -6  103.69   18.60
  -1  -1  -6  105.49   18.40
  -1  -1  -6  114.99   18.70
  -1  -1  -6   94.09   18.60
   1   1   6  116.59   18.80
   1   1   6  110.49   18.20
   1   1   6  121.49   18.70
   1   1   6  115.39   18.70
   1   1   6  118.09   18.70
   1   1   6   95.49   18.70
  -2  -1  -6  330.87   53.39
  -2  -1  -6  318.97   53.19
  -2  -1  -6  316.97   53.39
  -2  -1  -6  316.37   53.19
  -2  -1  -6  315.17   52.89
  -2  -1  -6  324.07   53.49
   2   1   6  311.17   53.39
   2   1   6  324.37   53.39
   2   1   6  310.77   53.29
   2   1   6  295.77   52.89
   2   1   6  300.17   53.69
   2   1   6  319.27   53.39
  -3  -1  -6  153.68   29.30
  -3  -1  -6  167.08   29.30
  -3  -1  -6  134.59   29.20
  -3  -1  -6  186.28   29.20
  -3  -1  -6  187.58   29.20
  -3  -1  -6  150.58   28.60
   3   1   6  197.78   30.00
   3   1   6  210.38   29.70
   3   1   6  153.78   29.20
   3   1   6  191.28   29.20
   3   1   6  168.38   28.60
   3   1   6  145.09   29.20
  -4  -1  -6    2.60    5.20
  -4  -1  -6   -0.80    6.80
  -4  -1  -6    0.50    6.70
  -4  -1  -6    0.90    3.70
   4   1   6   -1.90    3.50
   4   1   6    0.80   12.60
   4   1   6   -0.90    6.20
   4   1   6   -4.50    5.50
   4   1   6   -5.40    5.90
   4   1   6   13.50    8.50
  -5  -1  -6  154.08   21.70
  -5  -1  -6   56.49   22.70
  -5  -1  -6  123.89   23.40
  -5  -1  -6  157.88   22.40
   5   1   6  138.79   22.70
   5   1   6  101.99   22.20
   5   1   6  138.79   24.50
   5   1   6   88.79   22.50
  -6  -1  -6   -4.70   20.40
  -6  -1  -6   -3.40    8.80
  -6  -1  -6    6.20    9.20
   6   1   6    2.70    9.50
   6   1   6   -2.80   10.20
   6   1   6    2.30    9.70
   8  -2  -6  311.87   48.40
   8  -2  -6  285.07   48.20
   8  -2  -6  281.07   46.80
  -8   2   6  224.18   49.30
  -8   2   6  282.47   47.20
  -8   2   6  229.08   48.10
   7  -2  -6   39.80    8.40
   7  -2  -6   43.90   11.20
   7  -2  -6   20.30   10.80
  -7   2   6   38.80   10.90
  -7   2   6   22.40   13.70
  -7   2   6   52.09    9.20
  -7   2   6   31.00   14.30
   6  -2  -6   -0.60    6.30
   6  -2  -6   23.30   11.80
   6  -2  -6    3.00    3.40
   6  -2  -6   -4.50    6.00
  -6   2   6    5.40    3.80
  -6   2   6    5.70    7.80
  -6   2   6   -1.70    6.30
  -6   2   6    0.60    7.90
   5  -2  -6  435.66   75.69
   5  -2  -6  473.05   75.19
   5  -2  -6  423.86   75.49
   5  -2  -6  440.26   75.09
  -5   2   6  453.35   75.39
  -5   2   6  431.76   74.49
  -5   2   6  430.96   75.59
  -5   2   6  461.85   75.29
  -5   2   6  428.76   75.09
  -5   2   6  451.05   75.39
   4  -2  -6  233.18   37.80
   4  -2  -6  203.08   37.70
   4  -2  -6  219.18   38.10
   4  -2  -6  241.58   37.80
  -4   2   6  215.48   37.90
  -4   2   6  215.78   38.10
  -4   2   6  197.08   37.70
  -4   2   6  230.88   38.00
   3  -2  -6  185.68   33.70
   3  -2  -6  189.88   33.70
   3  -2  -6  185.88   33.50
   3  -2  -6  176.08   33.50
  -3   2   6  241.18   34.30
  -3   2   6  215.98   33.60
  -3   2   6  189.08   33.60
  -3   2   6  201.78   33.80
  -3   2   6  204.08   33.70
   2  -2  -6 1208.08  210.88
   2  -2  -6 1294.77  210.98
   2  -2  -6 1214.08  210.98
   2  -2  -6 1277.87  210.88
  -2   2   6 1292.07  210.98
  -2   2   6 1229.88  210.98
  -2   2   6 1219.98  210.98
  -2   2   6 1280.27  210.78
  -2   2   6 1263.27  210.98
   1  -2  -6    5.40    2.10
   1  -2  -6    7.40    2.20
   1  -2  -6    3.40    2.10
   1  -2  -6    6.80    2.60
   1  -2  -6    8.50    3.00
  -1   2   6    3.60    2.10
  -1   2   6    8.80    2.90
  -1   2   6    6.30    3.20
  -1   2   6    1.20    2.20
  -1   2   6    2.80    2.90
  -1   2   6    5.10    3.90
   0  -2  -6  445.36   70.39
   0  -2  -6  414.66   70.19
   0  -2  -6  410.56   70.39
   0  -2  -6  382.56   70.49
   0  -2  -6  404.46   70.19
   0   2   6  419.56   70.09
   0   2   6  411.66   70.29
   0   2   6  429.16   70.39
   0   2   6  400.86   70.09
   0   2   6  447.16   70.39
   0   2   6  421.86   70.39
   0   2   6  419.56   70.39
  -1  -2  -6  379.16   64.89
  -1  -2  -6  379.56   64.89
  -1  -2  -6  393.06   64.99
  -1  -2  -6  362.26   64.99
  -1  -2  -6  384.96   64.99
   1   2   6  406.56   64.99
   1   2   6  371.46   65.09
   1   2   6  363.76   64.99
   1   2   6  415.76   64.99
  -2  -2  -6  654.23  112.39
  -2  -2  -6  661.33  112.39
  -2  -2  -6  679.43  112.39
  -2  -2  -6  656.13  112.29
  -2  -2  -6  666.73  112.29
   2   2   6  677.63  112.29
   2   2   6  660.53  112.39
   2   2   6  652.73  112.39
   2   2   6  681.43  112.39
  -3  -2  -6   91.09   16.00
  -3  -2  -6   84.39   17.60
  -3  -2  -6  104.79   17.40
  -3  -2  -6   70.59   17.20
  -3  -2  -6   89.09   16.90
  -3  -2  -6   74.99   17.20
   3   2   6   99.99   17.80
   3   2   6  119.79   19.20
   3   2   6   89.39   17.10
   3   2   6   98.89   17.00
   3   2   6  118.89   17.50
  -4  -2  -6  353.76   68.79
  -4  -2  -6  404.86   68.59
  -4  -2  -6  412.36   69.19
  -4  -2  -6  399.76   67.79
   4   2   6  410.06   69.49
   4   2   6  444.96   68.69
   4   2   6  426.16   68.99
   4   2   6  358.36   68.69
  -5  -2  -6   32.00   19.80
  -5  -2  -6  116.69   19.80
  -5  -2  -6  120.09   18.50
   5   2   6  123.39   19.90
   5   2   6   99.59   22.50
   5   2   6  139.19   20.40
   5   2   6   77.29   19.60
  -6  -2  -6   46.10   10.30
  -6  -2  -6   37.50   12.80
  -6  -2  -6   13.40   15.40
   6   2   6   24.10   15.30
   6   2   6   28.70   13.10
   8  -3  -6  512.75   83.99
   8  -3  -6  521.65   85.79
   8  -3  -6  519.15   85.59
  -8   3   6  438.86   85.79
  -8   3   6  475.35   84.39
   7  -3  -6   12.90    4.90
   7  -3  -6   19.40    8.60
   7  -3  -6   13.20    8.90
  -7   3   6    6.80   12.40
  -7   3   6    6.90    8.80
   6  -3  -6    9.30    7.20
   6  -3  -6   20.10   12.30
   6  -3  -6   13.20    6.90
   6  -3  -6   18.00    3.90
  -6   3   6   21.60    6.80
  -6   3   6   10.50    9.70
  -6   3   6   11.00    4.00
  -6   3   6   26.70    9.20
   5  -3  -6   21.50    6.40
   5  -3  -6   28.60    9.40
   5  -3  -6   17.30    6.90
   5  -3  -6   23.50    8.20
   5  -3  -6   13.10    6.10
  -5   3   6   14.30    7.80
  -5   3   6   22.40    6.60
  -5   3   6   17.00    8.10
  -5   3   6   19.00    7.20
   4  -3  -6   -5.50    5.90
   4  -3  -6    1.30    9.00
   4  -3  -6    5.10    4.20
   4  -3  -6    0.20    4.30
   4  -3  -6    7.10    4.00
  -4   3   6   -1.80    5.00
  -4   3   6    0.50    5.40
  -4   3   6    5.00    4.50
  -4   3   6   -2.30    4.90
  -4   3   6    3.90    4.90
   3  -3  -6  442.86   77.19
   3  -3  -6  492.75   77.29
   3  -3  -6  473.95   77.09
   3  -3  -6  436.06   77.19
   3  -3  -6  448.96   77.09
  -3   3   6  432.66   77.29
  -3   3   6  492.15   77.19
  -3   3   6  418.56   77.09
  -3   3   6  496.85   77.29
  -3   3   6  431.36   77.09
   2  -3  -6 1639.34  272.97
   2  -3  -6 1685.93  272.87
   2  -3  -6 1611.14  272.87
   2  -3  -6 1635.44  272.67
  -2   3   6 1600.64  272.97
  -2   3   6 1766.72  273.27
  -2   3   6 1478.65  273.27
  -2   3   6 1646.34  272.97
  -2   3   6 1594.54  272.67
  -2   3   6 1571.84  272.97
   1  -3  -6  414.96   71.29
   1  -3  -6  431.56   71.39
   1  -3  -6  431.46   71.49
   1  -3  -6  426.06   71.49
   1  -3  -6  444.06   71.39
  -1   3   6  403.26   71.49
  -1   3   6  451.85   71.49
  -1   3   6  439.56   71.29
  -1   3   6  389.96   71.19
  -1   3   6  410.96   71.49
  -1   3   6  406.76   71.49
   0  -3  -6  636.74  105.19
   0  -3  -6  618.94  105.19
   0  -3  -6  600.44  105.19
   0  -3  -6  651.73  105.29
   0  -3  -6  628.54  105.29
   0   3   6  655.33  105.19
   0   3   6  646.74  105.29
   0   3   6  566.74  105.29
   0   3   6  637.64  105.29
   0   3   6  596.84  105.39
  -1  -3  -6  208.08   39.10
  -1  -3  -6  249.88   39.40
  -1  -3  -6  242.78   39.50
  -1  -3  -6  213.88   39.30
  -1  -3  -6  233.48   39.40
   1   3   6  218.78   39.40
   1   3   6  244.08   39.30
   1   3   6  223.48   39.60
   1   3   6  238.78   39.20
   1   3   6  230.28   39.60
  -2  -3  -6   90.99   16.80
  -2  -3  -6   85.69   16.60
  -2  -3  -6  108.69   18.90
  -2  -3  -6  100.19   16.60
  -2  -3  -6   92.99   16.20
   2   3   6   76.59   16.20
   2   3   6   80.39   16.40
   2   3   6  111.29   17.10
   2   3   6   84.29   16.30
  -3  -3  -6   72.19   12.20
  -3  -3  -6   42.60   12.90
  -3  -3  -6   58.69   13.00
   3   3   6   52.09   12.30
   3   3   6   50.99   12.40
   3   3   6   77.79   12.80
   3   3   6   69.79   14.10
   3   3   6   70.09   15.90
  -4  -3  -6   15.60   10.00
  -4  -3  -6   31.40    8.70
  -4  -3  -6   32.70   11.20
   4   3   6   21.80    9.00
   4   3   6   37.30    9.60
   4   3   6   36.40   12.50
   4   3   6   24.90    8.30
  -5  -3  -6   70.39   11.40
  -5  -3  -6   -4.90   15.30
  -5  -3  -6   88.89   14.50
   5   3   6   65.59   14.60
   5   3   6   46.30   14.30
   5   3   6   62.39   14.60
  -6  -3  -6    2.80   12.20
   6   3   6  -16.80   11.30
   6   3   6   -1.20   12.50
   6   3   6   -9.90   12.10
   8  -4  -6  203.48   37.00
   8  -4  -6  164.48   36.50
   8  -4  -6  212.58   34.80
  -8   4   6  241.98   42.00
   7  -4  -6   10.70    8.90
   7  -4  -6    5.80    8.70
   7  -4  -6    8.20    3.80
   7  -4  -6    9.70    9.10
  -7   4   6    5.00   10.00
  -7   4   6   12.10    8.50
   6  -4  -6   20.50    8.00
   6  -4  -6   10.70   15.30
   6  -4  -6   27.40    8.00
   6  -4  -6   21.60    8.50
  -6   4   6   24.70   12.60
  -6   4   6   17.80    9.70
  -6   4   6   23.00    8.10
   5  -4  -6   -6.50    5.50
   5  -4  -6   -2.10    9.30
   5  -4  -6    5.80    5.90
   5  -4  -6    0.90    5.30
  -5   4   6   -2.60    7.50
  -5   4   6    0.10    5.40
  -5   4   6   -7.60    8.00
  -5   4   6   -6.20    6.70
  -5   4   6  -10.40    6.40
   4  -4  -6    1.60    6.70
   4  -4  -6   11.50    7.00
   4  -4  -6    4.60    4.50
   4  -4  -6   -1.30    4.20
   4  -4  -6    7.30    4.50
  -4   4   6   -0.60    4.80
  -4   4   6    1.10    5.20
  -4   4   6    5.70    5.80
  -4   4   6   -0.70    5.50
  -4   4   6    6.80    6.80
   3  -4  -6  675.43  116.79
   3  -4  -6  660.03  116.79
   3  -4  -6  677.33  116.89
   3  -4  -6  752.12  116.69
   3  -4  -6  725.43  116.79
  -3   4   6  664.63  116.89
  -3   4   6  699.93  116.99
  -3   4   6  695.83  116.69
  -3   4   6  675.53  116.79
   2  -4  -6    6.80    3.10
   2  -4  -6    1.10    3.30
   2  -4  -6    4.00    1.80
   2  -4  -6    4.60    4.70
   2  -4  -6    7.20    4.70
   2  -4  -6   -2.20    3.50
  -2   4   6   -0.80    4.40
  -2   4   6    5.50    4.00
  -2   4   6   10.30    3.20
  -2   4   6    1.40    3.60
  -2   4   6    3.80    1.90
  -2   4   6    1.00    5.00
   1  -4  -6   34.60    8.50
   1  -4  -6   38.90    8.00
   1  -4  -6   44.90    8.50
   1  -4  -6   35.30    8.80
   1  -4  -6   61.89    9.20
  -1   4   6   47.00    8.70
  -1   4   6   49.30    9.10
  -1   4   6   45.70    8.00
  -1   4   6   49.30    9.00
  -1   4   6   42.80    7.80
  -1   4   6   41.50    9.10
   0  -4  -6   42.60    7.30
   0  -4  -6   36.40    7.80
   0  -4  -6   32.60    7.80
   0  -4  -6   29.30    7.70
   0   4   6   49.70    8.70
   0   4   6   30.00    7.50
   0   4   6   26.90    7.30
   0   4   6   44.80    8.20
   0   4   6   30.60    7.00
  -1  -4  -6  272.27   48.10
  -1  -4  -6  330.07   48.20
  -1  -4  -6  260.47   48.50
  -1  -4  -6  280.67   48.40
  -1  -4  -6  279.37   48.50
   1   4   6  263.67   48.30
   1   4   6  292.87   48.60
   1   4   6  255.57   48.30
   1   4   6  296.27   48.20
   1   4   6  286.97   48.10
  -2  -4  -6  113.19   22.60
  -2  -4  -6  132.59   22.40
  -2  -4  -6  131.19   22.90
  -2  -4  -6  134.99   22.90
   2   4   6  137.89   22.70
   2   4   6  147.59   23.20
   2   4   6  107.69   23.20
   2   4   6  115.59   22.30
   2   4   6  111.49   22.40
  -3  -4  -6   23.60   11.20
  -3  -4  -6   67.09   11.10
  -3  -4  -6   49.60   12.40
   3   4   6   42.90   10.90
   3   4   6   49.80   10.80
   3   4   6   70.09   13.70
  -4  -4  -6   41.40   11.40
  -4  -4  -6   10.40   11.90
   4   4   6   49.60   12.00
   4   4   6   60.09   11.70
   4   4   6   56.89   11.90
   4   4   6   55.79   15.80
  -5  -4  -6    5.40   14.00
  -5  -4  -6   34.60   11.60
   5   4   6   19.30   11.30
   5   4   6   33.40   11.30
   8  -5  -6   24.60   12.60
   8  -5  -6   35.50   13.30
   8  -5  -6   38.30   13.30
  -8   5   6   -0.30   16.20
  -8   5   6    0.80   13.10
   7  -5  -6   17.60    9.80
   7  -5  -6   -0.90    9.60
   7  -5  -6   19.30    9.40
  -7   5   6    9.00   10.30
  -7   5   6   10.70    8.70
   6  -5  -6   73.69   14.60
   6  -5  -6   69.19   14.50
   6  -5  -6   59.89   14.60
  -6   5   6   64.89   16.70
  -6   5   6   86.69   14.90
  -6   5   6   61.49   14.90
   5  -5  -6   -6.00   10.60
   5  -5  -6    5.40    6.10
   5  -5  -6   -7.60    5.90
   5  -5  -6   -1.60    6.30
  -5   5   6   -3.40    6.00
  -5   5   6   -0.10    8.10
  -5   5   6    9.20    8.10
   4  -5  -6    2.40    4.70
   4  -5  -6    9.80    5.10
   4  -5  -6   -2.80    4.90
   4  -5  -6    5.80    7.90
  -4   5   6   -0.90    5.10
  -4   5   6    6.70    6.90
  -4   5   6   -2.50    6.00
  -4   5   6   -0.20    7.30
  -4   5   6    1.70    6.90
   3  -5  -6   45.30    8.50
   3  -5  -6   43.60    9.90
   3  -5  -6   38.10    8.90
   3  -5  -6   45.60    8.90
   3  -5  -6   42.70    9.90
  -3   5   6   58.89    9.40
  -3   5   6   34.60    9.80
  -3   5   6   38.50    8.80
  -3   5   6   42.50   10.50
  -3   5   6   27.00    8.40
   2  -5  -6   48.20    7.40
   2  -5  -6   32.80    7.30
   2  -5  -6   27.40    5.90
   2  -5  -6   25.00    6.40
   2  -5  -6   32.00    8.30
   2  -5  -6   22.90    8.20
  -2   5   6   31.10    8.90
  -2   5   6   45.10    8.20
  -2   5   6   30.40    6.70
  -2   5   6   32.90    7.70
  -2   5   6   40.20    7.60
   1  -5  -6  171.98   26.80
   1  -5  -6  136.19   26.20
   1  -5  -6  143.39   26.50
   1  -5  -6  167.88   26.70
   1  -5  -6  126.79   26.30
  -1   5   6  179.78   26.90
  -1   5   6  151.38   25.80
  -1   5   6  138.09   26.00
  -1   5   6  131.09   26.20
  -1   5   6  147.79   26.80
  -1   5   6  203.68   26.90
   0  -5  -6  283.97   50.89
   0  -5  -6  290.67   51.19
   0  -5  -6  323.27   50.79
   0  -5  -6  292.37   50.99
   0  -5  -6  290.97   51.29
   0   5   6  299.57   51.09
   0   5   6  276.97   51.29
   0   5   6  307.57   50.89
   0   5   6  302.77   51.39
   0   5   6  300.97   50.59
  -1  -5  -6  223.58   39.20
  -1  -5  -6  247.08   39.50
  -1  -5  -6  262.97   39.50
  -1  -5  -6  230.98   39.50
   1   5   6  226.68   39.10
   1   5   6  220.78   39.40
   1   5   6  191.08   39.00
   1   5   6  226.78   39.80
   1   5   6  228.38   39.60
  -2  -5  -6   11.70    6.50
  -2  -5  -6    9.20    7.50
   2   5   6   24.90    7.10
   2   5   6   14.70    7.50
   2   5   6   16.50    7.00
   2   5   6   17.40   10.10
  -3  -5  -6   38.70   17.50
  -3  -5  -6   20.50    8.70
  -3  -5  -6   16.20   10.00
   3   5   6   20.20    8.90
   3   5   6   39.40    9.40
   3   5   6   41.20    9.50
  -4  -5  -6   14.70    9.50
  -4  -5  -6    4.70   11.60
   4   5   6   16.10    9.80
   4   5   6    4.80    9.60
   4   5   6   18.80    9.60
  -5  -5  -6    8.30   15.20
  -5  -5  -6    7.60   11.90
   5   5   6    3.80   12.20
   5   5   6    5.60   10.90
   5   5   6    7.10   12.20
   8  -6  -6  -10.40   12.80
   8  -6  -6    5.50   12.30
   8  -6  -6   -7.00   12.30
  -8   6   6   -1.50   11.40
  -8   6   6    3.60   18.20
   7  -6  -6   -3.50    9.70
   7  -6  -6   10.00   10.00
   7  -6  -6    2.00   10.00
  -7   6   6   17.00   15.30
  -7   6   6   -3.60    8.80
   6  -6  -6   46.10   10.70
   6  -6  -6   38.40   10.50
   6  -6  -6   45.40   10.60
  -6   6   6   19.50   10.70
  -6   6   6   25.00   11.60
   5  -6  -6   -4.70    6.40
   5  -6  -6   -2.20    6.40
   5  -6  -6    4.60    7.20
  -5   6   6    5.80   12.20
  -5   6   6   -2.60    6.90
  -5   6   6    7.40    8.50
   4  -6  -6   90.79   16.70
   4  -6  -6   75.79   14.70
   4  -6  -6   67.99   14.40
   4  -6  -6   91.09   15.20
  -4   6   6   81.09   14.90
  -4   6   6   78.79   15.70
  -4   6   6   50.49   15.30
   3  -6  -6  238.58   38.70
   3  -6  -6  221.38   38.40
   3  -6  -6  196.98   38.00
   3  -6  -6  229.28   37.90
  -3   6   6  230.28   38.20
  -3   6   6  225.68   38.30
  -3   6   6  219.18   38.00
  -3   6   6  252.67   38.70
  -3   6   6  167.58   38.30
   2  -6  -6   74.99   13.80
   2  -6  -6   92.69   15.10
   2  -6  -6   57.19   12.70
   2  -6  -6   47.70   17.10
   2  -6  -6   88.39   14.40
   2  -6  -6   85.99   13.80
  -2   6   6   63.89   13.20
  -2   6   6  111.49   15.80
  -2   6   6   66.19   14.60
  -2   6   6   83.49   14.30
  -2   6   6   68.59   13.80
   1  -6  -6   84.79   16.70
   1  -6  -6   83.79   14.70
   1  -6  -6  108.19   16.00
   1  -6  -6   99.59   15.20
   1  -6  -6   70.49   15.70
  -1   6   6   97.39   17.10
  -1   6   6   76.69   14.70
  -1   6   6   74.09   15.60
  -1   6   6   70.09   16.50
  -1   6   6   80.99   15.10
  -1   6   6   95.69   16.30
   0  -6  -6   56.79   10.60
   0  -6  -6   69.59   11.00
   0  -6  -6   45.60   12.00
   0  -6  -6   56.09   11.20
   0   6   6   29.00   10.50
   0   6   6   56.89   13.00
   0   6   6   43.70   12.30
   0   6   6   42.70   11.00
   0   6   6   64.79   10.40
  -1  -6  -6   98.79   17.40
  -1  -6  -6   83.39   16.50
  -1  -6  -6   82.09   16.90
  -1  -6  -6   80.09   17.70
   1   6   6   86.09   16.30
   1   6   6   85.89   16.70
   1   6   6   94.99   18.40
   1   6   6   95.49   17.00
  -2  -6  -6    0.50   10.90
  -2  -6  -6   -7.00    8.60
  -2  -6  -6   -8.70    6.70
   2   6   6   -4.70    6.60
   2   6   6   -6.20    7.30
   2   6   6   -1.80    7.00
  -3  -6  -6   37.30   11.10
  -3  -6  -6   32.20   12.70
   3   6   6   46.10   11.70
   3   6   6   21.10   11.20
   3   6   6   62.29   19.00
   3   6   6   55.99   12.30
  -4  -6  -6    9.90   13.00
  -4  -6  -6   26.30   11.30
   4   6   6   20.50   12.20
   4   6   6    5.60   12.10
   4   6   6   -3.00   10.00
   7  -7  -6   19.20   11.30
   7  -7  -6   23.90   11.20
   7  -7  -6    2.80   11.00
  -7   7   6    9.60   14.00
  -7   7   6   46.40   27.30
   6  -7  -6   34.10   11.50
   6  -7  -6   24.80   11.80
   6  -7  -6   58.09   12.00
  -6   7   6   48.80   12.60
  -6   7   6   33.00   15.70
   5  -7  -6    9.40    7.40
   5  -7  -6    6.30    7.60
   5  -7  -6    7.40    7.50
  -5   7   6    5.50   12.00
  -5   7   6    2.60    7.60
  -5   7   6  -16.10   12.10
   4  -7  -6   91.69   20.60
   4  -7  -6  118.09   20.70
   4  -7  -6  117.69   20.20
  -4   7   6   71.79   21.10
  -4   7   6  137.49   21.00
  -4   7   6   76.69   23.30
  -4   7   6  152.68   21.10
   3  -7  -6  358.96   56.89
   3  -7  -6  336.27   57.49
   3  -7  -6  379.56   58.09
   3  -7  -6  313.17   56.29
  -3   7   6  325.47   57.19
  -3   7   6  302.57   57.79
  -3   7   6  326.67   57.49
  -3   7   6  427.36   60.29
   2  -7  -6   -8.20    5.80
   2  -7  -6   -1.70    6.10
   2  -7  -6   -1.70    9.40
   2  -7  -6   -2.50    4.20
  -2   7   6   -0.70    4.70
  -2   7   6   -1.50    6.00
  -2   7   6   17.80   10.40
  -2   7   6   -8.30    6.60
   1  -7  -6   30.60    8.20
   1  -7  -6   39.80    9.10
   1  -7  -6   32.50    7.00
   1  -7  -6   44.70    9.30
   1  -7  -6   38.40   11.40
  -1   7   6   43.20   10.30
  -1   7   6   36.90    7.00
  -1   7   6   21.50    8.80
  -1   7   6   32.50    7.90
  -1   7   6   50.49   12.70
   0  -7  -6   57.59   10.40
   0  -7  -6   26.40   10.60
   0  -7  -6   37.40   12.30
   0  -7  -6   42.40   10.30
   0   7   6   28.80   12.60
   0   7   6   35.30   10.80
   0   7   6   36.70   10.30
   0   7   6   58.19    9.60
  -1  -7  -6  179.98   36.80
  -1  -7  -6  263.07   36.90
   1   7   6  219.98   38.10
   1   7   6  181.18   36.40
   1   7   6  229.08   36.40
   1   7   6  183.68   36.50
  -2  -7  -6   16.00   10.90
  -2  -7  -6   24.60    9.10
   2   7   6   11.90    8.60
   2   7   6    6.70    8.90
   2   7   6   22.00    9.60
  -3  -7  -6   24.40   12.00
  -3  -7  -6   15.30   10.10
   3   7   6    3.20   11.00
   3   7   6    3.30   10.40
   3   7   6   10.00   10.20
   4   7   6   10.90   12.30
   4   7   6   11.90   12.20
   7  -8  -6   35.80   14.80
   7  -8  -6   21.90   13.30
   7  -8  -6   59.39   19.50
  -7   8   6   23.00   14.00
  -7   8   6   28.10   19.10
   6  -8  -6   10.10   10.30
   6  -8  -6   14.10   10.30
   6  -8  -6    1.10   10.10
  -6   8   6   11.10   10.90
  -6   8   6    0.20   15.50
   5  -8  -6    2.30   10.00
   5  -8  -6   27.20    9.30
   5  -8  -6    9.10    8.20
  -5   8   6    5.10   13.70
  -5   8   6    2.50    8.80
   4  -8  -6    6.60    8.00
   4  -8  -6    6.00    7.30
   4  -8  -6   20.10    9.00
  -4   8   6    8.10    9.20
  -4   8   6    0.90   14.90
  -4   8   6   17.50    8.70
   3  -8  -6    0.80    3.70
   3  -8  -6   -8.30    7.00
   3  -8  -6   -0.40    5.80
  -3   8   6    0.80   12.90
  -3   8   6   -2.40    6.80
  -3   8   6    0.70    8.70
  -3   8   6  -11.20    6.90
   2  -8  -6  889.91  141.39
   2  -8  -6  853.11  140.79
   2  -8  -6  849.02  140.79
   2  -8  -6  813.92  141.39
  -2   8   6  762.32  141.29
  -2   8   6  824.22  141.59
  -2   8   6  812.42  141.99
  -2   8   6  842.52  140.79
   1  -8  -6   16.70    4.80
   1  -8  -6   14.00    8.50
   1  -8  -6   11.10    7.30
   1  -8  -6   23.00    8.20
  -1   8   6   20.40    5.10
  -1   8   6    9.40    9.30
  -1   8   6   19.40    6.50
  -1   8   6    1.00    7.70
  -1   8   6   27.00   13.00
   0  -8  -6   -1.10    8.50
   0  -8  -6   16.90    8.70
   0  -8  -6    5.10    8.40
   0   8   6   24.40    9.90
   0   8   6    6.40    8.00
   0   8   6    2.00    6.90
   0   8   6   16.00   13.50
  -1  -8  -6   -2.10    8.40
  -1  -8  -6   -7.40    9.50
   1   8   6   -1.00    9.40
   1   8   6    0.00    8.00
   1   8   6    6.60    8.10
  -2  -8  -6   28.60   14.20
  -2  -8  -6   58.29   13.10
   2   8   6   24.40   13.10
   2   8   6   54.49   13.20
   2   8   6   50.39   12.50
  -3  -8  -6   13.30   12.60
  -3  -8  -6    0.50   14.20
   3   8   6   20.00   13.60
   3   8   6   10.50   11.90
   3   8   6    2.80   11.50
   6  -9  -6    2.90   11.20
   6  -9  -6   11.00   11.20
   6  -9  -6    0.50   12.40
  -6   9   6    8.80   11.50
  -6   9   6  -16.90   17.80
   5  -9  -6    0.80    9.90
   5  -9  -6   -0.10   10.70
   5  -9  -6   12.60    9.60
  -5   9   6    6.10   16.20
  -5   9   6    5.70   10.60
   4  -9  -6  137.49   29.00
   4  -9  -6  190.28   29.00
   4  -9  -6  174.68   29.40
  -4   9   6  107.39   30.90
  -4   9   6  172.88   29.40
   3  -9  -6    4.00    6.80
   3  -9  -6    4.30    8.50
  -3   9   6   -4.60    8.80
  -3   9   6   -8.50    8.50
  -3   9   6    5.70   10.40
   2  -9  -6    7.80    6.30
   2  -9  -6    1.80    7.20
   2  -9  -6    9.10   10.40
   2  -9  -6   14.30    8.70
  -2   9   6   10.30    6.90
  -2   9   6    5.90    8.70
  -2   9   6    4.70   10.60
   1  -9  -6   20.20   10.10
   1  -9  -6   20.50    6.00
   1  -9  -6   29.40    9.60
  -1   9   6   16.30   11.60
  -1   9   6   29.30    6.60
  -1   9   6   21.40   10.10
   0  -9  -6   12.20   11.10
   0  -9  -6    7.40    9.70
   0   9   6    1.60    8.30
   0   9   6  -10.70    8.90
   0   9   6    1.30   10.70
  -1  -9  -6   -7.80   12.30
  -1  -9  -6    7.40   10.30
   1   9   6    2.10   11.60
   1   9   6   -0.20   10.80
   1   9   6    6.90    9.40
  -2  -9  -6   15.60   11.90
  -2  -9  -6  -10.90   14.60
   2   9   6   -0.90   13.60
   2   9   6    9.30   11.70
   2   9   6   -3.00   11.50
   5 -10  -6  211.68   37.40
   5 -10  -6  225.78   37.90
  -5  10   6  114.49   39.70
  -5  10   6  238.98   37.80
   4 -10  -6   25.00   11.90
   4 -10  -6   28.80   10.50
   4 -10  -6   17.80   13.10
  -4  10   6    6.10   22.00
   3 -10  -6   28.60   10.10
   3 -10  -6   31.10   12.00
   3 -10  -6   32.10    9.00
  -3  10   6   51.29   12.70
  -3  10   6   19.30   17.60
  -3  10   6   27.10   12.10
   2 -10  -6   12.50   11.10
   2 -10  -6    1.70   11.30
   2 -10  -6   19.40    7.50
   2 -10  -6    9.80    9.60
  -2  10   6   11.20    9.00
  -2  10   6   18.90   11.40
  -2  10   6   31.90   12.80
   1 -10  -6   26.20    7.00
   1 -10  -6   21.70   12.00
   1 -10  -6   31.20   12.90
  -1  10   6   23.40   14.10
  -1  10   6   24.50   12.40
   0 -10  -6   13.20   13.90
   0 -10  -6   47.80   13.00
   0  10   6   34.40   12.50
   0  10   6    6.90   14.00
   0  10   6   26.80   11.20
   1  10   6   -0.50   13.00
   1  10   6   -0.70   12.00
   3 -11  -6   29.90   11.40
  -3  11   6   23.10   14.20
   2 -11  -6   12.00    9.50
   2 -11  -6   14.20   15.30
  -2  11   6   50.69   14.80
   0  13  -7    3.50   13.50
   0 -13   7  -26.30   11.70
   0 -13   7    0.20   10.80
  -1  13  -7   -2.60   16.30
   1 -13   7    9.80   12.70
   1 -13   7    3.90   12.50
   2 -13   7    0.10   12.20
   2 -13   7    0.40   12.80
   2  12  -7   58.49   20.70
   2  12  -7  118.99   19.40
  -2 -12   7   76.89   17.50
  -2 -12   7   51.39   16.40
  -2 -12   7   75.49   20.70
   1  12  -7    2.30   11.40
   1  12  -7   -2.40   18.20
  -1 -12   7    6.30   16.90
  -1 -12   7   15.00   10.50
  -1 -12   7    0.30   10.70
  -1 -12   7   -6.80   10.80
   0  12  -7   15.20   11.10
   0  12  -7  -10.60   25.60
   0  12  -7   13.70   14.80
   0 -12   7    1.80   14.30
   0 -12   7   -8.80    9.60
   0 -12   7   14.10    9.20
   0 -12   7   -8.70    9.60
  -1  12  -7  -13.80   13.60
  -1  12  -7   32.70   11.90
   1 -12   7   17.20   14.60
   1 -12   7   23.10   11.20
   1 -12   7    2.90   10.00
  -2  12  -7  250.77   47.50
  -2  12  -7  318.67   48.10
   2 -12   7  255.97   47.60
   2 -12   7  238.68   47.10
   2 -12   7  248.68   47.80
   2 -12   7  312.27   47.90
   2 -12   7  297.97   48.90
  -3  12  -7    1.80   14.60
  -3  12  -7   27.40   13.20
   3 -12   7   20.50   11.90
   3 -12   7   20.60   12.60
   3 -12   7    1.70   20.10
   3 -12   7   33.70   12.10
  -4  12  -7   11.00   16.70
   4 -12   7    7.20   12.90
   4 -12   7   -6.70   11.70
   3  11  -7   21.70   11.90
   3  11  -7   12.20   11.80
  -3 -11   7    9.60   11.80
  -3 -11   7   12.90   11.00
  -3 -11   7   17.20   11.30
   2  11  -7   88.79   17.80
   2  11  -7   53.59   19.00
  -2 -11   7   55.29   16.20
  -2 -11   7   73.89   17.20
  -2 -11   7  102.89   20.00
  -2 -11   7  116.59   17.40
   1  11  -7   19.80   10.00
   1  11  -7   67.59   14.50
   1  11  -7   15.10   12.60
  -1 -11   7    4.80    8.50
  -1 -11   7   21.60    9.50
  -1 -11   7    6.00   12.40
  -1 -11   7    9.50    9.20
   0  11  -7   57.49   11.60
   0  11  -7   75.09   22.10
   0  11  -7   15.50   13.40
   0 -11   7   26.50    9.80
   0 -11   7   41.10   13.40
   0 -11   7   30.30   10.60
   0 -11   7   36.20   10.80
  -1  11  -7   10.30    8.80
  -1  11  -7    7.80   11.40
   1 -11   7  -13.30   10.90
   1 -11   7   -4.90    8.30
   1 -11   7    2.00    8.80
  -2  11  -7  -10.90   11.60
  -2  11  -7    0.30    9.60
  -2  11  -7   18.40    9.20
   2 -11   7   14.40    9.80
   2 -11   7    2.50    9.10
   2 -11   7   -1.20    9.10
   2 -11   7   21.60    8.70
   2 -11   7    8.40   12.60
  -3  11  -7   -9.30   12.80
  -3  11  -7   13.00   10.80
   3 -11   7   -2.70    9.70
   3 -11   7   -5.30    9.60
   3 -11   7   10.80   13.50
   3 -11   7    2.40    9.00
   3 -11   7   10.20    9.00
  -4  11  -7   -1.60   14.40
  -4  11  -7   12.20   12.30
  -4  11  -7   -2.50   11.20
   4 -11   7   15.70   10.10
   4 -11   7    0.30   16.90
   4 -11   7   12.90   15.70
   4 -11   7    7.50    9.70
   4 -11   7   13.30   11.70
   5 -11   7    3.30   12.60
   5 -11   7    7.50   11.50
   5 -11   7    4.20   14.80
   4  10  -7   -2.80   11.00
   4  10  -7   -6.10   16.40
  -4 -10   7   10.40   10.40
  -4 -10   7    1.90   11.20
   3  10  -7   19.20   17.60
   3  10  -7    6.90    9.90
   3  10  -7   16.70    9.60
  -3 -10   7   -9.70    9.60
  -3 -10   7   -0.10   13.70
  -3 -10   7   -0.60    9.30
  -3 -10   7   -1.20    9.30
   2  10  -7  -19.10   21.10
   2  10  -7   -4.40    8.80
   2  10  -7    4.30    8.40
  -2 -10   7    8.10    8.10
  -2 -10   7   -7.50    7.80
  -2 -10   7   -2.20    7.60
  -2 -10   7   -6.00   10.60
   1  10  -7  245.58   40.20
   1  10  -7  332.67   41.00
  -1 -10   7  264.67   40.60
  -1 -10   7  201.08   40.00
  -1 -10   7  235.88   40.20
  -1 -10   7  161.48   39.50
   0  10  -7   20.30   12.30
   0  10  -7   10.40    9.70
   0  10  -7   35.50    8.40
   0 -10   7   26.60    9.50
   0 -10   7   13.30    6.90
   0 -10   7    6.00   10.10
   0 -10   7   14.40    8.20
  -1  10  -7  116.89   34.50
  -1  10  -7  242.78   34.60
   1 -10   7  229.28   34.70
   1 -10   7  214.48   34.70
  -2  10  -7  242.68   36.40
  -2  10  -7  106.79   36.40
  -2  10  -7  225.68   36.00
   2 -10   7  201.98   36.40
   2 -10   7  221.08   36.60
   2 -10   7  226.38   36.70
   2 -10   7  201.98   36.20
   2 -10   7  248.78   37.00
  -3  10  -7   17.30    8.50
  -3  10  -7    8.50    9.30
  -3  10  -7    9.40   11.50
   3 -10   7   18.90    9.10
   3 -10   7   25.90    8.50
   3 -10   7   27.30    9.30
   3 -10   7   -0.60    8.60
   3 -10   7   24.60   11.80
  -4  10  -7    6.10   10.40
  -4  10  -7   -2.50   11.60
  -4  10  -7   17.20   11.90
   4 -10   7   13.30    9.70
   4 -10   7   11.40    9.00
   4 -10   7   -0.30    9.20
   4 -10   7    8.70   14.10
   4 -10   7    4.40    9.70
  -5  10  -7   22.90   13.10
  -5  10  -7   14.10   13.80
  -5  10  -7   12.70   13.70
   5 -10   7   33.70   19.10
   5 -10   7   29.40   10.80
   5 -10   7   16.50   11.30
   5 -10   7   24.10   12.60
   5 -10   7   21.90   12.20
   5   9  -7    8.00   11.60
   5   9  -7    5.70   12.40
  -5  -9   7   12.60   11.30
  -5  -9   7   12.70   12.80
  -5  -9   7    1.30   11.40
   4   9  -7   56.09   13.20
   4   9  -7   57.29   13.10
  -4  -9   7   47.00   12.60
  -4  -9   7   52.69   16.50
  -4  -9   7   54.59   12.90
  -4  -9   7   17.10   13.30
   3   9  -7   73.59   12.80
   3   9  -7   41.50   12.50
  -3  -9   7   44.80   12.20
  -3  -9   7   53.29   14.20
  -3  -9   7   33.60   12.50
  -3  -9   7   71.89   12.60
   2   9  -7   60.79    9.80
   2   9  -7   19.90   11.50
   2   9  -7   42.80    9.10
  -2  -9   7   24.40    9.50
  -2  -9   7   18.80    8.80
  -2  -9   7   22.70    9.30
  -2  -9   7   35.90   10.30
   1   9  -7    6.20    6.60
   1   9  -7   12.10    9.00
   1   9  -7    7.90    8.00
  -1  -9   7    9.40    6.00
  -1  -9   7    2.20   11.00
  -1  -9   7    6.90    6.50
  -1  -9   7   11.50    6.10
  -1  -9   7    0.30    7.10
   0   9  -7   21.00    6.40
   0   9  -7   12.30    8.10
   0   9  -7    5.90    9.20
   0  -9   7    4.50    6.60
   0  -9   7    4.30    5.40
   0  -9   7    1.50    8.80
   0  -9   7   -1.40    6.00
   0  -9   7    7.40    5.80
  -1   9  -7    3.60    8.40
  -1   9  -7    2.50    5.90
   1  -9   7   -0.90    6.40
   1  -9   7    1.80    9.40
   1  -9   7    9.20    6.60
   1  -9   7   -5.50    5.50
  -2   9  -7   66.69   16.50
  -2   9  -7   90.09   15.60
   2  -9   7   82.29   15.90
   2  -9   7   89.29   16.40
   2  -9   7   97.19   16.60
   2  -9   7   88.39   16.50
   2  -9   7   70.49   16.30
   2  -9   7   82.39   19.50
  -3   9  -7  303.57   46.60
  -3   9  -7  243.58   46.50
   3  -9   7  362.76   47.80
   3  -9   7  263.57   46.30
   3  -9   7  231.78   46.50
   3  -9   7  234.78   46.40
   3  -9   7  273.57   46.80
  -4   9  -7  114.29   32.80
  -4   9  -7  206.88   32.70
  -4   9  -7  189.88   33.10
   4  -9   7  202.28   33.90
   4  -9   7  187.78   32.70
   4  -9   7  221.38   33.30
   4  -9   7  195.38   33.30
   4  -9   7  179.28   32.80
  -5   9  -7   20.90   11.50
  -5   9  -7   11.60   11.60
   5  -9   7    5.20   10.40
   5  -9   7    9.90    8.60
   5  -9   7   -0.50   15.00
   5  -9   7    3.10    9.50
   5  -9   7   35.10    9.90
  -6   9  -7   29.00   14.40
  -6   9  -7  -12.20   13.50
   6  -9   7   -3.20   21.00
   6  -9   7   -0.30   10.70
   6  -9   7    5.60   19.40
   6  -9   7   -0.40   12.80
   6   8  -7   87.59   21.40
   6   8  -7  100.89   20.60
  -6  -8   7   79.99   19.90
  -6  -8   7   96.29   20.90
   5   8  -7   -1.20   10.30
  -5  -8   7   -1.80   10.80
  -5  -8   7  -15.10    9.30
  -5  -8   7  -13.90   14.80
  -5  -8   7    1.10    9.20
   4   8  -7    1.80   14.80
   4   8  -7   14.80    8.40
   4   8  -7   11.10    8.80
  -4  -8   7   16.80    9.30
  -4  -8   7   13.60    8.50
  -4  -8   7    8.50   11.00
  -4  -8   7   19.10    8.40
   3   8  -7   86.69   13.50
   3   8  -7   59.49   13.50
   3   8  -7   48.60   15.30
  -3  -8   7   52.69   13.30
  -3  -8   7   58.09   13.70
  -3  -8   7   61.89   14.10
  -3  -8   7   78.19   13.80
   2   8  -7  177.38   35.80
   2   8  -7  281.97   35.90
  -2  -8   7  186.18   35.70
  -2  -8   7  181.78   35.70
  -2  -8   7  195.58   35.70
  -2  -8   7  214.18   36.40
   1   8  -7  408.46   71.99
   1   8  -7  446.06   72.19
   1   8  -7  398.66   72.09
   1   8  -7  420.16   72.49
  -1  -8   7  425.56   72.19
  -1  -8   7  464.25   71.99
  -1  -8   7  411.16   72.09
  -1  -8   7  417.66   72.59
  -1  -8   7  418.66   72.09
   0   8  -7  474.75   78.99
   0   8  -7  503.05   79.09
   0   8  -7  486.95   79.29
   0   8  -7  370.66   78.89
   0  -8   7  483.55   78.89
   0  -8   7  464.55   78.99
   0  -8   7  500.05   79.09
   0  -8   7  472.85   79.49
   0  -8   7  457.85   79.09
  -1   8  -7  338.37   55.89
  -1   8  -7  350.26   56.39
  -1   8  -7  239.38   55.79
   1  -8   7  347.87   56.19
   1  -8   7  338.57   55.99
   1  -8   7  350.36   56.89
   1  -8   7  339.07   56.09
   1  -8   7  355.46   55.89
  -2   8  -7   22.60    6.60
  -2   8  -7    5.30    7.00
  -2   8  -7   15.60    5.30
   2  -8   7   21.10    7.10
   2  -8   7   23.00    6.80
   2  -8   7   25.70    6.10
   2  -8   7   15.10    6.60
   2  -8   7   -4.90   14.80
   2  -8   7   14.40   10.80
  -3   8  -7   25.60    6.70
  -3   8  -7    3.70    9.60
  -3   8  -7   30.60    7.40
   3  -8   7   20.30    8.60
   3  -8   7   20.90    7.50
   3  -8   7   13.20    7.60
   3  -8   7   13.10   11.60
   3  -8   7   22.90    7.50
  -4   8  -7   99.59   16.40
  -4   8  -7   43.10   16.30
  -4   8  -7   97.89   17.00
   4  -8   7   87.99   16.20
   4  -8   7   98.09   16.80
   4  -8   7   80.19   17.10
   4  -8   7   85.29   16.60
   4  -8   7  101.69   17.80
  -5   8  -7    0.50    9.70
  -5   8  -7   14.80    9.90
  -5   8  -7   17.00    9.80
   5  -8   7    7.40   12.70
   5  -8   7    4.10    7.80
   5  -8   7    5.50    9.50
   5  -8   7   -1.50    8.40
   5  -8   7   12.60    9.40
  -6   8  -7   -2.30   16.40
  -6   8  -7   10.70   12.60
  -6   8  -7  -13.80   14.30
   6  -8   7  -14.40   12.60
   6  -8   7   17.90   10.80
   6  -8   7    8.50   10.10
   6  -8   7  -16.10   18.40
   6  -8   7   -8.50   11.70
   6   7  -7   16.90   14.80
   6   7  -7   33.80   12.10
  -6  -7   7   11.70   11.50
  -6  -7   7   32.10   11.90
   5   7  -7  172.88   30.40
   5   7  -7  190.38   30.30
   5   7  -7   52.69   32.70
  -5  -7   7  158.58   30.30
  -5  -7   7  219.08   30.60
   4   7  -7   11.30    7.00
   4   7  -7    5.80    7.10
   4   7  -7    2.80   12.00
  -4  -7   7    5.50   12.90
  -4  -7   7   15.40    8.80
  -4  -7   7   10.50    8.10
  -4  -7   7   10.70    6.80
   3   7  -7  297.87   53.09
  -3  -7   7  301.47   53.29
  -3  -7   7  297.37   53.19
  -3  -7   7  295.77   53.29
  -3  -7   7  347.77   53.19
  -3  -7   7  322.17   53.49
   2   7  -7  293.27   49.00
   2   7  -7  303.57   49.60
   2   7  -7  301.77   49.10
  -2  -7   7  262.17   49.00
  -2  -7   7  293.57   49.20
  -2  -7   7  231.08   49.00
  -2  -7   7  317.47   49.20
  -2  -7   7  294.67   49.60
  -2  -7   7  299.87   49.60
   1   7  -7  250.27   50.49
   1   7  -7  303.07   50.49
   1   7  -7  311.17   50.69
  -1  -7   7  321.27   50.89
  -1  -7   7  295.97   51.09
  -1  -7   7  304.87   50.69
  -1  -7   7  308.87   50.59
  -1  -7   7  298.87   50.79
  -1  -7   7  297.37   51.09
   0   7  -7   31.20    8.50
   0   7  -7   37.10    7.30
   0   7  -7   37.40    8.40
   0   7  -7   46.70    7.30
   0   7  -7   18.40    7.20
   0  -7   7   32.30    7.00
   0  -7   7   41.70    8.30
   0  -7   7   38.40    7.50
   0  -7   7   29.00    7.20
   0  -7   7   33.60    7.80
  -1   7  -7   11.00    5.90
  -1   7  -7    1.00    4.00
  -1   7  -7    3.80    4.60
  -1   7  -7    3.20    5.70
  -1   7  -7   -2.00    4.20
   1  -7   7    4.00    4.20
   1  -7   7    0.60    5.30
   1  -7   7   11.00    5.10
   1  -7   7    1.50    4.00
   1  -7   7    0.90    5.90
   1  -7   7    9.10    4.20
  -2   7  -7   12.70    6.20
  -2   7  -7   26.40    8.00
  -2   7  -7   24.40    6.60
  -2   7  -7   25.40    7.40
  -2   7  -7   19.50    5.40
   2  -7   7   36.50    9.00
   2  -7   7   30.80    6.30
   2  -7   7   30.30    7.20
   2  -7   7   23.80    6.60
   2  -7   7   29.50    6.90
   2  -7   7   38.30    7.20
  -3   7  -7  277.07   47.70
  -3   7  -7  261.47   48.10
   3  -7   7  313.67   48.30
   3  -7   7  212.78   48.70
   3  -7   7  306.27   48.30
   3  -7   7  255.57   48.30
   3  -7   7  293.77   48.00
   3  -7   7  313.07   48.30
  -4   7  -7   62.59   11.90
  -4   7  -7   83.69   12.50
  -4   7  -7   70.59   12.70
   4  -7   7   67.69   12.70
   4  -7   7   70.19   12.80
   4  -7   7   36.80   12.40
   4  -7   7   31.40   11.60
   4  -7   7   56.09   13.10
  -5   7  -7   81.19   16.90
  -5   7  -7   84.49   16.60
  -5   7  -7  138.79   18.00
   5  -7   7   72.59   15.90
   5  -7   7   63.39   16.30
   5  -7   7   84.39   18.00
   5  -7   7   73.99   16.10
   5  -7   7   67.79   16.70
  -6   7  -7    0.00   14.10
  -6   7  -7   10.40   12.90
  -6   7  -7   13.80   12.00
   6  -7   7    4.70   16.10
   6  -7   7   12.70    9.70
   6  -7   7   11.40   11.10
   6  -7   7    5.00   11.30
   6  -7   7   22.90    9.80
   7   6  -7   -8.60   12.50
   7   6  -7   15.10   13.10
  -7  -6   7   -1.40   11.90
   6   6  -7   52.49   13.10
  -6  -6   7   52.09   16.10
  -6  -6   7   18.30   13.80
  -6  -6   7   65.19   13.60
   5   6  -7   -3.10   13.40
   5   6  -7   18.60    7.80
   5   6  -7   -1.70    7.30
  -5  -6   7    7.20    8.50
  -5  -6   7    9.40    7.40
  -5  -6   7   -7.90    9.70
   4   6  -7   57.19   14.80
   4   6  -7   89.69   17.00
   4   6  -7   93.19   15.10
  -4  -6   7   87.59   16.10
  -4  -6   7   79.89   16.30
  -4  -6   7   64.69   14.90
  -4  -6   7   89.79   15.70
   3   6  -7 1086.29  180.48
   3   6  -7 1124.29  180.68
   3   6  -7 1042.70  180.68
   3   6  -7 1032.30  180.78
  -3  -6   7 1093.19  180.68
  -3  -6   7 1012.30  180.58
  -3  -6   7  997.90  180.78
  -3  -6   7 1153.58  180.78
  -3  -6   7 1060.49  180.78
  -3  -6   7 1108.99  180.68
   2   6  -7  205.58   37.30
   2   6  -7  222.58   37.70
   2   6  -7  208.58   37.30
   2   6  -7  232.88   37.20
  -2  -6   7  221.48   37.50
  -2  -6   7  220.58   37.50
  -2  -6   7  207.88   37.30
  -2  -6   7  202.78   37.40
  -2  -6   7  252.67   37.80
  -2  -6   7  200.28   37.30
   1   6  -7   -1.40    3.20
   1   6  -7   -0.30    4.70
  -1  -6   7    4.20    5.40
  -1  -6   7    4.50    3.30
  -1  -6   7    6.30    3.30
  -1  -6   7   -1.00    4.00
  -1  -6   7    0.10    3.40
  -1  -6   7    5.90    4.30
   0   6  -7  478.75   79.49
   0   6  -7  489.25   79.59
   0   6  -7  438.06   79.79
   0  -6   7  482.05   79.69
   0  -6   7  470.55   79.49
   0  -6   7  447.46   79.49
   0  -6   7  467.25   79.59
   0  -6   7  491.55   79.69
  -1   6  -7   69.29   12.10
  -1   6  -7   73.89   11.80
  -1   6  -7   67.29   13.10
   1  -6   7   58.89   11.60
   1  -6   7   66.89   12.30
   1  -6   7   75.39   12.50
   1  -6   7   65.69   12.30
   1  -6   7   53.29   11.60
   1  -6   7   60.89   13.00
  -2   6  -7  141.99   22.70
  -2   6  -7  126.89   22.50
  -2   6  -7  126.09   22.90
   2  -6   7  127.29   22.50
   2  -6   7  135.39   23.10
   2  -6   7  137.79   22.90
   2  -6   7  135.69   22.50
   2  -6   7  100.69   22.70
   2  -6   7  129.59   22.60
  -3   6  -7   32.40    6.40
  -3   6  -7   38.60    8.00
  -3   6  -7   30.70    7.40
  -3   6  -7   30.50    8.60
  -3   6  -7   40.00    7.60
   3  -6   7   34.80    6.90
   3  -6   7   25.80    7.30
   3  -6   7   22.70    7.30
   3  -6   7   21.30    7.40
   3  -6   7   18.40    7.50
   3  -6   7   17.70    9.20
  -4   6  -7  270.17   40.80
  -4   6  -7  219.08   40.30
   4  -6   7  217.28   40.80
   4  -6   7  226.98   40.90
   4  -6   7  271.97   41.20
   4  -6   7  219.78   41.60
   4  -6   7  236.88   41.00
   4  -6   7  240.58   40.70
  -5   6  -7   -1.30   10.60
  -5   6  -7    6.90    7.80
  -5   6  -7    5.30    8.30
   5  -6   7   10.50   10.40
   5  -6   7   -9.50    7.00
   5  -6   7    6.30    8.40
   5  -6   7   -1.90    7.80
   5  -6   7    2.10    6.80
  -6   6  -7   -4.90   10.80
  -6   6  -7   -1.50   15.30
  -6   6  -7  -15.60   11.20
   6  -6   7   -0.80    8.40
   6  -6   7   -3.20   10.20
   6  -6   7   -0.50   15.80
   6  -6   7    4.50    9.20
   6  -6   7    4.50    9.40
   7   5  -7   10.50   11.70
   7   5  -7   10.90   10.50
   7   5  -7    7.20   11.70
  -7  -5   7  -30.10   12.90
   6   5  -7   13.20    9.10
   6   5  -7   15.80    8.50
   6   5  -7   18.90    9.30
  -6  -5   7   16.90   11.90
  -6  -5   7   -1.90    9.70
  -6  -5   7   -7.70   12.40
   5   5  -7   -4.60    6.30
   5   5  -7   -2.70    6.60
   5   5  -7    0.40   12.10
  -5  -5   7    1.40   10.00
  -5  -5   7    7.50    7.70
  -5  -5   7    0.50    7.60
   4   5  -7   -0.90    8.80
   4   5  -7    6.60    5.10
   4   5  -7   -7.90    8.40
   4   5  -7   -0.50    5.10
  -4  -5   7    8.10    6.60
  -4  -5   7   -9.50    7.70
  -4  -5   7    1.90    7.10
  -4  -5   7    9.50    5.90
  -4  -5   7    3.10    6.80
   3   5  -7  144.69   25.10
   3   5  -7  128.29   24.70
   3   5  -7  119.79   24.80
   3   5  -7  163.78   25.00
  -3  -5   7  172.58   25.40
  -3  -5   7  126.29   24.80
  -3  -5   7  156.88   25.20
  -3  -5   7  164.78   25.00
  -3  -5   7  128.09   24.90
   2   5  -7  309.87   51.89
   2   5  -7  283.07   51.69
   2   5  -7  300.47   51.49
  -2  -5   7  282.67   51.89
  -2  -5   7  314.77   52.09
  -2  -5   7  310.87   51.99
  -2  -5   7  302.57   51.69
  -2  -5   7  308.07   51.89
  -2  -5   7  348.67   51.89
   1   5  -7   96.79   14.40
   1   5  -7   88.79   14.10
  -1  -5   7   74.69   14.00
  -1  -5   7   74.09   14.40
  -1  -5   7   72.39   14.00
  -1  -5   7   76.89   14.10
  -1  -5   7   85.69   14.30
   0   5  -7  140.39   24.70
   0   5  -7  150.78   24.60
   0   5  -7  138.49   24.30
   0  -5   7  169.58   24.80
   0  -5   7  135.29   24.60
   0  -5   7  138.99   24.30
   0  -5   7  135.79   24.40
  -1   5  -7   60.49   14.00
  -1   5  -7   79.09   13.50
  -1   5  -7   80.79   13.70
   1  -5   7   74.59   13.50
   1  -5   7   81.29   14.00
   1  -5   7   80.59   13.60
   1  -5   7   78.39   14.10
   1  -5   7   72.09   13.90
   1  -5   7   79.39   13.50
  -2   5  -7   74.39   13.30
  -2   5  -7   76.99   13.90
  -2   5  -7   84.59   13.30
   2  -5   7   78.99   13.90
   2  -5   7   65.39   13.10
   2  -5   7   61.89   13.40
   2  -5   7   66.89   13.80
   2  -5   7   78.09   13.10
  -3   5  -7    3.90    6.10
  -3   5  -7    4.50    5.20
  -3   5  -7   -3.30    2.90
  -3   5  -7   -6.80    4.30
   3  -5   7   14.00    4.90
   3  -5   7    0.20    5.10
   3  -5   7    3.70    4.60
   3  -5   7    3.90    3.80
   3  -5   7   -2.30    6.30
   3  -5   7   -4.60    4.70
  -4   5  -7   29.80    7.80
  -4   5  -7   32.30    8.40
  -4   5  -7   38.80    9.90
  -4   5  -7   34.00    9.40
   4  -5   7   23.10    7.70
   4  -5   7   30.10    8.70
   4  -5   7   31.30    8.40
   4  -5   7   47.30    9.10
   4  -5   7   52.99   11.70
   4  -5   7   24.70    8.30
  -5   5  -7  209.28   52.79
  -5   5  -7  330.87   53.09
  -5   5  -7  310.27   52.49
   5  -5   7  282.77   52.79
   5  -5   7  342.87   52.99
   5  -5   7  320.07   53.39
   5  -5   7  367.26   53.29
   5  -5   7  328.67   53.09
  -6   5  -7   37.80   12.00
  -6   5  -7    4.10   13.50
  -6   5  -7   13.10   11.90
   6  -5   7   19.80   11.00
   6  -5   7   24.40   10.20
   6  -5   7   29.40   10.90
   6  -5   7   12.90    9.20
   6  -5   7   46.90   15.80
   7  -5   7   17.40   13.30
   7  -5   7   28.70   13.10
   7  -5   7   31.50   12.40
   7   4  -7  101.09   20.30
   7   4  -7  132.79   19.90
   7   4  -7  126.09   20.50
  -7  -4   7   44.30   20.60
  -7  -4   7   63.09   23.80
   6   4  -7   25.90    9.00
   6   4  -7   13.30    8.60
   6   4  -7    8.10   15.00
  -6  -4   7   21.50   13.30
  -6  -4   7   25.40   10.20
  -6  -4   7   11.30    9.40
   5   4  -7  324.97   54.19
   5   4  -7  295.87   54.29
   5   4  -7  320.57   54.49
  -5  -4   7  336.77   54.89
  -5  -4   7  298.37   54.09
  -5  -4   7  344.37   55.49
  -5  -4   7  303.87   54.09
   4   4  -7    9.60    6.70
   4   4  -7    5.10    4.80
   4   4  -7   10.10    7.30
   4   4  -7   -2.20    4.40
  -4  -4   7   -0.90    6.20
  -4  -4   7    7.50    5.00
  -4  -4   7    3.80    5.70
  -4  -4   7    6.60    5.60
  -4  -4   7    5.90    7.20
   3   4  -7  207.18   36.40
   3   4  -7  214.28   36.60
   3   4  -7  210.28   36.60
   3   4  -7  194.18   36.80
  -3  -4   7  228.08   36.80
  -3  -4   7  222.48   36.80
  -3  -4   7  215.18   36.80
  -3  -4   7  229.08   36.60
  -3  -4   7  203.98   36.90
   2   4  -7    0.20    2.40
   2   4  -7   -2.60    3.40
  -2  -4   7    3.50    4.20
  -2  -4   7   -2.40    3.20
  -2  -4   7    2.50    3.10
  -2  -4   7    4.70    4.10
  -2  -4   7    2.70    2.60
  -2  -4   7   -3.20    3.50
   1   4  -7 1885.01  310.07
  -1  -4   7 1843.02  310.27
  -1  -4   7 1762.52  310.07
  -1  -4   7 1819.72  310.07
  -1  -4   7 1950.01  310.07
  -1  -4   7 1806.02  310.07
   0   4  -7   22.30    4.00
   0   4  -7   14.00    3.60
   0   4  -7   19.30    5.00
   0  -4   7   13.40    3.70
   0  -4   7   16.60    4.70
   0  -4   7   18.30    3.40
   0  -4   7   20.50    4.10
   0  -4   7   18.60    3.60
   0  -4   7   25.70    4.90
  -1   4  -7  430.86   70.09
  -1   4  -7  431.06   70.39
   1  -4   7  389.56   70.39
   1  -4   7  426.06   70.19
   1  -4   7  393.36   70.29
   1  -4   7  411.96   70.19
   1  -4   7  436.76   70.09
   1  -4   7  393.46   70.09
  -2   4  -7   40.90    9.10
  -2   4  -7   46.10    8.60
   2  -4   7   44.70    8.80
   2  -4   7   50.49    8.50
   2  -4   7   48.30    8.50
   2  -4   7   40.50    8.70
   2  -4   7   39.00    8.90
   2  -4   7   51.99    9.30
  -3   4  -7    9.20    6.40
  -3   4  -7   13.00    3.50
  -3   4  -7    8.50    3.30
  -3   4  -7    5.60    4.80
  -3   4  -7   12.20    5.40
  -3   4  -7    6.70    5.30
   3  -4   7    9.90    4.80
   3  -4   7   12.00    5.00
   3  -4   7   10.10    4.40
   3  -4   7   26.60    6.80
   3  -4   7   18.70    5.00
   3  -4   7   18.50    5.30
  -4   4  -7  562.54  112.29
  -4   4  -7  655.33  112.29
  -4   4  -7  657.63  112.39
   4  -4   7  650.23  112.49
   4  -4   7  686.63  112.29
   4  -4   7  646.04  112.89
   4  -4   7  721.23  113.79
   4  -4   7  760.82  112.39
   4  -4   7  681.23  112.49
  -5   4  -7  749.42  128.99
  -5   4  -7  792.82  129.09
   5  -4   7  757.92  128.89
   5  -4   7  779.82  128.89
   5  -4   7  741.63  129.09
   5  -4   7  746.73  129.29
  -6   4  -7   47.50   14.50
  -6   4  -7   37.20   13.80
   6  -4   7   66.29   13.50
   6  -4   7   35.50   13.10
   6  -4   7   43.90   12.50
   6  -4   7   67.19   17.60
   6  -4   7   60.19   12.30
  -7   4  -7   40.70   13.40
   7  -4   7   44.40   14.00
   7  -4   7   29.00   13.50
   7  -4   7   53.19   15.10
   8   3  -7   96.99   19.20
   8   3  -7   51.39   18.90
   8   3  -7   96.49   18.00
  -8  -3   7   66.99   24.40
   7   3  -7  100.49   19.70
   7   3  -7  108.19   20.00
   7   3  -7  111.09   19.10
  -7  -3   7   97.09   22.90
  -7  -3   7  145.69   23.00
  -7  -3   7   40.00   20.10
   6   3  -7   78.19   14.70
   6   3  -7   83.29   15.20
   6   3  -7   66.89   15.00
   6   3  -7   91.69   19.00
  -6  -3   7   67.09   16.10
  -6  -3   7   82.29   17.30
  -6  -3   7   85.89   15.70
  -6  -3   7   52.89   15.50
   5   3  -7    0.90    9.60
   5   3  -7   -2.70    5.30
   5   3  -7    2.40    5.30
  -5  -3   7   -0.90    7.60
  -5  -3   7   -0.80    7.50
  -5  -3   7    3.30    6.20
  -5  -3   7   -0.20    6.10
  -5  -3   7    3.00    6.10
   4   3  -7  309.17   48.30
   4   3  -7  256.67   48.30
   4   3  -7  217.28   48.60
   4   3  -7  334.47   49.10
  -4  -3   7  292.07   48.50
  -4  -3   7  289.47   48.40
  -4  -3   7  265.37   48.80
  -4  -3   7  307.67   48.60
  -4  -3   7  291.87   48.70
   3   3  -7   15.10    3.20
   3   3  -7   13.00    4.30
   3   3  -7    4.60    3.60
   3   3  -7    4.90    3.40
  -3  -3   7   15.20    4.20
  -3  -3   7    7.30    3.50
  -3  -3   7    5.60    4.30
  -3  -3   7   14.50    4.30
   2   3  -7  178.98   28.30
  -2  -3   7  167.58   28.40
  -2  -3   7  163.78   28.20
  -2  -3   7  157.98   28.30
  -2  -3   7  163.98   28.30
  -2  -3   7  162.48   28.60
   1   3  -7  184.38   32.80
   1   3  -7  218.48   32.90
  -1  -3   7  194.28   32.80
  -1  -3   7  212.48   32.70
  -1  -3   7  203.98   32.80
  -1  -3   7  212.88   33.30
  -1  -3   7  163.68   32.70
   0   3  -7    5.70    1.50
   0   3  -7    7.80    1.80
   0  -3   7    3.80    3.10
   0  -3   7    5.70    3.20
  -1   3  -7 1177.58  178.68
  -1   3  -7 1054.99  178.78
   1  -3   7 1037.80  178.58
   1  -3   7 1070.99  178.58
   1  -3   7 1130.69  178.58
   1  -3   7 1031.70  178.78
   1  -3   7  940.71  178.48
   1  -3   7 1058.99  178.78
  -2   3  -7  112.99   19.40
  -2   3  -7  119.69   19.70
  -2   3  -7  120.19   19.50
  -2   3  -7  130.09   20.10
   2  -3   7  115.79   19.60
   2  -3   7  107.69   19.40
   2  -3   7   98.29   19.40
   2  -3   7  148.39   20.00
   2  -3   7   76.89   19.50
   2  -3   7  117.99   19.60
  -3   3  -7   15.20    5.30
  -3   3  -7   20.80    5.70
  -3   3  -7   21.90    5.70
  -3   3  -7   12.60    3.90
  -3   3  -7   17.60    4.00
  -3   3  -7   13.00    6.40
   3  -3   7   16.50    4.80
   3  -3   7   16.00    5.30
   3  -3   7   18.30    4.70
   3  -3   7   16.00    5.80
   3  -3   7   16.50    5.50
   3  -3   7   19.00    6.90
  -4   3  -7   15.70    6.10
  -4   3  -7    6.90    4.50
  -4   3  -7    8.50    5.40
  -4   3  -7    2.50    5.70
   4  -3   7   10.00    5.40
   4  -3   7   13.00    6.20
   4  -3   7   12.20    6.20
   4  -3   7    6.60    5.10
   4  -3   7    8.00    6.90
   4  -3   7   -2.30    9.40
  -5   3  -7  285.27   49.20
  -5   3  -7  263.97   49.20
  -5   3  -7  332.57   49.50
  -5   3  -7  300.47   49.30
   5  -3   7  288.37   49.40
   5  -3   7  293.17   49.30
   5  -3   7  297.47   49.70
   5  -3   7  227.98   49.10
  -6   3  -7   34.50   13.40
  -6   3  -7   46.50   11.00
  -6   3  -7   30.90   13.60
   6  -3   7   42.70   11.50
   6  -3   7   55.89   16.70
   6  -3   7   48.90   11.20
   6  -3   7   23.00   11.80
   6  -3   7   29.90   11.10
  -7   3  -7    7.70   11.00
   7  -3   7    1.40   11.40
   7  -3   7   -8.20   11.00
   7  -3   7    0.20   12.10
   8   2  -7   -5.10    9.40
   8   2  -7   11.10   12.00
   8   2  -7    7.50   11.30
  -8  -2   7  -15.10   12.70
   7   2  -7   20.00   10.00
   7   2  -7   18.80    8.40
   7   2  -7   21.00    9.60
  -7  -2   7   28.50   11.60
  -7  -2   7   32.70   13.80
  -7  -2   7   20.80   13.80
   6   2  -7    3.40    5.50
   6   2  -7   -0.10   13.80
   6   2  -7    4.80    6.50
   6   2  -7    2.60    7.00
  -6  -2   7    2.80    9.20
  -6  -2   7   -8.70    7.40
  -6  -2   7    0.90    8.30
   5   2  -7    7.40    5.40
   5   2  -7   10.40    8.10
   5   2  -7    8.50    6.20
   5   2  -7   13.60    8.90
  -5  -2   7   10.50    5.40
  -5  -2   7    9.70    6.00
  -5  -2   7    8.20    6.20
  -5  -2   7   14.60    7.40
   4   2  -7  383.36   69.69
   4   2  -7  413.56   69.59
   4   2  -7  389.76   69.79
   4   2  -7  437.36   69.49
  -4  -2   7  382.36   69.59
  -4  -2   7  419.76   69.89
  -4  -2   7  425.46   69.89
  -4  -2   7  394.36   69.89
  -4  -2   7  443.06   69.69
  -4  -2   7  411.56   69.59
   3   2  -7   47.60    8.10
   3   2  -7   50.99    8.40
  -3  -2   7   47.50    8.20
  -3  -2   7   39.70    8.40
  -3  -2   7   35.80    7.90
  -3  -2   7   36.90    8.10
  -2  -2   7 1151.68  180.88
  -2  -2   7  979.40  180.78
  -2  -2   7 1089.19  180.88
  -2  -2   7 1086.79  180.88
  -1  -2   7  331.57   55.29
  -1  -2   7  321.27   55.19
   0  -2   7    3.40    2.70
   0  -2   7    1.00    2.70
  -1   2  -7  456.25   77.29
  -1   2  -7  464.45   77.09
  -1   2  -7  417.16   76.89
   1  -2   7  440.26   76.89
   1  -2   7  480.55   77.09
   1  -2   7  460.05   76.99
   1  -2   7  490.15   76.89
   1  -2   7  457.85   77.19
   1  -2   7  453.05   76.99
  -2   2  -7  331.67   51.79
  -2   2  -7  328.57   51.79
  -2   2  -7  296.17   52.09
  -2   2  -7  286.07   51.69
   2  -2   7  319.67   51.99
   2  -2   7  229.98   51.89
   2  -2   7  305.37   51.79
   2  -2   7  303.37   51.69
   2  -2   7  322.67   52.19
   2  -2   7  324.37   51.69
  -3   2  -7  619.04  116.29
  -3   2  -7  700.53  115.79
  -3   2  -7  645.24  115.69
  -3   2  -7  691.73  115.99
  -3   2  -7  701.63  115.99
  -3   2  -7  730.83  116.09
   3  -2   7  680.83  116.19
   3  -2   7  707.63  116.09
   3  -2   7  708.43  115.89
   3  -2   7  694.13  116.19
   3  -2   7  724.43  115.99
   3  -2   7  645.14  115.99
  -4   2  -7    3.90    5.30
  -4   2  -7   10.00    5.10
  -4   2  -7    4.70    5.40
  -4   2  -7   -1.00    6.40
   4  -2   7    0.20    4.70
   4  -2   7    4.00    8.80
   4  -2   7   -5.40    6.70
   4  -2   7  -10.60    5.60
   4  -2   7    4.90    5.20
   4  -2   7    3.70    9.10
  -5   2  -7   34.10    9.50
  -5   2  -7    0.80   10.20
  -5   2  -7   36.40   10.10
  -5   2  -7   35.70    8.60
   5  -2   7   37.50    9.00
   5  -2   7   35.40    9.60
   5  -2   7   36.00    8.80
   5  -2   7   35.80    9.20
   5  -2   7   23.00   11.60
  -6   2  -7   -2.70   12.20
  -6   2  -7   -4.30    7.90
  -6   2  -7  -12.50   11.70
   6  -2   7    6.60   10.10
   6  -2   7    4.80    9.70
   6  -2   7    7.00    8.70
   6  -2   7    5.60    8.50
   8   1  -7    0.10   11.10
   8   1  -7    1.60   11.60
   8   1  -7   -2.60   10.60
  -8  -1   7    1.30   17.30
  -8  -1   7    4.50   12.60
   7   1  -7   40.00   10.30
   7   1  -7   44.70   10.30
   7   1  -7   18.10    8.40
  -7  -1   7   32.60   10.50
  -7  -1   7   11.70   12.70
  -7  -1   7   29.90   13.10
  -7  -1   7   23.20   10.80
   6   1  -7   12.30    6.10
   6   1  -7   27.00    7.70
   6   1  -7   19.60   12.80
   6   1  -7   27.30    7.60
  -6  -1   7   13.10   10.00
  -6  -1   7    7.90    7.80
  -6  -1   7   28.10    7.40
  -6  -1   7   35.40    9.30
   5   1  -7  153.48   21.30
   5   1  -7  122.99   21.10
   5   1  -7  124.79   22.00
   5   1  -7  127.29   22.10
  -5  -1   7  105.39   21.20
  -5  -1   7  109.29   21.70
  -5  -1   7  117.19   20.90
  -5  -1   7   90.99   22.40
  -5  -1   7   99.79   21.60
  -5  -1   7  117.59   21.20
   4   1  -7  100.49   16.10
   4   1  -7   88.19   15.70
   4   1  -7   84.39   16.10
   4   1  -7   82.49   15.60
  -4  -1   7   89.39   15.80
  -4  -1   7   89.79   16.30
  -4  -1   7   83.79   15.60
  -4  -1   7   93.19   16.10
  -4  -1   7   92.89   15.90
  -4  -1   7   82.09   16.30
   3   1  -7  136.99   19.70
   3   1  -7  106.69   19.50
  -3  -1   7  102.09   19.40
  -3  -1   7  104.49   19.60
  -3  -1   7  112.89   19.50
  -3  -1   7  101.99   19.60
  -3  -1   7  137.39   19.80
   2   1  -7  887.61  143.69
  -2  -1   7  836.12  143.79
  -2  -1   7  874.51  143.69
  -2  -1   7  819.72  143.79
  -1  -1   7    1.90    2.30
  -1  -1   7    3.60    2.70
   0   1  -7 1790.52  277.07
   0   1  -7 1557.54  276.97
   0  -1   7 1607.84  277.17
   0  -1   7 1626.94  277.27
  -1   1  -7  371.76   61.39
  -1   1  -7  369.56   61.69
  -1   1  -7  347.27   61.49
   1  -1   7  354.96   61.49
   1  -1   7  389.96   61.69
   1  -1   7  360.66   61.39
   1  -1   7  389.36   61.39
   1  -1   7  337.67   61.39
  -2   1  -7  194.38   33.60
  -2   1  -7  219.08   33.50
  -2   1  -7  183.38   33.60
  -2   1  -7  215.78   33.90
   2  -1   7  194.68   33.50
   2  -1   7  192.98   33.90
   2  -1   7  192.88   33.60
   2  -1   7  188.88   33.70
   2  -1   7  182.08   33.40
   2  -1   7  200.58   33.40
  -3   1  -7   11.50    5.60
  -3   1  -7   18.40    6.60
  -3   1  -7    9.60    4.00
  -3   1  -7   13.40    4.40
   3  -1   7   16.70    7.00
   3  -1   7   11.40    4.60
   3  -1   7    4.60    4.90
   3  -1   7    8.90    5.30
   3  -1   7   17.90    5.70
   3  -1   7   16.30    4.40
  -4   1  -7   51.09    9.20
  -4   1  -7   45.30    8.40
  -4   1  -7   18.70    9.50
  -4   1  -7   31.70    8.50
   4  -1   7   44.60    8.40
   4  -1   7   37.30    8.80
   4  -1   7   32.90   12.50
   4  -1   7   52.69   10.60
   4  -1   7   41.40    9.20
   4  -1   7   23.20    8.80
  -5   1  -7   14.30   12.20
  -5   1  -7   46.60   10.60
  -5   1  -7   56.99   12.20
  -5   1  -7   57.89   10.90
   5  -1   7   49.20   10.90
   5  -1   7   51.49   10.20
   5  -1   7   49.70   11.40
   5  -1   7   45.30   13.60
   5  -1   7   37.70   11.60
  -6   1  -7   -0.30   13.10
  -6   1  -7   24.70   10.40
  -6   1  -7   21.20   11.60
   6  -1   7   30.80   10.00
   6  -1   7   57.29   12.60
   6  -1   7   44.40   10.70
   6  -1   7   28.00   11.90
   6  -1   7   57.49   18.10
   8   0  -7    0.70   11.00
   8   0  -7    6.10    7.90
   8   0  -7   -3.70   10.60
  -8   0   7    4.80   11.90
  -8   0   7  -19.90   15.70
  -8   0   7  -13.40   11.00
   7   0  -7   32.00   10.70
   7   0  -7   40.00    8.70
   7   0  -7   29.10   10.40
  -7   0   7   31.90   13.50
  -7   0   7   37.30   13.10
  -7   0   7   28.60   11.00
  -7   0   7   41.10   10.00
   6   0  -7   55.59    9.80
   6   0  -7   69.29   14.40
   6   0  -7   48.20   11.10
   6   0  -7   48.90   11.10
  -6   0   7   25.00   12.80
  -6   0   7   49.50   10.20
  -6   0   7   46.70   11.90
  -6   0   7   52.29   11.60
   5   0  -7   -1.50    4.70
   5   0  -7    4.90    4.50
   5   0  -7   -1.70    7.00
   5   0  -7   -5.30    7.50
  -5   0   7    1.10    5.70
  -5   0   7   -1.90    5.40
  -5   0   7  -14.80    6.80
  -5   0   7   -7.60    5.40
  -5   0   7   -4.00    6.60
  -5   0   7   -1.60    6.60
   4   0  -7  185.48   24.20
   4   0  -7  141.19   23.80
   4   0  -7  118.39   24.00
   4   0  -7  124.69   23.80
  -4   0   7  170.78   24.30
  -4   0   7  131.79   24.10
  -4   0   7  106.29   24.10
  -4   0   7  165.18   24.10
  -4   0   7  121.49   23.60
  -4   0   7  124.69   23.80
   3   0  -7  192.58   32.70
   3   0  -7  184.98   32.90
   3   0  -7  200.58   32.50
  -3   0   7  192.08   33.20
  -3   0   7  196.98   33.00
  -3   0   7  192.58   33.10
  -3   0   7  178.78   32.70
  -3   0   7  192.18   32.80
  -3   0   7  189.18   32.60
   2   0  -7   23.80    5.00
  -2   0   7   23.30    5.10
  -2   0   7   34.90    5.00
  -2   0   7   26.90    5.20
  -2   0   7   20.80    5.00
  -2   0   7   23.70    4.90
   1   0  -7  903.51  146.09
   1   0  -7  802.02  145.99
  -1   0   7  865.81  146.19
  -1   0   7  896.31  146.09
  -1   0   7  848.82  145.99
  -1   0   7  906.71  145.99
  -1   0   7  857.01  145.99
   0   0  -7   13.10    3.00
   0   0  -7   13.70    3.20
   0   0  -7   17.70    3.90
   0   0   7    7.40    2.90
   0   0   7   15.60    3.20
   0   0   7   16.30    2.90
   0   0   7   17.00    3.50
   0   0   7   10.80    2.80
   0   0   7   13.30    3.20
  -1   0  -7  235.58   38.40
  -1   0  -7  238.78   38.70
  -1   0  -7  215.78   38.40
   1   0   7  250.37   38.50
   1   0   7  212.68   38.30
   1   0   7  224.88   38.40
   1   0   7  203.48   38.50
   1   0   7  209.38   38.30
   1   0   7  244.78   38.20
  -2   0  -7    7.10    2.40
  -2   0  -7    8.60    5.00
  -2   0  -7    6.90    4.20
  -2   0  -7    4.70    2.60
  -2   0  -7    5.10    2.90
  -2   0  -7    1.70    4.20
   2   0   7    1.90    3.30
   2   0   7    8.30    6.00
   2   0   7   10.20    4.30
   2   0   7    4.20    3.90
   2   0   7    7.20    3.80
   2   0   7   13.70    2.90
  -3   0  -7   91.99   16.00
  -3   0  -7  100.09   16.10
  -3   0  -7   67.99   16.60
  -3   0  -7   73.19   16.60
  -3   0  -7  100.89   15.80
  -3   0  -7   88.29   16.50
   3   0   7   78.09   16.10
   3   0   7   93.79   16.60
   3   0   7  102.19   16.70
   3   0   7  118.39   17.40
   3   0   7   73.29   16.30
   3   0   7   89.89   15.70
  -4   0  -7   72.69   17.00
  -4   0  -7   79.99   15.70
  -4   0  -7   77.79   16.10
  -4   0  -7  109.29   16.80
   4   0   7  130.09   17.80
   4   0   7   91.99   16.80
   4   0   7   67.99   16.50
   4   0   7  121.89   19.70
  -5   0  -7   79.59   15.40
  -5   0  -7   15.60   12.20
  -5   0  -7   49.80   10.00
  -5   0  -7   40.40   10.30
   5   0   7   44.30   11.30
   5   0   7   36.60    9.30
   5   0   7   41.00   11.40
   5   0   7   47.20   10.70
   5   0   7   40.00   14.70
  -6   0  -7   15.80   14.90
  -6   0  -7   40.70   13.10
  -6   0  -7   52.89   12.10
   6   0   7   39.30   13.10
   6   0   7   19.70   12.50
   6   0   7   26.90   11.50
   6   0   7   48.80   10.50
   6   0   7   41.80   19.90
   8  -1  -7   15.30    7.70
   8  -1  -7    8.40   11.10
   8  -1  -7   -0.40   10.80
  -8   1   7   23.60   12.10
  -8   1   7   26.30   16.10
  -8   1   7   16.60   16.10
   7  -1  -7    1.90    8.20
   7  -1  -7   -3.00    5.10
   7  -1  -7   -4.40    8.20
  -7   1   7   10.80   11.40
  -7   1   7    5.10    8.40
  -7   1   7   -2.30    6.40
  -7   1   7   -5.20   11.80
   6  -1  -7   47.20   12.30
   6  -1  -7   29.40    8.40
   6  -1  -7   37.20    8.40
  -6   1   7   27.90    6.70
  -6   1   7   16.90    9.30
  -6   1   7   20.90    8.50
  -6   1   7   28.10   10.90
   5  -1  -7  340.67   42.40
   5  -1  -7  284.87   42.10
   5  -1  -7  229.68   41.80
   5  -1  -7  239.18   41.80
  -5   1   7  231.48   42.20
  -5   1   7  189.78   41.60
  -5   1   7  224.38   41.90
  -5   1   7  245.38   41.10
  -5   1   7  231.28   41.80
   4  -1  -7   11.30    5.10
   4  -1  -7   10.20    3.90
   4  -1  -7    7.10    4.00
   4  -1  -7    6.00    5.20
  -4   1   7    6.50    4.00
  -4   1   7    2.30    2.20
  -4   1   7    3.30    4.10
  -4   1   7    5.70    5.10
  -4   1   7    3.80    5.60
  -4   1   7    8.20    5.20
   3  -1  -7  146.89   26.00
   3  -1  -7  158.28   25.90
   3  -1  -7  131.19   26.10
   3  -1  -7  158.68   26.30
  -3   1   7  152.88   26.40
  -3   1   7  145.49   25.70
  -3   1   7  155.38   26.40
  -3   1   7  146.59   26.30
  -3   1   7  153.58   26.20
  -3   1   7  180.98   26.20
  -3   1   7  150.88   25.70
   2  -1  -7   73.99   14.80
   2  -1  -7   89.09   14.90
  -2   1   7   81.99   14.90
  -2   1   7   82.99   15.10
  -2   1   7   98.69   15.50
  -2   1   7   92.79   14.70
  -2   1   7  102.59   15.10
  -2   1   7   73.19   14.80
   1  -1  -7  198.78   35.00
   1  -1  -7  220.98   35.10
   1  -1  -7  202.38   35.10
  -1   1   7  222.18   35.00
  -1   1   7  202.38   35.00
  -1   1   7  186.28   35.10
  -1   1   7  228.28   35.10
  -1   1   7  195.38   35.10
  -1   1   7  204.38   35.10
   0  -1  -7  763.32  128.49
   0  -1  -7  774.92  128.49
   0  -1  -7  765.12  128.59
   0   1   7  778.72  128.39
   0   1   7  765.12  128.49
   0   1   7  723.43  128.49
   0   1   7  726.33  128.49
   0   1   7  796.22  128.59
   0   1   7  781.52  128.59
  -1  -1  -7   10.10    4.20
  -1  -1  -7   10.30    4.30
  -1  -1  -7    4.60    4.30
   1   1   7   11.90    2.70
   1   1   7    7.20    4.00
   1   1   7   11.00    4.10
   1   1   7   16.60    4.20
   1   1   7   14.20    3.80
   1   1   7   12.10    3.60
  -2  -1  -7  299.07   51.69
  -2  -1  -7  291.97   52.09
  -2  -1  -7  317.77   51.69
  -2  -1  -7  291.57   52.19
  -2  -1  -7  302.37   52.09
   2   1   7  297.37   52.09
   2   1   7  320.27   51.99
   2   1   7  304.27   51.49
   2   1   7  304.97   51.89
   2   1   7  311.17   51.99
   2   1   7  306.77   52.59
  -3  -1  -7   70.09   15.90
  -3  -1  -7  102.89   15.30
  -3  -1  -7   67.49   16.30
  -3  -1  -7   84.99   16.70
   3   1   7   83.09   16.00
   3   1   7  110.09   18.00
   3   1   7  122.29   16.70
   3   1   7   94.69   16.70
   3   1   7   80.19   16.20
   3   1   7   81.79   15.20
  -4  -1  -7   52.29   12.30
  -4  -1  -7   55.49   10.60
  -4  -1  -7   53.29   11.50
  -4  -1  -7   55.59   13.00
   4   1   7   56.29   10.40
   4   1   7   53.79   12.00
   4   1   7   64.29   12.40
   4   1   7   67.19   11.80
   4   1   7   46.20   13.60
  -5  -1  -7   29.30   11.40
  -5  -1  -7   19.00    6.90
  -5  -1  -7   12.60   11.00
  -5  -1  -7   26.20    8.90
   5   1   7   15.90    8.80
   5   1   7   13.80    9.10
   5   1   7   18.30    9.80
  -6  -1  -7    3.30   13.20
  -6  -1  -7    0.60    9.30
  -6  -1  -7    3.80   10.30
   6   1   7   -0.70   11.40
   6   1   7    2.90   11.90
   6   1   7   -6.20   11.30
   8  -2  -7   -0.20   10.70
   8  -2  -7   -3.30   11.20
   8  -2  -7    1.80    6.30
  -8   2   7   15.90   16.70
  -8   2   7    7.00    8.60
  -8   2   7   -9.90   11.20
   7  -2  -7   23.30    9.90
   7  -2  -7   14.50    5.70
   7  -2  -7   18.10    9.20
  -7   2   7   21.70    6.40
  -7   2   7   28.50    9.80
  -7   2   7   23.30   12.70
  -7   2   7   21.40   12.40
   6  -2  -7   39.60   10.10
   6  -2  -7   27.70   22.00
   6  -2  -7   35.20    9.80
  -6   2   7   45.40    8.00
  -6   2   7   37.40   10.40
  -6   2   7   44.00   11.10
  -6   2   7   46.70   11.60
   5  -2  -7   62.79    8.70
   5  -2  -7   49.20   10.60
   5  -2  -7   20.40   10.10
   5  -2  -7   24.80    8.40
  -5   2   7   28.50    9.40
  -5   2   7   39.20    8.80
  -5   2   7   24.90    9.60
  -5   2   7   45.50    9.20
  -5   2   7   38.40   10.00
   4  -2  -7    7.20    5.70
   4  -2  -7    5.40    4.00
   4  -2  -7    3.20    4.00
   4  -2  -7   -4.30    5.40
  -4   2   7    6.00    5.40
  -4   2   7    4.50    5.20
  -4   2   7   -4.20    4.00
  -4   2   7   -0.60    5.60
  -4   2   7    0.80    4.70
   3  -2  -7  480.45   81.99
   3  -2  -7  489.65   81.79
   3  -2  -7  478.95   81.89
   3  -2  -7  492.25   81.79
  -3   2   7  445.36   81.89
  -3   2   7  497.85   81.99
  -3   2   7  504.85   81.89
  -3   2   7  483.45   81.99
  -3   2   7  487.75   81.99
   2  -2  -7    4.90    2.90
   2  -2  -7    4.40    2.20
   2  -2  -7    2.70    3.40
   2  -2  -7    3.60    2.30
  -2   2   7    2.60    3.20
  -2   2   7   -0.80    2.70
  -2   2   7    2.40    3.20
  -2   2   7    1.90    1.70
  -2   2   7    3.60    3.30
  -2   2   7    5.10    3.40
   1  -2  -7 1192.58  199.98
   1  -2  -7 1228.58  200.08
   1  -2  -7 1175.58  200.08
  -1   2   7 1182.58  199.98
  -1   2   7 1181.78  200.08
  -1   2   7 1183.68  199.98
  -1   2   7 1157.48  200.08
  -1   2   7 1190.58  200.08
  -1   2   7 1210.08  200.08
   0  -2  -7   34.60    6.70
   0  -2  -7   30.70    5.80
   0  -2  -7   38.10    6.50
   0  -2  -7   32.40    6.70
   0  -2  -7   36.90    5.90
   0   2   7   24.20    5.80
   0   2   7   25.40    6.50
   0   2   7   32.70    6.60
   0   2   7   40.20    6.90
   0   2   7   26.10    6.30
   0   2   7   31.30    5.70
   0   2   7   40.50    6.70
  -1  -2  -7    6.30    3.00
  -1  -2  -7    2.60    4.40
  -1  -2  -7   -1.00    4.20
  -1  -2  -7    3.50    4.40
  -1  -2  -7    3.30    2.80
   1   2   7    1.70    3.50
   1   2   7    6.60    3.70
   1   2   7    5.50    4.70
   1   2   7    8.50    4.40
   1   2   7    5.50    3.50
  -2  -2  -7   54.69    9.60
  -2  -2  -7   44.30    9.20
  -2  -2  -7   41.80    8.10
  -2  -2  -7   24.30    8.70
   2   2   7   42.40    9.30
   2   2   7   42.80    8.70
   2   2   7   32.10    8.40
   2   2   7   45.20    8.40
  -3  -2  -7   12.90    8.20
  -3  -2  -7   25.10    7.50
  -3  -2  -7   19.90    6.40
   3   2   7   21.30    7.00
   3   2   7   16.80    7.00
   3   2   7   18.30    8.80
   3   2   7   14.90   11.40
   3   2   7   29.40    6.70
  -4  -2  -7  140.39   21.90
  -4  -2  -7  124.89   20.60
  -4  -2  -7  133.59   22.50
   4   2   7   96.99   22.10
   4   2   7  109.09   22.20
   4   2   7   91.49   21.60
   4   2   7  136.69   23.50
  -5  -2  -7    5.70    5.00
  -5  -2  -7   -1.70    8.50
  -5  -2  -7   19.60   11.90
   5   2   7   10.50   15.60
   5   2   7    2.70    9.50
   5   2   7   -5.10    7.90
   5   2   7    5.90    9.30
  -6  -2  -7   20.50   12.10
   6   2   7   10.00   11.10
   6   2   7   13.70   12.70
   8  -3  -7   17.20   11.80
   8  -3  -7   20.10   11.70
  -8   3   7   12.00    7.60
  -8   3   7   -9.50   20.20
  -8   3   7   23.20   17.30
   7  -3  -7   32.30   12.40
   7  -3  -7   49.80   11.70
  -7   3   7   41.80    8.10
  -7   3   7   49.30   12.30
  -7   3   7   42.70   14.50
  -7   3   7   14.10   14.70
   6  -3  -7   94.39   18.90
   6  -3  -7  103.69   19.20
   6  -3  -7  123.29   21.60
  -6   3   7  106.99   19.00
  -6   3   7   87.19   19.70
   5  -3  -7    8.10    6.30
   5  -3  -7   17.50    6.30
   5  -3  -7   15.40    9.00
  -5   3   7   23.10    8.00
  -5   3   7   29.80    8.00
  -5   3   7   23.90    8.10
  -5   3   7   16.10    8.50
  -5   3   7   19.40    6.40
   4  -3  -7    4.30    6.10
   4  -3  -7    5.10    4.50
   4  -3  -7    2.10    4.30
   4  -3  -7   -5.50    6.10
  -4   3   7   -1.40    5.30
  -4   3   7    8.10    5.80
  -4   3   7    0.20    4.50
  -4   3   7   -0.40    5.70
  -4   3   7   11.10    5.80
   3  -3  -7    3.10    3.70
   3  -3  -7    3.70    4.90
   3  -3  -7   -0.60    4.50
   3  -3  -7    0.50    3.60
  -3   3   7    5.80    4.70
  -3   3   7    9.90    4.70
  -3   3   7    1.50    3.70
  -3   3   7    1.00    4.40
  -3   3   7    4.90    4.30
   2  -3  -7   25.90    5.70
   2  -3  -7   28.50    6.30
   2  -3  -7   22.60    5.30
  -2   3   7   31.80    4.70
  -2   3   7   18.40    5.70
  -2   3   7   33.60    6.20
  -2   3   7   18.60    5.50
  -2   3   7   11.90    6.30
  -2   3   7   22.30    5.90
   1  -3  -7  344.97   56.59
   1  -3  -7  344.77   56.29
   1  -3  -7  329.27   56.49
   1  -3  -7  320.27   56.39
   1  -3  -7  332.47   56.29
  -1   3   7  363.06   56.49
  -1   3   7  349.47   56.59
  -1   3   7  350.76   56.29
  -1   3   7  324.37   56.19
  -1   3   7  300.17   56.59
  -1   3   7  297.27   56.59
   0  -3  -7   27.60    6.40
   0  -3  -7   34.80    6.10
   0  -3  -7   32.30    6.60
   0  -3  -7   24.80    6.10
   0  -3  -7   22.50    5.60
   0   3   7   25.20    6.10
   0   3   7   28.20    6.70
   0   3   7   31.70    6.90
   0   3   7   27.60    6.40
   0   3   7   23.40    6.00
  -1  -3  -7  111.99   17.50
  -1  -3  -7   85.49   17.70
  -1  -3  -7  103.19   17.90
  -1  -3  -7   96.79   18.70
   1   3   7   91.59   17.60
   1   3   7  111.89   18.10
   1   3   7   92.99   18.00
   1   3   7   97.89   17.60
   1   3   7   95.59   17.90
  -2  -3  -7  222.58   37.10
  -2  -3  -7  188.78   36.90
  -2  -3  -7  212.38   36.90
  -2  -3  -7  263.57   37.80
  -2  -3  -7  194.78   36.80
   2   3   7  221.38   37.30
   2   3   7  214.68   37.10
   2   3   7  216.48   37.10
   2   3   7  212.78   36.90
  -3  -3  -7  759.62  127.49
  -3  -3  -7  738.83  127.79
   3   3   7  728.13  128.09
   3   3   7  721.93  127.69
   3   3   7  786.82  127.69
   3   3   7  782.02  127.89
  -4  -3  -7    8.50    7.70
  -4  -3  -7   25.00   11.10
  -4  -3  -7    3.60   10.50
   4   3   7   20.00    9.40
   4   3   7   12.90    8.30
   4   3   7  -13.90   13.10
   4   3   7   10.00    7.50
  -5  -3  -7   13.60   10.00
  -5  -3  -7    5.90   13.30
   5   3   7   13.40    9.50
   5   3   7   17.00   10.80
   5   3   7    2.00   10.00
   8  -4  -7   84.19   13.10
   8  -4  -7    6.90   12.10
  -8   4   7    3.70   11.90
  -8   4   7  -17.40   23.50
   7  -4  -7   69.39   14.50
   7  -4  -7   85.79   15.10
  -7   4   7   44.50   15.20
  -7   4   7   51.69   13.80
   6  -4  -7   49.99   15.80
   6  -4  -7   62.09   11.90
   6  -4  -7   53.29   11.60
  -6   4   7   52.19   14.00
  -6   4   7   37.50   12.20
  -6   4   7   43.90   11.50
   5  -4  -7    5.60    5.70
   5  -4  -7   -4.50    5.80
   5  -4  -7   -2.30    9.70
   5  -4  -7   19.10    6.70
  -5   4   7    7.60    7.90
  -5   4   7    0.00    7.10
   4  -4  -7  754.82  128.59
   4  -4  -7  822.82  128.39
   4  -4  -7  785.92  128.59
   4  -4  -7  768.02  128.39
  -4   4   7  742.23  128.69
  -4   4   7  694.53  128.39
  -4   4   7  776.22  128.39
  -4   4   7  759.02  128.59
  -4   4   7  730.63  128.49
   3  -4  -7  120.29   18.60
   3  -4  -7  104.49   18.50
   3  -4  -7  120.19   18.00
   3  -4  -7   77.89   17.80
  -3   4   7   95.69   18.30
  -3   4   7   91.79   18.50
  -3   4   7   98.39   18.00
  -3   4   7   81.99   17.90
  -3   4   7  125.09   18.60
   2  -4  -7  112.49   20.70
   2  -4  -7  141.29   21.60
   2  -4  -7   80.69   21.00
   2  -4  -7  121.29   21.10
   2  -4  -7  149.39   21.50
  -2   4   7  139.09   21.60
  -2   4   7  127.39   21.80
  -2   4   7  121.69   20.70
  -2   4   7  125.09   21.60
  -2   4   7  134.59   21.30
  -2   4   7  115.89   21.00
   1  -4  -7   67.39   16.70
   1  -4  -7   85.59   16.10
   1  -4  -7  109.59   16.80
   1  -4  -7   89.79   16.50
   1  -4  -7   99.29   16.40
  -1   4   7   96.99   17.00
  -1   4   7   88.49   16.10
  -1   4   7  130.09   17.40
  -1   4   7  102.59   16.60
  -1   4   7   88.29   15.90
  -1   4   7   79.69   16.70
   0  -4  -7 1044.40  162.58
   0  -4  -7  973.10  162.78
   0  -4  -7  891.31  162.68
   0  -4  -7  953.30  162.68
   0  -4  -7  947.21  162.58
   0   4   7  932.11  162.78
   0   4   7  968.80  162.58
   0   4   7 1002.00  162.88
   0   4   7  937.71  162.78
   0   4   7  989.10  162.68
  -1  -4  -7  255.67   33.00
  -1  -4  -7  178.48   32.20
  -1  -4  -7  171.98   32.30
  -1  -4  -7  158.58   32.40
  -1  -4  -7  203.08   32.40
   1   4   7  178.38   32.20
   1   4   7  174.38   32.30
   1   4   7  209.68   32.60
   1   4   7  169.88   32.60
  -2  -4  -7  199.28   33.50
  -2  -4  -7  176.98   33.70
  -2  -4  -7  146.39   33.60
  -2  -4  -7  234.28   35.80
   2   4   7  272.87   34.60
   2   4   7  177.48   33.80
   2   4   7  200.78   33.60
  -3  -4  -7   -1.00    9.50
  -3  -4  -7   -3.70    8.50
  -3  -4  -7   11.90    7.00
   3   4   7    9.70   11.20
   3   4   7    7.30    7.10
   3   4   7    4.90    7.30
   3   4   7   -4.60    7.50
  -4  -4  -7   10.50    9.00
  -4  -4  -7    0.40   11.20
   4   4   7   12.40   15.20
   4   4   7   11.70    9.70
   4   4   7   18.80    9.00
   4   4   7   29.70   10.00
  -5  -4  -7  -24.40   14.20
  -5  -4  -7  -10.40   11.10
   5   4   7   -7.80   11.10
   5   4   7   -4.20   10.70
   5   4   7    4.00   14.20
   8  -5  -7   34.10   13.30
   8  -5  -7   10.30   12.80
  -8   5   7   -3.00   11.90
  -8   5   7    6.60   18.00
   7  -5  -7   19.00   10.80
   7  -5  -7   15.40   11.40
   7  -5  -7   -7.90    9.40
  -7   5   7   -4.30   10.70
  -7   5   7    9.70    8.90
   6  -5  -7   13.00    8.10
   6  -5  -7    1.30    8.30
   6  -5  -7   15.40    7.60
  -6   5   7    0.40    7.90
  -6   5   7    4.60   11.70
  -6   5   7   -1.60    8.30
   5  -5  -7   35.50    8.70
   5  -5  -7   30.60    8.90
   5  -5  -7   25.90   12.10
   5  -5  -7   38.30    8.60
  -5   5   7   29.40    8.60
  -5   5   7    5.90   11.20
  -5   5   7   36.00   10.90
   4  -5  -7   27.90    7.50
   4  -5  -7   24.80    7.60
   4  -5  -7   35.00   10.30
   4  -5  -7   31.40    7.60
  -4   5   7   11.40    8.10
  -4   5   7   36.30    9.30
  -4   5   7   33.70    9.90
  -4   5   7   27.50    8.00
  -4   5   7   29.30    9.00
   3  -5  -7  227.68   39.20
   3  -5  -7  302.27   40.00
   3  -5  -7  283.77   40.10
   3  -5  -7  235.68   39.50
   3  -5  -7  215.18   39.30
  -3   5   7  207.58   39.70
  -3   5   7  208.38   39.10
  -3   5   7  217.28   39.70
  -3   5   7  240.28   39.50
  -3   5   7  181.28   39.40
   2  -5  -7  149.09   29.60
   2  -5  -7  165.88   30.30
   2  -5  -7  194.88   30.30
   2  -5  -7  195.78   30.60
   2  -5  -7  167.88   30.60
  -2   5   7  203.78   30.90
  -2   5   7  200.58   30.70
  -2   5   7  177.38   30.30
  -2   5   7  178.68   30.00
  -2   5   7  164.88   29.60
  -2   5   7  166.88   30.90
   1  -5  -7   33.00    7.30
   1  -5  -7   32.60    8.90
   1  -5  -7   37.30    7.60
   1  -5  -7   19.60    6.50
   1  -5  -7   44.40    8.60
  -1   5   7   32.30    9.50
  -1   5   7   44.80    7.70
  -1   5   7   24.10    7.90
  -1   5   7   36.60    6.60
  -1   5   7   34.10    9.70
  -1   5   7   25.10    6.00
   0  -5  -7   10.30    6.20
   0  -5  -7   13.20    5.20
   0  -5  -7    6.60    5.20
   0  -5  -7    2.70    6.70
   0   5   7   21.10    8.00
   0   5   7    9.70    5.30
   0   5   7   10.10    5.80
   0   5   7    3.20    4.60
   0   5   7    7.70    7.10
  -1  -5  -7   81.49   19.40
  -1  -5  -7  105.89   19.50
  -1  -5  -7  115.89   19.00
  -1  -5  -7  121.79   19.30
   1   5   7  103.79   19.40
   1   5   7   98.79   20.20
   1   5   7  117.89   19.00
   1   5   7   84.09   19.10
   1   5   7  113.79   22.00
  -2  -5  -7    3.50    6.30
  -2  -5  -7    6.90    7.20
   2   5   7   -0.80    7.00
   2   5   7    5.40    7.50
   2   5   7    3.00   10.90
   2   5   7   -2.10    6.30
  -3  -5  -7   -8.30   15.70
  -3  -5  -7   10.50   10.30
  -3  -5  -7    9.40    7.80
   3   5   7   -0.40    8.60
   3   5   7   -0.40   17.00
   3   5   7   -1.60    7.90
   3   5   7   -0.20    8.70
  -4  -5  -7    7.90    9.80
  -4  -5  -7  -15.70   21.20
   4   5   7   17.60   10.60
   4   5   7    7.60   11.00
   4   5   7    7.70    9.70
   7  -6  -7    8.20   10.50
   7  -6  -7   -0.50   10.00
   7  -6  -7   -2.80   10.80
  -7   6   7    6.00    9.60
  -7   6   7    3.60   12.10
   6  -6  -7   15.70    9.60
   6  -6  -7    2.80    8.40
   6  -6  -7    0.90    8.80
  -6   6   7    6.30   10.50
  -6   6   7   12.40    9.10
  -6   6   7   -3.80   14.70
   5  -6  -7  209.58   28.80
   5  -6  -7  161.08   26.40
   5  -6  -7  150.08   28.20
   5  -6  -7  127.49   26.20
  -5   6   7   87.69   30.10
  -5   6   7  137.59   26.10
  -5   6   7  140.19   26.70
   4  -6  -7    5.70   10.20
   4  -6  -7   -2.80    6.80
   4  -6  -7   -3.10    5.80
   4  -6  -7    2.70    5.80
  -4   6   7   -1.80    7.00
  -4   6   7   -1.30   12.50
  -4   6   7   -9.40    9.20
  -4   6   7    1.30    6.20
   3  -6  -7    9.60    6.10
   3  -6  -7    5.30    5.70
   3  -6  -7    5.70    8.80
   3  -6  -7    9.70    5.10
  -3   6   7   10.30    9.50
  -3   6   7    5.10    5.60
  -3   6   7    5.00    7.30
   2  -6  -7  757.42  131.89
   2  -6  -7  743.43  132.59
   2  -6  -7  776.02  132.39
   2  -6  -7  825.52  132.39
  -2   6   7  763.52  132.69
  -2   6   7  749.62  131.99
  -2   6   7  795.32  132.79
  -2   6   7  815.92  132.59
  -2   6   7  840.92  132.39
   1  -6  -7   44.80    9.30
   1  -6  -7   52.09   10.50
   1  -6  -7   39.00   11.50
   1  -6  -7   43.80    9.90
  -1   6   7   50.49   12.50
  -1   6   7   36.00   10.20
  -1   6   7   52.99   10.90
  -1   6   7   44.80    9.20
  -1   6   7   45.90    8.40
  -1   6   7   61.69   12.20
   0  -6  -7   70.69   14.20
   0  -6  -7   63.79   13.60
   0  -6  -7   57.19   13.60
   0  -6  -7   66.79   15.10
   0   6   7   78.69   13.30
   0   6   7   64.69   15.50
   0   6   7   76.29   13.80
   0   6   7   77.39   14.40
  -1  -6  -7  102.09   16.80
  -1  -6  -7   84.19   17.20
  -1  -6  -7   89.49   18.10
  -1  -6  -7   92.09   17.40
   1   6   7   80.09   16.50
   1   6   7   86.89   17.00
   1   6   7   73.19   16.40
   1   6   7   86.29   19.20
  -2  -6  -7    5.20    9.50
  -2  -6  -7    8.60    7.90
  -2  -6  -7    8.20   12.20
   2   6   7    8.20   16.60
   2   6   7   21.00    9.20
   2   6   7   14.20    7.90
   2   6   7   12.90    8.30
  -3  -6  -7   13.80    9.90
  -3  -6  -7   12.10   12.00
   3   6   7   20.60   10.60
   3   6   7    9.60    9.70
   3   6   7   27.20    9.90
  -4  -6  -7   76.39   20.90
   4   6   7  104.59   22.60
   4   6   7  108.79   21.50
   4   6   7  123.29   21.80
   7  -7  -7  -10.70   10.90
   7  -7  -7    3.30   11.30
   7  -7  -7    3.10   12.90
  -7   7   7  -14.80   11.20
  -7   7   7    2.30   18.30
   6  -7  -7   -4.40    9.30
   6  -7  -7    2.60    9.50
   6  -7  -7    0.60    9.70
  -6   7   7    8.80    9.10
  -6   7   7    3.00   15.50
   5  -7  -7   30.10   10.40
   5  -7  -7   19.60    9.10
   5  -7  -7   21.30    9.00
  -5   7   7   14.80    9.80
  -5   7   7   32.30   10.10
  -5   7   7   15.20   14.10
   4  -7  -7   26.60    8.40
   4  -7  -7   32.30    9.70
   4  -7  -7   15.20   20.00
   4  -7  -7   33.00    8.10
  -4   7   7   27.10    9.00
  -4   7   7    8.10    9.90
  -4   7   7   20.10    9.40
   3  -7  -7  -10.80    5.00
   3  -7  -7    1.70   11.30
   3  -7  -7    7.10    6.80
  -3   7   7   -4.40   11.30
  -3   7   7    1.00    7.80
  -3   7   7   -6.50    6.30
  -3   7   7    9.60    6.90
   2  -7  -7  492.35   84.79
   2  -7  -7  510.75   84.99
   2  -7  -7  518.35   84.19
   2  -7  -7  510.95   85.69
   2  -7  -7  510.45   84.89
  -2   7   7  466.05   84.79
  -2   7   7  476.75   85.09
  -2   7   7  470.55   85.69
  -2   7   7  502.15   84.29
   1  -7  -7   32.50   11.40
   1  -7  -7   24.30    8.50
   1  -7  -7   20.50    7.20
   1  -7  -7   16.50    7.90
  -1   7   7    9.80   11.70
  -1   7   7   29.50    6.70
  -1   7   7   17.80    8.10
  -1   7   7   25.00    5.20
  -1   7   7   17.70    8.90
   0  -7  -7    9.70   11.30
   0  -7  -7   25.50    8.00
   0  -7  -7    6.20    8.60
   0  -7  -7   18.10    7.80
   0   7   7   12.00    6.90
   0   7   7   21.90   11.10
   0   7   7    8.10    8.80
   0   7   7   13.60    7.70
  -1  -7  -7    6.40    7.60
  -1  -7  -7    4.80   10.20
   1   7   7    9.50    8.10
   1   7   7   -3.10    9.20
   1   7   7    3.90    8.50
   1   7   7   15.90   14.00
  -2  -7  -7    3.10    9.00
  -2  -7  -7    2.70   11.10
   2   7   7   -2.70    8.80
   2   7   7    4.60   10.30
   2   7   7   -2.60    9.00
  -3  -7  -7   22.50   11.60
  -3  -7  -7   15.20   14.20
   3   7   7    2.20   10.90
   3   7   7    2.30   10.90
   7  -8  -7   -0.90   12.90
   7  -8  -7   10.80   13.30
   6  -8  -7   90.69   16.60
   6  -8  -7   60.99   17.10
   6  -8  -7   61.39   16.50
  -6   8   7   25.90   25.70
  -6   8   7   98.19   21.40
   5  -8  -7  130.49   25.80
   5  -8  -7  163.48   25.80
   5  -8  -7  115.29   26.50
  -5   8   7  174.18   26.80
  -5   8   7  101.59   28.60
   4  -8  -7   -2.30    7.10
   4  -8  -7   -2.10    8.30
   4  -8  -7   26.40    9.60
  -4   8   7   12.20    9.10
  -4   8   7    5.40   17.00
  -4   8   7    6.00   10.60
   3  -8  -7    8.30    6.30
   3  -8  -7   10.80    8.00
   3  -8  -7    5.50    3.60
  -3   8   7   -0.80    9.70
  -3   8   7   13.10   14.60
  -3   8   7   -6.70    7.60
  -3   8   7    6.80    7.70
   2  -8  -7    2.20    5.00
   2  -8  -7   -2.20    7.40
   2  -8  -7   -0.20    5.60
   2  -8  -7   -0.30    8.60
  -2   8   7    7.50   14.00
  -2   8   7   -3.50    9.00
  -2   8   7   -2.00    7.60
  -2   8   7    2.50    5.60
   1  -8  -7   12.90    9.10
   1  -8  -7   27.30    8.30
   1  -8  -7   13.00   10.20
  -1   8   7   39.40   14.80
  -1   8   7   28.00   10.20
  -1   8   7   21.10    9.00
  -1   8   7   14.60    7.30
  -1   8   7   22.50    5.20
   0  -8  -7   -1.20    8.60
   0  -8  -7   -5.10   13.90
   0  -8  -7   19.10    9.90
   0   8   7    5.80   10.30
   0   8   7    4.00    7.30
   0   8   7   12.70    8.70
   0   8   7   -6.40   15.20
  -1  -8  -7   78.89   15.80
   1   8   7   54.29   16.50
   1   8   7   65.89   16.00
   1   8   7   81.69   15.70
  -2  -8  -7   26.10   16.20
  -2  -8  -7   45.20   14.10
   2   8   7   27.90   21.50
   2   8   7   63.79   13.80
   2   8   7   51.69   14.00
   6  -9  -7   21.10   14.30
   6  -9  -7   28.50   12.70
   6  -9  -7    1.30   12.80
  -6   9   7   49.40   14.20
   5  -9  -7   76.79   17.60
   5  -9  -7   77.59   16.40
   5  -9  -7   74.29   17.10
  -5   9   7   28.90   28.40
   4  -9  -7   -2.20    9.80
   4  -9  -7   -6.20   11.00
   4  -9  -7   -3.00    9.60
  -4   9   7   -1.20   11.80
  -4   9   7    2.50    9.70
   3  -9  -7    1.60    9.30
   3  -9  -7    0.50    4.90
   3  -9  -7   12.10    7.20
  -3   9   7    6.70   10.60
  -3   9   7    6.90    9.10
  -3   9   7   -2.10    9.60
   2  -9  -7    6.40    9.30
   2  -9  -7   11.60    6.10
   2  -9  -7   13.90    7.60
  -2   9   7    1.30   10.00
  -2   9   7    6.90    7.20
  -2   9   7   14.80   11.90
   1  -9  -7   35.50   13.40
   1  -9  -7   67.29   12.80
   1  -9  -7   26.60   11.80
  -1   9   7   17.40   13.10
  -1   9   7   55.59   12.60
   0  -9  -7   14.00   11.00
   0  -9  -7   26.50   12.40
   0   9   7   10.70   10.50
   0   9   7   23.60    9.80
   0   9   7   16.80   12.70
  -1  -9  -7    0.40   13.80
  -1  -9  -7   10.00   12.00
   1   9   7   16.10   13.10
   1   9   7    7.30   10.70
   1   9   7  -11.30   11.40
   4 -10  -7   26.80   10.70
   4 -10  -7    7.40   14.40
   4 -10  -7   25.70   13.20
  -4  10   7   16.90   19.40
  -4  10   7   43.30   13.80
   3 -10  -7   -5.80   11.00
   3 -10  -7   -0.90    9.60
   3 -10  -7   -3.90    8.30
  -3  10   7    1.60   11.60
  -3  10   7    2.60   17.30
  -3  10   7   -7.10   13.90
   2 -10  -7    1.80    6.80
   2 -10  -7    5.80   11.10
   2 -10  -7   -6.10   12.20
   2 -10  -7   -0.70   10.20
  -2  10   7   -8.10   11.70
  -2  10   7    7.80   13.80
   1 -10  -7   14.20   12.50
   1 -10  -7    1.60   13.50
  -1  10   7   25.20   12.00
  -1  10   7   14.00   14.00
   2  12  -8   16.90   13.10
   2  12  -8  -12.50   16.20
  -2 -12   8    6.70   11.20
  -2 -12   8   15.90   17.70
   1  12  -8   13.70   20.90
   1  12  -8  108.69   19.60
   1  12  -8   82.19   23.00
  -1 -12   8   85.69   18.80
  -1 -12   8  116.79   20.20
  -1 -12   8   94.89   19.10
   0  12  -8    2.00   11.20
   0  12  -8    7.60   14.10
   0  12  -8   21.00   16.10
   0 -12   8    0.60   14.60
   0 -12   8   10.50   10.40
   0 -12   8   10.90   10.60
   0 -12   8   -1.60    9.20
  -1  12  -8    3.40   13.20
  -1  12  -8   18.70   11.40
  -1  12  -8   -4.60   17.50
   1 -12   8  -15.30   10.90
   1 -12   8   -0.10    9.50
   1 -12   8   11.10   14.50
   1 -12   8    3.70   10.90
  -2  12  -8   57.69   17.30
  -2  12  -8   43.30   17.90
   2 -12   8   51.79   18.20
   2 -12   8   84.69   25.20
   2 -12   8   90.89   16.20
   2 -12   8   70.09   17.10
   2 -12   8   79.69   17.30
  -3  12  -8    7.50   12.70
  -3  12  -8   -0.40   15.20
   3 -12   8    9.10   11.50
   3 -12   8    0.10   11.60
   3 -12   8   12.70   12.30
   3 -12   8    0.00   12.40
   3  11  -8   -1.40   11.10
   3  11  -8    3.50   14.70
   3  11  -8   54.69   29.10
  -3 -11   8    8.20   11.10
  -3 -11   8  -13.00   10.90
  -3 -11   8   22.70   11.40
   2  11  -8    6.60   10.60
   2  11  -8   -2.30   13.10
  -2 -11   8   -1.70    9.50
  -2 -11   8   11.90    8.70
  -2 -11   8    7.00   13.40
  -2 -11   8    5.00    9.80
   1  11  -8  180.48   31.30
   1  11  -8  174.98   32.10
  -1 -11   8  163.78   31.70
  -1 -11   8  173.48   31.00
  -1 -11   8  210.48   31.50
  -1 -11   8  140.79   30.60
   0  11  -8   55.59   11.90
   0  11  -8   51.49   14.20
   0  11  -8    1.30   13.40
   0 -11   8   44.00   10.60
   0 -11   8   42.70   11.40
   0 -11   8   43.00   13.30
   0 -11   8   42.60   11.20
  -1  11  -8    2.00   13.20
  -1  11  -8   74.39   15.40
  -1  11  -8   44.50   12.60
   1 -11   8   38.20   13.70
   1 -11   8   65.09   13.00
   1 -11   8   49.70   11.60
   1 -11   8   52.49   12.10
  -2  11  -8   64.69   14.30
  -2  11  -8   16.00   14.70
   2 -11   8   62.49   13.40
   2 -11   8   58.19   14.50
   2 -11   8   62.79   14.00
   2 -11   8   67.49   15.80
   2 -11   8   71.69   14.70
  -3  11  -8   31.90   15.00
  -3  11  -8   91.49   14.70
  -3  11  -8   57.09   12.50
   3 -11   8   31.00   14.10
   3 -11   8   44.60   14.00
   3 -11   8   39.90   14.10
   3 -11   8   44.20   12.80
   3 -11   8   65.89   16.70
  -4  11  -8    7.30   12.70
  -4  11  -8   10.00   12.70
   4 -11   8   -2.40   11.90
   4 -11   8   13.40   18.40
   4 -11   8   11.70   11.60
   4 -11   8    4.50   12.40
   4  10  -8   10.70   11.70
   4  10  -8   38.00   12.90
  -4 -10   8   18.70   11.90
  -4 -10   8    4.20   18.00
  -4 -10   8   -2.70   14.60
  -4 -10   8   41.10   12.10
   3  10  -8   -1.00    9.60
   3  10  -8   34.90   10.60
  -3 -10   8    0.30    9.60
  -3 -10   8   19.70   13.30
  -3 -10   8   10.90    9.70
  -3 -10   8   16.70   10.40
   2  10  -8   23.50   12.50
   2  10  -8    5.50   10.70
   2  10  -8   21.80    9.40
  -2 -10   8    8.40    8.00
  -2 -10   8   14.50   10.60
  -2 -10   8   14.50    8.70
  -2 -10   8    9.90    8.50
   1  10  -8   20.80   10.80
   1  10  -8    3.30    9.70
   1  10  -8   23.90    8.40
  -1 -10   8   17.70    9.30
  -1 -10   8   29.70    7.90
  -1 -10   8   16.50    9.40
  -1 -10   8   18.40    8.00
   0  10  -8  281.97   45.50
   0  10  -8  293.57   45.70
   0 -10   8  229.88   45.20
   0 -10   8  244.78   45.60
   0 -10   8  268.67   45.70
  -1  10  -8   -0.20    9.10
  -1  10  -8    9.20   10.50
  -1  10  -8   12.40    7.40
   1 -10   8    7.80    6.80
   1 -10   8   -2.10    7.30
   1 -10   8   10.40    8.60
  -2  10  -8  -10.70   11.80
  -2  10  -8   12.70    8.80
   2 -10   8   30.30    9.30
   2 -10   8   13.60    8.70
   2 -10   8   28.60    8.10
   2 -10   8   16.70    9.00
   2 -10   8    7.10    9.90
  -3  10  -8  146.49   21.80
  -3  10  -8   40.50   21.00
  -3  10  -8  123.09   20.30
   3 -10   8  114.69   20.90
   3 -10   8  147.29   22.00
   3 -10   8  119.29   22.30
   3 -10   8   81.49   21.20
   3 -10   8  158.28   22.10
  -4  10  -8   -6.00    9.80
  -4  10  -8   -2.50    8.70
  -4  10  -8  -10.40   10.80
   4 -10   8   -2.80   14.00
   4 -10   8  -10.30   10.40
   4 -10   8    5.70    8.70
   4 -10   8   -2.50    9.80
   4 -10   8    3.00   10.00
  -5  10  -8   48.20   14.00
  -5  10  -8   44.50   14.80
   5 -10   8   38.80   14.50
   5 -10   8   20.90   13.40
   5 -10   8   30.20   14.00
   5 -10   8   19.80   11.90
   5   9  -8   -5.40   11.90
  -5  -9   8   -3.00   11.90
  -5  -9   8   10.70   11.10
  -5  -9   8    1.50   13.20
   4   9  -8   70.49   14.40
   4   9  -8   53.59   14.20
   4   9  -8   -2.10   19.70
  -4  -9   8   68.29   14.30
  -4  -9   8   69.99   16.60
  -4  -9   8   39.60   15.10
  -4  -9   8   74.09   15.10
   3   9  -8   -1.30    8.50
   3   9  -8    9.70   12.80
   3   9  -8    3.70    8.20
  -3  -9   8    6.70    8.30
  -3  -9   8    9.50    8.40
  -3  -9   8   17.80    9.90
  -3  -9   8    7.50    8.40
   2   9  -8   -2.50    8.20
   2   9  -8    7.10    6.80
   2   9  -8    3.90    9.70
  -2  -9   8   -0.20    7.00
  -2  -9   8   -2.20    6.80
  -2  -9   8    5.40    8.10
  -2  -9   8   10.30    6.80
   1   9  -8  104.69   24.10
   1   9  -8   76.59   23.90
   1   9  -8  159.78   24.10
  -1  -9   8  163.68   25.30
  -1  -9   8  165.68   23.90
  -1  -9   8  163.88   24.30
  -1  -9   8  150.98   24.50
  -1  -9   8  119.29   24.00
   0   9  -8   22.90    7.60
   0   9  -8    2.60    7.10
   0   9  -8   21.60    6.90
   0  -9   8   27.90    7.10
   0  -9   8   12.20    7.50
   0  -9   8   16.70    6.90
   0  -9   8   10.70    6.10
   0  -9   8    9.20    9.40
  -1   9  -8    4.10    6.00
  -1   9  -8    2.20    6.70
  -1   9  -8    0.20    6.40
   1  -9   8    3.40   10.30
   1  -9   8    8.80    6.50
   1  -9   8    5.60    6.20
   1  -9   8    3.90    5.90
   1  -9   8    5.40    6.10
  -2   9  -8   46.00    9.40
  -2   9  -8   22.50    9.00
   2  -9   8   59.79   15.20
   2  -9   8   35.70   10.10
   2  -9   8   24.80    9.50
   2  -9   8   35.40    9.90
   2  -9   8   36.10    9.00
   2  -9   8   46.50    9.80
  -3   9  -8  162.18   27.90
   3  -9   8  146.19   28.80
   3  -9   8  173.38   29.10
   3  -9   8  127.19   28.50
   3  -9   8  183.28   28.50
  -4   9  -8    6.90    7.20
  -4   9  -8   12.80    8.60
  -4   9  -8   10.90    9.40
   4  -9   8    1.40    8.50
   4  -9   8    8.50   11.70
   4  -9   8   -2.50    8.10
   4  -9   8    8.50    9.40
   4  -9   8    6.80    7.70
  -5   9  -8   33.60   11.60
  -5   9  -8   71.49   14.30
  -5   9  -8   22.10   12.90
   5  -9   8   31.50   12.30
   5  -9   8   29.70   13.00
   5  -9   8   32.10   11.40
   5  -9   8   31.50   12.80
   5  -9   8   27.30   16.40
   6   8  -8    7.10   13.20
   6   8  -8    9.50   12.20
  -6  -8   8   -3.70   12.40
  -6  -8   8   -1.20   20.20
   5   8  -8    2.40   10.10
   5   8  -8    9.00    9.80
   5   8  -8   -0.20   18.40
  -5  -8   8   -6.60   13.90
  -5  -8   8    8.50   10.50
  -5  -8   8   -0.90    9.60
  -5  -8   8   -3.10   10.70
   4   8  -8   95.19   17.10
   4   8  -8   82.39   17.00
   4   8  -8   86.69   20.20
  -4  -8   8   81.59   17.20
  -4  -8   8  105.19   17.30
  -4  -8   8   59.09   17.20
  -4  -8   8   80.39   18.20
   3   8  -8  946.21  165.58
   3   8  -8  997.60  165.48
  -3  -8   8  952.30  165.68
  -3  -8   8 1036.80  165.78
  -3  -8   8  975.50  165.68
   2   8  -8  187.38   33.40
   2   8  -8  187.98   33.20
  -2  -8   8  172.18   33.30
  -2  -8   8  204.08   34.10
  -2  -8   8  213.08   33.50
  -2  -8   8  166.08   33.50
  -2  -8   8  214.18   33.70
   1   8  -8  171.98   22.40
   1   8  -8   73.09   21.10
   1   8  -8  140.89   21.40
   1   8  -8  105.19   21.00
  -1  -8   8  134.89   21.50
  -1  -8   8  137.39   22.10
  -1  -8   8  118.09   21.30
  -1  -8   8  152.78   21.50
  -1  -8   8   86.29   23.50
   0   8  -8  107.09   15.80
   0   8  -8  104.49   16.60
   0  -8   8   96.89   16.00
   0  -8   8   80.69   15.70
   0  -8   8   98.19   16.90
   0  -8   8   65.59   15.40
   0  -8   8   56.09   16.20
  -1   8  -8    0.50    7.70
  -1   8  -8   20.90    5.90
   1  -8   8   14.80    5.50
   1  -8   8   27.30    8.20
   1  -8   8   11.30    5.80
   1  -8   8   11.00    5.80
   1  -8   8   12.00    7.40
   1  -8   8   12.60    8.50
  -2   8  -8  233.98   41.20
   2  -8   8  250.67   41.30
   2  -8   8  215.48   41.50
   2  -8   8  245.08   41.30
   2  -8   8  276.67   41.70
   2  -8   8  210.78   41.40
  -3   8  -8   44.00    8.90
  -3   8  -8   69.19   10.40
  -3   8  -8   56.79   10.80
   3  -8   8   41.80   11.30
   3  -8   8   48.80   11.50
   3  -8   8   40.20   10.90
   3  -8   8   44.10   10.10
   3  -8   8   36.60   13.90
   3  -8   8   29.20   10.80
  -4   8  -8  229.58   41.70
  -4   8  -8  175.08   42.00
  -4   8  -8  311.87   41.60
   4  -8   8  245.88   41.30
   4  -8   8  197.18   41.70
   4  -8   8  263.17   42.00
   4  -8   8  260.07   42.00
   4  -8   8  217.88   41.70
  -5   8  -8   47.10   13.20
  -5   8  -8   66.69   16.00
  -5   8  -8   58.89   14.60
   5  -8   8   71.59   17.10
   5  -8   8   66.19   15.00
   5  -8   8   55.89   14.40
   5  -8   8   60.19   13.40
  -6   8  -8   16.60   18.30
   6  -8   8   26.40   12.40
   6  -8   8   17.20   11.60
   6  -8   8   35.00   12.70
   6   7  -8  108.29   19.60
   6   7  -8   92.69   21.00
  -6  -7   8  101.49   30.90
  -6  -7   8   76.09   19.00
  -6  -7   8   76.89   19.00
   5   7  -8  177.98   25.40
   5   7  -8  184.28   25.10
  -5  -7   8  163.68   26.40
  -5  -7   8  132.19   25.20
  -5  -7   8   55.69   24.80
  -5  -7   8  113.49   24.60
   4   7  -8   65.59   13.00
   4   7  -8   67.89   13.10
   4   7  -8   65.19   15.50
  -4  -7   8   56.89   13.80
  -4  -7   8   61.99   13.20
  -4  -7   8   59.29   13.80
  -4  -7   8   50.69   13.40
   3   7  -8  132.69   19.30
   3   7  -8  106.29   19.20
  -3  -7   8  103.69   19.70
  -3  -7   8   96.99   19.50
  -3  -7   8   95.09   19.60
  -3  -7   8   91.29   19.40
  -3  -7   8  114.59   20.40
   2   7  -8   39.60   10.20
   2   7  -8   41.60    8.80
   2   7  -8   31.90    8.80
   2   7  -8   40.00    8.70
  -2  -7   8   46.20    9.70
  -2  -7   8   51.29   10.30
  -2  -7   8   43.80    9.10
  -2  -7   8   47.30    9.10
  -2  -7   8   47.70    9.20
   1   7  -8  149.88   25.30
  -1  -7   8  157.28   25.80
  -1  -7   8  148.79   25.80
  -1  -7   8  137.09   25.20
  -1  -7   8  148.39   25.40
  -1  -7   8  130.39   25.20
  -1  -7   8  165.68   26.40
   0   7  -8  103.69   21.80
   0   7  -8  135.89   21.50
   0   7  -8  123.29   21.10
   0  -7   8   99.49   21.30
   0  -7   8  122.89   21.00
   0  -7   8  121.39   21.20
   0  -7   8  129.69   21.70
  -1   7  -8  485.85   84.79
  -1   7  -8  536.75   85.09
   1  -7   8  540.45   85.19
   1  -7   8  520.35   85.19
   1  -7   8  487.45   84.69
   1  -7   8  486.45   84.69
   1  -7   8  477.15   84.89
   1  -7   8  506.05   85.09
  -2   7  -8  148.29   27.40
  -2   7  -8  154.48   27.00
   2  -7   8  139.59   27.70
   2  -7   8  163.68   27.10
   2  -7   8  163.58   27.30
   2  -7   8  166.28   27.60
   2  -7   8  155.68   27.60
   2  -7   8  151.58   27.00
  -3   7  -8    0.20    5.70
   3  -7   8   -5.90    5.70
   3  -7   8   -5.10    4.60
   3  -7   8   -2.30    6.10
   3  -7   8  -10.20    9.30
   3  -7   8   -4.60    6.20
   3  -7   8    4.00    6.20
  -4   7  -8   69.69   12.90
  -4   7  -8   82.29   14.40
  -4   7  -8   43.70   14.60
   4  -7   8   78.29   18.00
   4  -7   8   91.39   14.70
   4  -7   8   75.99   13.70
   4  -7   8   56.39   14.20
   4  -7   8   65.19   14.30
  -5   7  -8   12.20   12.20
  -5   7  -8    4.50    7.80
  -5   7  -8    1.10    9.70
   5  -7   8   10.40    9.20
   5  -7   8   14.40   11.70
   5  -7   8   -7.20    7.40
   5  -7   8    6.20    8.60
   5  -7   8    1.20    9.50
  -6   7  -8   -4.60   12.70
  -6   7  -8    5.30   15.40
  -6   7  -8   -2.00   18.30
   6  -7   8   22.00   17.50
   6  -7   8  -10.70   11.90
   6  -7   8   10.20   11.10
   6  -7   8    2.30   11.70
   7   6  -8   21.40   13.40
   7   6  -8   17.90   13.70
  -7  -6   8   16.00   12.90
   6   6  -8   -7.80   18.80
   6   6  -8   26.20   10.90
   6   6  -8   31.60   10.50
  -6  -6   8   24.30   14.40
  -6  -6   8   11.80   12.40
   5   6  -8   32.00    9.20
   5   6  -8   20.90   14.20
   5   6  -8   24.10    9.40
  -5  -6   8   22.10   10.30
  -5  -6   8   10.60    9.80
  -5  -6   8   42.60   10.10
   4   6  -8  319.57   48.80
   4   6  -8  250.57   48.30
   4   6  -8  285.57   48.40
  -4  -6   8  254.27   48.10
  -4  -6   8  292.37   48.80
  -4  -6   8  280.77   48.50
  -4  -6   8  292.37   48.50
   3   6  -8   37.30   12.80
   3   6  -8   72.09   13.70
   3   6  -8   59.99   12.50
   3   6  -8   99.89   12.50
  -3  -6   8   62.99   12.70
  -3  -6   8   68.39   13.10
  -3  -6   8   65.59   13.60
  -3  -6   8   63.09   12.80
  -3  -6   8   59.09   12.70
  -3  -6   8   66.99   13.80
   2   6  -8  568.34   96.99
   2   6  -8  585.54   97.19
  -2  -6   8  572.44   97.29
  -2  -6   8  545.35   97.39
  -2  -6   8  558.54   96.99
  -2  -6   8  625.44   97.09
  -2  -6   8  550.84   97.29
   1   6  -8  128.29   19.70
   1   6  -8  114.29   19.30
  -1  -6   8  107.49   19.70
  -1  -6   8  101.69   19.80
  -1  -6   8  126.59   19.30
  -1  -6   8   92.99   19.20
  -1  -6   8  109.19   19.40
   0   6  -8   11.00    3.70
   0   6  -8   19.00    6.20
   0   6  -8   15.50    4.90
   0  -6   8   11.70    3.60
   0  -6   8   10.40    4.00
   0  -6   8   11.80    5.10
   0  -6   8    7.00    3.60
   0  -6   8   15.70    5.00
  -1   6  -8  168.38   33.30
  -1   6  -8  195.88   33.30
  -1   6  -8  189.08   33.10
   1  -6   8  208.78   33.50
   1  -6   8  171.38   33.00
   1  -6   8  189.68   33.20
   1  -6   8  213.38   33.00
   1  -6   8  190.18   33.30
   1  -6   8  219.28   33.60
  -2   6  -8  166.88   24.50
  -2   6  -8  148.69   23.70
  -2   6  -8  109.89   23.70
   2  -6   8  155.98   24.30
   2  -6   8  146.19   24.20
   2  -6   8  122.29   23.50
   2  -6   8  131.09   23.80
   2  -6   8  130.39   23.60
   2  -6   8  145.89   24.10
  -3   6  -8    3.30    5.40
  -3   6  -8   -0.10    6.50
   3  -6   8    1.60    6.40
   3  -6   8   23.20    6.10
   3  -6   8   10.50    4.70
   3  -6   8   10.30    6.10
   3  -6   8    9.30    5.70
   3  -6   8    9.90    8.10
  -4   6  -8   26.20    5.90
  -4   6  -8   24.30    8.00
   4  -6   8   20.90    8.10
   4  -6   8   26.10    7.00
   4  -6   8   12.90   11.60
   4  -6   8   23.60    8.50
   4  -6   8   15.30    7.90
   4  -6   8   10.90    7.80
  -5   6  -8   47.60   11.20
  -5   6  -8   43.20   12.50
   5  -6   8   39.00   11.10
   5  -6   8   55.89   14.20
   5  -6   8   45.30   12.60
   5  -6   8   68.79   12.20
   5  -6   8   47.10   11.90
  -6   6  -8    3.20   12.80
  -6   6  -8   14.80   11.70
   6  -6   8    6.60   16.60
   6  -6   8    1.60   11.20
   6  -6   8    3.10   11.50
   6  -6   8   -5.20    9.20
   6  -6   8   13.80   11.40
   7   5  -8   15.20   11.90
   7   5  -8    7.30   17.00
  -7  -5   8  -19.10   16.20
  -7  -5   8    2.50   12.60
   6   5  -8   15.40   17.50
   6   5  -8   31.60   11.20
   6   5  -8   65.39   11.70
  -6  -5   8   29.90   12.30
  -6  -5   8   39.80   13.50
  -6  -5   8   19.80   13.90
   5   5  -8  132.69   20.60
   5   5  -8  114.29   20.20
   5   5  -8  113.79   22.10
  -5  -5   8   75.59   21.60
  -5  -5   8   75.19   20.40
  -5  -5   8  145.49   21.00
   4   5  -8   14.70   14.00
   4   5  -8   47.80    8.00
   4   5  -8   36.50    8.10
  -4  -5   8   20.40    9.50
  -4  -5   8   35.80    8.50
  -4  -5   8   24.10    8.80
  -4  -5   8   47.90   15.10
  -4  -5   8   24.60   10.40
   3   5  -8   48.10   10.30
   3   5  -8   76.29   11.80
  -3  -5   8   22.50   11.00
  -3  -5   8   77.19   11.50
  -3  -5   8   59.59   10.80
  -3  -5   8   56.59   10.40
  -3  -5   8   54.99   11.90
  -3  -5   8   59.89   11.10
   2   5  -8  191.88   30.40
   2   5  -8  174.88   30.10
  -2  -5   8  163.98   30.40
  -2  -5   8  174.08   30.20
  -2  -5   8  186.78   30.30
  -2  -5   8  170.78   30.40
  -2  -5   8  172.28   30.50
  -2  -5   8  169.58   30.00
   1   5  -8    7.50    3.80
  -1  -5   8    4.70    2.50
  -1  -5   8    5.30    2.90
  -1  -5   8   -3.30    3.90
  -1  -5   8    4.80    2.50
  -1  -5   8    7.00    3.50
   0   5  -8   15.30    4.70
   0  -5   8   20.90    4.80
   0  -5   8   19.10    3.80
   0  -5   8   16.80    5.40
   0  -5   8   19.10    5.30
   0  -5   8   15.50    4.10
  -1   5  -8  348.97   58.69
  -1   5  -8  346.97   59.09
   1  -5   8  333.47   58.89
   1  -5   8  352.56   58.59
   1  -5   8  377.26   59.09
   1  -5   8  332.07   58.59
   1  -5   8  345.27   58.69
   1  -5   8  351.96   58.99
  -2   5  -8   13.40    9.70
  -2   5  -8    9.80    4.50
  -2   5  -8   11.60    4.20
   2  -5   8    4.40    5.60
   2  -5   8   20.90    4.20
   2  -5   8    7.80    4.60
   2  -5   8   14.90    5.40
   2  -5   8    5.40    4.90
   2  -5   8    8.50    3.80
  -3   5  -8   -2.00    6.60
  -3   5  -8   24.40    5.30
   3  -5   8    3.40    5.70
   3  -5   8    0.60    5.70
   3  -5   8   11.90    7.60
   3  -5   8    7.60    5.30
   3  -5   8   13.70    4.50
   3  -5   8    8.50    5.40
  -4   5  -8    2.50    6.90
  -4   5  -8   12.50    4.60
  -4   5  -8   13.80    4.40
   4  -5   8   10.00    5.90
   4  -5   8   13.40    7.00
   4  -5   8   13.10    6.90
   4  -5   8   25.60    7.70
   4  -5   8    9.50    7.20
   4  -5   8   14.50   10.60
  -5   5  -8   79.19   15.60
  -5   5  -8   67.09   16.80
  -5   5  -8   85.39   15.30
   5  -5   8   89.29   17.80
   5  -5   8   86.19   16.70
   5  -5   8   86.59   15.90
   5  -5   8   69.59   16.40
   5  -5   8   77.39   16.80
  -6   5  -8   57.89   16.70
  -6   5  -8   81.39   14.50
  -6   5  -8   61.19   16.00
   6  -5   8   62.29   14.80
   6  -5   8   46.50   16.20
   6  -5   8   67.49   20.40
   6  -5   8   68.89   15.40
   6  -5   8   70.69   15.80
   7   4  -8   78.19   18.90
   7   4  -8   51.89   14.00
  -7  -4   8   22.20   14.50
  -7  -4   8   35.70   18.70
  -7  -4   8   62.99   17.50
   6   4  -8   25.90    9.20
   6   4  -8   27.40   16.60
   6   4  -8   30.40    9.40
  -6  -4   8   19.50   12.90
  -6  -4   8   12.10   10.20
  -6  -4   8   21.00   10.60
   5   4  -8   47.90   10.90
   5   4  -8   48.90   13.70
   5   4  -8   61.59   11.00
  -5  -4   8   31.30   11.90
  -5  -4   8   53.19   11.20
  -5  -4   8   45.10   11.80
  -5  -4   8   56.69   12.90
  -5  -4   8   49.60   13.00
   4   4  -8    8.70    7.30
   4   4  -8   23.60    5.20
   4   4  -8   14.40    6.80
   4   4  -8   13.70    5.30
  -4  -4   8   10.40    6.00
  -4  -4   8    8.00    5.50
  -4  -4   8   13.90    7.50
  -4  -4   8   21.50    7.30
  -4  -4   8   14.00    6.90
   3   4  -8   27.80    6.70
   3   4  -8   38.30    7.60
  -3  -4   8   30.00    7.90
  -3  -4   8   37.70    7.70
  -3  -4   8   32.20    6.70
  -3  -4   8   43.50    7.30
  -3  -4   8   23.80    7.40
   2   4  -8  867.81  140.99
  -2  -4   8  842.92  141.09
  -2  -4   8  863.21  140.99
  -2  -4   8  754.72  141.09
  -2  -4   8  831.72  141.29
  -2  -4   8  894.51  141.29
  -2  -4   8  816.72  141.09
   1   4  -8   79.19   16.10
   1   4  -8  115.09   16.40
  -1  -4   8  109.29   16.30
  -1  -4   8   99.79   16.10
  -1  -4   8   82.99   16.00
  -1  -4   8   97.19   16.80
   0   4  -8   21.60    4.20
   0   4  -8   24.70    4.60
   0  -4   8   19.90    4.70
   0  -4   8   32.50    6.00
   0  -4   8   20.80    5.60
   0  -4   8   22.80    4.40
  -1   4  -8    9.10    3.00
  -1   4  -8    7.30    2.60
  -1   4  -8    5.70    4.60
   1  -4   8    4.50    2.30
   1  -4   8   10.20    3.00
   1  -4   8   -0.20    4.50
   1  -4   8   14.40    4.00
   1  -4   8   12.20    4.20
   1  -4   8    7.40    2.60
  -2   4  -8  162.58   31.00
  -2   4  -8  176.68   30.90
   2  -4   8  183.08   30.80
   2  -4   8  189.08   31.00
   2  -4   8  154.48   30.70
   2  -4   8  221.98   31.50
   2  -4   8  196.18   31.50
   2  -4   8  187.38   31.10
  -3   4  -8  260.07   41.60
  -3   4  -8  201.08   41.30
  -3   4  -8  250.27   41.50
   3  -4   8  271.07   41.30
   3  -4   8  200.18   41.40
   3  -4   8  241.48   41.50
   3  -4   8  248.28   41.40
   3  -4   8  296.87   41.90
   3  -4   8  210.98   41.40
  -4   4  -8    3.40    4.00
  -4   4  -8    5.30    7.20
  -4   4  -8    6.60    6.70
  -4   4  -8   -3.50    4.00
   4  -4   8    0.40    5.20
   4  -4   8   15.70    5.90
   4  -4   8   20.20    9.70
   4  -4   8   -3.90    5.60
   4  -4   8    0.40    6.80
   4  -4   8   -0.80    6.20
  -5   4  -8  147.99   25.50
  -5   4  -8  153.88   25.20
  -5   4  -8  109.79   26.00
   5  -4   8  173.28   26.40
   5  -4   8  156.38   26.90
   5  -4   8  123.29   25.90
   5  -4   8  138.09   25.80
   5  -4   8  135.89   25.50
  -6   4  -8    4.60   11.70
  -6   4  -8    4.90   11.00
  -6   4  -8    2.90   11.70
  -6   4  -8    0.20    8.20
   6  -4   8   14.50    9.60
   6  -4   8   -5.70    8.90
   6  -4   8   -2.10   10.20
   6  -4   8   14.30   16.00
   6  -4   8   -3.10   10.40
   8   3  -8   -2.80   12.50
   8   3  -8    8.00   13.10
  -8  -3   8    2.80   20.50
   7   3  -8   30.00   11.00
   7   3  -8   32.30   10.80
  -7  -3   8   24.40   12.20
  -7  -3   8   11.80   15.10
  -7  -3   8   13.50   14.20
   6   3  -8   66.69   16.50
   6   3  -8   63.59   12.40
   6   3  -8   44.70   12.30
  -6  -3   8   51.19   13.10
  -6  -3   8   62.79   13.50
  -6  -3   8   70.39   14.70
  -6  -3   8   37.50   12.90
   5   3  -8   87.89   18.50
   5   3  -8  137.99   17.60
   5   3  -8   72.19   17.10
  -5  -3   8   80.49   17.40
  -5  -3   8   89.29   17.50
  -5  -3   8   74.39   18.20
  -5  -3   8  119.29   18.40
  -5  -3   8   91.39   17.70
   4   3  -8   40.30    7.10
   4   3  -8   30.10    7.40
   4   3  -8   22.70    7.70
   4   3  -8   42.90    9.40
  -4  -3   8   30.30    8.00
  -4  -3   8   25.90    7.50
  -4  -3   8   41.90    8.50
  -4  -3   8   64.09    8.50
  -4  -3   8   25.50    8.20
   3   3  -8  528.15   92.69
   3   3  -8  547.75   92.79
  -3  -3   8  599.24   92.89
  -3  -3   8  519.75   92.59
  -3  -3   8  569.54   92.79
  -3  -3   8  521.55   92.79
  -3  -3   8  566.84   92.69
   2   3  -8  600.04   93.89
   2   3  -8  499.75   93.89
  -2  -3   8  530.75   93.79
  -2  -3   8  577.14   93.99
  -2  -3   8  587.44   93.99
  -2  -3   8  575.04   93.89
  -2  -3   8  538.75   94.19
  -1  -3   8   27.40    5.50
  -1  -3   8   20.30    5.60
   0  -3   8   35.00    7.00
   0  -3   8   34.20    7.00
  -1   3  -8    4.40    2.30
  -1   3  -8    1.70    3.80
  -1   3  -8    1.10    2.20
   1  -3   8    4.80    3.40
   1  -3   8    1.60    1.50
   1  -3   8    0.90    2.30
   1  -3   8    3.10    3.10
   1  -3   8    2.80    1.90
   1  -3   8    1.20    3.70
  -2   3  -8   12.30    4.00
  -2   3  -8    4.00    3.70
  -2   3  -8    4.30    5.70
  -2   3  -8   11.30    4.80
   2  -3   8   13.80    4.60
   2  -3   8    6.80    3.40
   2  -3   8   13.50    5.30
   2  -3   8    5.70    3.90
   2  -3   8    5.90    3.40
   2  -3   8    9.60    3.90
  -3   3  -8  419.46   73.69
  -3   3  -8  417.76   73.79
  -3   3  -8  456.75   73.89
   3  -3   8  471.05   73.69
   3  -3   8  435.26   74.29
   3  -3   8  462.95   73.99
   3  -3   8  417.36   73.79
   3  -3   8  443.16   73.69
   3  -3   8  397.96   73.69
  -4   3  -8  153.68   26.30
  -4   3  -8  163.68   28.30
  -4   3  -8  146.49   26.90
  -4   3  -8  170.68   26.10
   4  -3   8  169.08   26.70
   4  -3   8  119.99   26.80
   4  -3   8  154.58   26.60
   4  -3   8  137.09   27.90
   4  -3   8  152.68   26.90
   4  -3   8  124.29   26.70
  -5   3  -8  233.88   41.70
  -5   3  -8  236.48   41.40
  -5   3  -8  255.27   41.10
  -5   3  -8  273.37   42.10
   5  -3   8  282.87   42.30
   5  -3   8  142.49   41.30
   5  -3   8  251.37   41.30
   5  -3   8  262.27   41.50
   5  -3   8  249.28   42.00
  -6   3  -8   21.80   12.30
  -6   3  -8   -3.00   12.60
  -6   3  -8   11.10    8.80
   6  -3   8    1.70   10.60
   6  -3   8   10.70    9.30
   6  -3   8   12.60    9.90
   6  -3   8   -1.30   10.80
   6  -3   8   14.10   16.20
   8   2  -8    1.10   12.40
   8   2  -8    6.60   11.80
  -8  -2   8  -26.60   19.30
  -8  -2   8   -2.00   13.90
   7   2  -8   34.90   10.90
   7   2  -8    3.60   19.40
   7   2  -8   34.00   10.60
  -7  -2   8   40.40   14.30
  -7  -2   8   16.00   11.20
  -7  -2   8   32.10   13.50
   6   2  -8   60.29   10.10
   6   2  -8   44.30   10.30
   6   2  -8   47.00   13.70
  -6  -2   8   35.50   11.00
  -6  -2   8    2.10   13.10
  -6  -2   8   49.10   10.00
  -6  -2   8   16.30   10.40
   5   2  -8  170.58   32.20
   5   2  -8  171.68   32.80
   5   2  -8  196.38   31.90
  -5  -2   8  167.98   32.30
  -5  -2   8  205.38   32.00
  -5  -2   8  181.68   32.00
  -5  -2   8  192.18   31.80
  -5  -2   8  172.88   32.40
   4   2  -8   47.20    7.80
   4   2  -8   38.80    8.10
   4   2  -8   44.90    8.10
   4   2  -8   38.10    9.00
  -4  -2   8   34.70    9.10
  -4  -2   8   37.50    8.30
  -4  -2   8   30.70    9.50
  -4  -2   8   32.70    8.00
  -4  -2   8   52.49    8.60
  -4  -2   8   29.70    8.90
   3   2  -8  993.50  162.48
   3   2  -8  936.61  162.38
  -3  -2   8  918.51  162.48
  -3  -2   8 1034.70  162.38
  -3  -2   8  950.50  162.48
  -3  -2   8  975.60  162.48
  -3  -2   8  947.11  162.38
   2   2  -8   35.30    7.10
  -2  -2   8   38.20    7.50
  -2  -2   8   47.00    7.20
  -2  -2   8   40.80    7.30
  -1  -2   8  235.08   41.30
  -1  -2   8  251.37   41.40
   0  -2   8  378.36   63.59
   0  -2   8  372.96   63.69
  -1   2  -8   -1.50    2.30
  -1   2  -8    6.90    4.80
  -1   2  -8    4.00    3.70
  -1   2  -8    0.10    2.50
   1  -2   8    1.20    3.40
   1  -2   8    1.90    2.40
   1  -2   8    4.10    3.10
   1  -2   8    0.00    2.90
   1  -2   8    3.20    1.80
   1  -2   8    0.90    1.60
  -2   2  -8  610.64  107.39
  -2   2  -8  626.94  107.39
  -2   2  -8  674.73  107.49
  -2   2  -8  672.03  107.89
   2  -2   8  633.74  107.39
   2  -2   8  648.24  107.59
   2  -2   8  646.64  107.29
   2  -2   8  630.64  107.49
   2  -2   8  588.84  107.29
   2  -2   8  673.23  107.69
  -3   2  -8 1147.39  189.08
  -3   2  -8 1084.89  188.88
   3  -2   8 1043.30  189.18
   3  -2   8 1089.49  189.18
   3  -2   8 1163.28  189.08
   3  -2   8 1206.98  188.98
   3  -2   8 1060.19  188.88
   3  -2   8 1164.58  188.88
  -4   2  -8  100.49   16.70
  -4   2  -8   99.99   17.30
  -4   2  -8  102.99   16.70
  -4   2  -8   59.09   17.50
   4  -2   8   99.49   17.80
   4  -2   8   69.19   17.40
   4  -2   8  105.69   19.40
   4  -2   8   99.19   17.00
   4  -2   8   82.09   17.50
   4  -2   8   99.29   17.20
  -5   2  -8    7.50    8.50
  -5   2  -8   16.20    8.10
  -5   2  -8    4.70    6.40
  -5   2  -8   -5.40    9.40
   5  -2   8    5.40    7.00
   5  -2   8   -8.60   11.00
   5  -2   8   -1.20    7.90
   5  -2   8    9.00    8.30
   5  -2   8    7.30    7.00
  -6   2  -8   -2.40    8.70
  -6   2  -8    8.00   17.30
  -6   2  -8  -12.30   13.40
   6  -2   8  -32.30   18.50
   6  -2   8  -13.30   10.70
   6  -2   8    2.30    9.20
   6  -2   8   17.50    9.30
   8   1  -8   27.90   11.60
   8   1  -8    9.00   12.70
  -8  -1   8   -3.00   13.30
  -8  -1   8   12.80   16.30
   7   1  -8   -1.00    8.50
   7   1  -8    0.70    8.30
   7   1  -8   32.70   16.60
  -7  -1   8   -0.90    9.70
  -7  -1   8   12.50   12.80
  -7  -1   8    8.10    8.60
   6   1  -8   13.00    6.70
   6   1  -8    5.80    6.50
   6   1  -8    8.60   10.90
  -6  -1   8   -0.80    9.30
  -6  -1   8    2.00    7.10
  -6  -1   8    9.70    7.80
  -6  -1   8    4.50    6.20
   5   1  -8  309.97   58.19
   5   1  -8  335.57   57.69
   5   1  -8  307.27   57.99
   5   1  -8  341.87   57.59
  -5  -1   8  343.37   57.79
  -5  -1   8  346.67   57.49
  -5  -1   8  494.55   61.19
  -5  -1   8  339.77   58.29
  -5  -1   8  323.77   57.79
   4   1  -8   -3.30    3.70
   4   1  -8    1.80    3.70
   4   1  -8   -1.70    3.00
   4   1  -8    5.30    5.00
  -4  -1   8    3.90    5.90
  -4  -1   8    3.50    4.10
  -4  -1   8    8.30    5.70
  -4  -1   8   -3.60    4.80
  -4  -1   8    1.10    3.70
  -4  -1   8   -0.40    3.80
   3   1  -8   -2.70    3.50
   3   1  -8    0.00    2.60
  -3  -1   8    6.00    4.00
  -3  -1   8   -3.20    3.10
  -3  -1   8   -2.20    2.50
  -3  -1   8   -0.40    3.10
  -3  -1   8    1.00    3.60
   2   1  -8    2.30    1.70
  -2  -1   8    0.40    2.60
  -2  -1   8    1.90    2.00
  -2  -1   8    2.50    1.70
  -2  -1   8    1.50    2.50
  -2  -1   8    0.20    2.40
  -1  -1   8  538.55   90.49
  -1  -1   8  533.85   90.49
   0  -1   8  185.38   32.30
   0  -1   8  192.18   32.30
  -1   1  -8 1506.95  244.18
  -1   1  -8 1375.86  244.38
   1  -1   8 1470.95  244.18
   1  -1   8 1450.25  244.18
   1  -1   8 1479.65  244.38
   1  -1   8 1325.67  244.08
   1  -1   8 1549.34  244.18
  -2   1  -8  471.55   74.69
  -2   1  -8  429.06   74.09
  -2   1  -8  400.96   74.19
  -2   1  -8  406.56   74.19
   2  -1   8  394.16   74.09
   2  -1   8  452.75   74.39
   2  -1   8  454.45   74.09
   2  -1   8  564.94   74.99
   2  -1   8  441.66   74.09
   2  -1   8  451.85   74.39
  -3   1  -8    1.50    4.20
  -3   1  -8    4.00    5.70
  -3   1  -8   -1.60    5.60
   3  -1   8    1.30    3.80
   3  -1   8   -3.80    4.80
   3  -1   8   10.20    8.00
   3  -1   8   -1.40    5.70
   3  -1   8   -2.50    4.20
   3  -1   8    2.20    5.30
  -4   1  -8    1.20    5.60
  -4   1  -8   -1.30    7.50
  -4   1  -8    5.80    5.00
   4  -1   8  -10.50   12.40
   4  -1   8   -2.50    5.40
   4  -1   8    6.10    6.40
   4  -1   8   -4.00    6.30
   4  -1   8    3.80    5.10
  -5   1  -8   28.20    9.20
  -5   1  -8   44.20   12.20
  -5   1  -8   27.40    9.50
  -5   1  -8   39.20   10.40
   5  -1   8   32.90    8.60
   5  -1   8   11.90   10.40
   5  -1   8   37.80   13.70
   5  -1   8   25.80   10.60
   5  -1   8   42.10    9.70
  -6   1  -8   16.70   11.70
  -6   1  -8    5.40   14.60
  -6   1  -8   -1.60   14.00
  -6   1  -8   13.80   10.20
   6  -1   8   22.40    9.10
   6  -1   8   -4.60   11.40
   6  -1   8   33.80   20.10
   6  -1   8   14.80    9.90
   6  -1   8   19.30   11.70
   8   0  -8   15.90   11.50
   8   0  -8   22.90   12.50
  -8   0   8    6.30   11.40
  -8   0   8   24.50   17.00
  -8   0   8   13.40   14.80
   7   0  -8   14.80    9.30
   7   0  -8    6.80   15.40
   7   0  -8   14.30    8.50
  -7   0   8    9.50    7.60
  -7   0   8   11.80   12.70
  -7   0   8    5.50    9.10
   6   0  -8   63.99   15.00
   6   0  -8   93.59   15.30
   6   0  -8  103.79   17.70
  -6   0   8   81.59   15.90
  -6   0   8   67.99   15.40
  -6   0   8   87.29   17.10
  -6   0   8   66.19   14.30
   5   0  -8   -1.20    6.50
   5   0  -8   -5.70    7.20
   5   0  -8    0.00    6.80
   5   0  -8    1.60    5.00
  -5   0   8    6.00    5.50
  -5   0   8   -1.20    9.90
  -5   0   8    2.20    5.70
  -5   0   8   -0.80    3.50
  -5   0   8   -4.50    7.00
   4   0  -8   79.79   16.10
   4   0  -8  101.49   16.00
   4   0  -8  101.39   16.10
   4   0  -8   89.99   16.60
  -4   0   8   87.49   15.80
  -4   0   8   71.99   16.80
  -4   0   8  100.19   16.70
  -4   0   8   95.79   16.30
  -4   0   8   76.99   16.20
  -4   0   8   96.49   16.80
   3   0  -8  115.19   23.00
   3   0  -8  149.99   23.30
  -3   0   8  137.49   23.00
  -3   0   8  135.59   23.00
  -3   0   8  139.99   23.30
  -3   0   8  142.09   23.60
  -3   0   8  137.09   23.20
  -3   0   8  126.99   23.20
   2   0  -8  728.23  120.49
  -2   0   8  705.43  120.49
  -2   0   8  694.73  120.49
  -2   0   8  700.83  120.49
  -2   0   8  742.73  120.59
  -2   0   8  721.73  120.49
   1   0  -8 1973.40  313.07
   1   0  -8 1685.73  313.07
  -1   0   8 1938.31  313.27
  -1   0   8 1727.13  312.97
  -1   0   8 1858.41  313.07
  -1   0   8 2003.00  313.07
  -1   0   8 1833.32  313.07
  -1   0   8 1901.21  313.27
   0   0  -8  108.49   19.10
   0   0  -8  113.89   18.80
   0   0  -8  110.89   18.80
   0   0   8  102.79   18.60
   0   0   8  112.49   18.90
   0   0   8  101.49   19.00
   0   0   8  111.79   18.90
   0   0   8  105.09   18.80
   0   0   8  113.79   18.70
  -1   0  -8  359.96   61.89
  -1   0  -8  377.66   61.99
  -1   0  -8  353.66   62.19
   1   0   8  360.86   61.99
   1   0   8  369.56   61.89
   1   0   8  383.66   61.79
   1   0   8  373.66   62.19
   1   0   8  374.86   61.99
   1   0   8  341.77   61.89
  -2   0  -8    1.30    4.80
  -2   0  -8   -0.10    5.20
  -2   0  -8    9.80    4.60
   2   0   8   -4.80    2.70
   2   0   8    2.10    4.30
   2   0   8   -2.30    6.90
   2   0   8    2.00    4.60
   2   0   8    1.60    3.90
   2   0   8    1.50    3.40
  -3   0  -8  165.48   28.60
  -3   0  -8  163.48   28.40
  -3   0  -8  167.28   29.20
  -3   0  -8  133.09   29.00
  -3   0  -8  143.09   28.70
   3   0   8  177.18   28.50
   3   0   8  183.58   29.20
   3   0   8  166.48   28.80
   3   0   8  167.58   29.10
   3   0   8  183.08   29.40
   3   0   8  201.88   30.00
  -4   0  -8   41.00    9.90
  -4   0  -8   36.90   11.00
  -4   0  -8   37.40    9.00
  -4   0  -8   51.09    9.40
   4   0   8   34.70   10.20
   4   0   8   45.80   11.00
   4   0   8   51.39   12.10
   4   0   8   38.20    9.80
  -5   0  -8   13.80   10.50
  -5   0  -8    4.70    7.00
  -5   0  -8   -2.30    9.80
  -5   0  -8   -1.30    7.50
   5   0   8    3.10    7.80
   5   0   8   16.10   14.00
   5   0   8    1.70    5.90
   5   0   8  -10.70    8.60
   5   0   8   -6.30    9.00
  -6   0  -8   -6.40   15.30
  -6   0  -8   -8.70   10.50
   6   0   8   -3.70   11.70
   6   0   8    7.90   10.20
   6   0   8   -1.20   11.80
   8  -1  -8    0.70   11.00
   8  -1  -8   10.70   11.50
  -8   1   8    8.70   17.00
  -8   1   8    7.30    9.40
   7  -1  -8   53.79   17.00
   7  -1  -8   58.99   11.60
   7  -1  -8   34.60   11.50
  -7   1   8   24.00   16.10
  -7   1   8   36.50    9.40
  -7   1   8   42.80   12.00
  -7   1   8   34.60   14.60
   6  -1  -8    1.10   10.90
   6  -1  -8    8.00    7.20
   6  -1  -8   12.10    6.70
  -6   1   8    7.30    6.80
  -6   1   8    5.00    9.70
  -6   1   8    6.90    8.10
  -6   1   8   13.60    4.40
   5  -1  -8    3.80    9.40
   5  -1  -8   -3.20    4.90
   5  -1  -8    1.90    7.30
   5  -1  -8    9.10    5.00
  -5   1   8    3.30    2.80
  -5   1   8    5.10    5.50
  -5   1   8   16.50    6.40
  -5   1   8    7.00    7.40
   4  -1  -8  325.27   55.89
   4  -1  -8  308.77   55.89
   4  -1  -8  340.17   55.79
   4  -1  -8  331.57   56.19
  -4   1   8  334.07   56.29
  -4   1   8  306.87   56.19
  -4   1   8  335.57   55.99
  -4   1   8  326.67   55.39
  -4   1   8  337.27   56.09
  -4   1   8  335.57   55.49
   3  -1  -8  127.69   23.00
   3  -1  -8  116.99   22.80
  -3   1   8  152.88   23.20
  -3   1   8  145.39   23.10
  -3   1   8  130.19   22.60
  -3   1   8  153.58   23.20
  -3   1   8  123.19   22.90
  -3   1   8  133.89   22.60
  -3   1   8  118.69   23.20
   2  -1  -8  356.76   60.49
   2  -1  -8  342.47   60.39
  -2   1   8  364.96   60.59
  -2   1   8  344.77   60.49
  -2   1   8  360.26   60.59
  -2   1   8  364.36   60.39
  -2   1   8  364.66   60.59
  -2   1   8  365.26   60.49
   1  -1  -8    9.80    3.20
   1  -1  -8    2.80    2.90
  -1   1   8    2.50    2.70
  -1   1   8    1.70    3.90
  -1   1   8    6.40    4.20
  -1   1   8    1.00    3.00
  -1   1   8    6.20    3.00
  -1   1   8    2.10    2.70
   0  -1  -8  566.14   97.49
   0  -1  -8  578.74   97.29
   0  -1  -8  586.24   97.39
   0   1   8  572.04   97.29
   0   1   8  582.14   97.49
   0   1   8  586.84   97.29
   0   1   8  577.64   97.39
   0   1   8  601.14   97.39
   0   1   8  547.75   97.29
  -1  -1  -8  207.78   31.90
  -1  -1  -8  178.08   31.80
  -1  -1  -8  173.28   31.70
   1   1   8  189.88   31.90
   1   1   8  156.58   31.70
   1   1   8  183.78   31.20
   1   1   8  194.08   32.00
   1   1   8  187.78   31.80
   1   1   8  193.78   31.60
  -2  -1  -8   79.49   13.40
  -2  -1  -8   67.59   13.40
  -2  -1  -8   82.19   13.90
   2   1   8   68.79   13.30
   2   1   8   67.09   13.00
   2   1   8   72.09   13.50
   2   1   8   88.79   15.10
   2   1   8   69.89   12.20
   2   1   8   56.99   13.20
  -3  -1  -8  140.59   21.80
  -3  -1  -8   90.99   22.40
   3   1   8  126.59   22.20
   3   1   8  151.58   23.10
   3   1   8  142.69   25.50
   3   1   8  104.69   22.30
   3   1   8  144.79   24.20
   3   1   8  121.19   21.40
  -4  -1  -8    0.60    4.20
  -4  -1  -8   -2.50    9.00
  -4  -1  -8   -2.30    7.70
  -4  -1  -8    1.60    6.00
   4   1   8    2.50   10.30
   4   1   8    6.40    3.90
   4   1   8    3.20    7.40
   4   1   8    0.40    6.30
   4   1   8    8.50    7.70
  -5  -1  -8   -2.20    6.10
  -5  -1  -8   -2.60    8.30
  -5  -1  -8    9.80   12.20
   5   1   8    4.60    8.40
   5   1   8   -1.30    9.90
   5   1   8   16.20   15.70
   5   1   8   -0.90    9.20
   8  -2  -8   18.70   12.50
   8  -2  -8   42.10   12.40
  -8   2   8   41.80   18.00
  -8   2   8    5.80   12.90
   7  -2  -8    1.40    8.90
   7  -2  -8   18.00    8.70
  -7   2   8   -0.30   11.80
  -7   2   8   13.30    4.80
  -7   2   8   12.40   12.40
  -7   2   8    8.80    8.90
   6  -2  -8   30.00    8.40
   6  -2  -8   34.70   12.40
   6  -2  -8    9.60    7.70
  -6   2   8   32.20    8.80
  -6   2   8   42.40   10.00
  -6   2   8   19.90   11.00
   5  -2  -8   35.20    7.90
   5  -2  -8   36.40    8.30
   5  -2  -8   28.10   10.10
  -5   2   8   46.50    9.10
  -5   2   8   18.60    8.80
  -5   2   8   27.60    8.10
  -5   2   8   43.50    9.90
   4  -2  -8  422.36   69.89
   4  -2  -8  400.06   69.89
   4  -2  -8  437.66   69.79
   4  -2  -8  419.56   70.09
  -4   2   8  405.96   69.89
  -4   2   8  426.06   69.99
  -4   2   8  422.26   70.09
  -4   2   8  309.57   70.29
  -4   2   8  420.96   70.29
   3  -2  -8   15.90    4.90
   3  -2  -8   14.70    4.40
   3  -2  -8   21.20    5.90
   3  -2  -8   22.20    4.70
  -3   2   8   18.80    5.80
  -3   2   8   29.30    5.80
  -3   2   8   26.40    5.20
  -3   2   8   14.10    5.20
  -3   2   8   22.40    6.00
   2  -2  -8   16.70    3.90
   2  -2  -8    9.80    4.30
  -2   2   8   14.60    3.10
  -2   2   8    4.40    4.30
  -2   2   8   14.20    3.90
  -2   2   8   10.20    4.70
  -2   2   8   13.10    4.40
  -2   2   8    6.90    4.10
   1  -2  -8   46.90    9.40
   1  -2  -8   47.80    9.50
   1  -2  -8   48.40    9.70
  -1   2   8   87.59   10.10
  -1   2   8   50.79    9.40
  -1   2   8   41.60    9.70
  -1   2   8   52.19    9.30
  -1   2   8   57.39    9.70
  -1   2   8   44.30    9.30
   0  -2  -8  278.37   43.20
   0  -2  -8  242.38   43.10
   0  -2  -8  232.88   43.20
   0   2   8  246.78   42.80
   0   2   8  242.98   43.30
   0   2   8  239.38   43.10
   0   2   8  258.87   43.30
   0   2   8  265.17   42.80
   0   2   8  302.87   44.20
   0   2   8  244.28   43.10
  -1  -2  -8   64.09   14.90
  -1  -2  -8   83.09   14.90
  -1  -2  -8   77.99   14.90
  -1  -2  -8   86.19   14.10
   1   2   8   86.39   15.00
   1   2   8   95.29   15.00
   1   2   8   71.19   14.80
   1   2   8   86.79   15.20
   1   2   8   76.19   14.60
  -2  -2  -8  110.39   20.70
  -2  -2  -8   74.69   20.50
  -2  -2  -8  120.79   20.00
  -2  -2  -8   96.89   20.50
  -2  -2  -8  126.89   20.00
   2   2   8  125.89   20.40
   2   2   8  105.09   20.50
   2   2   8  125.29   22.20
   2   2   8  121.59   20.70
   2   2   8  121.79   20.80
  -3  -2  -8   -1.10    7.30
  -3  -2  -8    2.80    6.50
  -3  -2  -8    1.60    5.30
   3   2   8   -7.30    6.20
   3   2   8   16.40    8.70
   3   2   8   -1.20    5.70
   3   2   8   -3.70    6.80
  -4  -2  -8  136.79   19.50
  -4  -2  -8  110.89   20.10
  -4  -2  -8   26.70   20.40
   4   2   8  123.69   22.10
   4   2   8   74.19   19.70
   4   2   8  119.29   19.60
   4   2   8  119.69   20.30
  -5  -2  -8  -15.50   14.10
  -5  -2  -8   16.00    9.70
  -5  -2  -8   -5.60   13.90
   5   2   8   23.30   11.40
   5   2   8   14.00    9.30
   5   2   8   -5.00   10.90
   5   2   8    7.60   18.00
   8  -3  -8   -6.70   12.50
   8  -3  -8    7.60   11.40
  -8   3   8  -18.60   12.00
  -8   3   8   -1.60   30.80
   7  -3  -8    4.40    9.10
   7  -3  -8   10.50    8.60
  -7   3   8  -10.40    9.00
  -7   3   8    8.30   10.80
   6  -3  -8    8.50    7.70
   6  -3  -8    7.50    7.00
  -6   3   8    3.70    9.00
  -6   3   8    4.70    6.80
  -6   3   8   18.90   10.00
   5  -3  -8   16.60    6.80
   5  -3  -8   16.90    9.50
   5  -3  -8   20.40    7.10
  -5   3   8   23.40    6.80
  -5   3   8   15.10    8.40
  -5   3   8   31.30    8.60
  -5   3   8   12.30    8.90
   4  -3  -8  174.98   26.20
   4  -3  -8  157.08   25.80
   4  -3  -8  133.39   25.50
   4  -3  -8  173.68   25.50
  -4   3   8  141.99   25.90
  -4   3   8  116.69   25.60
  -4   3   8  119.59   25.90
  -4   3   8  152.18   25.70
   3  -3  -8   22.30    5.30
   3  -3  -8   17.70    5.80
   3  -3  -8   30.30    5.80
  -3   3   8   14.70    6.20
  -3   3   8   15.50    6.50
  -3   3   8   21.30    5.70
  -3   3   8   17.70    6.30
  -3   3   8   22.50    6.10
   2  -3  -8  106.29   19.10
   2  -3  -8  121.29   19.20
   2  -3  -8  113.59   19.80
  -2   3   8   99.59   19.30
  -2   3   8  112.69   19.70
  -2   3   8  127.59   19.80
  -2   3   8  103.19   19.80
  -2   3   8  105.79   19.50
  -2   3   8  108.99   19.00
   1  -3  -8  105.39   16.90
   1  -3  -8  109.39   16.40
   1  -3  -8   96.49   17.10
   1  -3  -8   94.99   16.40
  -1   3   8   87.99   16.40
  -1   3   8   83.79   17.10
  -1   3   8  100.49   17.30
  -1   3   8   89.39   17.00
  -1   3   8   94.69   16.80
  -1   3   8   81.09   16.50
   0  -3  -8  113.69   20.30
   0  -3  -8  123.39   20.70
   0  -3  -8  117.89   20.20
   0  -3  -8  118.69   20.50
   0  -3  -8  110.19   20.80
   0   3   8  122.39   20.80
   0   3   8  106.59   20.50
   0   3   8  120.29   20.90
   0   3   8  109.49   20.50
   0   3   8  131.39   20.90
  -1  -3  -8   27.60    8.10
  -1  -3  -8   24.80    7.70
  -1  -3  -8   26.20    7.10
  -1  -3  -8   36.30    8.50
  -1  -3  -8   34.30    6.90
   1   3   8   36.50    8.60
   1   3   8   31.00    8.40
   1   3   8   38.70    7.60
   1   3   8   29.70    7.60
   1   3   8   31.60    7.30
  -2  -3  -8  164.58   36.90
  -2  -3  -8  249.78   37.00
   2   3   8  282.27   39.10
   2   3   8  193.28   37.00
   2   3   8  216.58   37.20
   2   3   8  217.18   37.00
  -3  -3  -8   54.39   11.60
  -3  -3  -8   59.59   12.70
  -3  -3  -8   36.10   12.80
   3   3   8   49.30   12.30
   3   3   8   63.19   14.80
   3   3   8   54.59   11.80
   3   3   8   72.69   12.90
  -4  -3  -8   25.60   12.30
  -4  -3  -8   26.50    9.70
  -4  -3  -8    9.40   11.50
   4   3   8   34.40   10.00
   4   3   8   38.90   11.40
   4   3   8   20.30   10.50
   4   3   8   42.50   15.50
  -5  -3  -8    3.80   21.80
   5   3   8  -11.10   11.70
   5   3   8  -16.50   11.90
   5   3   8    4.50   10.60
   8  -4  -8   -5.30   11.40
   8  -4  -8   -6.70   12.40
  -8   4   8  -14.10   16.90
  -8   4   8    8.80   13.00
   7  -4  -8   26.60   10.80
   7  -4  -8   13.00   10.20
  -7   4   8   17.80   10.20
  -7   4   8   22.10   11.90
  -7   4   8   21.50   16.90
   6  -4  -8   18.00   13.60
   6  -4  -8   15.20    7.90
   6  -4  -8    5.60    8.00
  -6   4   8    7.60   11.30
  -6   4   8    7.70    7.40
  -6   4   8   17.90    9.20
   5  -4  -8  190.68   31.90
   5  -4  -8  174.48   30.90
   5  -4  -8  161.28   31.00
  -5   4   8  151.18   31.30
  -5   4   8  212.68   31.30
  -5   4   8  172.18   31.50
   4  -4  -8   13.30    5.90
   4  -4  -8   13.40    8.00
  -4   4   8   18.20    6.30
  -4   4   8   20.60    7.60
  -4   4   8   31.30    7.70
  -4   4   8   16.20    8.30
  -4   4   8   19.60    7.50
   3  -4  -8  138.69   22.10
   3  -4  -8   99.89   22.10
   3  -4  -8  137.69   22.70
   3  -4  -8  165.58   22.60
  -3   4   8  140.29   22.70
  -3   4   8  132.19   22.20
  -3   4   8  115.19   22.50
  -3   4   8  108.79   22.40
  -3   4   8   99.79   22.00
   2  -4  -8    3.80    2.60
   2  -4  -8   10.00    5.90
   2  -4  -8    8.60    4.00
   2  -4  -8    5.70    4.60
   2  -4  -8    5.30    5.10
  -2   4   8  -11.50    6.50
  -2   4   8    1.30    2.50
  -2   4   8    2.90    5.90
  -2   4   8    5.40    4.60
  -2   4   8    3.30    4.00
  -2   4   8    7.30    5.10
   1  -4  -8    2.10    3.90
   1  -4  -8    5.00    4.90
   1  -4  -8    6.30    4.00
   1  -4  -8    5.50    5.00
   1  -4  -8   13.50    6.00
  -1   4   8    5.40    4.70
  -1   4   8   13.90    5.70
  -1   4   8    7.00    5.40
  -1   4   8    0.10    6.50
  -1   4   8    3.30    3.70
  -1   4   8   19.10    3.20
   0  -4  -8  451.75   74.79
   0  -4  -8  472.15   75.09
   0  -4  -8  420.56   75.29
   0  -4  -8  433.96   74.99
   0   4   8  407.36   75.29
   0   4   8  419.46   74.99
   0   4   8  468.55   74.89
   0   4   8  434.16   75.19
   0   4   8  454.95   75.39
  -1  -4  -8   31.60    7.30
  -1  -4  -8   41.20    8.40
  -1  -4  -8   20.50    8.50
  -1  -4  -8   30.70    8.60
   1   4   8   44.80    9.80
   1   4   8   29.00    7.80
   1   4   8   22.50    7.70
   1   4   8   34.90    9.90
   1   4   8   27.90    8.10
  -2  -4  -8   22.80    9.00
  -2  -4  -8   29.90    7.60
  -2  -4  -8   16.60    9.40
   2   4   8   37.80   10.80
   2   4   8   14.90    7.50
   2   4   8   41.40    9.00
   2   4   8   28.40    8.70
  -3  -4  -8   -5.00    9.90
  -3  -4  -8    0.10    7.20
  -3  -4  -8  -14.50    8.90
   3   4   8    2.70    8.40
   3   4   8   -0.40    8.00
   3   4   8   17.10    7.80
   3   4   8   -9.60   12.50
  -4  -4  -8   48.60   13.60
  -4  -4  -8   10.70   15.20
   4   4   8   81.19   14.70
   4   4   8   75.19   20.60
   4   4   8   63.89   14.80
   4   4   8   68.19   14.90
   8  -5  -8    1.60   12.90
   7  -5  -8    5.70    9.80
  -7   5   8    5.10   11.30
  -7   5   8   -6.00   10.10
   6  -5  -8    2.70    8.00
   6  -5  -8   22.60    9.20
  -6   5   8   -4.10    9.70
  -6   5   8    8.10   12.20
  -6   5   8    9.80    8.60
   5  -5  -8    3.40    6.80
   5  -5  -8   -5.50    6.40
  -5   5   8   -7.90    8.50
  -5   5   8   -4.50    9.60
  -5   5   8   -0.80    6.60
   4  -5  -8  -12.00    9.00
   4  -5  -8   -9.70    5.80
   4  -5  -8    2.10    5.80
  -4   5   8   -0.30    6.10
  -4   5   8   -0.40    7.40
  -4   5   8   17.10    6.90
  -4   5   8   -1.70    8.20
   3  -5  -8  173.78   33.20
   3  -5  -8  246.28   33.90
   3  -5  -8  206.18   33.20
  -3   5   8  179.18   33.30
  -3   5   8  151.18   33.80
  -3   5   8  173.78   33.10
  -3   5   8  195.38   33.80
  -3   5   8  208.38   33.80
   2  -5  -8   54.09    8.50
   2  -5  -8   40.40    9.40
   2  -5  -8   33.70   10.50
   2  -5  -8   42.60    9.80
  -2   5   8   46.40    8.40
  -2   5   8   43.10    8.90
  -2   5   8   55.49   10.20
  -2   5   8   33.00   10.70
  -2   5   8   44.50    9.80
  -2   5   8   45.20   11.50
   1  -5  -8   23.40    7.70
   1  -5  -8   19.00    6.00
   1  -5  -8   25.50    5.90
   1  -5  -8   22.30    7.00
  -1   5   8   12.60    7.10
  -1   5   8   21.60    4.50
  -1   5   8   21.40    5.40
  -1   5   8   29.10    9.40
  -1   5   8   12.20    6.40
  -1   5   8   17.30    8.30
   0  -5  -8   77.09   14.50
   0  -5  -8   86.59   14.80
   0  -5  -8   86.79   15.40
   0  -5  -8   75.29   14.90
   0   5   8   93.99   14.60
   0   5   8   75.69   15.10
   0   5   8   61.29   15.80
   0   5   8   56.29   14.50
   0   5   8   89.79   16.10
  -1  -5  -8  408.46   61.19
  -1  -5  -8  310.07   61.19
  -1  -5  -8  341.97   61.69
  -1  -5  -8  353.26   61.59
   1   5   8  363.16   61.29
   1   5   8  351.96   61.69
   1   5   8  338.77   61.59
   1   5   8  373.66   61.19
  -2  -5  -8    4.70    9.40
  -2  -5  -8   16.30   10.10
  -2  -5  -8   10.30    7.20
   2   5   8   21.90   13.40
   2   5   8    7.70    7.60
   2   5   8    2.80    7.50
   2   5   8    4.80    8.00
  -3  -5  -8  -11.30   12.50
  -3  -5  -8   11.30   11.50
  -3  -5  -8   -1.50    8.30
   3   5   8    5.80    8.90
   3   5   8   -3.40    9.20
   3   5   8    4.60    9.60
   3   5   8   -1.50   16.10
  -4  -5  -8   -2.60   14.40
  -4  -5  -8    6.10   11.20
   4   5   8   -4.70   11.00
   4   5   8   12.40   15.10
   7  -6  -8   -7.60   10.70
   7  -6  -8    2.00   11.20
  -7   6   8   21.80   14.00
  -7   6   8   -1.70   11.70
   6  -6  -8   88.19   20.20
   6  -6  -8  131.39   20.50
  -6   6   8   74.49   20.40
  -6   6   8  110.49   19.60
  -6   6   8   76.79   22.60
   5  -6  -8   77.99   16.00
   5  -6  -8   72.59   15.40
   5  -6  -8   73.69   19.30
   5  -6  -8  100.59   15.90
  -5   6   8   68.29   15.40
  -5   6   8   83.29   16.40
  -5   6   8   51.39   17.50
   4  -6  -8   29.50   18.40
   4  -6  -8   32.90    9.10
   4  -6  -8   30.80    8.30
  -4   6   8   39.10    9.40
  -4   6   8   27.60    8.70
  -4   6   8   17.50   11.40
  -4   6   8    5.90    9.80
   3  -6  -8   22.40    7.00
   3  -6  -8   24.60   10.50
   3  -6  -8   17.50    7.40
  -3   6   8   20.20   11.20
  -3   6   8   11.10    6.90
  -3   6   8   22.10    7.50
  -3   6   8   24.90    8.70
   2  -6  -8  149.29   21.40
   2  -6  -8   92.69   21.20
   2  -6  -8  116.19   20.30
   2  -6  -8  124.59   22.20
  -2   6   8  110.39   22.60
  -2   6   8  117.89   20.60
  -2   6   8  116.29   21.80
  -2   6   8  112.79   20.30
  -2   6   8  118.09   21.40
   1  -6  -8   -2.70    5.50
   1  -6  -8    5.10    8.50
   1  -6  -8    0.00    5.30
   1  -6  -8    3.50    7.10
  -1   6   8    2.80    4.60
  -1   6   8    0.60    2.60
  -1   6   8    0.80    6.20
  -1   6   8    3.70    7.30
  -1   6   8   -6.20   11.00
   0  -6  -8    5.60    6.30
   0  -6  -8    5.20    9.40
   0  -6  -8   15.50    7.80
   0  -6  -8    6.30    7.60
   0   6   8   -5.90    6.70
   0   6   8    9.00    6.10
   0   6   8    8.90   10.60
   0   6   8   14.60    7.80
  -1  -6  -8   60.49   14.10
  -1  -6  -8   66.99   15.30
   1   6   8   70.09   14.10
   1   6   8   55.69   17.90
   1   6   8   79.39   15.20
   1   6   8   75.09   14.50
  -2  -6  -8   -8.10    9.70
  -2  -6  -8   -4.40    8.50
  -2  -6  -8  -15.40   12.00
   2   6   8   -1.10    8.40
   2   6   8    2.50    9.50
   2   6   8    9.70   16.50
   2   6   8   -7.40    8.50
  -3  -6  -8   -2.40   10.10
  -3  -6  -8   15.50   13.60
   3   6   8    8.00   10.50
   3   6   8   18.00   12.20
   7  -7  -8    2.00   13.70
   7  -7  -8   11.50   12.40
  -7   7   8    1.00   19.40
  -7   7   8   -4.10   11.90
   6  -7  -8   20.40   10.80
   6  -7  -8   10.40   10.30
   6  -7  -8   21.40   11.10
  -6   7   8    8.90   16.80
  -6   7   8    7.70   10.60
   5  -7  -8  228.58   31.40
   5  -7  -8  178.58   29.80
   5  -7  -8  204.38   30.50
  -5   7   8  187.48   30.30
  -5   7   8  108.19   30.40
  -5   7   8   74.29   31.70
   4  -7  -8   26.80   14.20
   4  -7  -8   28.90    8.50
   4  -7  -8   30.00    9.10
   4  -7  -8   28.60   10.10
  -4   7   8   36.80    9.20
  -4   7   8    6.90   16.40
  -4   7   8    9.40    9.90
  -4   7   8   14.70   11.00
   3  -7  -8   41.10   10.20
   3  -7  -8   49.70   14.20
   3  -7  -8   45.70   11.00
  -3   7   8   45.10   10.20
  -3   7   8   33.10   11.90
  -3   7   8   29.80   15.20
  -3   7   8   34.30   10.60
   2  -7  -8   60.69   13.40
   2  -7  -8   57.19   11.30
   2  -7  -8   67.89   12.80
   2  -7  -8   71.29   15.50
  -2   7   8   52.69   11.50
  -2   7   8   56.69   14.00
  -2   7   8   57.19   12.90
  -2   7   8   51.99   16.70
   1  -7  -8  172.58   28.60
   1  -7  -8  170.88   29.50
   1  -7  -8  162.08   27.70
   1  -7  -8  155.18   28.10
  -1   7   8  163.78   28.30
  -1   7   8  135.69   30.30
  -1   7   8  150.88   27.50
  -1   7   8  142.09   28.60
   0  -7  -8   20.90   12.40
   0  -7  -8   22.00    9.70
   0  -7  -8    7.30    8.30
   0  -7  -8   17.10    9.10
   0   7   8   25.20   14.00
   0   7   8    8.40    9.80
   0   7   8   17.10    8.70
   0   7   8   22.60    7.50
  -1  -7  -8  -10.50   10.10
  -1  -7  -8    2.60    8.50
   1   7   8   17.30    8.70
   1   7   8  -15.80   16.50
   1   7   8  -10.60    9.30
   1   7   8   -1.40    9.60
  -2  -7  -8    7.00    9.90
  -2  -7  -8   -9.60   12.60
   2   7   8    3.90   11.60
   2   7   8    9.60   10.40
   2   7   8   10.00   10.90
   6  -8  -8   -1.00   11.50
   6  -8  -8  -10.70   11.00
   6  -8  -8    4.80   12.00
  -6   8   8  -10.20   19.00
  -6   8   8    3.00   11.40
   5  -8  -8   25.70   10.50
   5  -8  -8   26.40   11.10
   5  -8  -8   13.90   11.30
  -5   8   8   37.80   11.90
  -5   8   8   17.70   17.50
   4  -8  -8  867.71  138.09
   4  -8  -8  858.01  137.79
   4  -8  -8  816.82  137.39
  -4   8   8  690.33  137.99
  -4   8   8  824.42  137.79
   3  -8  -8   32.10    9.50
  -3   8   8   10.50    9.30
  -3   8   8    8.20   15.90
  -3   8   8   21.00    9.00
  -3   8   8   17.20   11.80
   2  -8  -8   -3.60    9.70
   2  -8  -8    8.50    6.20
   2  -8  -8    9.00    8.50
  -2   8   8   -5.30    8.50
  -2   8   8    8.30    6.10
  -2   8   8    8.50   16.10
  -2   8   8    0.00   10.40
   1  -8  -8   33.80   11.20
   1  -8  -8   46.10   11.90
   1  -8  -8   45.20   12.90
  -1   8   8   33.50   18.00
  -1   8   8   47.80   13.00
  -1   8   8   36.90   10.00
  -1   8   8   42.50   12.10
   0  -8  -8   39.10   14.30
   0  -8  -8   43.00   15.10
   0   8   8   56.09   20.30
   0   8   8   86.39   14.20
   0   8   8   39.90   15.10
   0   8   8   65.19   13.10
  -1  -8  -8   -2.00   12.80
  -1  -8  -8    3.70   10.70
   1   8   8   13.40   12.50
   1   8   8   -0.60    9.90
   5  -9  -8    4.20   11.50
   5  -9  -8   22.80   10.90
   5  -9  -8   -5.00   12.90
  -5   9   8    2.00   19.70
  -5   9   8    7.80   13.10
   4  -9  -8    9.80   11.20
   4  -9  -8   20.20   11.30
   4  -9  -8   24.60   12.70
  -4   9   8   22.40   15.50
  -4   9   8   -2.50   13.60
   3  -9  -8    5.40    4.70
   3  -9  -8    3.70    9.90
  -3   9   8    4.70   11.90
  -3   9   8   14.10   10.30
   2  -9  -8   11.00    8.00
   2  -9  -8   -4.20   11.90
   2  -9  -8   -1.90   10.00
  -2   9   8   11.60   11.10
  -2   9   8   18.70    7.20
  -2   9   8  -17.40   11.80
   1  -9  -8   18.80   11.00
   1  -9  -8   -0.30   12.30
   1  -9  -8   29.30   11.10
  -1   9   8   -7.20   12.80
   0  -9  -8   16.50   14.50
   0  -9  -8    4.70   11.60
   0   9   8   17.10   12.10
   0   9   8    2.60   14.10
   0   9   8    8.90   10.30
   1  12  -9    3.30   12.00
   1  12  -9   20.10   14.80
  -1 -12   9   -6.00   11.40
  -1 -12   9    1.80   11.20
   0  12  -9  -11.10   16.30
   0  12  -9   24.70   12.30
   0 -12   9    7.10   10.70
   0 -12   9   36.50   12.50
   0 -12   9    0.60    9.30
  -1  12  -9    2.40   13.80
  -1  12  -9   -1.00   11.50
   1 -12   9   -0.40   10.90
   1 -12   9   -2.80   10.60
   1 -12   9    6.30    9.60
  -2  12  -9    7.30   12.80
  -2  12  -9  -18.00   13.10
   2 -12   9   35.00   12.60
   2 -12   9  -12.80   11.90
   2 -12   9    8.80   11.20
   2 -12   9   12.80   10.20
   3  11  -9   -0.80   11.40
   3  11  -9   16.20   14.50
  -3 -11   9   11.10   11.40
  -3 -11   9  -10.10   12.90
  -3 -11   9   17.30   11.60
   2  11  -9   25.70   11.20
   2  11  -9  -11.40   12.40
   2  11  -9    3.60   14.90
  -2 -11   9   22.10   13.60
  -2 -11   9   25.40   10.80
  -2 -11   9   18.80   10.70
  -2 -11   9   18.20    9.60
   1  11  -9   -9.90   13.40
   1  11  -9   -4.80    9.40
  -1 -11   9   13.60    8.10
  -1 -11   9    7.40    9.50
  -1 -11   9   20.80   10.40
  -1 -11   9   13.40   11.00
   0  11  -9    4.70    9.40
   0  11  -9    8.20    9.40
   0 -11   9   -7.30   10.70
   0 -11   9   -2.10    8.50
   0 -11   9    5.50    7.50
   0 -11   9   -1.80    9.60
  -1  11  -9    5.10    9.30
   1 -11   9    2.60    9.70
   1 -11   9    0.80    7.90
   1 -11   9   -0.40   10.30
   1 -11   9   -5.80    9.00
   1 -11   9    4.20   10.20
  -2  11  -9   42.60   13.50
   2 -11   9   38.20   14.80
   2 -11   9   61.39   14.30
   2 -11   9   35.80   13.80
   2 -11   9   51.89   12.40
   2 -11   9   71.29   14.20
  -3  11  -9    8.20   11.90
   3 -11   9   16.00   11.20
   3 -11   9    5.90    9.50
   3 -11   9   -1.60   15.80
   3 -11   9   -5.70   10.90
   4 -11   9   74.69   15.70
   4 -11   9   45.70   16.80
   4  10  -9   16.50   12.40
   4  10  -9   13.50   11.70
  -4 -10   9   -7.90   17.70
  -4 -10   9   -3.20   11.50
  -4 -10   9   10.60   12.30
   3  10  -9   15.50   11.90
   3  10  -9   21.50   14.80
   3  10  -9   17.90    9.90
  -3 -10   9    7.70   10.30
  -3 -10   9   32.20   10.70
  -3 -10   9   21.70   12.80
  -3 -10   9   30.40   10.70
   2  10  -9   79.09   13.10
   2  10  -9   21.10   13.00
  -2 -10   9   70.09   13.70
  -2 -10   9   65.59   13.80
  -2 -10   9   48.40   11.80
  -2 -10   9   44.80   12.70
   1  10  -9   35.40   13.20
  -1 -10   9   41.20   11.30
  -1 -10   9   37.70   10.40
  -1 -10   9   30.70   10.90
  -1 -10   9   36.40    9.30
   0  10  -9  305.37   51.09
   0 -10   9  271.07   50.99
   0 -10   9  334.77   52.19
   0 -10   9  283.47   51.49
  -1  10  -9    2.00    7.80
   1 -10   9    0.60    6.90
   1 -10   9   -3.90    8.60
   1 -10   9   -9.80    7.70
   1 -10   9    4.30    8.10
  -2  10  -9   88.19   18.10
   2 -10   9   86.19   18.10
   2 -10   9   86.29   17.50
   2 -10   9  106.19   19.00
   2 -10   9   82.89   18.60
   2 -10   9  101.19   18.70
  -3  10  -9   14.10    9.50
   3 -10   9   -7.70    9.70
   3 -10   9   -0.20   10.80
   3 -10   9   -5.10    7.90
   3 -10   9    5.20   10.00
   3 -10   9    3.60    9.30
  -4  10  -9   -5.40   11.50
   4 -10   9   -6.10   11.20
   4 -10   9    5.50   11.10
   4 -10   9  -10.40   17.00
   4 -10   9    1.10    8.90
   5   9  -9    3.70   11.90
   5   9  -9   -7.00   12.00
  -5  -9   9  -12.60   13.10
  -5  -9   9   10.50   14.60
  -5  -9   9    0.10   11.90
   4   9  -9   -2.50   14.50
   4   9  -9    1.40   10.10
   4   9  -9   -6.80   10.00
  -4  -9   9   19.30   11.10
  -4  -9   9    0.30    9.50
  -4  -9   9   -8.20   10.10
  -4  -9   9   17.50   12.50
   3   9  -9   31.60   10.20
   3   9  -9   23.70   11.80
   3   9  -9   33.60   14.00
  -3  -9   9   26.30   10.30
  -3  -9   9   51.09   11.20
  -3  -9   9   49.80   11.90
  -3  -9   9   29.50   10.40
   2   9  -9    9.90    7.40
  -2  -9   9    9.50    7.40
  -2  -9   9   10.00    7.90
  -2  -9   9    9.10    6.60
  -2  -9   9   10.80    7.80
   1   9  -9   32.30    8.80
  -1  -9   9   26.50    8.60
  -1  -9   9   37.10    9.60
  -1  -9   9   29.30   11.40
  -1  -9   9   35.00    8.90
  -1  -9   9   33.30    8.00
   0   9  -9   11.50    6.80
   0  -9   9   16.10    7.10
   0  -9   9   13.90    9.80
   0  -9   9   13.30    7.30
   0  -9   9   19.90    7.00
  -1   9  -9   52.39   11.30
   1  -9   9   53.39   12.30
   1  -9   9   64.69   14.30
   1  -9   9   40.30   11.80
   1  -9   9   57.29   11.30
   1  -9   9   54.39   11.80
   1  -9   9   40.90   11.20
  -2   9  -9   23.10    7.70
   2  -9   9   -7.20    7.70
   2  -9   9   32.60    6.70
   2  -9   9    9.90    8.30
   2  -9   9    7.80    7.70
   2  -9   9    8.90    7.70
  -3   9  -9   -8.00    8.10
   3  -9   9    3.10    8.60
   3  -9   9    4.30    8.60
   3  -9   9   -5.00    8.90
   3  -9   9    2.70    7.00
   3  -9   9   -5.30    8.20
  -4   9  -9   30.20   10.90
   4  -9   9    4.00   10.50
   4  -9   9   17.70   10.20
   4  -9   9   14.30   10.30
   4  -9   9   25.50    8.70
   4  -9   9   31.20   12.70
  -5   9  -9    7.20   12.00
   5  -9   9    3.60    9.60
   5  -9   9   -0.40   11.50
   5  -9   9    9.20   12.60
   5  -9   9   -3.10   11.30
   5   8  -9   16.20   17.20
   5   8  -9   21.60   10.60
   5   8  -9   20.40   10.80
  -5  -8   9   21.10   12.00
  -5  -8   9    6.60   14.40
  -5  -8   9    1.50   10.00
  -5  -8   9   26.90   11.40
   4   8  -9    4.10    8.10
   4   8  -9   -0.30   11.70
   4   8  -9    6.90    8.70
  -4  -8   9   -4.50    9.70
  -4  -8   9   30.00    9.50
  -4  -8   9    3.50    8.30
  -4  -8   9    2.70    9.30
   3   8  -9   12.90    6.60
   3   8  -9   10.90    6.90
   3   8  -9    2.10    7.70
  -3  -8   9    6.70    8.00
  -3  -8   9    5.50    7.10
  -3  -8   9   12.10    7.50
  -3  -8   9   10.00    8.50
   2   8  -9  306.27   55.59
  -2  -8   9  325.77   55.69
  -2  -8   9  318.37   55.79
  -2  -8   9  320.87   55.59
  -2  -8   9  352.06   56.09
  -2  -8   9  335.97   56.59
   1   8  -9   27.20    9.70
   1   8  -9   26.80    7.10
  -1  -8   9   21.80    7.70
  -1  -8   9   31.10    6.60
  -1  -8   9   23.70    7.00
  -1  -8   9   19.60    7.10
  -1  -8   9   34.80    9.20
   0   8  -9   19.30    8.50
   0   8  -9   18.50    6.10
   0  -8   9   17.40    6.10
   0  -8   9   22.40    6.60
   0  -8   9   17.10    7.10
   0  -8   9   27.10    8.50
  -1   8  -9   16.90    7.50
  -1   8  -9    6.10    5.50
   1  -8   9    3.20    5.00
   1  -8   9    3.00    8.70
   1  -8   9   11.40    6.90
   1  -8   9    1.10    5.20
   1  -8   9   10.30    5.50
   1  -8   9    2.90    6.50
  -2   8  -9  107.79   20.80
   2  -8   9   90.69   21.10
   2  -8   9  136.89   20.80
   2  -8   9  123.69   21.20
   2  -8   9   71.59   23.10
   2  -8   9  112.19   21.40
   2  -8   9  131.59   20.70
  -3   8  -9   61.59   12.50
   3  -8   9   68.49   13.40
   3  -8   9   52.49   17.90
   3  -8   9   42.80   12.60
   3  -8   9   46.50   12.50
   3  -8   9   53.49   11.60
   3  -8   9   77.09   12.90
  -4   8  -9   -4.40    8.70
   4  -8   9   11.10    9.30
   4  -8   9    1.90    7.30
   4  -8   9   15.60    8.90
   4  -8   9   -5.90    8.50
  -5   8  -9    8.30   11.90
   5  -8   9  -12.30    8.30
   5  -8   9   -4.80   10.90
   5  -8   9   -2.60    9.90
   5  -8   9   12.00   11.50
   5  -8   9   15.60   22.90
   6   7  -9  -12.80   21.00
   6   7  -9    4.40   12.00
   6   7  -9    3.70   11.40
  -6  -7   9   27.10   12.10
  -6  -7   9   21.70   12.60
  -6  -7   9   -0.60   15.90
   5   7  -9  256.07   41.30
   5   7  -9  154.58   42.00
   5   7  -9  302.77   41.20
  -5  -7   9  208.28   41.40
  -5  -7   9  221.38   41.40
  -5  -7   9  236.58   41.80
   4   7  -9  160.88   43.90
   4   7  -9  232.38   45.30
   4   7  -9  259.27   43.70
  -4  -7   9  257.77   43.60
  -4  -7   9  323.17   44.20
  -4  -7   9  288.17   43.80
   3   7  -9  164.18   24.60
  -3  -7   9  113.39   24.60
  -3  -7   9  134.09   24.40
  -3  -7   9  137.09   24.60
  -3  -7   9  126.89   24.50
  -3  -7   9  149.59   25.40
   2   7  -9  153.48   25.40
   2   7  -9  175.28   26.10
  -2  -7   9  174.88   26.10
  -2  -7   9  148.09   25.90
  -2  -7   9  139.59   25.60
  -2  -7   9  124.09   25.30
  -2  -7   9  130.09   25.30
   1   7  -9   24.20    5.60
  -1  -7   9    9.00    5.00
  -1  -7   9   25.10    5.90
  -1  -7   9   10.30    6.70
  -1  -7   9   24.20    5.10
  -1  -7   9   12.20    6.70
   0   7  -9   26.00    7.80
   0   7  -9   28.70    6.20
   0  -7   9   28.70    6.00
   0  -7   9   27.60    7.80
   0  -7   9   22.00    5.90
   0  -7   9   27.00    6.50
   0  -7   9   22.30    7.60
  -1   7  -9  408.26   70.19
   1  -7   9  370.96   70.29
   1  -7   9  419.16   70.59
   1  -7   9  411.26   70.79
   1  -7   9  481.75   71.99
   1  -7   9  421.86   70.09
   1  -7   9  432.16   70.09
  -2   7  -9  138.79   19.60
  -2   7  -9   97.79   19.90
   2  -7   9   94.89   20.30
   2  -7   9  103.49   20.00
   2  -7   9  106.39   19.70
   2  -7   9  155.28   20.70
   2  -7   9   96.89   19.30
   2  -7   9   99.69   19.20
  -3   7  -9  284.47   50.39
   3  -7   9  295.77   50.49
   3  -7   9  297.87   50.69
   3  -7   9  293.17   50.69
   3  -7   9  297.47   50.19
   3  -7   9  258.57   50.79
   3  -7   9  331.77   50.89
  -4   7  -9   24.10    8.70
   4  -7   9   11.70    7.40
   4  -7   9   23.60   11.80
   4  -7   9   21.80    9.30
   4  -7   9   24.50    8.60
   4  -7   9   17.80    9.30
  -5   7  -9   36.40   13.50
   5  -7   9   61.89   13.50
   5  -7   9   47.70   12.10
   5  -7   9   56.29   14.20
   5  -7   9   58.89   13.80
   5  -7   9   42.30   15.70
   6   6  -9   53.59   24.20
   6   6  -9  101.69   16.60
   6   6  -9   98.39   16.30
  -6  -6   9   71.09   18.00
  -6  -6   9   14.60   16.70
   5   6  -9  865.11  138.89
   5   6  -9  804.42  139.09
   5   6  -9  713.43  139.19
  -5  -6   9  824.62  139.19
  -5  -6   9  905.51  139.29
   4   6  -9   64.39    8.20
   4   6  -9   40.30    8.40
   4   6  -9    3.30    8.60
  -4  -6   9   12.50   10.20
  -4  -6   9   26.40    8.70
  -4  -6   9   32.00   11.00
  -4  -6   9   18.90    9.50
   3   6  -9    2.40    4.70
   3   6  -9    2.20    7.10
  -3  -6   9    6.40    4.80
  -3  -6   9   -4.70    5.50
  -3  -6   9    3.10    6.80
  -3  -6   9    5.30    6.40
  -3  -6   9    3.60    5.10
   2   6  -9  275.07   45.20
   2   6  -9  237.48   44.80
  -2  -6   9  281.47   45.30
  -2  -6   9  252.17   45.20
  -2  -6   9  295.07   45.00
  -2  -6   9  234.08   45.30
  -2  -6   9  248.48   44.70
  -2  -6   9  278.87   44.80
   1   6  -9  128.29   18.70
  -1  -6   9  104.89   18.40
  -1  -6   9  103.59   18.20
  -1  -6   9  103.39   19.10
  -1  -6   9   92.19   18.20
  -1  -6   9  109.09   18.70
   0   6  -9  342.97   56.49
   0  -6   9  354.16   56.69
   0  -6   9  321.87   56.69
   0  -6   9  301.77   56.09
   0  -6   9  318.57   56.39
   0  -6   9  331.37   56.79
   0  -6   9  364.26   56.19
  -1   6  -9   -0.60    4.60
  -1   6  -9   -2.40    6.60
   1  -6   9    3.00    3.20
   1  -6   9   -2.50    5.30
   1  -6   9    9.50    5.10
   1  -6   9    4.10    5.20
   1  -6   9   -0.90    2.90
   1  -6   9    4.20    3.90
  -2   6  -9  242.28   43.60
   2  -6   9  277.17   44.00
   2  -6   9  271.47   44.10
   2  -6   9  247.48   43.50
   2  -6   9  266.57   43.50
   2  -6   9  269.67   44.90
   2  -6   9  227.38   43.80
  -3   6  -9   -6.90    5.50
   3  -6   9   -1.90    5.60
   3  -6   9    7.60    6.10
   3  -6   9    7.50    6.90
   3  -6   9   22.80    6.80
   3  -6   9   -1.30    4.70
   3  -6   9    2.80    8.30
  -4   6  -9   27.70    9.80
   4  -6   9   47.10   10.30
   4  -6   9   42.00    9.30
   4  -6   9   34.70   10.60
   4  -6   9   35.40   10.20
   4  -6   9   41.20   10.50
  -5   6  -9    0.10   10.00
   5  -6   9    3.60   11.10
   5  -6   9    3.60    9.50
   5  -6   9    2.70    7.30
   5  -6   9   -3.20    9.90
   5  -6   9    5.50    9.50
  -6   6  -9    8.70   14.00
   6  -6   9    1.50   12.00
   6  -6   9    3.10   12.50
   7   5  -9   12.70   11.50
   7   5  -9   12.70   12.20
  -7  -5   9   23.50   17.20
  -7  -5   9   -9.40   13.80
   6   5  -9   23.10   10.30
   6   5  -9   30.40   15.60
   6   5  -9   24.90    9.60
  -6  -5   9   25.10   11.40
  -6  -5   9   14.60   14.50
  -6  -5   9   25.10   11.90
   5   5  -9   29.90    8.50
   5   5  -9   42.50   10.20
   5   5  -9   14.30   10.80
  -5  -5   9   28.70   13.10
  -5  -5   9   30.40    9.20
  -5  -5   9   15.70    9.50
   4   5  -9  229.38   39.10
  -4  -5   9  188.88   38.70
  -4  -5   9  233.28   38.80
  -4  -5   9  262.87   40.40
  -4  -5   9  213.48   39.30
  -4  -5   9  222.78   39.10
  -4  -5   9  254.27   39.30
   3   5  -9  179.98   35.20
   3   5  -9  268.67   35.90
  -3  -5   9  234.48   35.70
  -3  -5   9  182.58   35.10
  -3  -5   9  213.38   35.40
  -3  -5   9  186.08   35.10
  -3  -5   9  213.58   35.60
   2   5  -9  127.19   18.70
  -2  -5   9  103.39   21.40
  -2  -5   9   95.29   18.30
  -2  -5   9  106.39   19.10
  -2  -5   9  101.89   18.60
   1   5  -9  123.49   21.80
   1   5  -9  157.98   22.00
  -1  -5   9  116.59   21.70
  -1  -5   9  106.79   22.40
  -1  -5   9  153.08   22.10
  -1  -5   9  109.79   22.00
   0   5  -9  143.59   21.00
   0   5  -9  106.29   20.90
   0  -5   9  139.29   21.70
   0  -5   9  102.79   20.60
   0  -5   9  148.89   21.90
   0  -5   9  119.19   21.10
   0  -5   9  137.09   20.70
   0  -5   9  127.79   21.10
  -1   5  -9  174.28   30.10
  -1   5  -9  175.98   29.60
  -1   5  -9  164.78   29.40
   1  -5   9  175.28   29.70
   1  -5   9  155.58   29.30
   1  -5   9  185.28   30.10
   1  -5   9  167.58   30.00
   1  -5   9  188.08   29.40
   1  -5   9  181.08   30.10
  -2   5  -9  148.59   26.30
  -2   5  -9  164.38   26.30
  -2   5  -9  139.19   27.00
   2  -5   9  121.99   26.70
   2  -5   9  185.48   26.90
   2  -5   9  136.39   26.70
   2  -5   9  142.59   26.30
   2  -5   9  164.08   26.50
   2  -5   9  157.18   26.40
  -3   5  -9  109.59   20.50
  -3   5  -9  108.69   19.60
  -3   5  -9  131.89   20.00
   3  -5   9  124.09   19.60
   3  -5   9  118.39   20.10
   3  -5   9  134.29   20.80
   3  -5   9   92.59   19.50
   3  -5   9   81.79   19.80
   3  -5   9  101.09   19.90
  -4   5  -9   22.20    9.40
   4  -5   9   32.50    8.30
   4  -5   9   52.09   12.80
   4  -5   9   35.00    9.40
   4  -5   9   39.40    9.70
   4  -5   9   23.50   12.60
   4  -5   9   30.30    9.70
  -5   5  -9   37.10   11.70
   5  -5   9   35.70   11.20
   5  -5   9   28.30   11.00
   5  -5   9   15.70   11.30
   5  -5   9   64.69   13.50
   5  -5   9   44.60   10.10
  -6   5  -9   26.00   14.30
   6  -5   9   25.70   12.70
   6  -5   9   28.30   11.60
   6  -5   9   22.10   12.00
   6  -5   9    9.00   12.70
   7   4  -9   -0.30   10.90
   7   4  -9  -21.50   19.90
   7   4  -9   -3.00   10.90
  -7  -4   9   58.99   15.80
  -7  -4   9   -2.40   11.90
  -7  -4   9    9.80   17.40
   6   4  -9   20.20   13.60
   6   4  -9   25.60    9.10
   6   4  -9   28.50    9.60
  -6  -4   9   16.80   10.90
  -6  -4   9   11.10   12.90
  -6  -4   9   17.80   10.30
   5   4  -9   73.89   15.20
   5   4  -9   51.99   15.80
   5   4  -9  106.69   15.00
  -5  -4   9   67.19   15.60
  -5  -4   9   82.69   16.20
  -5  -4   9   82.09   17.00
  -5  -4   9   71.59   15.70
  -5  -4   9   85.99   17.00
   4   4  -9   25.50    6.30
   4   4  -9    7.60    7.90
  -4  -4   9   28.50    6.40
  -4  -4   9   21.80    6.90
  -4  -4   9   20.60    7.80
  -4  -4   9   17.30    7.80
   3   4  -9   89.69   13.90
   3   4  -9   74.89   13.40
  -3  -4   9   81.99   14.00
  -3  -4   9   63.79   13.50
  -3  -4   9   64.39   13.30
  -3  -4   9   98.99   14.40
  -3  -4   9   55.09   13.80
  -3  -4   9   88.69   14.40
   2   4  -9   10.50    3.60
   2   4  -9    4.70    2.70
  -2  -4   9    2.50    4.70
  -2  -4   9    3.80    2.80
  -2  -4   9    6.60    2.20
  -2  -4   9    5.50    3.40
  -2  -4   9    6.40    4.40
  -1  -4   9  425.86   70.69
  -1  -4   9  389.16   70.69
  -1  -4   9  425.76   70.29
   0  -4   9    1.30    2.70
   0  -4   9   -3.30    3.80
   0  -4   9    2.40    2.00
   0  -4   9    6.30    4.10
  -1   4  -9  132.19   24.60
  -1   4  -9  141.29   24.10
  -1   4  -9  128.89   24.00
   1  -4   9  152.28   24.30
   1  -4   9  176.18   24.90
   1  -4   9  133.89   24.20
   1  -4   9  153.38   24.60
   1  -4   9  121.59   23.80
   1  -4   9  165.18   23.90
  -2   4  -9  572.14   96.69
  -2   4  -9  577.34   96.39
   2  -4   9  521.75   96.19
   2  -4   9  566.64   96.79
   2  -4   9  566.24   96.49
   2  -4   9  601.34   96.59
   2  -4   9  548.15   96.59
   2  -4   9  623.94   96.29
  -3   4  -9  978.30  168.68
  -3   4  -9 1079.39  168.58
  -3   4  -9  978.70  168.38
   3  -4   9  993.00  168.78
   3  -4   9 1072.69  168.38
   3  -4   9  984.00  168.48
   3  -4   9  973.60  168.58
   3  -4   9  931.81  168.38
   3  -4   9 1001.30  168.78
  -4   4  -9   36.50   10.20
  -4   4  -9   23.50    8.70
   4  -4   9   29.80    9.30
   4  -4   9   29.70    8.30
   4  -4   9   35.00    8.00
   4  -4   9   15.30    8.90
   4  -4   9   30.20    8.80
   4  -4   9   31.80   11.90
  -5   4  -9   55.79   14.20
   5  -4   9   37.10   13.40
   5  -4   9   63.49   12.60
   5  -4   9   64.79   15.30
   5  -4   9   62.29   12.90
   5  -4   9   48.10   13.70
  -6   4  -9   -3.50   14.40
  -6   4  -9   10.30    8.70
   6  -4   9    1.70   10.40
   6  -4   9   -2.20   12.10
   6  -4   9   -4.10   10.50
   6  -4   9    1.70   11.30
   7   3  -9    2.90    9.60
   7   3  -9    0.80   17.80
   7   3  -9    5.90    9.90
  -7  -3   9   -1.90   13.90
  -7  -3   9   15.40   11.40
   6   3  -9    5.00   11.60
   6   3  -9    3.20    7.40
   6   3  -9   -2.00    7.50
  -6  -3   9    0.10    8.60
  -6  -3   9   -0.90    8.70
  -6  -3   9   -4.60    9.30
  -6  -3   9    3.80   10.40
   5   3  -9   60.49    9.40
   5   3  -9   32.50   10.30
   5   3  -9   27.70    9.40
  -5  -3   9   54.99   10.30
  -5  -3   9   39.10   10.30
  -5  -3   9   46.20   10.00
  -5  -3   9   34.50   10.80
  -5  -3   9   46.20   11.70
   4   3  -9    7.90    4.40
   4   3  -9   10.20    6.40
  -4  -3   9   -2.50    5.00
  -4  -3   9    7.90    4.70
  -4  -3   9    8.60    5.80
  -4  -3   9   26.40    6.30
   3   3  -9  123.69   19.00
   3   3  -9   94.09   18.60
  -3  -3   9  106.59   19.00
  -3  -3   9  106.49   18.60
  -3  -3   9  119.59   18.80
  -3  -3   9  107.09   19.00
  -3  -3   9  102.49   19.10
   2   3  -9   35.90    6.70
   2   3  -9   40.00    7.00
  -2  -3   9   45.70    7.20
  -2  -3   9   39.40    7.30
  -2  -3   9   18.00    7.70
  -1  -3   9 1261.37  213.68
  -1  -3   9 1275.57  213.58
   0  -3   9    1.40    3.60
   0  -3   9    0.10    3.70
  -1   3  -9    1.10    2.50
  -1   3  -9    2.90    2.20
  -1   3  -9    5.10    4.70
   1  -3   9   -4.00    3.50
   1  -3   9   -0.20    2.90
   1  -3   9    1.80    4.50
   1  -3   9    3.70    3.40
  -2   3  -9    1.00    6.70
  -2   3  -9    1.10    5.20
  -2   3  -9    2.40    4.20
   2  -3   9   -1.30    3.90
   2  -3   9    3.30    5.30
   2  -3   9    4.50    5.30
   2  -3   9    2.40    3.10
   2  -3   9    2.20    3.10
   2  -3   9   -0.70    4.00
  -3   3  -9  285.07   49.10
  -3   3  -9  258.97   49.00
  -3   3  -9  261.67   49.20
   3  -3   9  273.77   48.90
   3  -3   9  281.27   49.20
   3  -3   9  296.87   49.20
   3  -3   9  303.37   49.90
   3  -3   9  298.27   48.80
   3  -3   9  307.17   48.90
  -4   3  -9   16.30   10.70
  -4   3  -9   39.20   10.60
   4  -3   9   38.10   10.70
   4  -3   9   56.49   11.00
   4  -3   9   51.39    9.60
   4  -3   9   63.69   13.40
   4  -3   9   31.80   10.10
   4  -3   9   42.10    9.90
  -5   3  -9    2.10   10.70
  -5   3  -9   11.60    6.00
  -5   3  -9   21.60    6.30
   5  -3   9    2.70   11.70
   5  -3   9   14.90    9.80
   5  -3   9    7.50    9.10
   5  -3   9   26.30    8.30
   5  -3   9   14.20    8.30
  -6   3  -9   -1.90    8.80
   6  -3   9   -2.70   11.40
   6  -3   9    0.80   11.90
   6  -3   9   -7.20   10.50
   8   2  -9   -2.30   12.10
   8   2  -9  -13.20   12.30
  -8  -2   9   -9.10   17.70
   7   2  -9    2.10    9.50
   7   2  -9   36.20   16.40
   7   2  -9   13.20    9.90
  -7  -2   9   -6.30   12.40
  -7  -2   9   11.60   10.80
  -7  -2   9    9.90   13.00
  -7  -2   9   17.50   10.80
   6   2  -9    5.50   10.60
   6   2  -9   11.30    7.00
   6   2  -9    2.10    6.90
  -6  -2   9    7.90    8.30
  -6  -2   9  -16.50   11.40
  -6  -2   9    4.10    8.00
  -6  -2   9   -5.00    7.10
   5   2  -9  125.49   23.70
   5   2  -9  173.48   23.50
   5   2  -9  149.49   23.70
  -5  -2   9  105.19   23.70
  -5  -2   9  139.59   23.70
  -5  -2   9  107.69   23.70
  -5  -2   9  128.49   24.40
  -5  -2   9  118.79   24.30
   4   2  -9  196.28   34.70
   4   2  -9  239.58   34.90
  -4  -2   9  189.58   34.80
  -4  -2   9  189.08   34.60
  -4  -2   9  204.58   34.60
  -4  -2   9  177.08   35.10
  -4  -2   9  206.58   34.90
  -4  -2   9  207.68   34.90
   3   2  -9   88.19   14.50
  -3  -2   9   84.89   14.80
  -3  -2   9   76.09   14.60
  -3  -2   9   87.59   14.70
  -3  -2   9   87.19   14.40
  -3  -2   9   69.29   14.30
   2   2  -9  179.78   26.50
   2   2  -9  133.59   26.20
  -2  -2   9  172.88   26.80
  -2  -2   9  158.78   26.60
  -2  -2   9  147.99   26.90
  -2  -2   9  162.28   26.50
  -1  -2   9  375.96   62.39
  -1  -2   9  360.16   62.49
   0  -2   9  154.58   27.90
   0  -2   9  168.88   27.90
  -1   2  -9    8.30    3.50
  -1   2  -9   19.20    3.70
   1  -2   9    8.50    4.80
   1  -2   9    8.30    4.70
   1  -2   9   12.50    2.60
   1  -2   9   12.30    3.80
   1  -2   9   13.80    4.40
   1  -2   9   14.70    2.90
  -2   2  -9    1.60    4.60
  -2   2  -9   -3.90    6.60
  -2   2  -9   -0.80    4.30
  -2   2  -9    1.20    4.20
   2  -2   9   -3.50    4.30
   2  -2   9   -3.10    4.80
   2  -2   9    2.40    3.90
   2  -2   9    6.10    3.20
   2  -2   9    0.10    5.40
  -3   2  -9   18.60    6.90
  -3   2  -9    9.90    7.10
  -3   2  -9   39.60    7.80
   3  -2   9   29.10    6.20
   3  -2   9   18.50    7.40
   3  -2   9   22.20    6.90
   3  -2   9   20.70    6.80
   3  -2   9   17.40    6.20
   3  -2   9   33.00    9.30
  -4   2  -9    7.00    7.10
  -4   2  -9    4.60    8.30
   4  -2   9   12.10    8.30
   4  -2   9    4.20    7.30
   4  -2   9    3.30   14.40
   4  -2   9    5.50    7.20
   4  -2   9   12.20    6.00
   4  -2   9    6.40    5.90
  -5   2  -9   46.00   10.80
  -5   2  -9   24.30   11.30
  -5   2  -9   -3.10   12.20
  -5   2  -9   49.99    8.90
   5  -2   9   34.90   11.50
   5  -2   9   38.60   13.70
   5  -2   9   24.40    9.80
   5  -2   9   28.70   11.90
   5  -2   9   38.10    9.90
  -6   2  -9   -1.60    9.70
   6  -2   9    6.00   12.70
   6  -2   9    3.80    9.90
   6  -2   9    3.30   10.20
   8   1  -9   38.40   13.40
  -8  -1   9   30.90   15.10
  -8  -1   9   37.00   23.20
   7   1  -9   -0.70    8.60
   7   1  -9   12.20   17.40
   7   1  -9   -5.50    8.90
  -7  -1   9   10.00   12.30
  -7  -1   9    3.00   13.00
  -7  -1   9   -0.80    9.00
  -7  -1   9   24.60    9.90
   6   1  -9   -5.80   10.50
   6   1  -9   -1.90    6.90
   6   1  -9   -7.00    6.40
  -6  -1   9   -7.50   11.50
  -6  -1   9    6.20    7.60
  -6  -1   9   -1.00    5.90
  -6  -1   9   -2.60    8.20
   5   1  -9  265.07   45.90
   5   1  -9  278.57   45.60
   5   1  -9  264.37   45.90
  -5  -1   9  293.97   46.10
  -5  -1   9  267.47   45.70
  -5  -1   9  228.28   45.70
  -5  -1   9  276.17   46.60
   4   1  -9  295.37   51.29
   4   1  -9  312.17   51.69
  -4  -1   9  297.77   51.79
  -4  -1   9  304.37   51.69
  -4  -1   9  300.57   51.29
  -4  -1   9  291.07   51.29
  -4  -1   9  319.97   51.49
  -4  -1   9  294.47   51.79
   3   1  -9   -0.30    4.60
   3   1  -9    1.60    3.60
  -3  -1   9    1.00    4.00
  -3  -1   9   -1.20    3.90
  -3  -1   9    8.20    3.70
  -3  -1   9    4.00    3.40
  -3  -1   9   -0.50    3.20
   2   1  -9   22.40    4.60
   2   1  -9   25.90    4.90
  -2  -1   9   18.00    5.30
  -2  -1   9   33.40    5.20
  -2  -1   9   24.70    5.20
  -1  -1   9    1.50    3.40
  -1  -1   9    0.00    3.10
   0  -1   9   27.00    5.60
   0  -1   9   32.00    6.20
   0  -1   9   35.40    5.70
   0  -1   9   19.50    6.20
  -1   1  -9  462.55   83.59
  -1   1  -9  529.25   84.09
  -1   1  -9  512.55   83.59
   1  -1   9  530.15   83.49
   1  -1   9  526.25   83.99
   1  -1   9  503.05   83.69
   1  -1   9  445.46   83.49
   1  -1   9  497.55   83.69
  -2   1  -9  598.44  104.99
  -2   1  -9  558.84  105.39
  -2   1  -9  605.14  104.99
   2  -1   9  578.44  105.29
   2  -1   9  633.74  105.09
   2  -1   9  651.43  104.89
   2  -1   9  587.04  104.89
   2  -1   9  645.94  105.39
   2  -1   9  744.83  105.19
  -3   1  -9  303.67   53.59
  -3   1  -9  374.06   54.49
   3  -1   9  301.17   54.09
   3  -1   9  316.87   53.59
   3  -1   9  277.87   53.79
   3  -1   9  312.57   54.09
   3  -1   9  297.67   53.39
   3  -1   9  364.56   54.39
  -4   1  -9   34.80   12.30
  -4   1  -9   51.59   10.90
   4  -1   9   47.10   11.00
   4  -1   9   43.40   11.90
   4  -1   9   55.19   12.60
   4  -1   9   55.39   10.60
   4  -1   9   80.09   13.00
  -5   1  -9    0.30   11.40
  -5   1  -9   -0.10    8.70
  -5   1  -9   -4.50    8.10
   5  -1   9    0.50    7.20
   5  -1   9   -9.40    9.40
   5  -1   9   -9.10   13.10
   5  -1   9   -5.80    9.20
   5  -1   9   -7.30    7.70
   8   0  -9   -2.70   11.40
   8   0  -9   -3.90   19.40
  -8   0   9  -25.80   18.20
  -8   0   9   -2.60   12.50
   7   0  -9    0.60    8.70
   7   0  -9   11.20   15.20
   7   0  -9   -7.70    8.60
  -7   0   9   -6.10   12.10
  -7   0   9   -7.30   12.80
  -7   0   9  -20.00    8.70
  -7   0   9    6.60    7.50
   6   0  -9   10.10   10.50
   6   0  -9    3.20    6.60
   6   0  -9    3.20    6.90
  -6   0   9    2.00    5.10
  -6   0   9    0.00    8.10
  -6   0   9   -5.50   10.60
  -6   0   9    5.70    7.40
   5   0  -9   72.29   14.90
   5   0  -9   90.39   14.60
   5   0  -9   90.79   15.20
  -5   0   9   67.39   14.10
  -5   0   9   85.79   16.00
  -5   0   9   57.29   17.70
  -5   0   9   89.99   15.30
  -5   0   9   79.49   15.00
   4   0  -9  132.59   21.60
   4   0  -9  110.09   21.10
  -4   0   9  115.49   20.80
  -4   0   9  136.49   21.30
  -4   0   9   91.89   21.80
  -4   0   9  116.49   21.60
  -4   0   9  144.49   21.80
   3   0  -9  122.99   22.00
   3   0  -9  146.59   22.20
  -3   0   9  127.69   22.10
  -3   0   9  118.89   21.90
  -3   0   9  117.89   22.00
  -3   0   9  100.79   22.40
  -3   0   9  142.59   22.30
  -3   0   9  133.39   22.20
  -3   0   9  133.99   22.30
   2   0  -9   11.10    3.30
   2   0  -9   16.20    3.90
  -2   0   9   15.50    3.50
  -2   0   9   13.20    3.80
  -2   0   9   17.60    4.00
  -2   0   9   16.00    3.90
  -2   0   9   16.00    4.20
   1   0  -9  633.04   96.59
   1   0  -9  512.85   96.49
  -1   0   9  556.84   96.59
  -1   0   9  612.24   96.89
  -1   0   9  576.64   96.69
   0   0  -9   63.29   12.20
   0   0  -9   69.89   11.50
   0   0  -9   69.19   11.40
   0   0   9   55.19   11.50
   0   0   9   55.19   11.30
   0   0   9   78.79   12.10
   0   0   9   66.29   11.30
   0   0   9   65.99   11.70
   0   0   9   78.29   11.70
  -1   0  -9  100.79   18.60
  -1   0  -9  104.69   18.00
  -1   0  -9   73.29   17.90
   1   0   9   84.39   18.30
   1   0   9   98.99   17.80
   1   0   9  114.39   18.40
   1   0   9  119.99   18.30
   1   0   9  109.09   18.10
   1   0   9  123.49   17.90
  -2   0  -9   15.50    7.20
  -2   0  -9   18.20    6.40
  -2   0  -9   17.90    6.40
   2   0   9   11.10    5.20
   2   0   9   23.30    6.10
   2   0   9   22.10    6.50
   2   0   9   15.90    8.70
   2   0   9   29.50    6.10
   2   0   9   22.50    4.80
  -3   0  -9  163.88   25.50
   3   0   9  177.48   27.60
   3   0   9  137.09   25.90
   3   0   9  158.58   25.50
   3   0   9  115.09   26.10
   3   0   9  143.59   26.40
   3   0   9  139.69   26.40
  -4   0  -9   32.00    7.30
  -4   0  -9   30.30    7.70
  -4   0  -9   12.50   10.30
  -4   0  -9   29.70    7.70
   4   0   9   26.10   11.80
   4   0   9   22.20    9.90
   4   0   9   49.99    7.50
   4   0   9    8.20    9.20
   4   0   9   27.80    8.30
  -5   0  -9    5.80   12.70
  -5   0  -9   13.00    8.10
  -5   0  -9   20.40    8.30
  -5   0  -9   11.80    9.70
   5   0   9    9.20    8.70
   5   0   9    5.80   10.50
   5   0   9   11.70   11.20
   5   0   9   18.30    7.00
   5   0   9   27.30   15.70
   8  -1  -9    0.10   11.40
  -8   1   9  -13.40   18.40
  -8   1   9   10.70   13.10
   7  -1  -9  129.49   22.50
   7  -1  -9   99.59   22.50
   7  -1  -9  137.29   25.70
  -7   1   9  123.39   23.70
  -7   1   9  122.99   24.60
  -7   1   9  104.79   22.70
   6  -1  -9   10.90    7.40
   6  -1  -9    4.80   10.70
   6  -1  -9   24.30    7.50
  -6   1   9   12.00    8.70
  -6   1   9   19.90    7.90
  -6   1   9    8.70    4.30
   5  -1  -9    5.90    5.00
   5  -1  -9    4.00    4.80
   5  -1  -9    1.70    7.10
  -5   1   9   -0.20    7.70
  -5   1   9    4.40    2.60
  -5   1   9   -0.80    5.50
  -5   1   9    5.90    6.80
  -5   1   9    2.00    2.60
   4  -1  -9  161.98   23.00
   4  -1  -9  134.69   22.40
  -4   1   9  100.89   22.40
  -4   1   9  128.49   21.90
  -4   1   9  161.78   23.20
  -4   1   9  134.39   22.60
  -4   1   9  152.18   23.20
  -4   1   9  115.79   21.90
  -4   1   9  109.99   22.90
   3  -1  -9   -1.60    3.20
   3  -1  -9    3.10    4.40
  -3   1   9    1.30    3.60
  -3   1   9    8.50    4.70
  -3   1   9    0.70    2.40
  -3   1   9    2.20    5.10
  -3   1   9    0.50    2.20
  -3   1   9   -0.40    3.50
   2  -1  -9  250.47   44.90
  -2   1   9  281.17   45.00
  -2   1   9  237.68   44.90
  -2   1   9  258.37   44.80
  -2   1   9  272.57   44.70
  -2   1   9  253.27   45.20
  -2   1   9  308.87   45.10
   1  -1  -9  709.73  116.09
  -1   1   9  682.83  116.09
  -1   1   9  661.53  116.09
  -1   1   9  704.93  116.09
  -1   1   9  702.73  116.09
  -1   1   9  666.93  115.99
  -1   1   9  656.73  116.09
  -1   1   9  717.73  115.99
   0  -1  -9  728.13  123.49
   0  -1  -9  755.62  123.39
   0  -1  -9  720.13  123.29
   0   1   9  747.03  123.29
   0   1   9  725.53  123.29
   0   1   9  727.33  123.39
   0   1   9  715.93  123.49
  -1  -1  -9    0.60    5.10
  -1  -1  -9    1.80    4.20
  -1  -1  -9    6.80    4.70
   1   1   9   -5.30    3.80
   1   1   9    0.10    2.40
   1   1   9   -0.80    4.80
   1   1   9   -3.50    4.60
   1   1   9   -2.20    3.30
   1   1   9    3.90    4.40
  -2  -1  -9  128.19   26.70
  -2  -1  -9  161.78   26.90
  -2  -1  -9  230.78   30.40
   2   1   9  134.79   26.70
   2   1   9  145.49   26.50
   2   1   9  186.08   27.20
   2   1   9  143.09   25.90
   2   1   9  177.48   28.10
   2   1   9  174.58   26.90
  -3  -1  -9   16.20    8.20
  -3  -1  -9   10.70    4.80
   3   1   9   16.30    6.50
   3   1   9   17.80    3.80
   3   1   9   23.60    9.00
   3   1   9   -1.80   12.50
   3   1   9   11.80    7.20
   3   1   9   17.40    8.00
  -4  -1  -9   24.10    8.20
  -4  -1  -9   10.30   10.70
   4   1   9   18.80    9.30
   4   1   9   17.70    8.00
   4   1   9   11.40    9.70
   4   1   9   29.60   12.40
  -5  -1  -9   -1.60    8.90
  -5  -1  -9   -4.80    5.70
  -5  -1  -9  -10.90   11.80
  -5  -1  -9   -0.90   13.60
   5   1   9   -2.20   13.60
   5   1   9    9.40    9.30
   5   1   9   -6.30   10.90
   8  -2  -9   11.40   12.20
   8  -2  -9   23.40   12.80
  -8   2   9    7.80   12.50
   7  -2  -9   -2.10   15.70
   7  -2  -9   13.60    9.20
   7  -2  -9    5.20    9.80
  -7   2   9    1.20    8.90
  -7   2   9   -5.70   13.20
   6  -2  -9    8.20    6.90
   6  -2  -9   -5.40   11.30
   6  -2  -9   -2.10    6.70
  -6   2   9    1.70    8.80
  -6   2   9    8.20    7.70
  -6   2   9   -3.30    9.70
   5  -2  -9   31.80    8.90
   5  -2  -9   42.80   10.20
   5  -2  -9   45.80    8.70
  -5   2   9   32.80    9.00
  -5   2   9   44.20   11.40
  -5   2   9   33.50   10.20
   4  -2  -9  127.39   25.10
   4  -2  -9  146.99   25.10
   4  -2  -9  147.09   25.60
  -4   2   9  127.89   25.10
  -4   2   9  150.38   25.30
  -4   2   9  153.18   25.70
  -4   2   9  162.08   25.80
  -4   2   9  147.99   25.70
   3  -2  -9  621.24  101.79
   3  -2  -9  560.44  101.59
  -3   2   9  625.04  101.59
  -3   2   9  608.24  101.89
  -3   2   9  627.44  101.79
  -3   2   9  592.94  101.69
  -3   2   9  579.74  101.79
   2  -2  -9   18.70    5.00
   2  -2  -9    8.20    4.00
  -2   2   9    8.70    4.90
  -2   2   9   11.10    4.30
  -2   2   9   11.90    5.00
  -2   2   9   14.90    3.50
  -2   2   9   13.30    5.20
  -2   2   9   11.80    5.10
   1  -2  -9   43.20    7.90
   1  -2  -9   34.10    7.90
   1  -2  -9   43.20    8.30
  -1   2   9   41.10    8.50
  -1   2   9   37.50    8.40
  -1   2   9   38.90    7.90
  -1   2   9   45.20    7.70
  -1   2   9   41.30    7.80
  -1   2   9   37.90    7.80
   0  -2  -9   46.20    8.70
   0  -2  -9   43.30    9.10
   0  -2  -9   47.20    9.10
   0   2   9   50.09    9.00
   0   2   9   46.50    9.10
   0   2   9   35.40    8.40
   0   2   9   41.60    8.80
   0   2   9   48.20    9.40
   0   2   9   47.10    8.00
   0   2   9   42.00    7.90
  -1  -2  -9   55.59   15.60
  -1  -2  -9   63.89   13.70
  -1  -2  -9   79.39   14.10
   1   2   9   70.29   13.70
   1   2   9   96.09   13.70
   1   2   9   49.10   13.70
   1   2   9   81.29   14.30
   1   2   9   80.39   14.10
  -2  -2  -9   17.60    8.10
   2   2   9   25.10    7.40
   2   2   9   38.00    9.20
   2   2   9   16.80   12.70
   2   2   9   38.40    8.20
   2   2   9   33.60    8.30
  -3  -2  -9    1.90    8.20
  -3  -2  -9    3.50    8.90
  -3  -2  -9    1.60    5.40
   3   2   9   -1.60    7.60
   3   2   9   -4.40   10.00
   3   2   9   -1.60    7.10
   3   2   9   15.50    6.70
  -4  -2  -9    9.20   14.50
  -4  -2  -9   72.59   12.70
  -4  -2  -9   66.19   13.70
   4   2   9   56.99   14.80
   4   2   9   57.89   17.40
   4   2   9   65.19   13.30
   4   2   9   45.20   13.80
  -5  -2  -9   -2.80   10.10
   5   2   9  -29.80   12.40
   5   2   9    6.70   10.50
   5   2   9   -1.90   11.50
   8  -3  -9    1.10   11.90
   8  -3  -9   10.40   13.80
  -8   3   9   20.10   12.80
  -8   3   9    8.80   18.40
   7  -3  -9   22.50   10.10
   7  -3  -9    0.60   17.10
   7  -3  -9    7.80    9.30
  -7   3   9    4.50   10.90
  -7   3   9   -4.60    9.50
  -7   3   9    0.20   14.90
   6  -3  -9   10.60   12.20
   6  -3  -9    3.80    7.30
   6  -3  -9   -6.50    7.40
  -6   3   9   -3.70    7.40
  -6   3   9    0.40   10.60
  -6   3   9   -3.90    8.70
   5  -3  -9   -5.20    5.50
   5  -3  -9    2.00    8.60
   5  -3  -9   -8.20    5.70
  -5   3   9   10.20    6.30
  -5   3   9    2.60    7.80
  -5   3   9   12.20    7.80
   4  -3  -9   29.70    7.90
   4  -3  -9   28.40    6.90
   4  -3  -9   29.80    7.40
  -4   3   9   29.40    7.90
  -4   3   9   24.00    8.60
  -4   3   9   24.90    8.50
   3  -3  -9  167.48   30.40
   3  -3  -9  187.98   31.10
   3  -3  -9  164.18   30.60
  -3   3   9  164.68   30.80
  -3   3   9  143.49   30.70
  -3   3   9  200.88   31.30
  -3   3   9  198.28   30.80
  -3   3   9  218.38   31.20
   2  -3  -9   20.40    8.10
   2  -3  -9   29.00    6.60
  -2   3   9   28.90    6.70
  -2   3   9   34.70    6.90
  -2   3   9   33.20    7.60
  -2   3   9   27.80    7.20
  -2   3   9   29.10    5.80
  -2   3   9   23.80    7.70
   1  -3  -9   -1.10    4.00
   1  -3  -9    4.30    5.80
   1  -3  -9    4.10    3.80
  -1   3   9    6.40    4.70
  -1   3   9   -3.80    5.50
  -1   3   9    5.60    4.10
  -1   3   9   -5.10    4.60
  -1   3   9    1.00    3.20
  -1   3   9    3.40    5.50
   0  -3  -9  115.89   20.30
   0  -3  -9  113.69   20.00
   0  -3  -9  100.59   19.90
   0   3   9  119.29   20.50
   0   3   9   95.99   19.80
   0   3   9  128.59   20.40
   0   3   9  100.49   20.10
   0   3   9  141.39   20.10
  -1  -3  -9  594.44  104.29
  -1  -3  -9  609.84  104.79
  -1  -3  -9  617.34  104.99
   1   3   9  623.64  104.79
   1   3   9  634.04  104.69
   1   3   9  620.94  104.89
   1   3   9  653.63  104.89
  -2  -3  -9   29.70    7.20
  -2  -3  -9   29.50    9.30
  -2  -3  -9   25.60    7.60
   2   3   9   28.50    8.60
   2   3   9   23.70   13.10
   2   3   9   40.80   12.20
   2   3   9   34.30    8.20
  -3  -3  -9   -1.60    9.80
  -3  -3  -9    5.70    8.30
  -3  -3  -9    3.60    6.60
   3   3   9    3.20    7.80
   3   3   9   10.40   11.50
   3   3   9   -2.30    8.70
   3   3   9   -2.00    7.20
  -4  -3  -9   10.20    9.10
  -4  -3  -9    1.50   12.70
  -4  -3  -9   10.20   11.90
   4   3   9   -4.20    9.00
   4   3   9   15.00   11.50
   4   3   9   17.60   17.60
   4   3   9    5.40   10.30
   8  -4  -9    5.50   12.80
   7  -4  -9    7.90    9.70
   7  -4  -9  -11.40   10.20
  -7   4   9  -12.40   11.90
  -7   4   9  -17.00   15.80
  -7   4   9    1.70   10.10
   6  -4  -9  274.97   47.20
   6  -4  -9  343.67   48.10
  -6   4   9  252.27   47.60
  -6   4   9  257.87   47.70
  -6   4   9  243.98   47.10
   5  -4  -9    3.80    6.90
   5  -4  -9    5.90   10.00
   5  -4  -9    0.50    6.30
  -5   4   9   -3.50    6.70
  -5   4   9  -11.60    8.90
   4  -4  -9   45.10    9.10
   4  -4  -9   33.80    7.40
  -4   4   9    8.40    8.20
  -4   4   9   18.40    8.80
  -4   4   9    2.90    8.70
  -4   4   9   26.00    7.60
  -4   4   9   31.70    9.70
   3  -4  -9   98.89   17.70
   3  -4  -9   80.69   17.50
   3  -4  -9  103.59   17.30
  -3   4   9  105.29   17.80
  -3   4   9   77.29   18.40
  -3   4   9  108.49   18.40
  -3   4   9   91.29   19.50
  -3   4   9  101.79   17.70
   2  -4  -9  406.46   71.69
   2  -4  -9  408.86   72.39
   2  -4  -9  439.26   71.69
   2  -4  -9  412.86   71.49
  -2   4   9  493.45   71.99
  -2   4   9  418.86   72.39
  -2   4   9  400.96   72.29
  -2   4   9  423.06   71.49
  -2   4   9  401.96   71.69
  -2   4   9  433.96   72.19
   1  -4  -9   59.79   10.50
   1  -4  -9   55.69   12.50
   1  -4  -9   63.99   11.10
   1  -4  -9   64.29   10.70
   1  -4  -9   39.40   11.10
  -1   4   9   49.20   10.20
  -1   4   9   60.09   11.20
  -1   4   9   60.89   10.80
  -1   4   9   61.39   11.80
  -1   4   9   57.49   12.20
  -1   4   9   58.19   12.40
   0  -4  -9  254.97   44.40
   0  -4  -9  270.57   43.80
   0  -4  -9  244.38   44.10
   0  -4  -9  249.18   44.00
   0   4   9  241.58   44.50
   0   4   9  246.48   44.70
   0   4   9  266.07   44.20
   0   4   9  255.87   44.30
   0   4   9  276.17   44.50
  -1  -4  -9   10.20    7.50
  -1  -4  -9   14.70    7.90
  -1  -4  -9    7.10    5.20
   1   4   9    5.70    6.20
   1   4   9    0.60    6.90
   1   4   9    5.90   15.70
   1   4   9   15.50    6.60
  -2  -4  -9   11.40    6.70
  -2  -4  -9    4.90    8.80
  -2  -4  -9   17.70    8.20
   2   4   9    6.90    7.20
   2   4   9    5.00    7.70
   2   4   9    6.40    7.80
   2   4   9    2.20   11.20
  -3  -4  -9   19.50   12.60
  -3  -4  -9   51.19   12.60
  -3  -4  -9   41.80   10.30
   3   4   9   42.20   16.90
   3   4   9   24.70   11.30
   3   4   9   31.10   10.70
   3   4   9   31.70   11.50
  -4  -4  -9   11.70   10.50
  -4  -4  -9    6.80   14.10
   4   4   9    9.40   10.90
   4   4   9  -18.60   14.70
   4   4   9    7.80   11.80
   7  -5  -9   -5.60   11.30
   7  -5  -9   -6.90   10.60
  -7   5   9   -9.60   12.40
   6  -5  -9   41.70   10.30
   6  -5  -9   19.80    9.40
   6  -5  -9   14.90   16.00
  -6   5   9    1.00   10.40
  -6   5   9    8.80    9.50
   5  -5  -9   53.69   11.30
   5  -5  -9   66.39   14.70
   5  -5  -9   46.20   11.50
  -5   5   9   32.80   12.20
  -5   5   9   56.89   11.70
  -5   5   9   19.90   13.50
   4  -5  -9   99.99   17.20
   4  -5  -9   80.69   15.70
   4  -5  -9   86.29   15.20
  -4   5   9   78.89   16.00
  -4   5   9   80.59   15.50
  -4   5   9   56.69   15.90
  -4   5   9   76.29   16.80
   3  -5  -9   -5.50    7.80
   3  -5  -9    3.40    5.40
  -3   5   9   10.00    6.30
  -3   5   9    5.10    9.60
  -3   5   9   -4.60   11.80
  -3   5   9    9.00    6.00
  -3   5   9   -1.60    7.20
   2  -5  -9   -2.50    5.00
   2  -5  -9   -3.60    6.00
   2  -5  -9   -4.60    6.90
   2  -5  -9    1.30    3.60
  -2   5   9   -0.10    8.10
  -2   5   9    1.20    6.70
  -2   5   9    0.80    4.40
  -2   5   9  -16.70   12.90
  -2   5   9    0.30    8.50
  -2   5   9   -0.20    3.40
   1  -5  -9    8.90    5.80
   1  -5  -9    6.00    6.30
   1  -5  -9   16.40    7.20
   1  -5  -9    3.10    6.70
  -1   5   9   18.80    7.60
  -1   5   9    4.60   11.80
  -1   5   9   19.30    9.30
  -1   5   9   22.80    5.40
  -1   5   9   12.30    3.50
  -1   5   9   20.00    8.40
  -1   5   9   16.60    3.60
   0  -5  -9   42.70   10.10
   0  -5  -9   34.00   10.00
   0  -5  -9   37.00   10.00
   0   5   9   41.80   12.10
   0   5   9   39.10    9.50
   0   5   9   51.09    9.40
   0   5   9   29.10   10.00
  -1  -5  -9   16.70    9.30
  -1  -5  -9    8.60    6.90
  -1  -5  -9   14.50    8.80
   1   5   9    9.00   11.80
   1   5   9    8.00    8.60
   1   5   9   25.20    7.90
   1   5   9   18.10    7.80
  -2  -5  -9    0.10   10.10
  -2  -5  -9   -4.20   10.30
  -2  -5  -9    0.50    7.50
   2   5   9   -0.90    8.10
   2   5   9    4.90    8.90
   2   5   9    4.60   14.40
   2   5   9   -5.80    8.40
  -3  -5  -9   -3.20   14.10
  -3  -5  -9   -0.30    9.80
  -3  -5  -9   13.30   12.90
   3   5   9   -7.70   10.50
   3   5   9    5.10    9.90
   3   5   9   -6.10   11.30
   3   5   9    5.20   19.40
   7  -6  -9   34.60   13.40
   7  -6  -9   50.09   14.50
  -7   6   9   34.90   14.70
  -7   6   9   20.20   13.50
   6  -6  -9    2.30   10.10
   6  -6  -9   -0.60    9.30
  -6   6   9  -31.20   15.50
  -6   6   9  -12.30   11.40
  -6   6   9   12.50    9.40
   5  -6  -9    6.70    7.90
   5  -6  -9   11.00    9.40
   5  -6  -9   15.20   14.50
  -5   6   9   10.30    8.20
  -5   6   9   -8.40   13.30
  -5   6   9   -8.10    9.20
   4  -6  -9   24.50    9.30
   4  -6  -9   48.00   10.30
   4  -6  -9   39.90   13.40
  -4   6   9   24.20   13.90
  -4   6   9   39.70   10.90
  -4   6   9   27.10   10.30
  -4   6   9   25.20    9.50
   3  -6  -9   -7.90    6.80
   3  -6  -9   -0.90   10.10
   3  -6  -9    1.50    6.50
  -3   6   9   -5.10    6.90
  -3   6   9    2.20    6.60
  -3   6   9   -8.90    8.20
  -3   6   9    9.00   11.90
   2  -6  -9  167.88   37.20
   2  -6  -9  234.48   37.10
   2  -6  -9  278.97   38.00
   2  -6  -9  212.88   36.70
  -2   6   9  219.68   36.60
  -2   6   9  218.78   37.30
  -2   6   9  154.48   37.90
  -2   6   9  225.98   36.90
  -2   6   9  192.08   38.10
   1  -6  -9   -9.90    7.40
   1  -6  -9    2.30    9.20
   1  -6  -9    0.40    6.50
   1  -6  -9    2.70    6.40
  -1   6   9   -7.00   11.00
  -1   6   9   21.80    5.80
  -1   6   9    9.80    7.10
  -1   6   9    4.70    8.20
   0  -6  -9    6.30    8.40
   0  -6  -9    1.20    8.60
   0  -6  -9    8.00    7.00
   0   6   9    1.40    7.20
   0   6   9   -3.60    6.40
   0   6   9   11.20    8.90
   0   6   9    4.70   12.40
  -1  -6  -9   10.40   10.10
  -1  -6  -9    7.70   11.00
  -1  -6  -9    0.90    7.70
   1   6   9    8.00    9.40
   1   6   9  -10.50   14.60
   1   6   9    4.40    8.30
   1   6   9    2.80   13.70
  -2  -6  -9   99.29   18.20
  -2  -6  -9   92.69   20.10
  -2  -6  -9   76.19   20.60
   2   6   9   91.59   18.90
   2   6   9   79.29   19.50
   2   6   9   88.99   18.70
   2   6   9   97.99   24.70
   6  -7  -9    2.00   11.00
   6  -7  -9    4.00   12.80
  -6   7   9   85.49   19.70
  -6   7   9   12.20   11.40
   5  -7  -9   20.60   10.90
   5  -7  -9   13.90    9.90
  -5   7   9   22.10   10.70
  -5   7   9   18.50   16.90
  -5   7   9   16.70   12.40
   4  -7  -9   16.90    8.80
   4  -7  -9   16.70   15.00
   4  -7  -9   14.80    9.70
  -4   7   9   13.10    9.20
  -4   7   9   12.30   14.70
  -4   7   9   14.20   16.60
  -4   7   9    8.10   10.80
   3  -7  -9   14.60    8.50
   3  -7  -9   19.80   10.00
   3  -7  -9   31.30   13.60
  -3   7   9   15.40   15.50
  -3   7   9   26.50    9.60
  -3   7   9   26.20    9.20
  -3   7   9   38.50   11.10
   2  -7  -9  -13.40    8.80
   2  -7  -9   -5.10    7.30
   2  -7  -9    3.30    5.40
   2  -7  -9    5.30   14.20
  -2   7   9    0.40    5.50
  -2   7   9    5.10    7.90
  -2   7   9  -18.20   14.40
  -2   7   9    2.50    9.80
   1  -7  -9   48.60   10.60
   1  -7  -9   43.00   10.80
   1  -7  -9   33.00   11.80
  -1   7   9   41.90    9.60
  -1   7   9   28.00   15.90
  -1   7   9   33.80   12.50
  -1   7   9   43.50   11.30
   0  -7  -9    4.80   10.60
   0  -7  -9    6.80    8.70
   0  -7  -9   -2.50   12.40
   0   7   9    1.70    9.00
   0   7   9   23.70   10.30
   0   7   9  -14.20   15.50
   0   7   9   13.30    8.20
  -1  -7  -9    2.60   12.80
  -1  -7  -9    6.30    9.60
  -1  -7  -9   -4.90   14.30
   1   7   9    5.20   11.70
   1   7   9   12.00    9.50
   1   7   9   14.10   19.40
   1   7   9    5.50    9.90
   2   7   9    5.10   11.60
   2   7   9    3.00   11.00
   5  -8  -9   33.00   12.00
   5  -8  -9   23.10   13.00
  -5   8   9   17.40   12.10
  -5   8   9   36.70   16.10
   4  -8  -9    5.10   11.00
  -4   8   9   -6.60   20.80
  -4   8   9    4.70   12.20
  -4   8   9    9.20   10.50
   3  -8  -9   10.10   10.50
   3  -8  -9   -3.50    9.40
  -3   8   9   -0.40   11.00
  -3   8   9   17.20    9.00
  -3   8   9   -1.30   18.40
  -3   8   9    4.70    9.40
   2  -8  -9   19.50    9.90
   2  -8  -9   25.30    8.00
   2  -8  -9   12.10   11.80
  -2   8   9   23.90   10.60
  -2   8   9   21.80   12.30
  -2   8   9    8.00   17.60
   1  -8  -9  113.99   24.40
   1  -8  -9  122.49   24.80
   1  -8  -9  160.88   25.60
  -1   8   9  142.99   25.10
  -1   8   9  130.99   23.80
  -1   8   9  105.69   29.10
   0  -8  -9   11.00   13.10
   0  -8  -9   12.10   12.10
   0   8   9   30.20   15.80
   0   8   9   30.20   13.50
   0   8   9    5.20    9.70
   4  -9  -9   42.10   14.60
   4  -9  -9   65.59   16.60
  -4   9   9   46.30   15.20
   3  -9  -9  105.69   17.80
   3  -9  -9   63.99   18.10
  -3   9   9   71.09   17.50
  -3   9   9   42.20   20.40
   2  -9  -9   26.70   11.60
   2  -9  -9   -1.20   13.80
  -2   9   9   -7.50   15.00
  -2   9   9    4.00   12.00
  -1   9   9    8.90   12.20
   1  12 -10   14.10   12.90
  -1 -12  10    4.70   11.70
   0  12 -10   14.70   12.50
   0 -12  10   23.10   12.00
   0 -12  10   13.00   12.80
  -1  12 -10   -1.70   12.10
   1 -12  10  -18.70   11.50
   1 -12  10    4.90   10.40
   1 -12  10   -8.80   13.60
   1 -12  10  -16.70   11.70
   3  11 -10   15.40   13.10
   2  11 -10    7.40   10.80
  -2 -11  10   15.90   11.70
  -2 -11  10   -4.10    9.10
  -2 -11  10   -6.80   10.20
   1  11 -10   74.39   14.20
  -1 -11  10   56.39   12.80
  -1 -11  10   35.90   14.00
  -1 -11  10   47.70   14.00
  -1 -11  10   54.09   14.80
   0  11 -10   43.30   12.00
   0 -11  10   32.10   12.20
   0 -11  10   18.70   11.10
   0 -11  10   52.29   12.80
  -1  11 -10   15.60   10.70
   1 -11  10   24.60   11.50
   1 -11  10   26.70   11.90
   1 -11  10   17.60   10.50
   1 -11  10   28.00    9.40
   1 -11  10    3.30   11.20
   2 -11  10    6.20   10.80
   2 -11  10    8.20   11.00
   2 -11  10    0.30    8.80
   2 -11  10    2.00   11.20
  -3  11 -10   16.60   12.40
   3 -11  10   25.20   13.30
   3 -11  10   17.70   10.30
   3 -11  10   -1.20   12.40
   3 -11  10   12.40   12.10
   4  10 -10   -9.90   19.00
   4  10 -10    5.50   12.20
  -4 -10  10    2.60   12.40
  -4 -10  10   21.00   12.10
  -4 -10  10   13.90   13.20
   3  10 -10    8.00    9.50
  -3 -10  10   -3.00   13.00
  -3 -10  10    4.30    9.60
  -3 -10  10   -8.30   10.90
  -3 -10  10   -3.30   10.00
   2  10 -10  125.59   21.70
  -2 -10  10  115.89   22.50
  -2 -10  10  145.29   23.20
  -2 -10  10  100.79   21.10
  -2 -10  10   98.89   21.70
   1  10 -10    5.00    8.00
  -1 -10  10   -0.60    6.80
  -1 -10  10   11.20    8.40
  -1 -10  10    8.60    9.70
  -1 -10  10    5.30    7.70
   0  10 -10   10.90    7.90
   0 -10  10    3.60    7.00
   0 -10  10    6.20    8.50
   0 -10  10    1.90    7.90
   0 -10  10    3.20    8.40
  -1  10 -10  121.29   18.80
   1 -10  10   99.09   18.20
   1 -10  10   86.29   19.40
   1 -10  10   87.69   18.40
   1 -10  10   74.69   19.20
  -2  10 -10   87.19   16.80
   2 -10  10   74.39   16.70
   2 -10  10   88.09   17.70
   2 -10  10   86.39   17.30
   2 -10  10   66.89   16.90
   2 -10  10   86.19   16.10
  -3  10 -10   60.49   15.30
   3 -10  10   71.49   13.80
   3 -10  10   48.40   15.70
   3 -10  10   64.19   15.60
   3 -10  10   52.19   15.30
   3 -10  10   79.09   16.00
  -4  10 -10   36.90   12.70
   4 -10  10   15.00   12.90
   4 -10  10   -1.50   12.80
   4 -10  10   12.50   12.70
   4 -10  10   10.10    9.80
   5   9 -10    3.70   13.00
   4   9 -10   -2.70    9.40
  -4  -9  10   -4.50   10.10
  -4  -9  10   -1.30   11.30
  -4  -9  10   -1.90   12.10
  -4  -9  10    8.70   10.20
   3   9 -10    3.90    8.00
  -3  -9  10    7.30   10.20
  -3  -9  10   10.50    9.80
  -3  -9  10    1.40    8.00
  -3  -9  10    8.50    8.80
   2   9 -10   -5.20    7.20
  -2  -9  10    3.10    8.80
  -2  -9  10  -12.20    7.20
  -2  -9  10   -0.80    7.60
  -2  -9  10   -0.50    6.30
   1   9 -10    4.90    6.30
  -1  -9  10    6.80    5.60
  -1  -9  10   -2.30    6.50
  -1  -9  10   -6.90    7.70
  -1  -9  10    7.60   10.00
  -1  -9  10   -4.30    6.30
   0   9 -10   51.59   11.50
   0  -9  10   50.89   11.30
   0  -9  10   75.79   14.20
   0  -9  10   65.69   11.40
   0  -9  10   63.69   12.10
   0  -9  10   23.80   12.30
  -1   9 -10    1.90    6.40
   1  -9  10    9.00   11.30
   1  -9  10    9.30    8.80
   1  -9  10   -2.30    7.40
   1  -9  10   -1.60    7.00
   1  -9  10    9.20    6.40
  -2   9 -10   29.80    8.00
   2  -9  10    7.00    9.10
   2  -9  10   13.70    7.80
   2  -9  10    3.30    8.30
   2  -9  10   20.30    7.00
  -3   9 -10   87.19   16.50
   3  -9  10   72.69   16.80
   3  -9  10   82.19   17.40
   3  -9  10   84.89   15.70
   3  -9  10   68.39   17.10
   3  -9  10   78.19   16.50
  -4   9 -10    0.90   11.90
   4  -9  10   -2.80   10.90
   4  -9  10   14.90    8.70
   4  -9  10   13.80   16.60
   4  -9  10   16.00   11.10
   5   8 -10   77.39   24.10
   5   8 -10  137.59   20.70
   5   8 -10   68.69   23.10
  -5  -8  10   52.49   20.40
  -5  -8  10  142.29   21.90
  -5  -8  10  106.99   20.60
   4   8 -10    7.60    9.50
  -4  -8  10   -5.10    8.90
  -4  -8  10   15.80    9.30
  -4  -8  10    4.10    8.70
  -4  -8  10   -4.60    9.40
   3   8 -10  129.49   22.10
  -3  -8  10  109.59   22.80
  -3  -8  10  129.89   22.40
  -3  -8  10  112.79   22.40
   2   8 -10  117.29   17.60
  -2  -8  10   86.19   17.20
  -2  -8  10   89.29   17.70
  -2  -8  10   82.69   18.90
  -2  -8  10   92.19   17.30
  -2  -8  10   98.89   18.50
   1   8 -10    1.70    8.50
   1   8 -10   -2.40    5.20
  -1  -8  10   -2.10    7.60
  -1  -8  10    4.30    6.80
  -1  -8  10   -0.90    4.50
  -1  -8  10    3.20    4.70
  -1  -8  10   -3.10    5.30
   0   8 -10  290.07   44.60
   0   8 -10  224.28   44.40
   0  -8  10  249.68   44.90
   0  -8  10  293.37   44.90
   0  -8  10  284.07   44.30
   0  -8  10  259.17   44.20
   0  -8  10  225.88   44.70
   0  -8  10  233.08   44.70
  -1   8 -10   87.89   14.10
  -1   8 -10   46.80   14.80
   1  -8  10   78.79   13.70
   1  -8  10  103.79   14.50
   1  -8  10   85.09   15.80
   1  -8  10   61.29   14.70
   1  -8  10   69.09   15.00
   1  -8  10   55.39   13.60
  -2   8 -10   74.39   14.20
   2  -8  10   61.89   14.80
   2  -8  10   81.59   14.60
   2  -8  10   71.69   16.30
   2  -8  10   75.79   13.70
   2  -8  10   79.19   14.10
   2  -8  10   52.59   14.90
  -3   8 -10    0.60    7.30
   3  -8  10   10.90    6.50
   3  -8  10    9.90    8.20
   3  -8  10   15.20    9.00
   3  -8  10    7.00    7.80
   3  -8  10   10.30    8.30
  -4   8 -10   14.60    9.30
   4  -8  10    2.90   10.50
   4  -8  10   -1.00    7.40
   4  -8  10    0.30    9.90
   4  -8  10   -3.10    9.60
   4  -8  10   -3.40    9.00
  -5   8 -10   -6.70   12.00
   5  -8  10    7.00   11.60
   5  -8  10    2.30   12.30
   5  -8  10   -7.40   13.30
   5  -8  10   -0.90    9.10
   6   7 -10   11.00   12.00
   6   7 -10    4.30   12.10
  -6  -7  10   10.00   12.50
  -6  -7  10   32.40   12.60
  -6  -7  10    3.40   12.40
   5   7 -10    3.10    8.80
   5   7 -10   -2.10    9.40
   5   7 -10    2.20    9.00
  -5  -7  10   10.60    9.90
  -5  -7  10   -1.20    9.40
  -5  -7  10   -2.70   10.30
  -5  -7  10    8.10   10.00
   4   7 -10   72.79   12.10
  -4  -7  10   45.10   12.10
  -4  -7  10   34.00   12.30
  -4  -7  10   50.89   13.00
  -4  -7  10   54.79   12.10
   3   7 -10  221.48   36.70
  -3  -7  10  233.88   37.00
  -3  -7  10  211.48   37.40
  -3  -7  10  200.38   36.60
  -3  -7  10  185.88   37.10
   2   7 -10  107.39   16.10
   2   7 -10   76.39   14.90
  -2  -7  10   74.79   14.70
  -2  -7  10   88.59   15.30
  -2  -7  10   89.99   16.20
  -2  -7  10  108.09   16.20
  -2  -7  10   62.59   14.70
   1   7 -10  221.88   47.90
  -1  -7  10  283.27   47.10
  -1  -7  10  284.17   47.80
  -1  -7  10  279.57   47.40
  -1  -7  10  323.67   47.90
  -1  -7  10  269.27   47.00
   0   7 -10   97.69   17.60
   0  -7  10   80.39   16.90
   0  -7  10  105.39   17.10
   0  -7  10   90.29   18.30
   0  -7  10  110.79   17.50
   0  -7  10  111.19   18.10
   0  -7  10   97.29   18.20
   1  -7  10   10.90    7.20
   1  -7  10    9.90    4.30
   1  -7  10   16.60    5.60
   1  -7  10   10.10    6.70
   1  -7  10   13.30    4.50
   1  -7  10   10.20    7.40
  -2   7 -10   92.79   15.40
  -2   7 -10   80.79   15.90
   2  -7  10   73.69   16.80
   2  -7  10   81.29   15.20
   2  -7  10   62.29   15.60
   2  -7  10   97.29   16.30
   2  -7  10   92.29   15.10
   2  -7  10   92.29   16.80
  -3   7 -10   17.80    7.20
   3  -7  10   12.40   11.30
   3  -7  10   14.80    7.20
   3  -7  10   15.50    6.60
   3  -7  10   13.00    8.00
   3  -7  10   19.80    8.50
   3  -7  10   24.90    8.50
  -4   7 -10   25.80    9.20
   4  -7  10   28.70    9.70
   4  -7  10   17.50    9.70
   4  -7  10   11.10    9.50
   4  -7  10   10.00    7.70
   4  -7  10   12.50    9.80
  -5   7 -10   -5.80   11.50
   5  -7  10    0.60    8.90
   5  -7  10   -2.10   10.90
   5  -7  10   -0.50   11.40
   5  -7  10  -12.40   11.20
   6   6 -10  145.79   20.80
   6   6 -10  132.89   21.40
   6   6 -10   49.70   22.40
  -6  -6  10   36.80   21.00
  -6  -6  10  132.19   21.90
  -6  -6  10  118.99   22.60
  -5  -6  10    5.70    9.40
  -5  -6  10    1.00    8.80
  -5  -6  10    7.90    8.60
   4   6 -10   67.39   13.10
  -4  -6  10   77.59   15.20
  -4  -6  10   54.09   13.60
  -4  -6  10   64.59   14.00
  -4  -6  10   63.89   13.10
   3   6 -10    3.10    7.10
   3   6 -10    3.60    4.80
  -3  -6  10   -4.20    6.30
  -3  -6  10   -1.40    5.10
  -3  -6  10    0.30    5.40
  -3  -6  10    2.30    7.10
  -3  -6  10    4.30    4.80
   2   6 -10    1.90    5.60
  -2  -6  10    0.20    3.40
  -2  -6  10    0.50    5.40
  -2  -6  10    1.90    9.20
  -2  -6  10   -3.30    4.20
  -2  -6  10    0.50    3.60
   1   6 -10   18.20    4.50
   1   6 -10   20.40    5.80
  -1  -6  10   21.70    5.30
  -1  -6  10   19.80    4.40
  -1  -6  10   17.80    5.90
  -1  -6  10   13.00    6.90
  -1  -6  10   16.70    4.10
   0   6 -10  144.09   26.60
   0   6 -10  159.98   26.90
   0  -6  10  148.79   26.80
   0  -6  10  176.88   26.40
   0  -6  10  160.88   27.40
   0  -6  10  142.09   26.20
   0  -6  10  158.28   28.10
   0  -6  10  163.88   27.40
  -1   6 -10    4.10    4.90
  -1   6 -10    8.00    3.90
   1  -6  10   12.80    3.50
   1  -6  10   10.90    6.10
   1  -6  10   10.10    6.00
   1  -6  10    7.50    4.70
   1  -6  10    7.60    3.00
  -2   6 -10    3.40    5.60
  -2   6 -10    1.50    7.30
   2  -6  10   -7.10    7.10
   2  -6  10   -0.30    5.20
   2  -6  10   -2.50    6.00
   2  -6  10    0.40    3.90
   2  -6  10   -2.30    3.80
   2  -6  10   -0.90    5.90
  -3   6 -10    8.90    6.50
   3  -6  10   11.80    7.70
   3  -6  10   13.90    5.70
   3  -6  10   15.60    7.20
   3  -6  10   20.10    6.30
   3  -6  10    4.90    6.90
  -4   6 -10  137.29   23.40
   4  -6  10  119.19   22.70
   4  -6  10  116.49   23.50
   4  -6  10  130.29   23.40
   4  -6  10  135.19   23.70
   4  -6  10  119.29   23.20
  -5   6 -10   20.50   12.60
   5  -6  10    3.70    8.50
   5  -6  10  -24.10   18.60
   5  -6  10   -3.10    9.90
   5  -6  10    2.20   11.00
   7   5 -10  231.98   35.50
   7   5 -10  214.48   36.00
  -7  -5  10   96.29   37.80
   6   5 -10   75.89   20.40
   6   5 -10  143.39   20.00
  -6  -5  10  151.28   20.70
  -6  -5  10   83.59   23.10
  -6  -5  10   46.30   19.60
   5   5 -10   39.60   10.20
  -5  -5  10   61.49   11.00
  -5  -5  10   35.80   14.50
  -5  -5  10   27.50   11.10
   4   5 -10   15.10    6.20
  -4  -5  10   11.20    6.60
  -4  -5  10   12.40    8.70
  -4  -5  10   16.40    6.10
  -4  -5  10   15.00    7.30
  -4  -5  10   10.50   10.10
   3   5 -10  110.99   16.00
   3   5 -10   63.39   11.70
  -3  -5  10   33.80   13.10
  -3  -5  10   60.89   13.30
  -3  -5  10   81.09   12.80
  -3  -5  10   51.49   11.90
  -3  -5  10   69.59   11.60
  -3  -5  10   64.39   13.90
   2   5 -10   26.00    5.80
   2   5 -10   20.50    4.90
  -2  -5  10   31.00    7.80
  -2  -5  10   21.00    6.60
  -2  -5  10   20.50    4.40
  -2  -5  10   21.20    4.70
   1   5 -10  576.04   87.29
   1   5 -10  461.45   87.19
  -1  -5  10  502.85   87.49
  -1  -5  10  552.64   87.89
  -1  -5  10  523.25   87.39
  -1  -5  10  526.75   87.89
   0  -5  10  213.48   37.20
   0  -5  10  215.28   37.80
   0  -5  10  248.68   38.00
   0  -5  10  213.58   37.40
  -1   5 -10  335.07   57.19
  -1   5 -10  344.27   56.29
  -1   5 -10  317.07   56.19
   1  -5  10  313.57   56.99
   1  -5  10  327.27   56.69
   1  -5  10  345.47   56.49
   1  -5  10  353.16   57.09
  -2   5 -10    2.30    4.60
  -2   5 -10    8.20    7.60
   2  -5  10   -1.50    4.70
   2  -5  10   23.40    5.60
   2  -5  10   -0.50    6.00
   2  -5  10    5.80    3.60
   2  -5  10    3.90    3.80
   2  -5  10    1.90    6.20
  -3   5 -10   61.69   11.20
   3  -5  10   46.50   10.60
   3  -5  10   51.79   13.10
   3  -5  10   65.79   10.90
   3  -5  10   39.90   12.20
   3  -5  10   50.39   11.80
   3  -5  10   54.29   11.60
  -4   5 -10    6.70    7.80
   4  -5  10    7.10    8.10
   4  -5  10    7.70    8.00
   4  -5  10   10.20    6.70
   4  -5  10   17.10    7.80
   4  -5  10    2.30    7.90
   5  -5  10   -1.50    9.70
   5  -5  10    5.10    8.60
   5  -5  10    6.00   12.20
   5  -5  10    3.00   10.30
   5  -5  10  -11.20   16.00
   7   4 -10   81.89   18.10
   7   4 -10   59.69   22.60
   7   4 -10   96.99   18.00
  -7  -4  10   53.69   22.10
   6   4 -10   40.80   11.30
   6   4 -10   54.39   11.00
  -6  -4  10   25.80   12.00
  -6  -4  10   48.80   15.10
  -6  -4  10   35.20   12.30
   5   4 -10   20.30    8.00
  -5  -4  10   26.50   11.10
  -5  -4  10   23.00    8.90
  -5  -4  10   16.40   10.00
  -5  -4  10   34.00    8.60
  -5  -4  10   37.70   10.70
   4   4 -10  221.48   40.00
   4   4 -10  235.88   40.10
  -4  -4  10  254.57   40.40
  -4  -4  10  223.08   40.30
  -4  -4  10  299.37   40.50
  -4  -4  10  216.98   40.00
  -4  -4  10  192.58   39.90
   3   4 -10   34.90    7.60
  -3  -4  10   35.30    8.70
  -3  -4  10   31.20    7.00
  -3  -4  10   32.10    6.40
  -3  -4  10   31.80    7.60
  -3  -4  10   25.10    8.40
   2   4 -10  416.86   76.09
   2   4 -10  495.25   76.19
  -2  -4  10  442.86   76.39
  -2  -4  10  453.05   76.39
  -2  -4  10  470.15   76.79
  -1  -4  10  244.08   42.20
  -1  -4  10  229.38   42.10
  -1  -4  10  250.37   41.50
   0  -4  10   75.19   13.60
   0  -4  10   72.09   13.40
   0  -4  10   70.89   12.40
  -1   4 -10  290.77   48.40
  -1   4 -10  265.87   48.40
   1  -4  10  290.77   49.00
   1  -4  10  314.07   49.30
   1  -4  10  289.07   48.80
   1  -4  10  294.77   48.60
  -2   4 -10   71.89   14.00
  -2   4 -10   88.69   15.10
  -2   4 -10   83.29   13.80
   2  -4  10   60.39   15.00
   2  -4  10   53.79   16.90
   2  -4  10   84.19   13.50
   2  -4  10   71.69   13.40
   2  -4  10   71.69   14.40
   2  -4  10   81.69   14.60
  -3   4 -10   68.09   10.90
  -3   4 -10   54.79   10.60
  -3   4 -10   41.20   11.60
   3  -4  10   36.50   10.90
   3  -4  10   43.80    9.90
   3  -4  10   53.59    9.60
   3  -4  10   30.40   10.40
   3  -4  10   49.60   12.10
   3  -4  10   48.60   10.70
  -4   4 -10   21.30   10.40
   4  -4  10   27.00   10.10
   4  -4  10   42.50    8.90
   4  -4  10   39.10    9.70
   4  -4  10   34.10   10.10
   4  -4  10   35.40   10.10
  -5   4 -10    0.70   12.70
   5  -4  10   42.20   10.70
   5  -4  10   -0.70   11.00
   5  -4  10   41.80   11.90
   5  -4  10   36.60    9.60
   7   3 -10   16.50   10.90
   7   3 -10   29.00   10.90
   7   3 -10    9.40   16.00
  -7  -3  10    8.70   14.10
  -7  -3  10   15.70   12.70
  -7  -3  10    7.70   14.60
   6   3 -10    6.10   11.10
   6   3 -10    9.20    7.30
   6   3 -10   15.70    7.70
  -6  -3  10    5.80    9.10
  -6  -3  10    4.20    9.70
  -6  -3  10    6.10    9.00
  -6  -3  10   -3.20   10.80
   5   3 -10  174.38   27.30
  -5  -3  10  150.88   28.20
  -5  -3  10  177.58   27.80
  -5  -3  10  158.08   27.30
  -5  -3  10  120.09   27.70
  -5  -3  10  150.48   27.60
   4   3 -10  269.47   39.80
   4   3 -10  233.28   39.60
  -4  -3  10  244.58   39.80
  -4  -3  10  228.98   39.70
  -4  -3  10  198.48   39.70
  -4  -3  10  202.98   39.50
  -4  -3  10  256.17   40.40
   3   3 -10   10.40    3.30
   3   3 -10    9.60    4.50
  -3  -3  10    9.10    3.10
  -3  -3  10   16.20    5.00
  -3  -3  10    4.20    3.80
  -3  -3  10    8.30    5.70
  -3  -3  10    7.60    5.20
  -2  -3  10   38.20    8.10
  -2  -3  10   52.79    9.10
  -2  -3  10   45.80    8.20
  -2  -3  10   44.10    9.10
  -1  -3  10    5.80    4.60
  -1  -3  10    8.60    4.50
   0  -3  10   -7.50    4.10
   0  -3  10    1.60    4.40
   1  -3  10 1254.47  207.28
   1  -3  10 1203.58  207.08
   1  -3  10 1255.87  207.48
   1  -3  10 1223.48  207.08
  -2   3 -10  569.04   98.59
  -2   3 -10  623.74   98.29
   2  -3  10  576.34   98.49
   2  -3  10  542.15   98.09
   2  -3  10  609.24   98.19
   2  -3  10  560.14   98.59
   2  -3  10  597.74   98.79
  -3   3 -10  335.57   65.09
  -3   3 -10  388.36   65.09
   3  -3  10  388.26   64.79
   3  -3  10  394.06   64.59
   3  -3  10  378.26   65.29
   3  -3  10  386.96   65.09
   3  -3  10  385.96   65.79
   3  -3  10  372.06   64.79
  -4   3 -10   20.70   11.00
  -4   3 -10   59.99   11.50
   4  -3  10   32.40    9.20
   4  -3  10   35.40   10.30
   4  -3  10   39.50   11.10
   4  -3  10   41.60   10.80
   4  -3  10   41.40    9.90
  -5   3 -10    3.20   12.30
   5  -3  10    1.50   12.40
   5  -3  10   -2.00   10.90
   5  -3  10   19.70   10.40
   5  -3  10    0.40    7.90
   5  -3  10    1.00    8.60
   7   2 -10   27.20   15.50
   7   2 -10   35.10   10.60
   7   2 -10   32.50   10.80
  -7  -2  10   -0.60   14.10
  -7  -2  10   26.10   11.40
  -7  -2  10    6.40   11.30
  -7  -2  10   21.50   13.30
   6   2 -10   10.50    7.00
   6   2 -10    8.30    8.50
   6   2 -10    5.10    8.80
  -6  -2  10    4.10    7.90
  -6  -2  10    0.80    8.10
  -6  -2  10    6.40    8.80
  -6  -2  10    8.50   11.30
   5   2 -10  127.39   24.00
  -5  -2  10  146.69   24.20
  -5  -2  10  147.39   25.10
  -5  -2  10  120.39   24.10
  -5  -2  10  135.79   24.00
  -5  -2  10  144.19   25.00
   4   2 -10   41.80    8.30
  -4  -2  10   35.60    9.30
  -4  -2  10   41.20    8.80
  -4  -2  10   32.00    8.60
  -4  -2  10   54.89    9.80
  -4  -2  10   38.20    8.10
   3   2 -10    0.50    3.90
   3   2 -10   -0.30    2.80
  -3  -2  10    7.20    4.70
  -3  -2  10    4.30    4.90
  -3  -2  10   10.70    4.30
  -3  -2  10    0.50    3.20
  -3  -2  10    1.60    2.70
  -2  -2  10   11.40    3.70
  -2  -2  10   14.30    4.60
  -2  -2  10   20.50    4.20
  -2  -2  10    7.60    5.20
  -1  -2  10  158.78   28.40
  -1  -2  10  167.78   28.30
   0  -2  10  741.63  120.79
   0  -2  10  691.73  120.69
  -1   2 -10 1644.34  252.77
   1  -2  10 1453.65  253.17
   1  -2  10 1435.26  252.97
   1  -2  10 1456.15  252.87
   1  -2  10 1506.75  253.07
  -2   2 -10   -3.00    5.40
  -2   2 -10    7.60    4.80
   2  -2  10   10.20    4.70
   2  -2  10   -2.50    6.50
   2  -2  10   -1.20    4.50
   2  -2  10    2.70    3.60
   2  -2  10    4.40    3.50
   2  -2  10    6.30    5.90
  -3   2 -10   12.00    6.40
  -3   2 -10   -1.20    6.70
   3  -2  10   -0.40    6.00
   3  -2  10    2.90    5.00
   3  -2  10  -15.60    9.70
   3  -2  10    4.60    4.80
   3  -2  10    2.90    5.90
   3  -2  10    2.40    6.70
  -4   2 -10    7.90    8.10
  -4   2 -10   -4.10    8.90
   4  -2  10    4.10    6.20
   4  -2  10   10.40    8.30
   4  -2  10    2.00    8.00
   4  -2  10   -2.80    6.50
   4  -2  10    0.80    8.80
  -5   2 -10   29.90   12.30
  -5   2 -10    2.30   13.50
   5  -2  10   35.50   10.10
   5  -2  10   50.79   24.00
   5  -2  10   28.50   10.10
   5  -2  10   25.80   11.90
   5  -2  10   60.39   16.90
   8   1 -10   -5.80   12.90
   7   1 -10   -2.70    9.20
   7   1 -10   12.30   14.60
   7   1 -10   -7.00    9.10
  -7  -1  10   16.30   12.30
  -7  -1  10   -8.00    8.60
  -7  -1  10  -10.20   14.00
  -7  -1  10   -0.30   10.30
   6   1 -10   -6.30    8.50
   6   1 -10    8.60    7.00
  -6  -1  10    8.20    8.30
  -6  -1  10   -3.20    6.20
  -6  -1  10    4.90    7.90
  -6  -1  10    1.90   20.50
   5   1 -10   80.19   13.60
  -5  -1  10   73.99   13.90
  -5  -1  10   79.39   13.40
  -5  -1  10   64.59   13.50
  -5  -1  10   64.19   15.30
  -5  -1  10   51.49   14.90
   4   1 -10    7.80    4.30
  -4  -1  10    8.90    4.90
  -4  -1  10    8.30    4.40
  -4  -1  10    3.20    6.00
  -4  -1  10   -1.70    6.00
   3   1 -10  232.88   38.80
   3   1 -10  212.08   38.50
  -3  -1  10  219.98   38.50
  -3  -1  10  231.58   38.70
  -3  -1  10  254.37   38.60
  -3  -1  10  210.68   38.90
  -3  -1  10  226.48   39.00
  -3  -1  10  230.78   39.30
  -2  -1  10    2.50    3.10
  -2  -1  10    3.00    4.40
  -2  -1  10    3.30    3.20
  -2  -1  10   12.10    3.80
  -1  -1  10  799.32  130.09
  -1  -1  10  728.03  129.79
  -1  -1  10  819.22  130.09
   0  -1  10  246.68   40.70
   0  -1  10  224.78   40.60
   0  -1  10  231.38   40.90
   0  -1  10  271.47   41.10
  -1   1 -10   25.40    8.30
  -1   1 -10   34.50    6.40
  -1   1 -10   24.90    6.40
   1  -1  10   29.20    5.80
   1  -1  10   37.70    6.00
   1  -1  10   37.50    8.20
   1  -1  10   30.40    6.60
   1  -1  10   27.60    6.70
   1  -1  10   26.40    7.40
  -2   1 -10    1.00    5.30
  -2   1 -10    4.30    7.70
   2  -1  10    1.10    4.10
   2  -1  10    1.30    7.30
   2  -1  10    9.00    6.20
   2  -1  10    4.60    4.10
   2  -1  10    3.70    5.60
   2  -1  10   11.10    5.20
  -3   1 -10    2.10    7.80
  -3   1 -10   27.70    6.90
   3  -1  10   23.60    6.50
   3  -1  10   23.00    8.20
   3  -1  10   21.40    7.70
   3  -1  10   18.00    6.30
   3  -1  10   25.50    7.70
   3  -1  10   29.30   12.20
  -4   1 -10   16.10    8.20
  -4   1 -10   17.90   10.20
   4  -1  10   21.80   10.60
   4  -1  10   29.10    7.20
   4  -1  10   19.70    7.80
   4  -1  10   19.70   10.40
  -5   1 -10   22.80   11.20
  -5   1 -10    7.30   14.00
   5  -1  10   35.10    9.50
   5  -1  10   17.90   12.90
   5  -1  10   30.70   12.20
   5  -1  10   32.00   10.10
   8   0 -10    6.20   13.10
   8   0 -10   -0.20   11.60
  -8   0  10    0.30   22.40
   7   0 -10   21.30   15.40
   7   0 -10   25.20   10.40
   7   0 -10   25.10   10.10
  -7   0  10   30.20   14.60
  -7   0  10   17.20   10.50
  -7   0  10   27.70   13.10
  -7   0  10   25.60    8.30
   6   0 -10   27.10    8.00
   6   0 -10   20.10    9.20
  -6   0  10   24.00    9.10
  -6   0  10   32.30    9.50
  -6   0  10   22.00    6.90
  -6   0  10   21.80   19.40
   5   0 -10    6.70    5.30
  -5   0  10   -3.90    7.80
  -5   0  10   10.70    7.80
  -5   0  10    4.60    4.00
  -5   0  10   -1.80    5.80
   4   0 -10   86.39   19.70
   4   0 -10  114.59   20.30
  -4   0  10  137.79   20.10
  -4   0  10  101.39   20.40
  -4   0  10  169.28   20.80
  -4   0  10   94.19   19.50
  -4   0  10  119.19   19.90
  -4   0  10  110.39   19.50
  -4   0  10  133.39   21.10
   3   0 -10  346.77   56.79
  -3   0  10  351.46   56.69
  -3   0  10  341.57   57.29
  -3   0  10  331.27   56.59
  -3   0  10  343.57   56.69
  -3   0  10  299.17   56.59
  -3   0  10  325.67   56.99
  -3   0  10  348.97   56.89
   2   0 -10   89.59   17.40
   2   0 -10  116.69   17.60
  -2   0  10   94.29   17.80
  -2   0  10   87.29   17.50
  -2   0  10  112.89   17.60
  -2   0  10  106.49   17.80
  -2   0  10  115.89   17.90
   1   0 -10   20.80    4.30
   1   0 -10   24.10    4.70
  -1   0  10   25.70    5.10
  -1   0  10   23.20    5.00
  -1   0  10   35.50    5.90
  -1   0  10   11.50    5.30
   0   0 -10  259.37   41.80
   0   0 -10  235.08   40.90
   0   0 -10  269.77   41.10
   0   0  10  236.48   41.20
   0   0  10  246.88   41.20
   0   0  10  268.07   41.00
   0   0  10  207.08   40.80
   0   0  10  280.57   41.50
   0   0  10  230.58   41.20
  -1   0 -10   -1.50    6.00
  -1   0 -10    4.30    4.30
   1   0  10    3.90    3.50
   1   0  10    3.20    4.90
   1   0  10    5.70    3.40
   1   0  10    6.20    5.30
   1   0  10    0.20    3.20
  -2   0 -10   24.30    7.10
  -2   0 -10   17.80    6.70
   2   0  10   22.90    6.40
   2   0  10   19.70    5.90
   2   0  10   19.10    6.50
   2   0  10   21.80    9.90
   2   0  10   19.10    5.20
   2   0  10   22.50    7.80
  -3   0 -10   33.80   15.60
   3   0  10  101.29   16.00
   3   0  10  122.79   18.70
   3   0  10   82.09   14.10
   3   0  10   68.49   15.30
   3   0  10   67.49   15.30
   3   0  10  100.79   16.00
   4   0  10   -1.30    5.30
   4   0  10   14.10    7.40
   4   0  10    6.70    8.60
   4   0  10    3.30    9.40
   4   0  10   -1.90   16.30
   5   0  10    1.60   11.30
   5   0  10   21.30   12.20
   5   0  10   10.10    9.80
   8  -1 -10   -1.50   12.10
   8  -1 -10   -0.70   13.00
  -8   1  10   21.10   24.00
   7  -1 -10   24.70   11.00
   7  -1 -10   40.20   10.70
   7  -1 -10   14.70   15.40
  -7   1  10   23.60   15.00
  -7   1  10   24.40    6.50
  -7   1  10    8.20   13.00
  -7   1  10   46.10   11.70
   6  -1 -10   85.59   15.60
   6  -1 -10   64.59   15.30
   6  -1 -10   77.89   16.60
  -6   1  10   94.09   17.10
  -6   1  10   65.49   15.70
   5  -1 -10   14.70    5.80
  -5   1  10   11.00    6.40
  -5   1  10    8.10    7.90
  -5   1  10    0.80    7.10
  -5   1  10   25.00    8.90
   4  -1 -10   27.80    8.50
   4  -1 -10   32.70    7.10
  -4   1  10   28.10    5.90
  -4   1  10   39.20    8.90
  -4   1  10   33.50    8.60
  -4   1  10   33.20    9.30
  -4   1  10   37.00    7.70
  -4   1  10   35.80    7.60
  -4   1  10   30.50    5.80
   3  -1 -10   74.59   11.80
   3  -1 -10   56.39   11.10
  -3   1  10   66.99   11.90
  -3   1  10   61.19   11.90
  -3   1  10   55.09   10.80
  -3   1  10   53.09   12.40
  -3   1  10   51.49   11.30
  -3   1  10   59.49   10.90
  -3   1  10   78.09   11.30
   2  -1 -10  221.78   37.70
  -2   1  10  204.08   37.70
  -2   1  10  206.78   37.50
  -2   1  10  249.08   37.50
  -2   1  10  208.68   37.80
  -2   1  10  222.88   37.70
  -2   1  10  218.28   37.50
   1  -1 -10   47.80    9.10
  -1   1  10   45.70    9.20
  -1   1  10   52.39    9.30
  -1   1  10   48.40    9.40
  -1   1  10   54.49    8.90
  -1   1  10   39.90    8.80
   0  -1 -10  115.39   17.90
   0  -1 -10   90.09   18.20
   0   1  10  105.59   18.20
   0   1  10  107.09   18.10
   0   1  10   87.69   17.60
   0   1  10  105.29   17.60
   0   1  10   98.89   17.90
   0   1  10  102.09   17.60
  -1  -1 -10   25.10    6.30
  -1  -1 -10    6.20    7.40
  -1  -1 -10   17.50    6.80
   1   1  10   24.70    5.80
   1   1  10   21.10    4.80
   1   1  10   24.10    7.30
   1   1  10   19.40    6.70
   1   1  10   28.30    6.30
  -2  -1 -10   -3.40    6.10
   2   1  10    0.60    5.10
   2   1  10   -2.00    6.60
   2   1  10    0.30    2.40
   2   1  10   13.70   12.50
   2   1  10   16.10   12.10
   2   1  10   -4.50    5.70
  -3  -1 -10   22.50   10.20
   3   1  10   34.00   10.60
   3   1  10   38.30    8.60
   3   1  10   24.70    9.50
   3   1  10   35.40   10.20
  -4  -1 -10   10.70   11.60
   4   1  10    4.70   13.40
   4   1  10   -4.30    9.70
   4   1  10   -6.00   10.20
   4   1  10   11.60    8.40
   8  -2 -10    2.40   13.80
   7  -2 -10  -15.60    9.30
   7  -2 -10    3.80   15.90
   7  -2 -10    3.60   10.00
  -7   2  10   15.90   10.40
  -7   2  10   -3.50   14.70
  -7   2  10    8.80   14.50
   6  -2 -10   33.50    9.30
   6  -2 -10   26.10    9.60
   6  -2 -10   19.80   11.90
  -6   2  10   29.40   11.70
  -6   2  10   48.70   11.60
  -6   2  10   27.70   10.00
   5  -2 -10  105.69   16.80
   5  -2 -10   91.49   17.30
  -5   2  10   71.39   17.70
  -5   2  10   99.79   18.30
  -5   2  10   95.89   17.50
  -5   2  10   78.79   18.90
   4  -2 -10   92.89   15.80
   4  -2 -10   96.19   16.80
  -4   2  10   87.49   15.90
  -4   2  10   91.99   16.80
  -4   2  10   68.79   16.70
  -4   2  10   67.29   15.80
  -4   2  10  100.79   16.60
   3  -2 -10   97.19   17.60
   3  -2 -10   98.79   18.10
  -3   2  10   81.79   18.10
  -3   2  10  109.39   17.60
  -3   2  10   93.39   17.00
  -3   2  10  105.79   18.30
  -3   2  10  134.59   18.30
  -3   2  10   99.49   18.00
  -3   2  10   91.49   17.10
   2  -2 -10    4.80    5.30
   2  -2 -10   11.20    4.20
  -2   2  10   13.70    5.40
  -2   2  10    9.20    4.90
  -2   2  10    9.50    3.80
  -2   2  10    7.50    5.50
  -2   2  10    9.50    5.20
  -2   2  10   10.50    4.30
   1  -2 -10    0.40    4.70
   1  -2 -10    1.20    4.80
   1  -2 -10    1.10    3.80
  -1   2  10   -0.90    3.60
  -1   2  10   -0.80    4.40
  -1   2  10    2.20    5.10
  -1   2  10    3.60    4.00
  -1   2  10    0.00    3.40
  -1   2  10    1.80    4.60
  -1   2  10   -1.40    4.50
   0  -2 -10    6.20    5.50
   0  -2 -10   -0.10    4.40
   0  -2 -10    4.60    5.60
   0   2  10   10.90    5.10
   0   2  10   10.20    4.90
   0   2  10    8.60    4.30
   0   2  10    4.10    3.10
   0   2  10    6.10    6.00
   0   2  10    2.80    5.60
   0   2  10    8.40    3.00
  -1  -2 -10  102.39   19.20
  -1  -2 -10   77.69   19.60
  -1  -2 -10  124.49   19.70
   1   2  10  102.89   19.40
   1   2  10  104.69   19.20
   1   2  10  109.39   18.90
   1   2  10  120.89   19.90
   1   2  10  102.79   19.30
  -2  -2 -10   16.70    9.40
   2   2  10   35.10    9.20
   2   2  10   18.00   14.60
   2   2  10   52.69   10.50
   2   2  10   38.00    8.60
   2   2  10   37.90    9.70
   3   2  10   78.69   14.90
   3   2  10   49.99   14.40
   3   2  10   73.09   13.90
  -4  -2 -10   -6.40   12.40
   4   2  10    8.70    9.30
   4   2  10    7.40   12.10
   4   2  10    5.50   10.80
   7  -3 -10   -7.80    9.60
   7  -3 -10   -3.40   17.90
   7  -3 -10   -5.50   10.20
  -7   3  10    6.80   12.70
  -7   3  10    1.00   10.70
   6  -3 -10   -2.10   11.80
   6  -3 -10    9.50    7.60
   6  -3 -10    6.40    8.40
  -6   3  10    6.20   10.30
  -6   3  10   13.40    8.40
  -6   3  10    4.50   11.00
   5  -3 -10   -2.00   10.30
   5  -3 -10   -1.20    5.70
   5  -3 -10   -7.90    6.30
  -5   3  10   -3.40    6.30
  -5   3  10    1.30    9.30
  -5   3  10    5.50    8.30
   4  -3 -10   39.00    8.40
  -4   3  10   23.60    8.10
  -4   3  10   32.50    9.20
  -4   3  10   44.60   10.20
  -4   3  10   30.40    9.90
  -4   3  10   27.50    9.20
   3  -3 -10    3.30    5.10
   3  -3 -10    5.00    7.10
  -3   3  10   11.60    7.10
  -3   3  10    2.80    6.10
  -3   3  10   12.30    6.00
  -3   3  10    0.10    6.80
  -3   3  10    0.10    5.00
   2  -3 -10  243.28   45.70
   2  -3 -10  280.87   46.30
  -2   3  10  259.77   45.70
  -2   3  10  265.07   45.80
  -2   3  10  299.77   46.20
  -2   3  10  238.38   46.10
  -2   3  10  278.27   45.40
  -2   3  10  276.77   46.00
   1  -3 -10    7.50    5.00
   1  -3 -10    4.80    4.70
   1  -3 -10    3.10    6.10
  -1   3  10   18.20    6.00
  -1   3  10    5.00    3.80
  -1   3  10    1.30    6.50
  -1   3  10   12.80    6.40
  -1   3  10    3.30    4.40
  -1   3  10    8.60    4.70
  -1   3  10    0.50    3.40
   0  -3 -10  229.08   42.60
   0  -3 -10  218.68   42.50
   0   3  10  250.97   42.60
   0   3  10  256.37   42.90
   0   3  10  252.37   42.60
   0   3  10  236.98   43.00
   0   3  10  285.57   42.60
  -1  -3 -10   12.70    6.90
  -1  -3 -10   -3.60    8.60
   1   3  10   -0.80    6.30
   1   3  10   -1.90    6.60
   1   3  10   -1.10    8.10
   1   3  10    6.90    6.20
   1   3  10    3.10    8.60
  -2  -3 -10   -5.80    8.10
   2   3  10   -6.90    6.80
   2   3  10    3.00    8.00
   2   3  10  -16.90   10.20
  -3  -3 -10    4.80   10.70
   3   3  10    6.60    9.30
   3   3  10   20.00   13.40
   3   3  10   13.00    8.50
   3   3  10   -7.10    9.50
  -4  -3 -10    7.00    9.60
   4   3  10   -3.40   11.00
   4   3  10   10.70   12.60
   7  -4 -10    8.50   11.10
   7  -4 -10   12.40   11.00
   7  -4 -10   41.30   19.90
  -7   4  10   14.20   12.80
  -7   4  10   17.20   17.50
  -7   4  10   28.00   14.10
   6  -4 -10    8.90    9.00
   6  -4 -10   -2.80   13.90
   6  -4 -10   11.30    8.50
  -6   4  10   10.70   12.50
  -6   4  10   15.10    9.00
  -6   4  10    1.30   10.30
   5  -4 -10  109.39   17.20
   5  -4 -10   79.19   17.70
   5  -4 -10  115.19   18.70
  -5   4  10   76.39   18.50
  -5   4  10   68.29   17.90
  -5   4  10   88.49   17.60
   4  -4 -10   -7.10    6.10
   4  -4 -10    4.30    6.60
   4  -4 -10   -3.70    5.20
  -4   4  10   -0.50    6.30
  -4   4  10    0.50    8.30
  -4   4  10   -0.50    8.50
  -4   4  10   -4.00    8.00
   3  -4 -10   18.80    7.40
  -3   4  10   24.40    8.70
  -3   4  10   30.30   10.00
  -3   4  10   30.70    7.50
  -3   4  10   34.00    9.60
  -3   4  10   21.00    8.00
  -2   4  10  135.19   26.40
  -2   4  10  178.98   27.40
  -2   4  10  161.98   26.80
  -2   4  10  129.69   27.00
  -2   4  10  156.38   26.10
  -2   4  10  162.58   27.40
   1  -4 -10   54.39   10.10
   1  -4 -10   44.50   10.50
  -1   4  10   41.80    9.80
  -1   4  10   60.09   11.90
  -1   4  10   50.99   10.40
  -1   4  10   55.09    9.10
  -1   4  10   47.80   11.20
  -1   4  10   47.30    9.00
  -1   4  10   37.30   11.90
   0  -4 -10   -3.80    6.10
   0  -4 -10    3.40   10.50
   0   4  10    1.20    8.40
   0   4  10    2.90    6.40
   0   4  10    7.20    9.10
   0   4  10   -4.70    5.90
   0   4  10    4.90    6.80
  -1  -4 -10   13.80    8.50
   1   4  10   19.20    7.40
   1   4  10   12.90    8.40
   1   4  10    6.00   11.30
   1   4  10   33.00    8.40
  -2  -4 -10   39.10   13.00
  -2  -4 -10   61.79   10.40
  -2  -4 -10   40.10   10.60
   2   4  10   59.19   12.90
   2   4  10   43.50   12.60
   2   4  10   30.60   11.40
   2   4  10   57.99   15.60
  -3  -4 -10   17.80   12.80
  -3  -4 -10   14.40    8.60
  -3  -4 -10   14.20   12.00
   3   4  10    6.60   11.10
   3   4  10   23.70   10.00
   3   4  10   20.40   11.40
   7  -5 -10  -14.50   12.40
   7  -5 -10    3.60   11.40
  -7   5  10    3.20   18.60
  -7   5  10   -2.50   11.10
   6  -5 -10   30.00   10.40
   6  -5 -10   28.70   10.90
  -6   5  10   23.10   12.30
  -6   5  10   11.70    9.90
  -6   5  10   15.60   15.20
   5  -5 -10  177.38   25.80
   5  -5 -10  194.98   27.50
   5  -5 -10  154.08   26.30
  -5   5  10  106.99   26.30
  -5   5  10   67.09   26.90
  -5   5  10  135.19   25.90
   4  -5 -10   86.39   14.50
   4  -5 -10   86.69   15.00
   4  -5 -10   65.59   15.60
  -4   5  10   66.89   15.60
  -4   5  10   72.39   14.70
  -4   5  10   40.40   16.90
  -4   5  10   63.99   15.70
   3  -5 -10   -4.60    7.10
   3  -5 -10    0.80    8.90
   3  -5 -10    1.50    5.50
  -3   5  10    1.90    8.10
  -3   5  10    3.60    6.50
  -3   5  10   -5.30   10.60
  -3   5  10   -4.80    6.20
   2  -5 -10  269.67   45.40
   2  -5 -10  264.47   45.90
   2  -5 -10  279.27   45.70
  -2   5  10  260.57   46.50
  -2   5  10  275.77   46.30
  -2   5  10  258.07   45.60
  -2   5  10  248.68   45.30
  -2   5  10  284.37   46.30
   1  -5 -10  633.14  103.29
   1  -5 -10  603.74  103.79
   1  -5 -10  614.44  103.59
   1  -5 -10  584.54  103.39
  -1   5  10  601.24  104.69
  -1   5  10  637.74  103.79
  -1   5  10  626.14  103.49
  -1   5  10  581.04  104.09
   0  -5 -10    5.50    8.90
   0  -5 -10    5.10    8.00
   0  -5 -10   -2.60    5.20
   0  -5 -10    1.30    6.10
   0   5  10   -7.10    6.40
   0   5  10    3.90    6.80
   0   5  10   11.00   10.90
   0   5  10   -0.40    8.20
  -1  -5 -10    1.40    6.80
  -1  -5 -10   -1.50    8.30
  -1  -5 -10    0.00    9.30
   1   5  10  -13.00   13.40
   1   5  10    2.70    7.80
   1   5  10   -2.00   10.00
   1   5  10   14.70    9.60
  -2  -5 -10   36.40   12.90
  -2  -5 -10   36.80   10.70
  -2  -5 -10   49.00   14.00
   2   5  10   43.80   13.00
   2   5  10   43.80   12.80
   2   5  10   36.60   18.20
   2   5  10   37.90   11.60
   6  -6 -10    4.90   10.40
   6  -6 -10   21.10   19.70
   6  -6 -10    5.70   11.70
  -6   6  10    4.80   14.00
  -6   6  10    6.40   13.70
  -6   6  10   -6.90   19.80
   5  -6 -10    6.30    9.50
   5  -6 -10   -2.40   15.40
   5  -6 -10    1.30    8.60
  -5   6  10   18.20    9.20
  -5   6  10   23.10   15.00
  -5   6  10   -1.00   11.20
   4  -6 -10  203.88   36.30
   4  -6 -10  199.08   36.70
   4  -6 -10  250.47   37.70
  -4   6  10  227.88   36.90
  -4   6  10  127.39   38.20
  -4   6  10  250.67   37.20
  -4   6  10  185.98   37.20
   3  -6 -10   15.50    7.50
   3  -6 -10    3.60    8.10
   3  -6 -10   -3.10   10.30
  -3   6  10   14.10    8.00
  -3   6  10   19.00    7.70
  -3   6  10   27.70    9.60
  -3   6  10    9.00   12.90
   2  -6 -10   -3.60    9.40
   2  -6 -10    4.30    6.70
   2  -6 -10    0.90    8.30
  -2   6  10    1.90    5.60
  -2   6  10   10.20    4.80
  -2   6  10   -1.70   12.70
  -2   6  10    5.60    7.60
  -2   6  10   16.10    9.40
   1  -6 -10   40.10   11.40
   1  -6 -10   50.29   11.00
   1  -6 -10   60.79   12.60
   1  -6 -10   49.40   12.50
  -1   6  10   43.00   13.00
  -1   6  10   44.30   15.50
  -1   6  10   61.39   11.00
  -1   6  10   45.30   11.80
   0  -6 -10   -0.20    7.00
   0  -6 -10    6.70    9.60
   0  -6 -10    6.00    9.50
   0  -6 -10    4.30   10.00
   0   6  10   -1.30   14.70
   0   6  10   -4.20    8.40
   0   6  10   11.00   10.20
   0   6  10    7.20    7.90
  -1  -6 -10    3.10    8.40
  -1  -6 -10   -2.30   11.30
  -1  -6 -10   11.10   11.20
   1   6  10   -5.40    9.30
   1   6  10    5.10   10.70
   1   6  10   10.40    9.40
   1   6  10    5.50   17.60
  -2  -6 -10   -4.30   10.10
  -2  -6 -10  -13.20   13.90
   2   6  10   -6.70   10.50
   2   6  10    2.40   11.60
   6  -7 -10   35.30   20.00
   5  -7 -10   28.60   11.80
   5  -7 -10    9.90   10.10
   5  -7 -10   25.10   19.10
  -5   7  10   -0.90   13.40
  -5   7  10   24.10   21.60
  -5   7  10    5.60   10.90
   4  -7 -10    9.50   11.00
   4  -7 -10   14.10    9.50
  -4   7  10    6.10   12.00
  -4   7  10    7.70   10.20
  -4   7  10   35.00   18.80
   3  -7 -10   45.90   16.30
   3  -7 -10   49.60   12.10
   3  -7 -10   58.09   13.60
  -3   7  10   36.30   18.40
  -3   7  10   61.69   12.40
  -3   7  10   44.00   12.80
  -3   7  10   47.40   14.60
   2  -7 -10    9.70   12.60
   2  -7 -10    6.20    9.90
   2  -7 -10    8.40    6.50
   2  -7 -10   11.90    8.30
  -2   7  10  -14.70   15.80
  -2   7  10   18.00   11.20
  -2   7  10    7.90    8.60
  -2   7  10    7.10    5.50
   1  -7 -10    3.00    8.20
   1  -7 -10   -4.30    8.90
   1  -7 -10   19.80   10.60
   1  -7 -10   -3.80   12.20
  -1   7  10    5.20    7.40
  -1   7  10    4.20   11.30
  -1   7  10   21.10   16.20
  -1   7  10   15.10    9.10
   0  -7 -10    0.00   13.90
   0  -7 -10   -3.40    8.90
   0  -7 -10   17.20   12.20
   0   7  10    2.90   10.20
   0   7  10    0.70   10.90
   0   7  10    9.70   12.30
  -1  -7 -10    6.40   10.70
   1   7  10    5.20   11.30
   1   7  10   29.40   11.40
   4  -8 -10   53.29   14.60
   4  -8 -10   44.00   13.50
  -4   8  10   40.50   14.00
  -4   8  10   29.50   16.30
   3  -8 -10   -9.00   17.50
   3  -8 -10   16.00   10.30
   3  -8 -10   -9.10   11.40
  -3   8  10   -6.60   12.70
   2  -8 -10  -22.80   17.90
   2  -8 -10    2.50   11.80
   2  -8 -10    4.20   10.00
  -2   8  10    3.50   13.40
   1  -8 -10   22.60   13.50
   1  -8 -10    4.30   10.40
  -1   8  10    0.50   10.70
  -1   8  10   -2.20   13.30
  -1   8  10    8.70    8.70
   2  11 -11    7.50   12.10
  -2 -11  11   -4.50   11.00
  -2 -11  11   -6.00   11.50
  -2 -11  11    7.00    9.10
   1  11 -11   -0.60    9.90
  -1 -11  11    2.60   11.10
  -1 -11  11   14.00   10.70
  -1 -11  11   -9.50    8.40
   0  11 -11   -9.10    9.70
   0 -11  11    5.20   10.30
   0 -11  11   12.10    8.50
   0 -11  11   -8.00   11.60
   0 -11  11   -0.20   11.00
  -1  11 -11   16.40   10.20
   1 -11  11    2.00    8.50
   1 -11  11   22.80   12.10
   1 -11  11   -8.90   11.40
   1 -11  11    2.20   10.40
  -2  11 -11   15.00   11.10
   2 -11  11   -0.30   12.20
   2 -11  11    4.60   11.70
   2 -11  11   17.00   13.00
   2 -11  11    2.00    8.90
  -3 -10  11    6.50    9.20
  -3 -10  11   12.50   10.40
  -3 -10  11   10.90   11.00
   2  10 -11  172.18   23.40
  -2 -10  11  125.29   23.20
  -2 -10  11   80.99   23.20
  -2 -10  11  124.09   22.60
  -2 -10  11  118.39   24.00
   1  10 -11    2.30    8.00
  -1 -10  11    6.50    8.80
  -1 -10  11    0.10    9.80
  -1 -10  11    4.70    7.90
  -1 -10  11   16.70    7.30
   0  10 -11   81.69   16.30
   0 -10  11   71.09   16.90
   0 -10  11   87.49   15.90
   0 -10  11   76.99   16.00
   0 -10  11   83.69   17.50
   0 -10  11   88.49   17.80
  -1  10 -11    7.30    8.70
   1 -10  11  -10.40    9.10
   1 -10  11   -3.50    7.70
   1 -10  11    5.80    7.10
   1 -10  11    3.20   10.50
  -2  10 -11   22.80    9.70
   2 -10  11   60.19   21.30
   2 -10  11   19.10    8.40
   2 -10  11   19.00    9.50
   2 -10  11   15.70   10.90
   2 -10  11    9.50   10.40
  -3  10 -11    6.80   11.30
   3 -10  11   23.40    8.70
   3 -10  11    9.20   11.60
   3 -10  11   17.50   12.80
   3 -10  11   14.10   12.10
   4   9 -11   52.39   13.00
  -4  -9  11   27.30   12.80
  -4  -9  11   55.79   15.20
  -4  -9  11   47.30   13.60
   3   9 -11   88.29   16.40
  -3  -9  11   77.09   18.00
  -3  -9  11   85.69   16.80
  -3  -9  11   86.49   16.90
  -3  -9  11   64.89   15.80
   2   9 -11   13.40    7.40
  -2  -9  11    3.80    7.90
  -2  -9  11    8.00    6.30
  -2  -9  11   -3.10    9.30
  -2  -9  11   11.30    7.30
   1   9 -11    5.60    6.50
  -1  -9  11    2.20    5.90
  -1  -9  11    0.90    9.10
  -1  -9  11   11.60    7.20
  -1  -9  11    5.50   10.90
   0   9 -11   51.99   10.10
   0  -9  11   47.20    9.60
   0  -9  11   41.60   10.60
   0  -9  11   35.50   11.60
   0  -9  11   46.60    9.70
   0  -9  11   37.40   13.60
   0  -9  11   27.40   12.10
  -1   9 -11   51.69   11.30
   1  -9  11   54.79   10.80
   1  -9  11   46.20   13.00
   1  -9  11   36.20   13.00
   1  -9  11   45.90   10.60
   1  -9  11   61.49   12.10
   1  -9  11   57.19   15.50
  -2   9 -11   85.79   16.20
   2  -9  11   65.99   16.80
   2  -9  11   76.69   15.70
   2  -9  11   81.79   15.40
   2  -9  11   81.29   16.70
   2  -9  11   93.99   17.30
  -3   9 -11   24.60   10.20
   3  -9  11   24.30    8.70
   3  -9  11   32.80   11.50
   3  -9  11   13.90   11.00
   3  -9  11   38.40   10.20
   3  -9  11   22.00   13.40
   4  -9  11   31.10   10.30
   4  -9  11   21.40   12.60
   4  -9  11   21.10   12.40
   5   8 -11   -7.70   11.20
  -5  -8  11    0.90   12.50
  -5  -8  11    8.50   12.10
  -5  -8  11    5.40   10.80
   4   8 -11   72.29   13.70
  -4  -8  11   28.70   13.50
  -4  -8  11   60.19   14.90
  -4  -8  11   55.39   14.20
  -4  -8  11   76.79   14.10
   3   8 -11   29.60    8.30
  -3  -8  11   24.10    8.80
  -3  -8  11   12.90    8.30
  -3  -8  11   33.70   10.90
  -3  -8  11   24.80    8.10
   2   8 -11    8.00    6.10
  -2  -8  11   16.60    6.00
  -2  -8  11   15.80    7.20
  -2  -8  11   13.10    9.90
  -2  -8  11    5.90    8.30
  -2  -8  11    8.10    5.50
   1   8 -11   85.09   13.60
   1   8 -11   11.30   12.10
  -1  -8  11   90.99   12.00
  -1  -8  11   59.39   12.50
  -1  -8  11   52.29   13.60
  -1  -8  11   97.59   14.20
  -1  -8  11   60.49   11.70
   0   8 -11   11.70    7.70
   0  -8  11   22.90    8.90
   0  -8  11   12.90    5.10
   0  -8  11   17.60    6.50
   0  -8  11    9.90    4.70
   0  -8  11    5.60    8.10
   0  -8  11   23.70    8.30
  -1   8 -11   51.29   17.00
   1  -8  11   74.09   15.50
   1  -8  11   94.49   15.60
   1  -8  11   88.89   16.50
   1  -8  11  120.99   17.90
   1  -8  11   85.69   17.10
   1  -8  11  118.79   18.20
  -2   8 -11    5.30    6.40
   2  -8  11   -4.40    8.40
   2  -8  11  -17.60   10.80
   2  -8  11    3.90    7.30
   2  -8  11   -4.70    6.20
   2  -8  11   -1.00    5.30
   2  -8  11    4.00    8.30
  -3   8 -11   -4.30    7.80
   3  -8  11    3.90    8.80
   3  -8  11    1.50    7.30
   3  -8  11   -7.70    6.60
   3  -8  11    9.70    9.20
   3  -8  11    4.40    8.90
  -4   8 -11    6.10   10.20
   4  -8  11   -5.60   10.40
   4  -8  11    7.30    8.10
   4  -8  11   -3.00   11.00
   4  -8  11    1.00   10.90
   6   7 -11   47.80   15.30
  -5  -7  11   70.69   14.20
  -5  -7  11   69.39   14.50
  -5  -7  11   19.40   13.60
   4   7 -11   12.40    7.50
  -4  -7  11    5.50    8.50
  -4  -7  11    6.90    7.50
  -4  -7  11   12.50    9.10
  -4  -7  11   -7.70    7.80
   3   7 -11   26.90    6.70
  -3  -7  11   26.50    9.40
  -3  -7  11   15.70    7.20
  -3  -7  11   20.40   10.50
  -3  -7  11   13.30    6.20
  -3  -7  11   14.90    6.50
   2   7 -11   38.70    9.10
  -2  -7  11   38.80    7.70
  -2  -7  11   21.20    6.40
  -2  -7  11   23.20    8.90
  -2  -7  11   26.00    8.90
   1   7 -11  389.76   60.29
   1   7 -11  354.16   60.69
  -1  -7  11  418.76   60.19
  -1  -7  11  307.57   59.99
  -1  -7  11  337.17   61.09
  -1  -7  11  333.77   60.89
  -1  -7  11  337.67   60.59
   0   7 -11  154.18   28.10
   0   7 -11  168.68   27.90
   0  -7  11  207.08   28.80
   0  -7  11  153.28   29.10
   0  -7  11  130.29   28.80
   0  -7  11  137.69   27.60
   0  -7  11  184.88   27.80
   0  -7  11  176.98   28.30
  -1   7 -11  314.17   54.59
   1  -7  11  289.07   54.29
   1  -7  11  368.76   55.79
   1  -7  11  320.37   54.99
   1  -7  11  313.27   55.69
   1  -7  11  355.16   54.39
   1  -7  11  331.67   55.59
  -2   7 -11    8.80    7.70
   2  -7  11   19.40    7.60
   2  -7  11   14.80    5.80
   2  -7  11   14.60    8.70
   2  -7  11   24.80    5.90
   2  -7  11   50.09    9.00
   2  -7  11   24.70   10.10
  -3   7 -11   32.90   10.30
   3  -7  11   57.99   10.10
   3  -7  11   46.40   11.90
   3  -7  11   47.70   12.30
   3  -7  11   34.30   11.00
   3  -7  11   34.90   14.30
  -4   7 -11   37.90   12.30
   4  -7  11   46.00   12.50
   4  -7  11   37.80   12.90
   4  -7  11   34.70   13.00
   4  -7  11   57.69   10.90
   4  -7  11   44.10   14.40
   6   6 -11   10.90   11.20
  -6  -6  11   -1.60   12.20
  -6  -6  11  -17.40   11.20
   5   6 -11   -1.60    8.10
  -5  -6  11    4.10    9.70
  -5  -6  11    3.10    8.30
  -5  -6  11   17.90    9.30
   4   6 -11   14.40    6.90
  -4  -6  11   35.00   10.90
  -4  -6  11    5.70    9.20
  -4  -6  11   15.90    6.90
   3   6 -11  123.79   19.70
   3   6 -11  102.79   18.60
  -3  -6  11  125.49   19.80
  -3  -6  11   78.39   18.50
  -3  -6  11  108.19   18.50
  -3  -6  11  102.09   19.60
  -3  -6  11  113.39   19.10
   2   6 -11  673.33  104.89
   2   6 -11  587.64  104.69
  -2  -6  11  554.14  104.59
  -2  -6  11  625.54  104.99
  -2  -6  11  677.83  105.49
  -2  -6  11  633.64  105.09
  -2  -6  11  658.23  104.59
   1   6 -11   11.30    4.50
   1   6 -11   11.70    3.30
  -1  -6  11    8.00    6.90
  -1  -6  11   10.00    4.40
  -1  -6  11    1.00    6.50
   0  -6  11   37.20    9.30
   0  -6  11   39.20    7.70
   0  -6  11   17.30   12.10
   0  -6  11   41.20    8.50
  -1   6 -11    8.50    3.60
  -1   6 -11    2.60    4.60
   1  -6  11   -1.20    6.60
   1  -6  11    4.20    6.70
   1  -6  11    4.40    4.80
   1  -6  11    2.50    6.30
  -2   6 -11   75.29   15.60
  -2   6 -11   83.89   15.40
   2  -6  11   97.79   16.80
   2  -6  11   92.59   16.50
   2  -6  11   72.89   14.90
   2  -6  11   95.79   16.00
   2  -6  11   94.69   15.10
   2  -6  11   83.29   16.80
  -3   6 -11   -1.30    6.60
   3  -6  11    5.70    7.40
   3  -6  11    3.90    8.00
   3  -6  11   -2.30    8.10
   3  -6  11    4.70    8.20
   3  -6  11   -2.50    5.20
   3  -6  11    4.20   10.60
  -4   6 -11   34.60   10.40
   4  -6  11   49.10   11.40
   4  -6  11   30.50    9.10
   4  -6  11   42.10   11.30
   4  -6  11   16.00   10.10
   4  -6  11   22.00   11.60
   5  -6  11   56.09   15.50
   5  -6  11   41.70   12.70
   5  -6  11   54.79   14.80
   6   5 -11    4.90    9.50
  -6  -5  11   -9.80   17.10
  -6  -5  11    7.60   11.40
  -6  -5  11   14.50   11.10
   5   5 -11   88.49   14.70
  -5  -5  11   97.09   15.00
  -5  -5  11   72.49   15.90
  -5  -5  11   32.50   14.80
  -5  -5  11   71.79   18.30
   4   5 -11   37.20    7.80
  -4  -5  11   22.70    8.20
  -4  -5  11   32.60    7.70
  -4  -5  11   38.60   10.10
  -4  -5  11   35.00   11.70
  -4  -5  11   19.00   10.10
   3   5 -11   46.80    9.30
   3   5 -11   48.00    9.20
  -3  -5  11   24.80    9.50
  -3  -5  11   42.30    7.70
  -3  -5  11   51.09   10.70
  -3  -5  11   43.40    9.60
  -3  -5  11   39.10   11.50
  -3  -5  11   28.00    7.90
   2   5 -11    2.50    2.50
   2   5 -11    1.10    3.80
  -2  -5  11   -1.20    4.50
  -1  -5  11   95.69   16.20
  -1  -5  11   79.39   14.80
  -1  -5  11   87.99   15.00
  -1  -5  11   85.79   16.00
   0  -5  11  169.88   27.70
   0  -5  11  146.19   27.30
   0  -5  11  159.38   28.20
   0  -5  11  176.08   28.20
   1  -5  11   10.10    6.00
   1  -5  11   10.10    4.30
   1  -5  11    1.10    6.00
   1  -5  11    4.80    5.50
  -2   5 -11   49.60    9.30
  -2   5 -11   39.70    9.40
   2  -5  11   57.69    8.70
   2  -5  11   32.60   11.10
   2  -5  11   51.89   10.90
   2  -5  11   45.90   10.50
   2  -5  11   36.10    9.90
   2  -5  11   43.00    8.40
  -3   5 -11   15.10    7.20
   3  -5  11   20.70    6.30
   3  -5  11   16.30    5.90
   3  -5  11   19.60    8.00
   3  -5  11   31.30   10.90
   3  -5  11   16.30    8.20
   3  -5  11    8.40    8.00
  -4   5 -11   11.00    9.70
   4  -5  11   22.90    9.50
   4  -5  11    3.50    6.80
   4  -5  11   10.60    8.10
   4  -5  11    1.20   11.40
   4  -5  11    0.30    8.80
   5  -5  11   12.00   11.60
   5  -5  11   -5.40   10.80
   5  -5  11    3.80   12.10
   5  -5  11  -18.70    8.70
   7   4 -11   21.40   12.10
  -7  -4  11    3.70   17.60
  -6  -4  11   78.09   15.50
  -6  -4  11   12.10   11.60
  -6  -4  11   32.40   14.30
   5   4 -11   -4.00    6.30
  -5  -4  11   -7.60    9.00
  -5  -4  11   -1.30   10.40
  -5  -4  11   -0.50   15.80
  -5  -4  11   -8.50    7.50
  -5  -4  11   -2.50    6.50
   4   4 -11    6.30    5.00
   4   4 -11   10.00    7.40
  -4  -4  11    6.50    4.60
  -4  -4  11    1.10    8.10
  -4  -4  11    7.10    7.50
  -4  -4  11    4.90    7.30
  -4  -4  11   14.00    7.50
  -4  -4  11    8.50    5.70
   3   4 -11   -1.10    4.60
   3   4 -11   -0.70    3.20
  -3  -4  11    3.80    5.40
  -3  -4  11    4.80    5.50
  -3  -4  11    4.80    6.00
  -3  -4  11   -1.40    2.40
  -3  -4  11   -0.80    7.10
  -3  -4  11   -3.90    3.50
  -2  -4  11  277.87   46.40
  -2  -4  11  261.77   46.90
  -2  -4  11  260.27   46.40
  -2  -4  11  304.07   47.10
  -1  -4  11   19.70    5.90
  -1  -4  11   12.00    6.30
   0  -4  11  172.28   30.60
   0  -4  11  179.88   30.80
   1  -4  11   15.00    6.30
   1  -4  11    8.10    5.20
   1  -4  11   10.60    4.20
   1  -4  11   15.40    5.80
  -2   4 -11  104.39   19.60
  -2   4 -11  113.09   18.10
   2  -4  11   86.99   18.70
   2  -4  11  108.79   19.00
   2  -4  11   95.39   17.60
   2  -4  11   77.99   18.90
   2  -4  11  103.19   18.50
   2  -4  11  115.99   17.80
  -3   4 -11    1.20    6.90
   3  -4  11    3.20    7.20
   3  -4  11   14.60    5.60
   3  -4  11   11.00    7.20
   3  -4  11   24.20    5.50
   3  -4  11   -2.40    9.90
   3  -4  11   20.70    7.80
  -4   4 -11    0.20    9.10
   4  -4  11    5.70    9.40
   4  -4  11   -0.80    6.40
   4  -4  11    3.00    9.00
   4  -4  11   20.00   10.30
   4  -4  11   -0.90    8.30
   5  -4  11    3.50   11.50
   5  -4  11    4.50   10.50
   5  -4  11    5.70    8.90
   5  -4  11   -8.00   11.70
   7   3 -11   11.70    9.30
   7   3 -11    0.90   10.50
  -7  -3  11    7.00   12.60
  -7  -3  11    0.60   15.10
   6   3 -11   -1.60    7.90
  -6  -3  11   -2.70   10.90
  -6  -3  11    5.30    9.50
  -6  -3  11    4.90    9.20
  -6  -3  11   13.20   10.30
   5   3 -11   67.09   12.80
  -5  -3  11   53.99   14.20
  -5  -3  11   62.29   14.10
  -5  -3  11   59.19   14.80
  -5  -3  11   69.19   12.80
   4   3 -11    8.70    4.40
   4   3 -11    6.50    6.40
  -4  -3  11   -3.30    6.70
  -4  -3  11    4.00    5.40
  -4  -3  11   -4.90    6.90
  -4  -3  11   -1.40    6.80
   3   3 -11  120.29   22.60
   3   3 -11  141.69   22.90
  -3  -3  11  181.08   25.10
  -3  -3  11  113.99   23.60
  -3  -3  11  136.29   23.70
  -3  -3  11  137.79   23.30
  -2  -3  11   18.70    6.30
  -2  -3  11   19.40    5.00
  -2  -3  11   20.30    6.80
  -2  -3  11   25.80    5.30
  -1  -3  11   65.09   13.10
  -1  -3  11   72.49   13.20
   0  -3  11   69.19   12.10
   0  -3  11   54.59   12.10
   1  -3  11  208.08   33.40
   1  -3  11  184.28   32.80
   1  -3  11  181.38   33.20
   1  -3  11  201.68   33.20
  -2   3 -11  170.78   26.40
   2  -3  11  118.09   26.90
   2  -3  11  133.39   26.00
   2  -3  11  152.08   26.80
   2  -3  11  182.88   26.20
   2  -3  11  188.88   27.10
   2  -3  11  125.89   26.50
  -3   3 -11   43.00   10.40
  -3   3 -11   15.10    8.90
   3  -3  11   54.09   11.30
   3  -3  11   32.50    7.80
   3  -3  11   50.99   12.10
   3  -3  11   26.00    9.10
   3  -3  11   28.20    9.80
   3  -3  11   41.30    8.90
  -4   3 -11    3.60   10.00
  -4   3 -11   15.00   10.90
   4  -3  11    6.10    8.10
   4  -3  11   16.30    9.30
   4  -3  11    7.60    9.40
   4  -3  11    0.90    6.90
   5  -3  11    4.20   13.40
   5  -3  11    5.30    9.10
   5  -3  11    1.30   11.60
   5  -3  11   12.00   12.40
   7   2 -11   21.80   11.50
   7   2 -11   37.00   12.20
  -7  -2  11    6.50   15.00
  -7  -2  11   56.39   13.00
  -7  -2  11   30.30   13.20
   6   2 -11   10.10    8.00
  -6  -2  11   15.70    9.30
  -6  -2  11   14.10    8.90
  -6  -2  11   34.60   12.30
  -6  -2  11   10.80    9.50
   5   2 -11    1.80    5.60
  -5  -2  11   -1.30    6.80
  -5  -2  11   -3.80    6.90
  -5  -2  11   12.30    9.30
  -5  -2  11   10.40    5.90
  -5  -2  11    1.00    8.90
   4   2 -11   95.89   15.20
   4   2 -11   53.19   14.20
  -4  -2  11   89.09   15.10
  -4  -2  11  103.99   15.60
  -4  -2  11   80.79   15.50
  -4  -2  11   85.19   14.70
   3   2 -11   69.39   12.10
   3   2 -11   58.39   12.30
  -3  -2  11   75.49   12.90
  -3  -2  11   50.69   12.90
  -3  -2  11   71.89   13.20
  -3  -2  11   94.19   13.10
  -2  -2  11  113.39   17.50
  -2  -2  11   74.29   18.10
  -2  -2  11   97.39   18.00
  -2  -2  11   99.39   17.40
  -1  -2  11 1137.69  192.18
  -1  -2  11 1143.39  192.18
   0  -2  11   86.79   17.30
   0  -2  11  110.49   17.80
   1  -2  11   26.30    7.70
   1  -2  11   41.80    8.00
   1  -2  11   33.00    8.40
   1  -2  11   34.00    7.20
  -2   2 -11    4.20    5.10
   2  -2  11    3.90    5.30
   2  -2  11   11.40    6.80
   2  -2  11    7.30    5.40
   2  -2  11    3.10    7.90
   2  -2  11   12.30    4.00
   2  -2  11    8.00    3.90
  -3   2 -11  180.98   27.80
   3  -2  11  159.18   27.40
   3  -2  11  156.88   28.40
   3  -2  11  173.58   27.30
   3  -2  11  145.89   27.30
   3  -2  11  168.48   29.30
   3  -2  11  120.09   27.60
  -4   2 -11   12.30   11.10
  -4   2 -11    3.90   10.30
   4  -2  11   19.80    7.90
   4  -2  11   10.90    7.30
   4  -2  11    4.90    9.30
   4  -2  11    4.60    9.80
   4  -2  11   -1.80    9.90
   5  -2  11   -3.90    9.30
   5  -2  11  -11.50    9.80
   5  -2  11   14.40   13.00
   7   1 -11  207.08   24.30
   7   1 -11  145.49   24.70
   7   1 -11   77.69   25.60
  -7  -1  11  131.59   23.90
  -7  -1  11   49.40   24.60
  -7  -1  11  131.39   25.80
  -7  -1  11  130.79   27.00
   6   1 -11   29.50   10.30
  -6  -1  11   46.50    9.70
  -6  -1  11   47.20   11.10
  -6  -1  11   31.30   10.80
  -6  -1  11   36.70   13.70
   5   1 -11   13.20    6.30
  -5  -1  11   14.10    7.00
  -5  -1  11    9.80    9.20
  -5  -1  11   15.90    6.00
  -5  -1  11    2.60    9.30
   4   1 -11  123.39   19.90
   4   1 -11  104.99   19.30
  -4  -1  11  117.39   19.60
  -4  -1  11  145.79   20.30
  -4  -1  11   98.29   19.40
  -4  -1  11   91.29   19.30
  -4  -1  11  110.09   20.10
   3   1 -11   51.59    9.10
   3   1 -11   56.39    9.50
  -3  -1  11   67.69   12.60
  -3  -1  11   45.00    9.70
  -3  -1  11   35.90    8.90
  -3  -1  11   59.29   10.20
  -3  -1  11   45.20   10.00
  -3  -1  11   59.59    9.10
  -3  -1  11   53.19   11.70
  -2  -1  11   24.40    6.10
  -2  -1  11   30.00    6.10
  -2  -1  11   29.00    6.60
  -2  -1  11   30.40    7.10
  -1  -1  11 1106.19  187.28
  -1  -1  11 1113.19  187.58
  -1  -1  11 1124.19  187.58
   0  -1  11  521.35   93.49
   0  -1  11  589.24   93.19
   0  -1  11  522.95   93.19
   0  -1  11  573.34   93.39
  -1   1 -11  314.37   46.80
  -1   1 -11  264.47   44.50
  -1   1 -11  233.58   44.40
   1  -1  11  242.38   44.70
   1  -1  11  317.77   45.00
   1  -1  11  274.07   45.20
   1  -1  11  250.67   44.60
  -2   1 -11   30.60    8.50
   2  -1  11   47.00   10.70
   2  -1  11   35.20    7.30
   2  -1  11   34.00    7.30
   2  -1  11   28.80    9.20
   2  -1  11   29.40    8.30
   2  -1  11   29.20    7.60
  -3   1 -11   -8.50    7.70
   3  -1  11    3.10    7.40
   3  -1  11   -3.00    8.40
   3  -1  11   -3.00    5.60
   3  -1  11   27.70   13.30
  -4   1 -11   -4.60   11.40
   4  -1  11   17.20    7.40
   4  -1  11   17.40    7.70
   4  -1  11    5.20   11.10
   4  -1  11   16.50   10.70
   4  -1  11    0.90    9.80
   7   0 -11   39.10   11.00
   7   0 -11   19.70   11.20
  -7   0  11   41.30   13.60
  -7   0  11   26.10   11.90
  -7   0  11   28.10   16.10
  -7   0  11   27.10    8.60
   6   0 -11   16.00    8.30
  -6   0  11   17.70   12.30
  -6   0  11   23.50    6.10
  -6   0  11   12.00    8.90
   5   0 -11   11.30    6.10
  -5   0  11    8.20    7.10
  -5   0  11    7.50    9.10
  -5   0  11    5.90    4.50
  -5   0  11    8.50    4.10
  -5   0  11   19.50    6.70
  -5   0  11    4.20    8.40
   4   0 -11    1.30    6.00
   4   0 -11   -2.10    4.20
  -4   0  11    0.20    3.90
  -4   0  11   -3.00    4.80
  -4   0  11    1.70    3.60
  -4   0  11    8.30    6.70
  -4   0  11    5.10    4.40
  -4   0  11    0.60    6.80
   3   0 -11  189.18   28.70
   3   0 -11  133.89   28.20
  -3   0  11  155.98   29.00
  -3   0  11  133.69   28.00
  -3   0  11  156.98   28.40
  -3   0  11  199.68   28.70
  -3   0  11  189.38   28.40
  -3   0  11  192.88   28.60
   2   0 -11   27.90    5.90
   2   0 -11   25.60    5.40
  -2   0  11   31.60    6.50
  -2   0  11   36.30    6.60
  -2   0  11   20.20    6.90
  -2   0  11   22.50    7.90
  -2   0  11   34.40    6.60
  -1   0  11  318.77   53.69
  -1   0  11  309.67   53.49
  -1   0  11  313.87   53.49
  -1   0  11  321.27   53.69
   0   0 -11  135.59   25.30
   0   0 -11  151.48   25.60
   0   0  11  162.58   26.10
   0   0  11  151.28   26.00
   0   0  11  152.68   25.60
   0   0  11  146.69   25.80
  -1   0 -11   63.59   14.30
  -1   0 -11   88.79   14.60
   1   0  11   72.99   14.60
   1   0  11   76.79   14.10
   1   0  11   77.39   15.10
   1   0  11   75.49   14.20
   1   0  11   97.49   14.10
  -2   0 -11    5.40    6.00
   2   0  11    1.00    6.20
   2   0  11   -1.00   10.40
   2   0  11    7.70    7.20
   2   0  11   -3.50    4.90
   2   0  11   -2.70    5.90
   2   0  11   -2.80    3.90
  -3   0 -11   41.50   22.30
   3   0  11  142.79   23.20
   3   0  11  159.68   22.20
   3   0  11  114.29   22.60
   3   0  11  130.59   22.80
   3   0  11  136.19   21.30
  -4   0 -11    7.80   11.90
   4   0  11   -6.60    8.40
   4   0  11    5.50    5.30
   4   0  11   -1.90   10.20
   4   0  11    3.50   10.70
   7  -1 -11    5.30   10.50
   7  -1 -11   10.60   13.20
  -7   1  11    9.40   15.50
  -7   1  11   -2.40   15.00
  -7   1  11   17.60   11.00
   6  -1 -11   21.80    9.00
  -6   1  11   41.00   11.80
  -6   1  11   13.30    9.40
   5  -1 -11   15.40    6.40
  -5   1  11   18.50    7.20
  -5   1  11   -1.60    8.30
  -5   1  11    2.60    9.70
  -5   1  11   -1.50   10.40
   4  -1 -11   92.79   15.30
   4  -1 -11   69.59   14.20
  -4   1  11   44.40   14.30
  -4   1  11   72.99   13.50
  -4   1  11   83.59   13.50
  -4   1  11   89.69   15.70
  -4   1  11  104.29   14.70
  -4   1  11   89.19   15.40
   3  -1 -11  648.64  109.29
  -3   1  11  657.43  109.69
  -3   1  11  619.94  109.49
  -3   1  11  709.03  109.19
  -3   1  11  613.64  109.09
  -3   1  11  652.23  109.39
  -3   1  11  634.94  109.19
   2  -1 -11  103.89   14.70
   2  -1 -11   72.39   14.20
  -2   1  11   68.79   14.30
  -2   1  11   76.59   14.80
  -2   1  11   78.19   14.80
  -2   1  11   87.79   14.30
  -2   1  11   81.09   15.10
  -2   1  11   85.29   14.90
   1  -1 -11   15.20    4.20
   1  -1 -11   14.30    4.90
  -1   1  11   16.20    5.80
  -1   1  11   21.50    4.30
  -1   1  11   16.80    5.50
  -1   1  11    9.70    5.50
  -1   1  11   11.30    4.10
  -1   1  11   15.10    5.10
  -1   1  11   12.90    5.70
   0  -1 -11  179.88   28.10
   0  -1 -11  178.08   28.70
   0  -1 -11  144.59   27.90
   0   1  11  136.99   28.00
   0   1  11  164.38   27.90
   0   1  11  152.68   28.20
   0   1  11  188.78   28.40
   0   1  11  148.79   28.10
   0   1  11  167.68   27.70
   0   1  11  171.08   27.80
  -1  -1 -11    1.80    5.30
  -1  -1 -11    7.40    6.50
   1   1  11    4.60    6.40
   1   1  11   -7.10    5.30
   1   1  11    0.50    3.60
   1   1  11   -1.50    4.60
   1   1  11    5.20    3.20
   1   1  11    2.60    7.20
  -2  -1 -11   13.50    7.60
   2   1  11   12.50    7.40
   2   1  11   20.60   13.70
   2   1  11   19.50    7.70
   2   1  11    9.00    6.40
   2   1  11   26.80    8.70
  -3  -1 -11    9.40   10.10
   3   1  11   -2.70    8.50
   3   1  11   11.60   10.00
   3   1  11   10.50    7.40
   3   1  11    5.30    9.20
  -4  -1 -11    1.40   13.60
   4   1  11   27.30   13.60
   4   1  11   16.60   11.10
   4   1  11   18.00   10.00
   7  -2 -11   -5.60   10.50
   7  -2 -11   11.80   10.00
   7  -2 -11   -1.30   14.70
  -7   2  11  -14.00   13.90
  -7   2  11    1.20   11.10
   6  -2 -11  135.49   22.10
  -6   2  11  108.99   22.20
  -6   2  11  101.99   23.40
  -6   2  11  123.89   23.10
   5  -2 -11  280.47   47.00
  -5   2  11  203.98   46.50
  -5   2  11  313.07   47.40
  -5   2  11  316.47   47.20
   4  -2 -11    2.50    5.30
  -4   2  11    2.30    7.20
  -4   2  11    7.70    6.70
  -4   2  11   12.90   10.40
  -4   2  11   10.50    5.70
   3  -2 -11   55.99   11.40
   3  -2 -11   63.59   12.40
  -3   2  11   59.39   10.70
  -3   2  11   67.79   11.70
  -3   2  11   52.79   12.40
  -3   2  11   46.80   12.50
  -3   2  11   73.39   12.50
  -3   2  11   63.09   12.70
   2  -2 -11   53.99   10.60
   2  -2 -11   45.90    9.80
  -2   2  11   53.19    9.80
  -2   2  11   60.69   10.10
  -2   2  11   32.60   11.30
  -2   2  11   51.89   10.80
  -2   2  11   49.20   11.00
  -2   2  11   56.49   10.70
   1  -2 -11   78.99   18.40
   1  -2 -11  119.99   19.00
  -1   2  11  118.29   18.90
  -1   2  11  107.69   18.80
  -1   2  11  104.29   18.50
  -1   2  11  117.89   18.70
  -1   2  11  104.29   19.10
  -1   2  11   99.59   18.60
  -1   2  11  118.39   19.40
   0  -2 -11    2.30    4.90
   0  -2 -11    2.30    6.30
   0  -2 -11    8.70    9.20
   0   2  11    4.60    5.60
   0   2  11   10.10    3.70
   0   2  11    7.40    5.50
   0   2  11    7.00    3.20
   0   2  11    3.50    4.60
   0   2  11    1.60    6.80
   0   2  11   -1.60    5.70
  -1  -2 -11    3.90    6.50
   1   2  11    8.70    7.30
   1   2  11    2.50    9.10
   1   2  11    1.70    6.40
   1   2  11   10.90    7.10
   1   2  11   13.90    5.80
  -2  -2 -11   34.00    9.10
   2   2  11    2.40    9.80
   2   2  11    7.60    9.10
   2   2  11   22.40    8.70
   2   2  11   24.60    7.80
  -3  -2 -11    4.10   10.70
   3   2  11    7.90    8.40
   3   2  11   20.30   13.00
   3   2  11    0.60    9.20
   3   2  11   10.20   10.50
   7  -3 -11   12.20   11.00
   7  -3 -11   14.30   11.20
  -7   3  11   32.40   14.30
  -7   3  11   13.70   12.70
   6  -3 -11    4.70    9.20
   6  -3 -11   13.20   12.80
   6  -3 -11   24.00    8.00
  -6   3  11   -0.90   12.00
  -6   3  11    1.50    9.10
  -6   3  11   15.30   11.10
   5  -3 -11   -1.70    7.20
  -5   3  11    4.60    9.20
  -5   3  11    2.20    7.20
  -5   3  11   -1.40   15.30
   4  -3 -11   56.19   10.80
  -4   3  11   34.80   12.80
  -4   3  11   32.90   11.70
  -4   3  11   52.49   12.20
  -4   3  11   59.59   13.20
  -4   3  11   55.29   13.80
   3  -3 -11   -8.10    5.20
  -3   3  11   -0.70    6.70
  -3   3  11   -3.10    5.20
  -3   3  11    5.30    7.10
  -3   3  11    9.40    7.50
   2  -3 -11  104.29   21.30
  -2   3  11  120.49   21.10
  -2   3  11  147.79   22.10
  -2   3  11  117.39   21.50
  -2   3  11  128.69   21.50
  -2   3  11  104.79   22.20
  -2   3  11  131.19   22.10
   1  -3 -11  101.59   23.20
   1  -3 -11  127.09   23.40
  -1   3  11  103.89   22.80
  -1   3  11  146.09   23.70
  -1   3  11  157.38   24.00
  -1   3  11  136.09   22.70
  -1   3  11  134.79   24.10
  -1   3  11  164.68   23.40
  -1   3  11  146.29   23.30
   0  -3 -11   14.10    7.10
   0  -3 -11    1.40    8.20
   0   3  11   11.90    7.40
   0   3  11   29.30    8.20
   0   3  11   27.40    9.80
   0   3  11   25.10    6.80
   0   3  11   31.10    8.80
  -1  -3 -11    4.00    7.50
   1   3  11   -1.50    6.30
   1   3  11   -0.60    9.10
   1   3  11   -2.10    7.00
  -2  -3 -11    0.40    9.40
   2   3  11   -1.00    7.30
   2   3  11   -4.20    9.00
   2   3  11    0.50   11.00
   2   3  11    1.70    8.90
  -3  -3 -11    7.00   12.50
   3   3  11   -9.10   11.80
   3   3  11   -6.60    9.50
   3   3  11   -5.00   10.80
   7  -4 -11   15.50   11.80
   7  -4 -11    3.70   11.50
  -7   4  11   -4.00   14.30
   6  -4 -11   11.10   10.00
   6  -4 -11   24.40   10.10
  -6   4  11   14.80    9.70
  -6   4  11   14.90   12.00
  -6   4  11   31.90   14.90
   5  -4 -11   -2.10    7.90
  -5   4  11    8.30    8.10
  -5   4  11   10.00   10.10
  -5   4  11   16.60   11.60
   4  -4 -11   24.00    8.80
  -4   4  11   27.00   11.70
  -4   4  11   36.80   10.60
  -4   4  11   26.00    8.60
  -4   4  11   11.90   14.70
   3  -4 -11   10.50    6.50
  -3   4  11    5.20    6.90
  -3   4  11   19.20    7.70
  -3   4  11   10.60    8.20
  -3   4  11   14.60    9.10
  -3   4  11   10.60   10.20
   2  -4 -11   41.40    9.10
  -2   4  11   45.70   10.50
  -2   4  11   40.50   11.50
  -2   4  11   33.60    8.10
  -2   4  11   42.00   11.80
  -2   4  11   28.70   11.00
  -2   4  11   43.50    9.00
   1  -4 -11   25.30    7.90
   1  -4 -11   22.10    7.80
  -1   4  11   33.50    9.20
  -1   4  11   14.90   10.90
  -1   4  11   27.40    9.70
  -1   4  11   18.50    5.20
  -1   4  11   31.00    7.20
  -1   4  11   32.30    7.70
   0  -4 -11   16.20    7.90
   0  -4 -11   20.10    9.50
   0   4  11   26.10    7.90
   0   4  11    6.00    8.60
   0   4  11   17.30    7.30
   0   4  11   14.40   10.30
  -1  -4 -11   42.00   11.20
   1   4  11   30.70   13.00
   1   4  11   24.60    9.60
   1   4  11   49.00   10.90
   1   4  11   24.20   11.10
  -2  -4 -11   14.30   11.50
   2   4  11   10.40   10.90
   2   4  11   17.70    9.20
   2   4  11   -0.20   10.20
   6  -5 -11    8.50   18.70
   6  -5 -11   -1.30    9.70
   6  -5 -11   15.50   10.90
  -6   5  11   -0.60   13.50
  -6   5  11    9.50   10.30
   5  -5 -11   -0.90   10.60
   5  -5 -11    6.80    9.60
   5  -5 -11    0.20   11.90
  -5   5  11    1.10   10.80
  -5   5  11    7.50   13.10
  -5   5  11    4.00    8.80
   4  -5 -11   17.50    8.60
  -4   5  11   26.30   10.50
  -4   5  11    9.20   13.60
  -4   5  11   15.50    8.50
   3  -5 -11   10.70    8.00
  -3   5  11   24.60    9.80
  -3   5  11   16.20    8.10
  -3   5  11   -0.10   11.10
  -3   5  11   16.30    8.00
  -2   5  11  200.28   26.00
  -2   5  11  149.49   24.60
  -2   5  11  138.09   24.70
  -2   5  11  138.79   27.00
  -2   5  11   54.39   26.90
   1  -5 -11   23.20    8.90
   1  -5 -11   26.60    9.40
  -1   5  11   32.50    8.30
  -1   5  11   16.90   10.50
  -1   5  11   33.40    9.00
  -1   5  11   36.00   12.30
   0  -5 -11   -7.80   15.60
   0   5  11    8.30    8.10
   0   5  11    7.60    9.80
   0   5  11   10.30    7.90
  -1  -5 -11   13.20   10.60
   1   5  11   -6.30   10.50
   1   5  11   15.80    9.30
   1   5  11    9.20    9.60
   1   5  11   13.80   16.40
   2   5  11   23.20   12.50
   6  -6 -11   16.20   13.40
   5  -6 -11   14.00   11.40
   5  -6 -11   13.20   15.20
   5  -6 -11   23.80    9.90
  -5   6  11   36.60   11.30
  -5   6  11   16.90   13.00
   4  -6 -11  301.77   50.59
   4  -6 -11  350.86   50.69
  -4   6  11  328.87   50.79
  -4   6  11  184.38   50.69
   3  -6 -11  153.28   25.10
   3  -6 -11  140.19   25.60
   3  -6 -11  144.39   24.40
  -3   6  11  128.39   24.90
  -3   6  11  127.89   26.30
  -3   6  11   77.09   27.30
  -3   6  11  148.49   25.40
   2  -6 -11   -8.60    6.10
  -2   6  11  -13.70   14.30
  -2   6  11    2.30    5.40
  -2   6  11   -2.70    8.20
  -2   6  11    7.00    5.40
  -2   6  11    2.10   10.30
   1  -6 -11   18.50    9.40
   1  -6 -11    7.40   10.00
  -1   6  11   28.90   15.10
  -1   6  11    7.80    9.40
  -1   6  11   21.80    7.90
  -1   6  11   20.50   11.60
   0  -6 -11   40.10   13.80
   0   6  11   47.50   11.90
   0   6  11   33.20   11.50
   0   6  11   43.30   14.20
  -1  -6 -11    6.50   12.70
   1   6  11   -4.30   10.90
   5  -7 -11   -0.70   12.60
   4  -7 -11   -3.10   11.40
   4  -7 -11    8.50    9.50
  -4   7  11    5.90   11.00
  -4   7  11    7.40   13.80
   3  -7 -11   33.10   11.20
   3  -7 -11   16.80   12.90
   3  -7 -11   54.59   19.60
  -3   7  11   45.80   14.40
  -3   7  11   36.90   12.30
   2  -7 -11    9.60    8.70
   2  -7 -11   -6.70   12.10
  -2   7  11   -1.70   12.70
  -2   7  11   12.80   10.00
   1  -7 -11    9.50   12.60
   1  -7 -11    6.10   10.50
  -1   7  11   35.10   13.70
  -1   7  11   10.50   11.30
  -1   7  11    9.00    8.90
   1  11 -12   10.50   12.30
  -1 -11  12    6.60   13.20
  -1 -11  12    7.70    8.90
   0  11 -12   -1.70   11.40
   0 -11  12    1.00    8.90
   0 -11  12   15.90   13.70
   0 -11  12    8.70   12.60
   1 -11  12    6.20    8.70
   3  10 -12   14.50   11.80
  -3 -10  12   24.90   13.20
   2  10 -12   48.60   11.50
  -2 -10  12   31.70   11.90
  -2 -10  12   34.30   13.60
  -2 -10  12   31.20   10.10
   1  10 -12   43.40   11.60
  -1 -10  12   38.20   12.10
  -1 -10  12   41.30   14.50
  -1 -10  12   36.40   11.10
  -1 -10  12   57.09   10.90
   0  10 -12   92.29   18.30
   0 -10  12   96.59   17.70
   0 -10  12   91.69   21.00
   0 -10  12   94.09   17.70
  -1  10 -12  120.39   19.10
   1 -10  12   88.19   21.70
   1 -10  12   85.99   18.20
   1 -10  12   46.00   22.30
   1 -10  12   98.29   20.60
   1 -10  12  114.89   18.40
  -2  10 -12   34.10   10.80
   2 -10  12   12.60   12.80
   2 -10  12    0.20   13.30
   2 -10  12   25.40    8.50
   2 -10  12   18.10   11.60
   4   9 -12   21.50   11.90
  -4  -9  12    9.10   10.90
  -4  -9  12   35.40   14.30
  -4  -9  12   42.10   12.50
   3   9 -12   11.90    9.10
  -3  -9  12    1.60    9.20
  -3  -9  12   31.60   14.50
  -3  -9  12    9.40    7.80
  -3  -9  12   10.90    9.90
   2   9 -12   39.60   10.60
  -2  -9  12   40.70   11.20
  -2  -9  12   48.60    9.90
  -2  -9  12   31.70   12.50
  -1  -9  12   -0.20    9.50
  -1  -9  12   12.30   11.90
  -1  -9  12    2.40    5.90
  -1  -9  12    2.70    5.50
  -1  -9  12    0.90    7.40
   0  -9  12    5.10    4.90
   0  -9  12   13.10   10.30
   0  -9  12    5.40    7.50
   0  -9  12   -0.60   11.80
   0  -9  12    5.30    8.80
   0  -9  12    1.80    5.50
   1  -9  12   49.10   10.30
   1  -9  12   55.09   12.40
   1  -9  12   44.00   10.00
   1  -9  12   44.00   13.40
   1  -9  12   58.79   16.40
   1  -9  12   63.39   13.90
  -2   9 -12    4.40    8.50
   2  -9  12   -3.70    6.40
   2  -9  12    2.80   10.20
   2  -9  12    2.70   20.10
   2  -9  12   -3.20    6.30
   2  -9  12   -5.00    9.10
  -3   9 -12    6.90   11.00
   3  -9  12   13.20   11.40
   3  -9  12    9.90    8.00
   3  -9  12    8.00   12.80
   3  -9  12   19.70   11.70
   5   8 -12    6.40   13.60
   4   8 -12   50.09   11.10
  -4  -8  12   37.10   11.80
  -4  -8  12   42.00   11.50
  -4  -8  12   46.50   15.60
  -4  -8  12   15.70   10.90
   3   8 -12    5.00    7.50
  -3  -8  12   -2.30   10.10
  -3  -8  12    3.30    6.40
  -3  -8  12    5.90    8.20
  -3  -8  12    3.20    7.30
  -2  -8  12  119.99   22.60
  -2  -8  12  123.39   24.40
  -2  -8  12  138.79   23.70
  -2  -8  12  136.49   22.70
   1   8 -12    2.20    5.20
   1   8 -12    5.20    8.10
  -1  -8  12   -2.30    8.90
  -1  -8  12   -2.80    9.00
  -1  -8  12    3.20    6.30
  -1  -8  12    3.20    3.30
  -1  -8  12    4.00    4.10
  -1  -8  12   20.60    8.30
   0   8 -12   22.10    9.20
   0   8 -12   33.80    7.50
   0  -8  12   47.00   11.10
   0  -8  12   21.20    8.40
   0  -8  12   35.30   10.80
   0  -8  12   46.70   11.40
  -1   8 -12    7.60    5.50
  -1   8 -12   -4.80    8.20
   1  -8  12    0.10    6.60
   1  -8  12    3.40    4.20
   1  -8  12    0.40    9.10
   1  -8  12    0.90    3.10
   1  -8  12    3.30    8.10
   1  -8  12   -0.60   10.30
  -2   8 -12   23.80    7.70
   2  -8  12   23.10   13.30
   2  -8  12   23.20   10.60
   2  -8  12   15.70    9.00
   2  -8  12   25.10    6.50
   2  -8  12   19.80    9.90
   2  -8  12   17.60    6.10
  -3   8 -12   -4.90    8.60
   3  -8  12    8.90   10.60
   3  -8  12   -0.50    6.70
   3  -8  12    7.80   11.90
   3  -8  12    4.80    7.30
   3  -8  12   -1.00    9.80
   5   7 -12   51.59   12.40
  -5  -7  12   57.49   13.70
  -5  -7  12   22.00   12.70
  -5  -7  12   31.80   12.80
   4   7 -12    5.30    7.50
  -4  -7  12    5.80    8.30
  -4  -7  12    4.70    9.70
  -4  -7  12    7.90    6.90
  -4  -7  12    3.50    7.40
  -3  -7  12   49.80    6.30
  -3  -7  12    9.50    6.30
  -3  -7  12    5.50    7.80
  -3  -7  12   -2.60    8.90
   2   7 -12   49.70    8.60
   2   7 -12   39.40    6.80
  -2  -7  12   31.60    9.40
  -2  -7  12   18.40    5.40
  -2  -7  12   37.80   10.40
  -2  -7  12   32.00    7.90
   1   7 -12    2.40    5.40
   1   7 -12   -0.90    3.60
  -1  -7  12    0.60    8.30
  -1  -7  12   13.70    8.10
  -1  -7  12    7.90    7.10
  -1  -7  12    9.90    5.40
   0  -7  12   51.79   11.00
   0  -7  12   37.70   11.00
   0  -7  12   40.70    9.40
   0  -7  12   46.80   11.30
  -1   7 -12   20.20    5.30
  -1   7 -12   18.50    6.50
   1  -7  12   16.40    9.20
   1  -7  12   19.70    6.90
   1  -7  12   18.40    8.90
   1  -7  12   14.00    8.50
  -2   7 -12  173.88   29.10
  -2   7 -12  139.19   29.30
   2  -7  12  159.08   28.70
   2  -7  12  196.28   29.00
   2  -7  12  145.49   30.30
   2  -7  12  164.78   29.60
   2  -7  12  170.38   30.40
   2  -7  12  192.98   30.70
   3  -7  12   -1.90    6.00
   3  -7  12    2.00    9.00
   3  -7  12    1.80    9.50
   3  -7  12   -1.10    9.70
   3  -7  12   -4.80    6.40
   3  -7  12    2.50   18.60
  -4   7 -12   48.50   18.40
   4  -7  12   70.99   16.70
   4  -7  12   79.29   17.00
   4  -7  12   79.19   14.70
   4  -7  12   54.39   16.80
   6   6 -12   28.00   12.30
  -6  -6  12   13.50   14.50
   5   6 -12    3.60    8.70
  -5  -6  12   18.60    9.10
  -5  -6  12   15.80   11.40
  -5  -6  12    7.90    9.50
   4   6 -12   -1.50    6.40
  -4  -6  12   -3.60    7.50
  -4  -6  12   -6.20   10.90
  -4  -6  12    1.20    8.80
   3   6 -12   67.79   11.20
   3   6 -12   64.89   12.40
  -3  -6  12   59.99   12.00
  -3  -6  12   81.89   13.40
  -3  -6  12   49.50   10.80
  -3  -6  12   67.39   13.60
  -3  -6  12   50.39   10.60
   2   6 -12  267.47   38.40
   2   6 -12  188.48   38.00
  -2  -6  12  256.67   39.50
  -2  -6  12  235.68   38.70
  -1  -6  12   35.40    9.00
  -1  -6  12   30.80    8.80
  -1  -6  12   27.90    7.00
  -1  -6  12   17.40    6.00
   0  -6  12   30.30    8.10
   0  -6  12   11.70    7.50
   0  -6  12   12.10    5.20
   0  -6  12   18.80    6.40
   1  -6  12  196.18   40.80
   1  -6  12  230.28   40.90
   1  -6  12  258.87   41.00
   1  -6  12  243.38   40.50
  -2   6 -12  300.87   55.39
  -2   6 -12  312.37   55.59
   2  -6  12  378.46   56.59
   2  -6  12  328.67   55.99
   2  -6  12  341.07   56.59
   2  -6  12  338.47   55.99
   3  -6  12   -2.40   12.10
   3  -6  12    0.20    8.80
   3  -6  12   19.10    8.80
   3  -6  12    7.50    5.60
   3  -6  12    0.20    9.70
   3  -6  12    2.70    5.40
  -4   6 -12   -1.00   11.90
   4  -6  12   53.69   12.20
   4  -6  12   39.40    9.00
   4  -6  12   49.50   12.10
   4  -6  12   -3.00   11.30
   6   5 -12   22.50   10.00
  -6  -5  12   -6.70   18.00
  -6  -5  12  -13.30   11.30
   5   5 -12  123.69   17.10
  -5  -5  12   98.19   16.80
  -5  -5  12   43.70   16.90
  -5  -5  12   82.39   20.60
  -5  -5  12   83.79   18.20
   4   5 -12    0.40    7.60
  -4  -5  12    5.80   10.80
  -4  -5  12   -1.20    6.30
  -4  -5  12   -1.30    9.40
  -4  -5  12   10.70    8.60
  -4  -5  12   -1.70    4.50
   3   5 -12  183.58   35.60
   3   5 -12  237.48   36.10
  -3  -5  12  221.08   36.20
  -3  -5  12  206.68   36.60
  -2  -5  12  190.18   32.10
  -2  -5  12  181.08   31.30
  -2  -5  12  174.28   32.30
  -1  -5  12  523.45   86.09
  -1  -5  12  510.55   85.39
  -1  -5  12  487.25   85.29
  -1  -5  12  527.95   86.19
   0  -5  12   35.20    6.80
   0  -5  12   36.40    9.50
   0  -5  12   30.40    7.40
   0  -5  12   39.50   10.70
   1  -5  12   12.20    9.40
   1  -5  12   27.60    6.30
   1  -5  12   21.20    8.60
   1  -5  12   22.20    7.80
  -2   5 -12    2.80    5.00
  -2   5 -12   13.80    5.20
   2  -5  12   12.90    6.40
   2  -5  12   12.60    7.80
   2  -5  12   -0.20    7.20
   2  -5  12    4.20    8.30
  -3   5 -12   -1.10    8.00
   3  -5  12   12.20    9.80
   3  -5  12    9.40    5.30
   3  -5  12    9.20    8.40
   3  -5  12   10.20    5.30
   3  -5  12    8.00    8.10
   3  -5  12   23.00   11.90
  -4   5 -12   -1.10   10.90
   4  -5  12    5.00   10.10
   4  -5  12    4.50   10.60
   4  -5  12   11.90    7.40
   4  -5  12   28.20   11.60
   6   4 -12    8.50   10.00
  -6  -4  12    7.00   11.10
  -6  -4  12   40.10   15.10
  -6  -4  12   31.00   10.80
   5   4 -12    5.30    7.00
  -5  -4  12   10.50   10.20
  -5  -4  12    7.90    8.20
  -5  -4  12   18.80    7.00
  -5  -4  12   20.30   12.00
   4   4 -12  272.37   42.10
  -4  -4  12  287.77   42.50
  -4  -4  12  228.88   41.60
  -4  -4  12  248.88   42.40
  -4  -4  12  181.88   42.30
  -4  -4  12  240.58   42.70
   3   4 -12   49.80    8.10
   3   4 -12   38.00    7.30
  -3  -4  12   31.80    9.70
  -3  -4  12   39.60   10.30
  -3  -4  12   39.30   10.80
  -3  -4  12   34.30    9.00
  -3  -4  12   36.30    9.20
  -2  -4  12    3.10    4.40
  -2  -4  12    3.00    6.20
  -2  -4  12    1.00    3.90
  -1  -4  12  176.28   29.10
  -1  -4  12  152.18   29.00
   0  -4  12   60.79   12.40
   0  -4  12   58.79   12.40
   1  -4  12   12.20    4.60
   1  -4  12    6.10    5.70
   1  -4  12    5.10    7.10
   1  -4  12   -0.70    6.20
  -2   4 -12    8.90    5.20
  -2   4 -12   23.00    5.00
   2  -4  12   11.40    7.30
   2  -4  12   21.90    8.30
   2  -4  12    6.40    8.30
   2  -4  12    5.40    6.30
   3  -4  12  113.49   24.40
   3  -4  12  111.89   23.00
   3  -4  12  148.89   22.10
   3  -4  12  137.59   22.00
   3  -4  12   86.29   22.90
   3  -4  12  123.99   23.80
  -4   4 -12    8.40   10.80
   4  -4  12   -4.10   11.10
   4  -4  12   -1.60   10.00
   4  -4  12    7.90    9.40
   4  -4  12    4.10    9.80
   4  -4  12   -1.10    7.30
   7   3 -12   61.29   15.40
  -7  -3  12   54.89   19.50
   6   3 -12   14.20    9.00
  -6  -3  12   23.70   12.40
  -6  -3  12   24.40   10.60
  -6  -3  12    5.60   11.60
  -6  -3  12   23.00    9.90
   5   3 -12   -0.90    6.30
  -5  -3  12   21.00    9.40
  -5  -3  12    5.20    5.90
  -5  -3  12    4.70   10.70
  -5  -3  12    0.70    9.70
   4   3 -12    4.00    4.30
   4   3 -12    5.30    6.70
  -4  -3  12  -12.80    7.40
  -4  -3  12    2.70    4.80
  -4  -3  12   -4.60    7.10
  -4  -3  12    2.30    8.80
  -3  -3  12   42.70    8.20
  -3  -3  12   21.60    8.50
  -3  -3  12   23.90    7.70
  -3  -3  12   29.80    8.90
  -2  -3  12    7.10    5.70
  -2  -3  12    4.80    6.10
  -2  -3  12   14.50    4.50
  -1  -3  12  144.89   25.60
  -1  -3  12  142.89   25.40
   0  -3  12  160.58   28.90
   0  -3  12  169.08   29.10
   1  -3  12  143.69   24.60
   1  -3  12  108.09   23.40
   1  -3  12  169.58   23.90
   1  -3  12  151.28   24.20
  -2   3 -12    4.10    4.80
   2  -3  12    6.00    8.30
   2  -3  12   -1.90    6.30
   2  -3  12    6.00    6.00
   2  -3  12   -6.00    7.50
   3  -3  12   37.80   11.70
   3  -3  12   44.90   11.40
   3  -3  12   53.89   13.00
   3  -3  12   57.39   10.30
   3  -3  12   49.10   15.00
   3  -3  12   52.09   10.40
  -4   3 -12   -1.10   11.70
   4  -3  12   37.80    8.60
   4  -3  12   17.30   10.00
   4  -3  12   17.40   12.30
   4  -3  12   14.70   10.90
   7   2 -12    8.40   10.90
  -7  -2  12  -15.90   12.10
  -7  -2  12   -4.70   15.30
   6   2 -12    1.10    8.00
  -6  -2  12   -7.10   12.40
  -6  -2  12   -1.90    8.30
  -6  -2  12    5.40    9.50
  -6  -2  12   10.00    9.30
   5   2 -12    4.10    6.10
  -5  -2  12    4.00   10.10
  -5  -2  12    0.00    7.50
  -5  -2  12   -3.10    9.40
  -5  -2  12    5.30    7.20
   4   2 -12   26.70    6.90
   4   2 -12   33.50    8.50
  -4  -2  12   20.40    7.30
  -4  -2  12   35.70    6.80
  -4  -2  12   39.20    9.20
  -4  -2  12   32.60    8.90
  -4  -2  12   30.50    9.50
  -4  -2  12   48.10    8.40
  -3  -2  12   69.29   13.20
  -3  -2  12   53.89   13.60
  -3  -2  12   64.49   13.70
  -3  -2  12   80.69   13.80
  -3  -2  12   73.59   13.10
  -2  -2  12  122.59   21.20
  -2  -2  12  114.49   21.50
  -2  -2  12  118.49   20.60
  -1  -2  12  845.32  135.29
  -1  -2  12  756.32  135.19
   0  -2  12   23.70    7.10
   0  -2  12   25.50    7.60
   1  -2  12    1.20    5.30
   1  -2  12    6.00   10.00
   1  -2  12    4.10    4.70
   1  -2  12    8.20    6.60
  -2   2 -12   20.30    8.10
  -2   2 -12   61.89    8.90
   2  -2  12   50.89   11.50
   2  -2  12   20.80    8.70
   2  -2  12   40.50    7.10
   2  -2  12   27.90    8.70
   2  -2  12   31.70   10.10
  -3   2 -12    7.30    9.40
   3  -2  12   29.30   10.80
   3  -2  12   37.70   14.40
   3  -2  12   36.70    8.60
   3  -2  12   42.70    8.70
   3  -2  12   23.80    9.60
   3  -2  12   29.40    8.00
  -4   2 -12    4.20   12.20
   4  -2  12   29.30    9.70
   4  -2  12    3.90   10.70
   4  -2  12   23.90    8.40
   4  -2  12   30.30   12.40
   7   1 -12   31.20   12.00
  -7  -1  12   13.50   12.40
  -7  -1  12   13.40   16.30
   6   1 -12    5.20    7.90
  -6  -1  12   -6.90    8.90
  -6  -1  12   -2.70   12.10
  -6  -1  12   -8.90    7.00
   5   1 -12   65.09   11.90
  -5  -1  12   43.60   12.20
  -5  -1  12   74.39   11.50
  -5  -1  12   47.20   14.30
  -5  -1  12   60.49   12.10
  -5  -1  12   51.39   14.30
  -5  -1  12   50.49   11.80
   4   1 -12   17.70    6.90
   4   1 -12   13.10    5.70
  -4  -1  12   16.30    5.60
  -4  -1  12   17.30    6.30
  -4  -1  12   11.60    5.50
  -4  -1  12   13.70    5.10
  -4  -1  12   14.80    7.60
  -4  -1  12   26.60    8.00
   3   1 -12   17.80    5.00
   3   1 -12   25.50    5.70
  -3  -1  12   24.70    6.40
  -3  -1  12   33.40    7.10
  -3  -1  12   43.10    7.50
  -2  -1  12   -2.80    4.10
  -2  -1  12    7.00    5.80
  -2  -1  12    2.60    4.70
  -2  -1  12   -3.90    4.00
  -1  -1  12   20.60    5.30
  -1  -1  12   23.30    5.20
  -1  -1  12   27.50    6.80
  -1  -1  12   12.80    6.50
   0  -1  12   75.19   13.20
   0  -1  12   58.69   12.50
   0  -1  12   82.29   12.80
   0  -1  12   64.79   13.60
  -1   1 -12    9.70    3.30
  -1   1 -12   -3.20    4.40
   1  -1  12   -3.40    8.50
   1  -1  12    0.40    5.10
   1  -1  12    8.60    8.70
   1  -1  12   -9.10    4.80
  -2   1 -12   -2.60    5.80
  -2   1 -12    4.30    7.00
   2  -1  12    9.10    6.30
   2  -1  12    4.50    4.60
   2  -1  12    5.80    7.70
   2  -1  12   -7.60   10.40
   2  -1  12    2.60    4.40
   2  -1  12   -0.40    5.10
  -3   1 -12    7.60    8.80
   3  -1  12   13.10    6.70
   3  -1  12   22.80   10.40
   3  -1  12    9.70    6.70
   3  -1  12    4.80    8.60
   3  -1  12    5.70    9.80
   4  -1  12   27.20    9.40
   4  -1  12   25.60    8.60
   4  -1  12   23.90   13.10
   4  -1  12    4.20   10.90
   7   0 -12   15.90   10.70
  -7   0  12    0.90   15.60
  -7   0  12    0.10    5.60
  -7   0  12    4.60   11.60
   6   0 -12    9.40    8.50
  -6   0  12   28.30    9.50
  -6   0  12   28.40    9.50
  -6   0  12   16.20    5.70
  -6   0  12   24.40   10.70
  -6   0  12   13.90    5.50
  -6   0  12    8.50   13.20
   5   0 -12   17.70    7.80
  -5   0  12   27.60   11.50
  -5   0  12   24.40    6.10
  -5   0  12   43.20   10.40
  -5   0  12   30.80    8.30
  -5   0  12   20.20    6.30
   4   0 -12   23.10    8.20
  -4   0  12   15.90    8.70
  -4   0  12   18.60    9.00
  -4   0  12   22.30    6.80
  -4   0  12   28.50    6.30
  -4   0  12   36.00    7.20
  -4   0  12   31.40    6.70
   3   0 -12  607.04  113.89
   3   0 -12  750.52  113.99
  -3   0  12  650.83  114.29
  -3   0  12  672.33  113.79
  -3   0  12  696.63  114.29
  -3   0  12  715.23  114.79
  -2   0  12  234.08   42.10
  -2   0  12  262.77   42.50
  -2   0  12  264.77   42.50
  -2   0  12  263.97   42.50
  -2   0  12  220.68   42.10
  -1   0  12   28.20    7.40
  -1   0  12   36.40    7.50
  -1   0  12   45.40    8.10
  -1   0  12   25.00    7.80
   0   0 -12   19.70    5.00
   0   0  12   15.90    5.80
   0   0  12   13.20    7.00
   0   0  12   23.30    5.80
   0   0  12   13.20    6.50
  -1   0 -12  185.58   27.70
  -1   0 -12  153.78   27.40
   1   0  12  150.08   27.30
   1   0  12  176.88   27.50
   1   0  12  149.09   27.80
   1   0  12  122.69   28.60
  -2   0 -12   -4.00    6.60
   2   0  12    2.00    5.40
   2   0  12   16.40    7.20
   2   0  12    4.30    8.70
   2   0  12   -6.50   12.90
   2   0  12    2.60    6.10
   2   0  12    2.00    4.80
  -3   0 -12   -3.70   10.00
   3   0  12    1.80    7.20
   3   0  12    1.80    4.90
   3   0  12   -8.30    9.10
   3   0  12    3.70    9.50
   3   0  12    0.50    9.80
   7  -1 -12   14.80   11.40
  -7   1  12    6.70   16.20
  -7   1  12   -6.70   11.10
   6  -1 -12   34.70    9.70
  -6   1  12   21.60   10.50
  -6   1  12   25.70   12.70
  -6   1  12   29.40   11.30
   5  -1 -12   23.50    7.70
  -5   1  12   27.00   10.20
  -5   1  12   12.60   12.00
  -5   1  12   30.30    8.50
  -5   1  12   16.00    8.70
   4  -1 -12   20.80    6.70
  -4   1  12   33.90    7.30
  -4   1  12   19.70    9.50
  -4   1  12   23.10    8.60
  -4   1  12   23.80    5.30
  -4   1  12   23.60    5.20
   3  -1 -12  129.99   27.00
   3  -1 -12  168.38   27.50
  -3   1  12  122.49   27.10
  -3   1  12  172.18   27.10
  -3   1  12  185.88   27.20
  -3   1  12  186.88   27.90
  -3   1  12  163.28   27.90
  -3   1  12  157.68   28.30
   2  -1 -12  118.69   21.30
   2  -1 -12  141.19   21.60
  -2   1  12  104.59   22.30
  -2   1  12  132.79   21.20
  -2   1  12  110.79   21.10
  -2   1  12  137.59   21.70
  -2   1  12  103.79   21.90
  -2   1  12  118.89   21.90
  -2   1  12  142.49   22.00
   1  -1 -12   13.70    4.70
   1  -1 -12   20.10    5.80
  -1   1  12   18.20    6.50
  -1   1  12   23.70    6.60
  -1   1  12   21.80    6.60
  -1   1  12   11.80    6.70
  -1   1  12   22.20    5.90
   0  -1 -12   14.30    8.30
   0  -1 -12    2.80    4.00
   0  -1 -12    7.80    5.80
   0   1  12    0.80    4.90
   0   1  12   -5.70    3.60
   0   1  12    6.00    6.30
   0   1  12    4.40    6.90
   0   1  12    0.50    4.20
   0   1  12   13.80    5.50
   0   1  12    3.00    4.00
   1   1  12   11.00    3.70
   1   1  12    2.20    5.10
   1   1  12    3.90    4.10
   1   1  12    1.80    7.80
   1   1  12   -1.00    6.60
   1   1  12    7.40    5.50
  -2  -1 -12   -5.60    8.00
   2   1  12   -2.30    6.10
   2   1  12   -4.40    7.90
   2   1  12    3.20    8.80
   2   1  12   -1.80    7.80
  -3  -1 -12   15.20   11.10
   3   1  12  -13.60   11.30
   3   1  12   12.30   10.40
   3   1  12   17.60    8.60
   7  -2 -12    3.70   11.60
  -7   2  12   13.40   14.60
  -7   2  12   14.80   15.70
   6  -2 -12   71.79   16.30
  -6   2  12   64.29   16.40
  -6   2  12  123.89   18.80
  -6   2  12   63.69   18.00
   5  -2 -12  210.68   36.20
  -5   2  12  174.48   37.00
  -5   2  12  232.08   36.50
   4  -2 -12    0.50    5.80
  -4   2  12   -2.70    8.10
  -4   2  12    9.20    9.20
  -4   2  12   -2.10    6.20
  -4   2  12    5.30    8.30
   3  -2 -12    1.30    4.80
   3  -2 -12    3.00    7.50
  -3   2  12   -0.30    7.90
  -3   2  12    3.20    5.10
  -3   2  12    6.70    6.60
  -3   2  12   -3.90    3.40
  -3   2  12    1.00    6.90
  -3   2  12    1.70    7.40
   2  -2 -12   47.60    8.70
  -2   2  12   32.70    8.60
  -2   2  12   42.80    7.50
  -2   2  12   26.00    8.00
  -2   2  12   24.60    9.30
  -2   2  12   28.50    7.40
  -2   2  12   25.80    7.90
  -2   2  12   24.30    8.50
   1  -2 -12  127.29   23.90
  -1   2  12  134.39   23.90
  -1   2  12  131.89   23.50
  -1   2  12  142.29   23.50
  -1   2  12  133.69   24.40
  -1   2  12  158.58   24.30
  -1   2  12  116.79   23.60
   0  -2 -12    2.40    8.80
   0  -2 -12   -1.60    4.90
   0   2  12    1.80    3.30
   0   2  12    0.20    6.00
   0   2  12   -4.70    5.00
   0   2  12    1.20    3.80
   0   2  12   -4.40    8.50
   0   2  12   -3.00    6.70
   0   2  12    1.10    6.70
  -1  -2 -12   78.49   17.70
   1   2  12   82.89   17.90
   1   2  12  111.19   19.80
   1   2  12   93.69   18.30
   1   2  12  121.39   18.70
  -2  -2 -12   11.60    9.10
   2   2  12    8.00    7.30
   2   2  12    0.60    9.90
   2   2  12   -4.20    8.90
   2   2  12  -11.70   10.30
  -3  -2 -12   10.60   12.40
   3   2  12    7.50    9.50
   3   2  12   14.80   13.00
   6  -3 -12   11.70    9.90
  -6   3  12   -7.90    9.60
  -6   3  12    3.40   11.60
   5  -3 -12   78.29   12.70
  -5   3  12   61.49   12.70
  -5   3  12   37.10   14.00
  -5   3  12   29.70   14.00
   4  -3 -12   82.79   15.60
  -4   3  12   53.09   16.70
  -4   3  12   84.59   17.00
  -4   3  12   89.59   15.60
   3  -3 -12   29.00    8.80
  -3   3  12   31.80   11.10
  -3   3  12   42.80   10.20
  -3   3  12   40.80   11.40
  -3   3  12   32.60    9.00
  -3   3  12   41.90   10.20
   2  -3 -12  242.28   42.80
  -2   3  12  255.67   42.90
  -2   3  12  255.77   42.80
  -2   3  12  267.47   42.60
  -2   3  12  232.98   43.20
  -2   3  12  230.28   42.50
  -2   3  12  245.18   42.40
   1  -3 -12    5.20    6.50
   1  -3 -12    6.60    8.00
  -1   3  12   16.70    6.90
  -1   3  12   16.40    6.50
  -1   3  12   75.09   10.30
  -1   3  12   11.20    5.00
  -1   3  12   22.70    8.40
  -1   3  12    4.00    7.70
  -1   3  12   13.20    5.50
   0  -3 -12    7.40    9.20
   0  -3 -12    2.40    6.40
   0   3  12    5.00   10.90
   0   3  12    3.90    8.20
   0   3  12    0.00    6.20
   0   3  12   -2.40    7.70
   0   3  12   -4.50    7.90
  -1  -3 -12    1.60    8.40
   1   3  12   -2.90    9.10
   1   3  12   10.40    7.20
   1   3  12   -3.20    9.60
   1   3  12   31.50   10.60
  -2  -3 -12   42.70   14.10
   2   3  12   49.10   14.30
   2   3  12   73.39   14.80
   2   3  12   48.70   12.70
   6  -4 -12   13.60   11.10
  -6   4  12   -6.00    9.80
  -6   4  12   -2.40   12.80
  -5   4  12   27.90   16.10
  -5   4  12   33.00   13.90
  -5   4  12   62.79   12.00
   4  -4 -12   82.39   17.20
  -4   4  12   81.99   18.40
  -4   4  12   85.29   19.10
  -4   4  12   97.89   17.20
   3  -4 -12   36.60    9.10
  -3   4  12   28.40    9.10
  -3   4  12   27.60   10.30
  -3   4  12   33.90   10.80
  -3   4  12   12.30   11.10
   2  -4 -12   29.10    8.20
  -2   4  12   19.60    7.50
  -2   4  12   35.70    7.00
  -2   4  12   -9.60   10.10
  -2   4  12   25.10    8.30
  -2   4  12   21.30    9.40
  -2   4  12   23.80    6.80
   1  -4 -12   21.70    9.50
   1  -4 -12   38.70   10.20
  -1   4  12   37.30   12.00
  -1   4  12   39.10    9.20
  -1   4  12   43.50    9.60
  -1   4  12   31.90   11.20
   0  -4 -12   62.09   14.80
   0   4  12   63.29   16.50
   0   4  12   86.89   15.00
   0   4  12   77.59   14.60
   0   4  12   56.59   15.70
  -1  -4 -12    4.20    9.90
   1   4  12   -9.00    8.60
   1   4  12  -11.00    9.70
   1   4  12   10.20   10.90
   5  -5 -12   22.30   11.10
  -5   5  12   23.30   13.10
  -5   5  12   18.00   10.80
  -4   5  12   53.19   16.60
  -4   5  12   76.59   14.80
   3  -5 -12  148.99   25.20
  -3   5  12  127.89   25.90
  -3   5  12  144.19   25.00
  -3   5  12   90.69   26.30
  -3   5  12  151.08   25.10
   2  -5 -12   -3.60    8.10
  -2   5  12    1.70    6.40
  -2   5  12    8.20    6.00
  -2   5  12   11.90    5.60
  -2   5  12   17.30    9.70
  -2   5  12   45.90    8.80
  -2   5  12   -1.60   12.00
   1  -5 -12    3.90    9.30
   1  -5 -12    8.90    9.30
  -1   5  12    7.70   13.00
  -1   5  12   -1.80    7.40
  -1   5  12    4.20   10.70
  -1   5  12    1.60    8.40
   0  -5 -12   86.39   18.70
   0   5  12   97.59   17.90
   0   5  12   76.39   19.20
   1   5  12   14.90   11.60
   5  -6 -12   -1.00   12.00
   4  -6 -12   26.00   11.90
  -4   6  12   22.50   13.20
  -4   6  12   22.90   11.30
   3  -6 -12    6.40   10.40
  -3   6  12    3.20    9.70
  -3   6  12   -5.10   12.10
  -2   6  12    1.40    6.90
  -2   6  12   -0.40    9.90
  -2   6  12    6.70   12.00
  -2   6  12    4.40    4.60
   1  -6 -12   42.20   13.70
  -1   6  12   44.50   13.00
  -1   6  12   43.60   11.50
  -1   6  12   39.40   14.80
  -1 -10  13   -9.90   10.50
  -1 -10  13    2.80    7.00
  -1 -10  13   -1.70   12.50
  -1 -10  13    2.70   12.50
   0 -10  13   22.90   12.80
   0 -10  13   -2.10    5.60
   0 -10  13    1.50   12.30
   1 -10  13   -6.10   13.20
   1 -10  13    9.00   12.80
   3   9 -13   45.20   11.60
  -3  -9  13   20.90    8.50
  -3  -9  13   32.90   13.30
  -3  -9  13   12.20   11.40
   2   9 -13  118.49   21.90
  -2  -9  13  108.19   21.10
  -2  -9  13  105.29   22.80
  -2  -9  13  144.69   21.40
   1   9 -13   11.30    7.10
  -1  -9  13    3.20   13.10
  -1  -9  13    7.10   11.30
  -1  -9  13   12.50    8.70
  -1  -9  13   11.90   13.40
   0   9 -13   56.99   10.20
   0  -9  13   40.50   14.50
   0  -9  13   32.20   11.60
   0  -9  13   33.00   15.10
   0  -9  13   51.99   13.80
  -1   9 -13  105.29   16.90
   1  -9  13   60.49   19.80
   1  -9  13   76.29   22.00
   1  -9  13   81.29   18.10
   1  -9  13   99.09   20.70
   2  -9  13   20.30    7.40
   2  -9  13   36.00    6.50
   2  -9  13   18.20   12.80
   2  -9  13    7.20   11.50
   2  -9  13   19.40   13.30
   4   8 -13    4.70    9.20
  -4  -8  13  -17.70   13.00
  -4  -8  13   35.80    8.20
  -4  -8  13    2.50   10.60
   3   8 -13   -1.90   10.00
  -3  -8  13   -6.30    5.30
  -3  -8  13    8.30    8.90
  -3  -8  13    3.10   16.90
  -3  -8  13    3.20    5.90
   2   8 -13   34.20    8.00
  -2  -8  13   28.80   11.90
  -2  -8  13   29.50    9.50
   1   8 -13   49.70    9.40
  -1  -8  13   47.00   11.10
  -1  -8  13   50.69   13.60
  -1  -8  13   43.10   13.30
  -1  -8  13   53.19   13.10
   0  -8  13   -0.80    6.70
   0  -8  13    9.10    9.90
   0  -8  13   -2.00   10.20
   0  -8  13   -1.50    9.40
  -1   8 -13   16.40    6.30
   1  -8  13   23.00   12.10
   1  -8  13   17.50   11.10
   1  -8  13   22.90   10.50
   1  -8  13    8.30    8.50
  -2   8 -13    5.90    7.30
   2  -8  13    7.30    9.10
   2  -8  13   10.90   11.40
   2  -8  13    1.90   14.50
   2  -8  13   -1.60   11.00
   3  -8  13   87.59   21.00
   3  -8  13   30.10   13.70
   5   7 -13   24.80   10.90
  -5  -7  13   -1.30   10.40
  -5  -7  13   13.60   11.70
  -5  -7  13    0.80   12.50
   4   7 -13   -1.30    7.70
  -4  -7  13    8.70    9.00
  -4  -7  13    5.20    6.50
  -4  -7  13   -2.90    7.00
   3   7 -13    6.20    5.70
  -3  -7  13    7.50    7.40
  -3  -7  13   -0.30    4.00
  -3  -7  13    1.90    9.50
  -2  -7  13   10.30    6.60
  -2  -7  13    9.10    9.40
  -2  -7  13   15.00    8.70
  -2  -7  13   -8.80    9.50
  -1  -7  13  177.98   32.20
  -1  -7  13  192.28   31.40
  -1  -7  13  194.28   32.30
  -1  -7  13  164.08   30.90
   0  -7  13   -1.00    8.10
   0  -7  13    2.50    8.70
   0  -7  13   -1.80    8.70
   0  -7  13    2.60    5.70
   1  -7  13   41.30   11.90
   1  -7  13   49.99   12.40
   1  -7  13   61.39   12.00
   1  -7  13   27.70    9.80
  -2   7 -13   11.60    6.00
  -2   7 -13   -0.60    6.90
   2  -7  13  -14.80    9.10
   2  -7  13   -2.60   12.10
   2  -7  13    0.10    8.40
   2  -7  13  -10.80    9.20
   3  -7  13    3.10    5.20
   3  -7  13   -0.90   10.30
   3  -7  13   -7.50   11.30
   3  -7  13   -4.20   11.20
   5   6 -13    8.90    8.80
  -5  -6  13   18.90   11.60
  -5  -6  13   -7.90    9.20
   4   6 -13  149.39   21.80
  -4  -6  13  114.39   21.20
  -4  -6  13   87.89   23.90
  -4  -6  13  116.69   23.80
   3   6 -13   13.20    5.00
  -3  -6  13   16.70    9.50
  -3  -6  13   18.50    7.30
  -3  -6  13   39.30   10.30
  -2  -6  13   40.10   10.50
  -2  -6  13   33.10   10.80
  -2  -6  13   29.60    7.60
  -2  -6  13   26.30    8.50
  -1  -6  13   68.19    9.70
  -1  -6  13   36.10   10.90
  -1  -6  13   31.80   11.00
  -1  -6  13   35.50    8.90
   0  -6  13    1.90    6.20
   0  -6  13   10.20    7.90
   0  -6  13    6.30    5.00
   0  -6  13    3.70    7.70
   1  -6  13    1.10    7.70
   1  -6  13   -4.80    8.70
   1  -6  13    0.60    8.30
   2  -6  13   -5.40   10.20
   2  -6  13   11.00    9.50
   2  -6  13   10.70    9.00
   2  -6  13   12.70    7.90
   3  -6  13  105.19   22.30
   3  -6  13   78.09   18.20
   3  -6  13   84.79   18.50
   3  -6  13   93.59   19.10
   6   5 -13  -10.00   10.90
  -6  -5  13  -46.40   18.80
  -6  -5  13  -13.40   12.30
   5   5 -13   40.90    9.50
  -5  -5  13   10.20    9.90
  -5  -5  13   40.10   13.00
  -5  -5  13    3.40   15.20
  -5  -5  13   43.00   10.40
   4   5 -13   15.20    6.50
  -4  -5  13   32.50    9.80
  -4  -5  13   67.29   11.20
  -4  -5  13   24.50   12.20
  -4  -5  13    5.80    5.90
  -4  -5  13   18.30    5.00
  -3  -5  13    7.60    7.50
  -3  -5  13   16.60    8.90
  -3  -5  13   16.00    8.40
  -3  -5  13    6.00    8.50
  -2  -5  13    2.10    8.10
  -2  -5  13    8.50    7.40
  -2  -5  13    4.50    4.20
  -2  -5  13    0.40    5.20
  -1  -5  13   85.09   17.70
  -1  -5  13   95.99   17.80
   0  -5  13    5.70    7.40
   0  -5  13    7.00    5.10
   0  -5  13   10.10    7.90
   1  -5  13   11.30    7.90
   1  -5  13    2.60    8.00
   1  -5  13   -0.60    5.30
   1  -5  13   11.00    9.70
   2  -5  13  222.38   33.90
   2  -5  13  169.28   33.50
   2  -5  13  191.88   34.30
   2  -5  13  179.08   33.10
  -3   5 -13    8.00    8.70
   3  -5  13   20.00    9.60
   3  -5  13   20.20   14.50
   3  -5  13   10.00    9.90
   3  -5  13   60.69   17.30
   6   4 -13   -3.00    9.60
  -6  -4  13    4.10   11.00
  -6  -4  13   27.30   14.30
   5   4 -13   55.19   11.00
  -5  -4  13   30.40   11.10
  -5  -4  13   56.09   13.80
  -5  -4  13   57.29   13.20
  -5  -4  13   44.70   10.00
  -5  -4  13   36.50   21.30
   4   4 -13  221.38   41.90
   4   4 -13  278.87   42.00
  -4  -4  13  222.38   42.50
  -4  -4  13  280.97   42.60
  -4  -4  13  206.58   42.70
  -3  -4  13   -4.00    6.40
  -3  -4  13   -7.40    7.20
  -3  -4  13    2.70    6.50
  -3  -4  13   -5.10    7.30
  -2  -4  13    7.60    7.30
  -2  -4  13    2.20    5.10
  -2  -4  13   -1.40    6.50
  -1  -4  13  141.89   25.60
  -1  -4  13  140.19   27.30
   0  -4  13  330.67   53.89
   0  -4  13  295.57   53.49
   1  -4  13   -3.40    6.30
   1  -4  13    4.50    7.70
   1  -4  13    6.20    5.10
   1  -4  13   -5.90    7.10
   2  -4  13    2.30    6.80
   2  -4  13   10.10    9.20
   2  -4  13   -4.40    9.30
  -3   4 -13  -11.40    8.20
   3  -4  13    7.20    8.70
   3  -4  13    5.70   10.60
   3  -4  13    5.00    9.00
   3  -4  13   13.60   14.00
   6   3 -13   -2.80    8.80
  -6  -3  13   20.20   12.80
  -6  -3  13    8.80   10.10
  -6  -3  13   -0.80   14.80
   5   3 -13   -2.20    6.80
  -5  -3  13    9.20   10.20
  -5  -3  13   21.30   12.40
  -5  -3  13   23.70   10.70
  -5  -3  13    8.80    7.80
   4   3 -13   23.60    6.30
   4   3 -13   41.00    8.60
  -4  -3  13   22.30    8.90
  -4  -3  13   25.60    9.80
  -4  -3  13   23.70   10.40
  -4  -3  13   41.10    9.90
  -4  -3  13   16.80    9.80
  -3  -3  13   93.59   16.20
  -3  -3  13   97.59   17.50
  -3  -3  13   77.69   16.50
  -3  -3  13   77.49   17.20
  -2  -3  13   28.10    9.60
  -2  -3  13   28.70    8.40
  -1  -3  13   -3.80    6.00
  -1  -3  13    7.70    6.60
   0  -3  13  109.29   19.40
   0  -3  13   98.59   19.30
   1  -3  13   -1.70    4.90
   1  -3  13    6.00    7.80
   1  -3  13   -3.10    6.60
   2  -3  13   -9.80    6.80
   2  -3  13   14.80    9.10
   2  -3  13   17.10    7.60
   2  -3  13   14.20   10.20
  -3   3 -13    3.40    8.30
   3  -3  13    1.00   10.30
   3  -3  13   -7.20    9.00
   3  -3  13   -0.40    8.50
   3  -3  13   -2.70    4.40
   3  -3  13    8.10    5.50
   3  -3  13   -6.40   15.00
   6   2 -13   85.59   14.90
  -6  -2  13   28.70   15.20
  -6  -2  13   75.49   18.30
  -6  -2  13   89.09   15.70
   5   2 -13   -3.50    7.60
  -5  -2  13   31.10   11.40
  -5  -2  13   50.09   12.50
  -5  -2  13   43.40    9.80
  -5  -2  13   32.90    8.60
  -5  -2  13   23.10    8.40
  -5  -2  13   34.20    7.90
   4   2 -13    6.50    4.30
  -4  -2  13    0.70    8.60
  -4  -2  13   15.60    8.30
  -4  -2  13    8.90    6.30
  -4  -2  13   12.40    8.10
  -3  -2  13  715.13  101.09
  -3  -2  13  574.34  100.49
  -3  -2  13  612.54  100.19
  -3  -2  13  568.94   99.99
  -3  -2  13  517.55  100.29
  -2  -2  13    7.00    7.00
  -2  -2  13    1.50    6.20
  -2  -2  13   15.40    4.80
  -1  -2  13   60.89   13.40
  -1  -2  13   73.69   13.70
   0  -2  13   44.00   11.30
   0  -2  13   44.60   10.00
   0  -2  13   42.40    8.40
   1  -2  13   91.69   14.70
   1  -2  13   52.79   13.40
   1  -2  13   79.79   13.90
   1  -2  13   59.89   13.10
  -2   2 -13   20.10    6.70
  -2   2 -13   10.50    5.60
   2  -2  13   -2.10    7.50
   2  -2  13   13.00    7.20
   2  -2  13   16.30   12.10
   2  -2  13   32.50   10.10
  -3   2 -13   -2.90    9.50
   3  -2  13   30.70    7.60
   3  -2  13   17.60   10.50
   3  -2  13   27.60   11.90
   3  -2  13   26.70    9.10
   3  -2  13   34.50    8.60
   6   1 -13   16.40    9.30
  -6  -1  13   22.30    7.40
  -6  -1  13   17.70    8.70
  -6  -1  13    8.40   10.00
  -6  -1  13   25.20   13.90
  -6  -1  13   21.60   10.60
   5   1 -13    3.80    6.60
  -5  -1  13   13.80   11.20
  -5  -1  13   -0.60    7.20
  -5  -1  13    2.60    7.10
  -5  -1  13   21.90   11.80
  -5  -1  13   21.70    6.40
  -5  -1  13    8.90    6.70
   4   1 -13   36.60    8.60
   4   1 -13   24.60    7.00
  -4  -1  13   37.20    7.90
  -4  -1  13   50.79    9.80
  -4  -1  13   30.60   10.00
  -4  -1  13   32.80    8.70
  -4  -1  13   24.50    6.60
  -3  -1  13  827.12  139.79
  -3  -1  13  873.01  139.79
  -3  -1  13  723.73  139.79
  -3  -1  13 1044.00  141.59
  -2  -1  13  292.87   49.99
  -2  -1  13  296.77   49.60
  -2  -1  13  262.57   49.90
  -2  -1  13  299.47   49.60
  -1  -1  13   68.39   14.00
  -1  -1  13   71.29   13.20
  -1  -1  13   64.29   14.10
  -1  -1  13   76.09   13.10
   0  -1  13   15.10    7.50
   0  -1  13   13.00    7.30
   0  -1  13   10.10    5.30
   0  -1  13   18.50    6.40
   1  -1  13   16.60    7.00
   1  -1  13   13.50    9.00
   1  -1  13   23.40    6.80
   1  -1  13   31.50   10.50
  -2   1 -13    8.90    6.50
   2  -1  13    7.70   18.60
   2  -1  13   15.00    9.50
   2  -1  13   12.50    6.50
   2  -1  13    6.50    3.80
   2  -1  13   13.20    8.10
   2  -1  13    7.50    4.50
  -3   1 -13   -6.10   14.70
   3  -1  13   25.90    8.10
   3  -1  13   15.90   10.80
   3  -1  13   18.90    7.90
   3  -1  13   20.40   10.00
   3  -1  13   17.80   12.00
   6   0 -13   14.70    8.90
  -6   0  13   24.90   11.70
  -6   0  13    7.50   13.90
  -6   0  13   12.90    9.80
   5   0 -13   -2.00    6.60
  -5   0  13    3.00    8.90
  -5   0  13    2.60   10.80
  -5   0  13    1.50    4.50
  -5   0  13   -1.90    4.80
  -5   0  13    0.10   12.20
  -5   0  13   -2.20    9.80
   4   0 -13   34.40    6.80
   4   0 -13   28.20    8.50
  -4   0  13   39.20    9.70
  -4   0  13   16.30    7.30
  -4   0  13   22.10    6.70
  -4   0  13   29.00    9.80
  -4   0  13   20.40    6.30
  -4   0  13   19.80    6.70
   3   0 -13  150.58   29.70
   3   0 -13  194.68   30.10
  -3   0  13  195.88   30.10
  -3   0  13  134.19   30.50
  -3   0  13  184.18   30.50
  -3   0  13  192.48   30.50
  -2   0  13  176.78   29.90
  -2   0  13  155.28   30.70
  -2   0  13  189.88   30.40
  -2   0  13  183.78   30.00
  -2   0  13  149.49   29.90
  -1   0  13    8.00    7.90
  -1   0  13   10.00    6.30
  -1   0  13   12.70    6.20
  -1   0  13   10.00    5.70
  -1   0  13    5.60    6.50
   0   0  13    2.90    7.20
   0   0  13    3.80    7.00
   0   0  13    5.50    5.40
   0   0  13   -2.70    5.50
  -1   0 -13   97.29   18.80
  -1   0 -13  106.79   19.20
   1   0  13  143.99   22.30
   1   0  13  109.89   19.10
   1   0  13  102.09   19.60
   1   0  13  111.59   20.60
  -2   0 -13    1.60    7.80
   2   0  13    4.20    9.70
   2   0  13    2.50    5.40
   2   0  13   -1.10    8.70
   2   0  13   13.30   15.50
   2   0  13    8.90    6.10
   2   0  13    6.50    6.10
   3   0  13    0.00   19.40
   3   0  13    7.80    8.00
   6  -1 -13   -8.80    9.20
  -6   1  13  -11.50   12.50
  -6   1  13   11.20    9.60
   5  -1 -13   25.00    8.20
  -5   1  13   11.60   10.80
  -5   1  13    9.60    8.60
  -5   1  13   25.20    8.70
  -4   1  13   -5.70    8.40
  -4   1  13    5.60    3.80
  -4   1  13   -4.40    3.40
  -4   1  13   -3.30    7.10
  -4   1  13    2.00    6.20
   3  -1 -13    0.50    4.30
   3  -1 -13    2.20    6.20
  -3   1  13    0.20    4.90
  -3   1  13   -1.90    7.50
  -3   1  13    0.00    8.00
  -3   1  13    3.60   10.50
  -3   1  13   -0.70    4.30
   2  -1 -13  190.78   30.30
   2  -1 -13  148.69   30.00
  -2   1  13  167.28   31.30
  -2   1  13  180.58   30.70
  -2   1  13  189.68   30.90
  -2   1  13  182.78   31.00
  -2   1  13  206.88   30.90
   1  -1 -13   10.10    4.20
   1  -1 -13    9.00    5.40
  -1   1  13    8.80    5.90
  -1   1  13   21.10    7.20
  -1   1  13   15.60    7.90
  -1   1  13   14.90    7.00
  -1   1  13    2.60    7.10
   0  -1 -13   10.70    5.10
   0  -1 -13    9.70    6.70
   0   1  13    7.90    6.20
   0   1  13   21.70    9.00
   0   1  13   15.30    7.00
   0   1  13    9.50    8.10
   0   1  13    9.40    5.50
  -1  -1 -13   11.30    7.00
   1   1  13    9.80    4.90
   1   1  13   21.90    5.10
   1   1  13   12.90    8.40
   1   1  13   15.70    6.50
   1   1  13   26.50    6.30
   1   1  13   32.60    9.90
  -2  -1 -13   -0.40    8.90
   2   1  13    8.20   11.40
   2   1  13    0.90    9.00
   2   1  13   -6.60   13.60
   2   1  13    9.30    7.20
   6  -2 -13   -3.20    9.50
  -6   2  13    4.40   10.20
  -6   2  13    7.10   12.90
   5  -2 -13  197.58   30.10
  -5   2  13  126.79   32.00
  -5   2  13  162.08   30.00
   4  -2 -13  102.39   18.10
  -4   2  13  135.59   19.60
  -4   2  13   95.89   20.40
  -4   2  13   56.69   19.10
  -4   2  13   98.39   19.40
  -3   2  13    1.00    6.70
  -3   2  13    3.00    7.80
  -3   2  13    4.60    5.70
  -3   2  13    0.80    9.80
  -3   2  13    3.00   11.40
  -3   2  13   -0.30    4.40
   2  -2 -13   -0.20    8.10
   2  -2 -13    4.20    5.10
  -2   2  13    1.40    7.10
  -2   2  13    2.50    5.10
  -2   2  13   -2.70    7.90
  -2   2  13    1.00    5.60
  -2   2  13   -2.50    5.10
  -2   2  13   -3.70    6.30
  -2   2  13   -4.00    8.80
   1  -2 -13   40.40   10.50
  -1   2  13   55.69   10.60
  -1   2  13   52.49   10.50
  -1   2  13   59.79   11.70
  -1   2  13   50.99   12.20
  -1   2  13   57.29   11.30
  -1   2  13   54.79   13.30
  -1   2  13   58.69   10.60
   0   2  13    2.70    8.10
   0   2  13    9.50    6.00
   0   2  13    6.80    4.10
   0   2  13   19.60    8.50
   0   2  13    8.40   10.80
   0   2  13    0.30    6.20
   0   2  13    9.00    3.90
  -1  -2 -13   28.40    9.50
   1   2  13   29.00   10.70
   1   2  13   30.60   10.10
   1   2  13   40.30   11.60
   1   2  13   38.60    9.10
  -2  -2 -13   16.30   14.00
   2   2  13   50.49   13.70
   2   2  13   40.80   10.30
   2   2  13   20.60   12.00
  -6   3  13    3.40   13.70
  -6   3  13   14.20   11.30
   5  -3 -13   17.60    9.30
  -5   3  13    8.00    9.20
  -5   3  13   -5.10   11.60
  -5   3  13   -2.20   14.20
   4  -3 -13   14.20    7.80
  -4   3  13   10.40   10.70
  -4   3  13    9.40    7.70
  -4   3  13   -2.40   10.10
   3  -3 -13    1.70    6.80
  -3   3  13    7.00    8.60
  -3   3  13    3.90    6.70
  -3   3  13    2.00    9.80
  -3   3  13  -12.30   12.80
   2  -3 -13    5.50    6.80
  -2   3  13    6.70    6.70
  -2   3  13    5.00    7.60
  -2   3  13    7.40   11.20
  -2   3  13    0.90    6.80
  -2   3  13   21.90    8.30
  -2   3  13   12.70    6.20
  -2   3  13    4.50    8.60
  -1   3  13   14.30   12.40
  -1   3  13   19.80    8.40
  -1   3  13   16.10    5.90
  -1   3  13   48.00    9.20
  -1   3  13   15.40    6.40
  -1   3  13   34.50   10.10
   0  -3 -13    3.60    7.80
   0   3  13   -4.00    7.10
   0   3  13   -0.70   13.90
   0   3  13    8.90    9.40
  -1  -3 -13   -3.10    9.40
   1   3  13    1.50   10.30
   1   3  13    0.40    8.20
   1   3  13   -3.00   10.70
   5  -4 -13   15.60   10.20
  -5   4  13    2.90   12.60
  -5   4  13    1.30   12.50
  -5   4  13   10.50   10.00
   4  -4 -13   31.90   10.10
  -4   4  13   11.40    9.40
  -4   4  13   19.80   12.60
  -4   4  13   38.40   20.50
   3  -4 -13   75.59   15.60
  -3   4  13   80.69   16.60
  -3   4  13   63.19   17.60
  -3   4  13   56.59   16.70
  -3   4  13   92.59   15.60
   2  -4 -13   32.90    7.90
  -2   4  13    0.20   10.10
  -2   4  13   -2.30    6.30
  -2   4  13   -1.90   10.60
  -2   4  13   -1.60    7.30
  -2   4  13   -2.00    7.80
  -2   4  13   15.20    6.30
  -1   4  13   43.60   16.40
  -1   4  13   75.49   14.70
  -1   4  13   57.89   14.60
  -1   4  13  107.09   16.80
   0  -4 -13   19.20    9.80
   0   4  13    7.80    9.00
   0   4  13   12.20   10.30
   0   4  13   19.70   11.50
   4  -5 -13   77.39   14.70
  -4   5  13   55.79   14.00
  -4   5  13   23.20   15.80
   3  -5 -13   20.10   10.70
  -3   5  13    2.90    9.80
  -3   5  13   33.20   12.50
   2  -5 -13   33.70   11.40
  -2   5  13   26.90   11.00
  -2   5  13   43.10   12.60
  -2   5  13   29.70   13.50
  -2   5  13   31.70    8.00
   1  -5 -13    9.40   10.70
  -1   5  13    3.90   12.60
  -1   5  13   11.80    9.60
  -1   5  13    8.70    9.20
  -2  -9  14   11.50   13.20
  -2  -9  14   11.80   13.10
  -1  -9  14   13.00    9.90
  -1  -9  14   21.30   12.30
  -1  -9  14    9.00   13.30
   0  -9  14   56.99   15.40
   0  -9  14   37.80   12.50
   0  -9  14   46.80   14.70
  -3  -8  14    4.60    9.90
  -3  -8  14   -2.30   11.50
  -2  -8  14  132.09   25.00
  -2  -8  14  105.69   22.60
  -2  -8  14  173.78   26.30
  -1  -8  14   77.79   18.10
  -1  -8  14   91.09   20.20
  -1  -8  14   84.09   18.10
  -1  -8  14   74.89   15.90
   0  -8  14    9.10    8.10
   0  -8  14   11.40   12.00
   0  -8  14   23.60   11.60
   1  -8  14   21.10   11.20
   1  -8  14   -9.30   10.50
   1  -8  14   -4.80    8.80
  -4  -7  14   45.90    9.80
  -4  -7  14   60.19   13.40
  -4  -7  14   39.10   15.40
  -3  -7  14   -1.90   12.80
  -3  -7  14   -0.20   11.30
  -3  -7  14   13.60    8.50
  -3  -7  14   31.50   17.10
  -2  -7  14    7.80    6.90
  -2  -7  14    1.50    9.50
  -2  -7  14   -1.70   10.30
  -2  -7  14    7.80   10.70
  -1  -7  14   18.00    7.10
  -1  -7  14    8.80   10.50
  -1  -7  14    9.60   10.00
  -1  -7  14   14.60    8.90
   0  -7  14   87.19   15.20
   0  -7  14   48.60   12.20
   0  -7  14   48.40   14.20
   0  -7  14   63.29   13.60
   1  -7  14   21.50   10.60
   1  -7  14   10.50    8.40
   1  -7  14   21.60   11.20
   1  -7  14   39.10   13.90
   2  -7  14  113.09   19.90
   2  -7  14   69.79   17.90
   2  -7  14  103.99   19.70
   4   6 -14   23.20    7.10
  -4  -6  14   -1.40   13.70
  -4  -6  14   12.90   19.90
  -3  -6  14    6.20    9.60
  -3  -6  14    5.00    6.80
  -3  -6  14   21.20   10.60
  -3  -6  14   -9.60   10.10
  -2  -6  14   -3.40    5.50
  -2  -6  14    5.50    9.00
  -2  -6  14    7.80    7.00
  -2  -6  14   16.40    9.90
  -1  -6  14   38.10    9.40
  -1  -6  14   40.10    8.70
  -1  -6  14   46.90   12.00
  -1  -6  14   51.69   12.40
   0  -6  14  106.79   18.40
   0  -6  14  106.69   18.00
   0  -6  14  111.29   16.40
   0  -6  14   61.89   15.60
   1  -6  14   -5.80   10.20
   1  -6  14    6.10    9.00
   1  -6  14    1.30    9.80
   1  -6  14    2.50    7.20
   2  -6  14   13.90   10.30
   2  -6  14    1.90   12.70
   2  -6  14   -5.20    8.80
  -5  -5  14   63.79   14.40
  -5  -5  14   43.00   18.40
  -5  -5  14   11.50    9.30
   4   5 -14   29.90    8.90
   4   5 -14   36.90    7.30
  -4  -5  14   39.50   13.10
  -4  -5  14   21.70   12.90
  -4  -5  14   27.10   11.80
  -4  -5  14   34.20   14.40
  -3  -5  14   40.80   16.30
  -3  -5  14   96.59   17.50
  -3  -5  14   91.19   16.00
  -3  -5  14  111.69   17.30
  -2  -5  14   11.30    4.80
  -2  -5  14    5.20    8.80
  -2  -5  14    9.80    6.00
  -2  -5  14   17.50    8.60
  -1  -5  14   -1.60    7.90
  -1  -5  14   18.30    9.10
   0  -5  14    8.10    8.80
   0  -5  14   14.70    4.90
   0  -5  14   27.30    9.00
   1  -5  14   20.10    9.10
   1  -5  14   -7.50    9.50
   1  -5  14   16.70    8.30
   1  -5  14   11.90    6.50
   2  -5  14   28.70   10.20
   2  -5  14   28.70   11.80
   2  -5  14   49.70   11.80
   5   4 -14   -3.60    7.20
  -5  -4  14    2.00    6.10
  -5  -4  14    0.30    7.30
  -5  -4  14    2.40   11.80
  -4  -4  14   20.20   10.90
  -4  -4  14   33.80   15.70
  -4  -4  14   29.80   10.30
  -4  -4  14   13.10   10.50
  -3  -4  14   -3.60    8.40
  -3  -4  14    5.20   13.50
  -3  -4  14    7.00    7.10
  -3  -4  14    3.60    7.00
  -2  -4  14   45.90   11.70
  -2  -4  14   42.20   11.30
  -1  -4  14   13.30    8.10
  -1  -4  14    5.10    8.00
   0  -4  14   17.10    8.60
   0  -4  14    6.20    8.40
   1  -4  14   63.99   11.30
   1  -4  14   37.10   10.00
   1  -4  14   50.59   12.30
   1  -4  14   40.50   11.70
   2  -4  14   37.90   14.90
   2  -4  14   10.90   10.00
   2  -4  14   13.80    8.60
   2  -4  14   23.50   10.60
   5   3 -14   22.60    7.40
  -5  -3  14   33.40   13.90
  -5  -3  14   26.80    9.60
  -5  -3  14   16.80   12.30
  -5  -3  14    0.50    6.80
  -5  -3  14   11.80   12.10
  -5  -3  14   15.50    5.90
  -5  -3  14   31.50   11.40
  -4  -3  14   -2.30    9.20
  -4  -3  14   -9.70    9.10
  -4  -3  14    5.60    9.30
  -4  -3  14    0.70    7.60
  -4  -3  14   18.50   10.90
  -3  -3  14   25.60    9.90
  -3  -3  14   14.40   11.00
  -3  -3  14   19.10   11.00
  -3  -3  14   24.00    7.90
  -3  -3  14   17.60    8.70
  -2  -3  14   -6.80    7.20
  -2  -3  14    6.80    7.80
  -1  -3  14   13.40    8.00
  -1  -3  14   15.80    8.20
   0  -3  14   84.79   16.90
   0  -3  14   87.19   17.20
   1  -3  14   26.20    7.70
   1  -3  14   30.00   10.30
   1  -3  14   20.50    9.10
   1  -3  14   23.60    9.10
   2  -3  14   36.10   15.10
   2  -3  14   16.10    9.50
   2  -3  14   34.10   12.00
   2  -3  14   30.40   10.20
  -6  -2  14   90.19   15.80
  -6  -2  14   41.80   19.90
   5   2 -14   -0.70    6.40
  -5  -2  14  -11.50   11.40
  -5  -2  14   -3.70    9.60
  -5  -2  14    2.00    5.50
  -5  -2  14    9.20    7.90
  -5  -2  14   15.00   12.70
  -5  -2  14    2.20    6.50
  -4  -2  14    2.60    7.10
  -4  -2  14    0.10    9.20
  -4  -2  14  -10.90    9.50
  -4  -2  14   -1.10    8.60
  -4  -2  14   12.20    9.40
  -3  -2  14    3.60    7.10
  -3  -2  14   -2.20    6.60
  -3  -2  14    3.30    9.00
  -3  -2  14   11.20    7.00
  -3  -2  14    2.30    8.50
  -2  -2  14   80.79   12.70
  -2  -2  14   34.60   12.70
  -1  -2  14    6.30    7.40
  -1  -2  14   -1.70    7.40
   0  -2  14   18.50    6.00
   0  -2  14   22.50    9.10
   0  -2  14   21.30    8.30
   0  -2  14   21.00    8.40
   1  -2  14    9.30    6.90
   1  -2  14    6.20    9.10
   1  -2  14   13.60    7.50
   1  -2  14    7.20    9.90
   2  -2  14    2.80    8.50
   2  -2  14    4.40   10.60
   2  -2  14   -7.60    7.90
   6   1 -14   15.20   13.60
  -6  -1  14   16.60   15.20
  -6  -1  14   -3.70   10.60
   5   1 -14   11.70    6.70
  -5  -1  14    2.40    7.00
  -5  -1  14   16.10   13.10
  -5  -1  14    0.00   11.90
  -5  -1  14    9.30    6.50
  -5  -1  14    1.20    6.70
  -5  -1  14    4.50    8.00
   4   1 -14    0.80    3.60
  -4  -1  14  -11.40    9.10
  -4  -1  14    1.60    6.50
  -4  -1  14    0.90    8.90
  -4  -1  14   -2.70    9.40
  -4  -1  14    5.50    8.10
  -3  -1  14   27.10   13.80
  -3  -1  14   27.50    8.40
  -3  -1  14   22.30    7.80
  -3  -1  14   19.40    9.50
  -2  -1  14  235.08   37.00
  -2  -1  14  189.58   37.50
  -2  -1  14  203.78   37.40
  -2  -1  14  213.48   37.40
  -1  -1  14    7.10    7.20
  -1  -1  14    0.30    5.50
  -1  -1  14   -2.00    7.10
  -1  -1  14    1.70    5.90
   0  -1  14    2.40    8.50
   0  -1  14   -1.50    5.90
   0  -1  14   -7.80    6.70
   1  -1  14   14.70   10.10
   1  -1  14    3.70    7.40
   1  -1  14    7.10    7.00
   1  -1  14    8.30   12.20
   2  -1  14   16.70   11.50
   2  -1  14    2.30    9.30
   2  -1  14   -4.30    7.40
   6   0 -14   -9.20   11.10
  -6   0  14   19.00   15.50
  -5   0  14  734.33  130.69
  -5   0  14  818.02  130.69
  -5   0  14  772.92  131.99
   4   0 -14  137.59   28.60
   4   0 -14  186.68   29.20
  -4   0  14  149.99   28.90
  -4   0  14  192.38   30.30
  -4   0  14  164.78   30.40
  -4   0  14  209.38   29.40
  -3   0  14   65.99   16.10
  -3   0  14   82.79   16.40
  -3   0  14   90.29   15.50
  -3   0  14   87.59   16.40
  -2   0  14   22.40    8.50
  -2   0  14   26.60    7.90
  -2   0  14   19.20    7.90
  -2   0  14   19.00    8.20
  -2   0  14   13.20   10.70
  -1   0  14  119.89   20.10
  -1   0  14  111.89   20.10
  -1   0  14  106.89   21.30
  -1   0  14  111.99   20.30
  -1   0  14   90.69   20.50
   0   0  14    5.20    6.90
   0   0  14   -2.90    8.80
   0   0  14   -4.10    6.30
   0   0  14   -7.00    8.80
   0   0  14    0.70    8.20
  -1   0 -14   79.99   13.70
   1   0  14   56.79   14.60
   1   0  14   68.89   16.10
   1   0  14   67.89   13.40
   2   0  14   94.59   20.70
   5  -1 -14   79.89   20.10
  -5   1  14  140.79   20.40
  -5   1  14  190.18   25.80
  -5   1  14   76.29   20.80
   4  -1 -14    1.90    6.10
  -4   1  14    1.50    4.30
  -4   1  14    8.90    6.10
  -4   1  14   10.10    6.00
  -4   1  14    6.20    4.60
  -4   1  14   14.30   11.30
  -4   1  14    9.80    5.40
  -4   1  14    2.10   10.10
   3  -1 -14    0.50    6.40
   3  -1 -14    1.10    4.40
  -3   1  14  -10.20    8.20
  -3   1  14    7.70    8.80
  -3   1  14    2.10    5.90
  -3   1  14   -8.30    9.70
  -2   1  14    1.20    9.70
  -2   1  14   -1.50    6.80
  -2   1  14   -4.00    8.70
  -2   1  14   -6.20    7.20
  -2   1  14   10.10    7.90
  -1   1  14    8.70    8.20
  -1   1  14    8.50    9.30
  -1   1  14    6.00    6.60
  -1   1  14   13.50    8.50
  -1   1  14    3.80    7.90
   0  -1 -14    3.30    6.80
   0  -1 -14   13.90    4.90
   0   1  14    1.00    8.40
   0   1  14   11.80    7.00
   0   1  14    4.70    9.20
   0   1  14    1.10   10.80
   1   1  14    0.50    9.20
   1   1  14    7.20   10.80
   5  -2 -14   18.10    9.10
  -5   2  14    6.60    9.20
  -5   2  14    8.10   12.80
  -4   2  14    8.90   10.90
  -4   2  14    2.60    8.20
   3  -2 -14    9.20    6.20
  -3   2  14    8.70    8.60
  -3   2  14   16.20   11.60
  -3   2  14   13.30   10.00
  -3   2  14   13.20    5.70
  -3   2  14   -3.20    5.90
  -3   2  14   20.90    6.30
   2  -2 -14   37.00    9.70
  -2   2  14   53.19   10.70
  -2   2  14   44.30   12.20
  -2   2  14   49.60   12.50
  -2   2  14   54.89   10.90
  -2   2  14   36.80   13.50
   1  -2 -14  174.78   34.00
  -1   2  14  200.28   34.40
  -1   2  14  196.68   35.10
  -1   2  14  211.98   34.10
  -1   2  14  204.78   35.80
  -1   2  14  211.88   34.80
   0   2  14    1.50    5.20
   0   2  14    0.10    0.90
   0   2  14   -3.30    9.90
   0   2  14    2.50    9.50
   0   2  14   -1.10    6.00
   1   2  14   -2.70    7.60
   1   2  14   -7.50   11.30
   5  -3 -14    1.70   11.30
   4  -3 -14   95.39   19.90
  -4   3  14  123.79   20.00
  -4   3  14   86.09   21.60
  -3   3  14    8.90    9.00
  -3   3  14   12.20    7.50
  -3   3  14    9.60   11.00
  -3   3  14   14.10   11.80
  -3   3  14    0.60    8.70
  -3   3  14    8.80    4.30
  -2   3  14   -5.90   10.40
  -2   3  14    3.10    8.00
  -2   3  14   -2.50    7.10
  -2   3  14    7.70    7.30
  -1   3  14   32.70   10.10
  -1   3  14   31.40    7.50
  -1   3  14   34.50   13.30
  -1   3  14   36.50   10.90
  -1   3  14   34.30    9.50
   0   3  14   40.00   12.10
   0   3  14   23.00    9.60
   3  -4 -14   14.00   11.60
  -3   4  14    2.70   11.90
  -3   4  14    5.00    8.90
  -3   4  14   -2.10    9.00
  -2   4  14    7.80    8.80
  -2   4  14   17.70    7.70
  -2   4  14    4.40    8.70
  -1  -8  15   -0.50   12.00
  -1  -8  15   11.40   12.40
  -3  -7  15   10.20    9.00
  -3  -7  15   18.90   13.00
  -3  -7  15    0.30   13.00
  -2  -7  15    0.20    7.00
  -2  -7  15    0.80   11.50
  -2  -7  15    6.10   12.60
  -1  -7  15   75.59   17.20
  -1  -7  15   64.49   13.90
  -1  -7  15   88.89   17.70
   0  -7  15   14.40   12.00
   1  -7  15   13.10   12.90
  -4  -6  15   72.89   16.20
  -3  -6  15   19.10   25.30
  -3  -6  15   36.40   13.00
  -3  -6  15   35.10    9.80
  -2  -6  15   -2.20   10.50
  -2  -6  15   13.60    6.20
  -2  -6  15   20.20   11.60
  -2  -6  15   13.20    6.20
  -1  -6  15    4.40   10.70
  -1  -6  15    6.20   10.50
   0  -6  15    0.80    5.90
   0  -6  15    8.70   10.40
   0  -6  15   14.70   10.30
   1  -6  15   13.00    8.40
   1  -6  15   23.30   13.70
   1  -6  15   16.30   11.00
  -4  -5  15    2.10   11.10
  -4  -5  15    6.60   14.30
  -4  -5  15    5.60   12.30
  -3  -5  15   19.20    9.90
  -3  -5  15  -16.20   11.10
  -2  -5  15    7.90   10.20
  -2  -5  15   -8.80   10.00
  -1  -5  15    5.80   10.00
  -1  -5  15    1.80   10.10
   0  -5  15  146.59   28.70
   0  -5  15  162.78   28.70
   1  -5  15   36.60   10.90
   1  -5  15   25.60   11.60
   1  -5  15   12.40    8.00
  -4  -4  15   -6.80    9.50
  -4  -4  15   -1.30   11.70
  -4  -4  15   -2.70   10.40
  -3  -4  15  143.19   27.70
  -3  -4  15  121.99   26.20
  -3  -4  15  141.19   26.90
  -3  -4  15  171.18   26.10
  -2  -4  15  244.08   41.40
  -2  -4  15  223.68   41.70
  -1  -4  15   -6.50    9.30
  -1  -4  15   10.60    9.40
   0  -4  15    7.90    9.70
   0  -4  15    1.60    9.40
   1  -4  15    5.20   10.90
   1  -4  15   -4.40    6.70
   1  -4  15  -15.40    9.30
  -5  -3  15   70.89   15.90
  -5  -3  15   46.70   14.00
  -5  -3  15   52.39   16.50
  -4  -3  15   28.00   11.90
  -4  -3  15   30.90   10.70
  -4  -3  15   21.70   12.10
  -3  -3  15   11.50    9.40
  -3  -3  15   10.70    8.30
  -3  -3  15   22.90   10.40
  -3  -3  15   14.00   12.00
  -2  -3  15    6.80    9.40
  -2  -3  15    1.80    8.50
  -1  -3  15    8.30    9.00
  -1  -3  15  -10.20    8.50
   0  -3  15   -0.40    9.00
   0  -3  15    4.60    9.60
   1  -3  15   45.00   11.70
   1  -3  15   33.60   10.10
   1  -3  15   54.59   13.80
  -5  -2  15   71.79   18.50
  -5  -2  15   53.39   23.70
  -5  -2  15   75.59   15.40
  -4  -2  15    0.20    8.30
  -4  -2  15   17.60   16.50
  -4  -2  15   -8.00   11.00
  -4  -2  15   10.90   11.30
  -4  -2  15    2.00   10.50
  -3  -2  15   68.29   18.00
  -3  -2  15  110.89   18.80
  -3  -2  15   88.59   16.70
  -3  -2  15   94.89   17.10
  -3  -2  15   74.49   16.50
  -2  -2  15   -3.10    8.40
  -2  -2  15   14.20    6.10
  -2  -2  15   11.40    9.20
  -1  -2  15   27.40   10.10
  -1  -2  15   28.90   10.00
   0  -2  15   10.30   10.30
   0  -2  15   17.70    9.40
   0  -2  15   27.50    7.20
   0  -2  15   21.30   10.90
   1  -2  15   54.29   12.70
   1  -2  15   63.29   15.00
   1  -2  15   42.90   11.90
  -5  -1  15   54.99   11.30
  -5  -1  15   29.60   16.50
  -4  -1  15   10.90   11.00
  -4  -1  15   12.30   13.60
  -4  -1  15   15.90    8.10
  -4  -1  15   11.50   11.20
  -3  -1  15    9.30    9.00
  -3  -1  15    6.90    8.50
  -3  -1  15    1.00    9.70
  -3  -1  15   -1.40    7.70
  -2  -1  15   -1.70    8.80
  -2  -1  15    5.40    7.40
  -2  -1  15   -5.00   11.80
  -2  -1  15   -8.00    7.70
  -1  -1  15   54.59   12.50
  -1  -1  15   60.59   13.20
  -1  -1  15   47.50   12.60
  -1  -1  15   53.69   11.70
   0  -1  15   25.30    8.80
   0  -1  15   46.60   11.50
   0  -1  15   17.00    9.20
   1  -1  15   27.70   12.20
   1  -1  15    9.10    8.40
   1  -1  15    2.60    8.80
  -5   0  15   48.00   16.20
  -4   0  15    6.50   10.40
  -4   0  15   10.80   11.40
  -4   0  15    1.60    7.70
  -3   0  15   -6.80    7.50
  -3   0  15    3.70    9.70
  -3   0  15   -2.80    9.50
  -3   0  15   -7.70   10.00
  -2   0  15   57.99   12.80
  -2   0  15   48.80   12.60
  -2   0  15   51.19   12.90
  -2   0  15   54.19   13.00
  -1   0  15   79.29   20.50
  -1   0  15  103.99   18.40
  -1   0  15   83.09   18.30
  -1   0  15  115.39   19.80
  -1   0  15   89.79   19.70
   0   0  15    3.60   10.20
   0   0  15    7.00    8.90
   0   0  15   -1.90    7.50
  -4   1  15  127.79   20.30
  -4   1  15  100.29   17.40
  -4   1  15   60.59   20.40
  -3   1  15   45.80   13.50
  -3   1  15   47.60   10.90
  -3   1  15   44.70   13.00
  -2   1  15    8.80    9.10
  -2   1  15   18.80   12.40
  -2   1  15    5.20    9.90
  -2   1  15   25.90    9.00
  -1   1  15   -9.50    7.30
  -1   1  15    0.70    9.70
  -1   1  15   10.50   10.00
   0   1  15   14.70    8.00
   0   1  15   10.70   11.50
  -3   2  15   -3.10   12.20
  -3   2  15   18.90   12.90
  -3   2  15   27.30    7.40
  -2   2  15   -7.60    8.50
  -2   2  15   -0.40    8.80
  -2   2  15    7.20   10.90
  -1   2  15   37.00    9.50
  -1   2  15   33.70   12.00
  -2  -5  16   10.80   11.80
  -2  -5  16   -2.40   11.30
  -1  -5  16   21.30   12.10
  -1  -5  16   17.00   12.00
  -3  -4  16   -4.90   10.00
  -3  -4  16    3.60   12.50
  -3  -4  16   14.90   10.60
  -2  -4  16   38.10   12.50
  -2  -4  16   30.60   13.20
  -1  -4  16    0.30   10.70
  -1  -4  16   17.10   10.70
   0  -4  16   15.70   11.40
   0  -4  16   13.10   11.30
  -3  -3  16   -4.20   10.10
  -3  -3  16   -1.40   11.60
  -3  -3  16   -3.00    8.60
  -2  -3  16  194.08   33.50
  -2  -3  16  175.38   33.80
  -1  -3  16   47.50   14.30
  -1  -3  16   59.19   14.30
   0  -3  16   13.90   11.70
   0  -3  16   35.80   12.30
  -3  -2  16   -1.20    9.50
  -3  -2  16   18.10   11.50
  -3  -2  16   10.80    9.90
  -2  -2  16   28.30   11.80
  -2  -2  16   52.79   13.10
  -1  -2  16   88.59   17.00
  -1  -2  16   63.99   17.00
  -3  -1  16   34.00   12.10
  -3  -1  16   11.60   11.20
  -3  -1  16    8.70    9.80
  -2  -1  16   17.50    9.50
  -2  -1  16   20.30   18.20
  -2  -1  16   -1.30   10.60
  -1  -1  16    7.00   10.30
  -2   0  16   27.90   11.50
  -2   0  16   28.80   11.60
   0   0   0    0.00    0.00

_computing_structure_solution     'SHELXT 2018/2 (Sheldrick, 2018)'
;
_shelx_hkl_checksum              78351
loop_
_space_group_symop_operation_xyz
'x, y, z'
'-x, -y, -z'
loop_
_atom_site_label
_atom_site_type_symbol
_atom_site_fract_x
_atom_site_fract_y
_atom_site_fract_z
_atom_site_U_iso_or_equiv
_atom_site_adp_type
_atom_site_occupancy
_atom_site_site_symmetry_order
_atom_site_calc_flag
_atom_site_refinement_flags_posn
_atom_site_refinement_flags_adp
_atom_site_refinement_flags_occupancy
_atom_site_disorder_assembly
_atom_site_disorder_group
Cl1 Cl 0.57164(12) 1.13981(6) 0.77553(5) 0.0597(2) Uani 1 1 d . . . . .
N1 N 0.2908(2) 0.41310(14) 0.60730(12) 0.0245(3) Uani 1 1 d . . . . .
Cl2 Cl 0.87358(9) 1.03755(6) 0.67010(5) 0.0531(2) Uani 1 1 d . . . . .
N2 N 0.3876(2) 0.46479(15) 0.71435(12) 0.0269(3) Uani 1 1 d . . . . .
N3 N 0.4553(2) 0.59749(14) 0.72798(12) 0.0242(3) Uani 1 1 d . . . . .
N4 N 0.3137(2) 0.68280(15) 0.47428(12) 0.0288(4) Uani 1 1 d . . . . .
N5 N 0.4175(2) 0.73679(15) 0.58590(12) 0.0279(3) Uani 1 1 d . . . . .
C8 C 0.0865(3) 0.5390(2) 0.25072(16) 0.0357(5) Uani 1 1 d . . . . .
H8 H 0.137693 0.633796 0.268090 0.043 Uiso 1 1 calc R U . . .
C9 C -0.0220(3) 0.4682(2) 0.14229(17) 0.0426(5) Uani 1 1 d . . . . .
H9 H -0.044683 0.515286 0.086353 0.051 Uiso 1 1 calc R U . . .
C10 C -0.0973(3) 0.3299(2) 0.11472(17) 0.0419(5) Uani 1 1 d . . . . .
H10 H -0.170813 0.281791 0.040384 0.050 Uiso 1 1 calc R U . . .
C11 C -0.0639(3) 0.2634(2) 0.19696(18) 0.0429(5) Uani 1 1 d . . . . .
H11 H -0.115353 0.168513 0.179239 0.051 Uiso 1 1 calc R U . . .
C12 C 0.0438(3) 0.3332(2) 0.30514(17) 0.0359(5) Uani 1 1 d . . . . .
H12 H 0.065514 0.285315 0.360576 0.043 Uiso 1 1 calc R U . . .
C13 C 0.1208(3) 0.47192(18) 0.33436(14) 0.0261(4) Uani 1 1 d . . . . .
C14 C 0.2364(3) 0.54836(18) 0.44876(14) 0.0244(4) Uani 1 1 d . . . . .
C15 C 0.2923(2) 0.50962(17) 0.54971(14) 0.0228(4) Uani 1 1 d . . . . .
C16 C 0.3997(3) 0.62925(17) 0.62759(14) 0.0239(4) Uani 1 1 d . . . . .
C17 C 0.5600(3) 0.68365(18) 0.83625(14) 0.0269(4) Uani 1 1 d . . . . .
C18 C 0.6013(3) 0.6300(2) 0.92714(16) 0.0332(4) Uani 1 1 d . . . . .
H18 H 0.563757 0.535440 0.918149 0.040 Uiso 1 1 calc R U . . .
C19 C 0.6985(3) 0.7178(2) 1.03142(17) 0.0403(5) Uani 1 1 d . . . . .
H19 H 0.726585 0.683198 1.094873 0.048 Uiso 1 1 calc R U . . .
C20 C 0.7549(3) 0.8551(2) 1.04382(18) 0.0442(5) Uani 1 1 d . . . . .
H20 H 0.823287 0.914323 1.115435 0.053 Uiso 1 1 calc R U . . .
C21 C 0.7122(4) 0.9065(2) 0.95233(18) 0.0456(5) Uani 1 1 d . . . . .
H21 H 0.749850 1.001110 0.961332 0.055 Uiso 1 1 calc R U . . .
C22 C 0.6144(3) 0.82053(19) 0.84730(16) 0.0353(5) Uani 1 1 d . . . . .
H22 H 0.585335 0.855370 0.784033 0.042 Uiso 1 1 calc R U . . .
C23 C 0.2002(3) 0.26804(18) 0.57034(17) 0.0322(4) Uani 1 1 d . . . . .
H23A H 0.052189 0.253781 0.544558 0.048 Uiso 1 1 calc R U . . .
H23B H 0.234732 0.227815 0.632747 0.048 Uiso 1 1 calc R U . . .
H23C H 0.253076 0.225332 0.508930 0.048 Uiso 1 1 calc R U . . .
C24 C 0.6244(3) 1.0657(2) 0.64816(17) 0.0406(5) Uani 1 1 d . . . . .
H24A H 0.525595 0.978630 0.610807 0.049 Uiso 1 1 calc R U . . .
H24B H 0.608008 1.126064 0.598149 0.049 Uiso 1 1 calc R U . . .
loop_
_atom_site_aniso_label
_atom_site_aniso_U_11
_atom_site_aniso_U_22
_atom_site_aniso_U_33
_atom_site_aniso_U_23
_atom_site_aniso_U_13
_atom_site_aniso_U_12
Cl1 0.1015(5) 0.0492(4) 0.0401(3) 0.0179(3) 0.0268(3) 0.0295(3)
N1 0.0268(8) 0.0229(7) 0.0268(8) 0.0089(6) 0.0104(6) 0.0066(6)
Cl2 0.0549(4) 0.0433(3) 0.0587(4) 0.0172(3) 0.0114(3) 0.0033(3)
N2 0.0291(8) 0.0263(8) 0.0277(8) 0.0097(6) 0.0091(6) 0.0070(6)
N3 0.0251(8) 0.0241(8) 0.0248(8) 0.0085(6) 0.0077(6) 0.0050(6)
N4 0.0313(8) 0.0282(8) 0.0278(8) 0.0099(6) 0.0076(6) 0.0060(7)
N5 0.0321(8) 0.0259(8) 0.0253(8) 0.0090(6) 0.0066(6) 0.0034(6)
C8 0.0430(12) 0.0383(11) 0.0288(10) 0.0106(8) 0.0104(8) 0.0137(9)
C9 0.0495(13) 0.0573(14) 0.0265(10) 0.0129(9) 0.0097(9) 0.0254(11)
C10 0.0343(11) 0.0567(14) 0.0283(11) -0.0013(10) 0.0028(8) 0.0167(10)
C11 0.0394(12) 0.0389(12) 0.0392(12) -0.0028(9) 0.0041(9) 0.0038(9)
C12 0.0373(11) 0.0363(11) 0.0315(11) 0.0072(8) 0.0064(8) 0.0068(9)
C13 0.0219(9) 0.0323(10) 0.0262(9) 0.0069(7) 0.0091(7) 0.0094(7)
C14 0.0226(9) 0.0281(9) 0.0265(9) 0.0104(7) 0.0093(7) 0.0087(7)
C15 0.0224(9) 0.0231(8) 0.0257(9) 0.0081(7) 0.0099(7) 0.0056(7)
C16 0.0238(9) 0.0257(9) 0.0242(9) 0.0085(7) 0.0083(7) 0.0062(7)
C17 0.0243(9) 0.0330(10) 0.0237(9) 0.0071(7) 0.0067(7) 0.0074(8)
C18 0.0375(11) 0.0344(10) 0.0298(10) 0.0111(8) 0.0093(8) 0.0092(8)
C19 0.0479(13) 0.0478(13) 0.0261(10) 0.0116(9) 0.0063(9) 0.0152(10)
C20 0.0508(13) 0.0449(13) 0.0286(11) 0.0018(9) 0.0017(9) 0.0102(10)
C21 0.0587(14) 0.0347(11) 0.0342(12) 0.0039(9) 0.0026(10) 0.0048(10)
C22 0.0426(12) 0.0329(11) 0.0271(10) 0.0083(8) 0.0044(8) 0.0047(9)
C23 0.0370(11) 0.0213(9) 0.0378(11) 0.0103(8) 0.0083(8) 0.0038(8)
C24 0.0555(13) 0.0342(11) 0.0279(10) 0.0106(8) 0.0048(9) 0.0028(10)
loop_
_atom_type_symbol
_atom_type_description
_atom_type_scat_dispersion_real
_atom_type_scat_dispersion_imag
_atom_type_scat_source
C C 0.0033 0.0016 'International Tables Vol C Tables 4.2.6.8 and 6.1.1.4'
H H 0.0000 0.0000 'International Tables Vol C Tables 4.2.6.8 and 6.1.1.4'
N N 0.0061 0.0033 'International Tables Vol C Tables 4.2.6.8 and 6.1.1.4'
Cl Cl 0.1484 0.1585 'International Tables Vol C Tables 4.2.6.8 and 6.1.1.4'
loop_
_geom_angle_atom_site_label_1
_geom_angle_atom_site_label_2
_geom_angle_atom_site_label_3
_geom_angle
_geom_angle_site_symmetry_1
_geom_angle_site_symmetry_3
_geom_angle_publ_flag
N2 N1 C15 111.85(14) . . ?
N2 N1 C23 117.26(14) . . ?
C15 N1 C23 130.89(15) . . ?
N1 N2 N3 106.32(13) . . ?
N2 N3 C16 110.12(14) . . ?
N2 N3 C17 120.12(14) . . ?
C16 N3 C17 129.69(15) . . ?
C14 N4 N5 112.68(14) . . ?
C16 N5 N4 103.09(14) . . ?
C9 C8 C13 120.55(19) . . ?
C9 C8 H8 119.7 . . ?
C13 C8 H8 119.7 . . ?
C10 C9 C8 120.8(2) . . ?
C10 C9 H9 119.6 . . ?
C8 C9 H9 119.6 . . ?
C11 C10 C9 118.81(19) . . ?
C11 C10 H10 120.6 . . ?
C9 C10 H10 120.6 . . ?
C10 C11 C12 120.7(2) . . ?
C10 C11 H11 119.7 . . ?
C12 C11 H11 119.7 . . ?
C11 C12 C13 121.4(2) . . ?
C11 C12 H12 119.3 . . ?
C13 C12 H12 119.3 . . ?
C12 C13 C8 117.77(17) . . ?
C12 C13 C14 122.35(17) . . ?
C8 C13 C14 119.88(17) . . ?
N4 C14 C15 106.22(15) . . ?
N4 C14 C13 121.10(15) . . ?
C15 C14 C13 132.69(17) . . ?
N1 C15 C16 105.43(15) . . ?
N1 C15 C14 150.64(17) . . ?
C16 C15 C14 103.93(15) . . ?
N5 C16 N3 139.65(17) . . ?
N5 C16 C15 114.08(16) . . ?
N3 C16 C15 106.27(15) . . ?
C22 C17 C18 121.73(17) . . ?
C22 C17 N3 117.95(16) . . ?
C18 C17 N3 120.31(17) . . ?
C19 C18 C17 118.43(19) . . ?
C19 C18 H18 120.8 . . ?
C17 C18 H18 120.8 . . ?
C20 C19 C18 120.55(19) . . ?
C20 C19 H19 119.7 . . ?
C18 C19 H19 119.7 . . ?
C21 C20 C19 120.11(19) . . ?
C21 C20 H20 119.9 . . ?
C19 C20 H20 119.9 . . ?
C20 C21 C22 120.3(2) . . ?
C20 C21 H21 119.9 . . ?
C22 C21 H21 119.9 . . ?
C17 C22 C21 118.90(19) . . ?
C17 C22 H22 120.5 . . ?
C21 C22 H22 120.5 . . ?
N1 C23 H23A 109.5 . . ?
N1 C23 H23B 109.5 . . ?
H23A C23 H23B 109.5 . . ?
N1 C23 H23C 109.5 . . ?
H23A C23 H23C 109.5 . . ?
H23B C23 H23C 109.5 . . ?
Cl2 C24 Cl1 111.60(11) . . ?
Cl2 C24 H24A 109.3 . . ?
Cl1 C24 H24A 109.3 . . ?
Cl2 C24 H24B 109.3 . . ?
Cl1 C24 H24B 109.3 . . ?
H24A C24 H24B 108.0 . . ?
loop_
_geom_bond_atom_site_label_1
_geom_bond_atom_site_label_2
_geom_bond_distance
_geom_bond_site_symmetry_2
_geom_bond_publ_flag
Cl1 C24 1.771(2) . ?
N1 N2 1.325(2) . ?
N1 C15 1.368(2) . ?
N1 C23 1.462(2) . ?
Cl2 C24 1.767(2) . ?
N2 N3 1.342(2) . ?
N3 C16 1.380(2) . ?
N3 C17 1.426(2) . ?
N4 C14 1.351(2) . ?
N4 N5 1.386(2) . ?
N5 C16 1.339(2) . ?
C8 C9 1.389(3) . ?
C8 C13 1.396(3) . ?
C8 H8 0.9500 . ?
C9 C10 1.384(3) . ?
C9 H9 0.9500 . ?
C10 C11 1.377(3) . ?
C10 H10 0.9500 . ?
C11 C12 1.383(3) . ?
C11 H11 0.9500 . ?
C12 C13 1.389(3) . ?
C12 H12 0.9500 . ?
C13 C14 1.472(2) . ?
C14 C15 1.423(2) . ?
C15 C16 1.384(2) . ?
C17 C22 1.379(3) . ?
C17 C18 1.387(3) . ?
C18 C19 1.386(3) . ?
C18 H18 0.9500 . ?
C19 C20 1.382(3) . ?
C19 H19 0.9500 . ?
C20 C21 1.381(3) . ?
C20 H20 0.9500 . ?
C21 C22 1.387(3) . ?
C21 H21 0.9500 . ?
C22 H22 0.9500 . ?
C23 H23A 0.9800 . ?
C23 H23B 0.9800 . ?
C23 H23C 0.9800 . ?
C24 H24A 0.9900 . ?
C24 H24B 0.9900 . ?
loop_
_geom_torsion_atom_site_label_1
_geom_torsion_atom_site_label_2
_geom_torsion_atom_site_label_3
_geom_torsion_atom_site_label_4
_geom_torsion
_geom_torsion_site_symmetry_1
_geom_torsion_site_symmetry_2
_geom_torsion_site_symmetry_3
_geom_torsion_site_symmetry_4
_geom_torsion_publ_flag
C15 N1 N2 N3 -0.28(18) . . . . ?
C23 N1 N2 N3 -179.62(14) . . . . ?
N1 N2 N3 C16 -0.03(18) . . . . ?
N1 N2 N3 C17 177.47(14) . . . . ?
C14 N4 N5 C16 -0.15(19) . . . . ?
C13 C8 C9 C10 -0.3(3) . . . . ?
C8 C9 C10 C11 0.3(3) . . . . ?
C9 C10 C11 C12 -0.3(3) . . . . ?
C10 C11 C12 C13 0.2(3) . . . . ?
C11 C12 C13 C8 -0.2(3) . . . . ?
C11 C12 C13 C14 -179.78(18) . . . . ?
C9 C8 C13 C12 0.2(3) . . . . ?
C9 C8 C13 C14 179.85(17) . . . . ?
N5 N4 C14 C15 -0.11(19) . . . . ?
N5 N4 C14 C13 179.99(15) . . . . ?
C12 C13 C14 N4 178.43(17) . . . . ?
C8 C13 C14 N4 -1.2(3) . . . . ?
C12 C13 C14 C15 -1.4(3) . . . . ?
C8 C13 C14 C15 178.97(18) . . . . ?
N2 N1 C15 C16 0.47(19) . . . . ?
C23 N1 C15 C16 179.68(17) . . . . ?
N2 N1 C15 C14 -178.8(3) . . . . ?
C23 N1 C15 C14 0.4(4) . . . . ?
N4 C14 C15 N1 179.6(3) . . . . ?
C13 C14 C15 N1 -0.6(4) . . . . ?
N4 C14 C15 C16 0.31(18) . . . . ?
C13 C14 C15 C16 -179.81(18) . . . . ?
N4 N5 C16 N3 -179.0(2) . . . . ?
N4 N5 C16 C15 0.4(2) . . . . ?
N2 N3 C16 N5 179.8(2) . . . . ?
C17 N3 C16 N5 2.6(4) . . . . ?
N2 N3 C16 C15 0.31(19) . . . . ?
C17 N3 C16 C15 -176.88(16) . . . . ?
N1 C15 C16 N5 179.94(14) . . . . ?
C14 C15 C16 N5 -0.4(2) . . . . ?
N1 C15 C16 N3 -0.45(18) . . . . ?
C14 C15 C16 N3 179.17(13) . . . . ?
N2 N3 C17 C22 -175.68(16) . . . . ?
C16 N3 C17 C22 1.3(3) . . . . ?
N2 N3 C17 C18 3.1(2) . . . . ?
C16 N3 C17 C18 -179.94(17) . . . . ?
C22 C17 C18 C19 0.5(3) . . . . ?
N3 C17 C18 C19 -178.29(17) . . . . ?
C17 C18 C19 C20 -0.8(3) . . . . ?
C18 C19 C20 C21 0.9(3) . . . . ?
C19 C20 C21 C22 -0.7(4) . . . . ?
C18 C17 C22 C21 -0.2(3) . . . . ?
N3 C17 C22 C21 178.53(18) . . . . ?
C20 C21 C22 C17 0.4(3) . . . . ?
