#------------------------------------------------------------------------------
#$Date: 2021-09-06 12:40:45 +0300 (Mon, 06 Sep 2021) $
#$Revision: 268608 $
#$URL: file:///home/coder/svn-repositories/cod/cif/7/12/87/7128715.cif $
#------------------------------------------------------------------------------
#
# This file is available in the Crystallography Open Database (COD),
# http://www.crystallography.net/
#
# All data on this site have been placed in the public domain by the
# contributors.
#
data_7128715
loop_
_publ_author_name
'Kubo, Haruka'
'Oketani, Ryusei'
'Hisaki, Ichiro'
_publ_section_title
;
 Quasi single-crystalline transformation of porous frameworks accompanied
 by interlayer rearrangements of hydrogen bonds.
;
_journal_issue                   69
_journal_name_full
'Chemical communications (Cambridge, England)'
_journal_page_first              8568
_journal_page_last               8571
_journal_paper_doi               10.1039/d1cc03287a
_journal_volume                  57
_journal_year                    2021
_chemical_formula_moiety         'C38 H20.28 Br1.72 N4 O8'
_chemical_formula_sum            'C38 H20.28 Br1.72 N4 O8'
_chemical_formula_weight         798.32
_chemical_name_common            BrPQ-3a
_chemical_name_systematic
'4,4',4'',4'''-(5,10-dibromopyrazino[2,3-g]quinoxaline-2,3,7,8-tetrayl)tetrabenzoic acid'
_space_group_crystal_system      triclinic
_space_group_IT_number           2
_space_group_name_Hall           '-P 1'
_space_group_name_H-M_alt        'P -1'
_atom_sites_solution_hydrogens   geom
_atom_sites_solution_primary     direct
_atom_sites_solution_secondary   difmap
_audit_update_record
;
2021-07-28 deposited with the CCDC.	2021-08-02 downloaded from the CCDC.
;
_cell_angle_alpha                103.84(2)
_cell_angle_beta                 93.62(3)
_cell_angle_gamma                91.13(3)
_cell_formula_units_Z            1
_cell_length_a                   5.584(2)
_cell_length_b                   12.305(3)
_cell_length_c                   15.827(5)
_cell_measurement_reflns_used    628
_cell_measurement_temperature    113
_cell_measurement_theta_max      29.76
_cell_measurement_theta_min      3.43
_cell_volume                     1053.1(6)
_computing_cell_refinement       'CrysAlisPro 1.171.38.41 (Rigaku OD, 2015)'
_computing_data_collection       'CrysAlisPro 1.171.38.41 (Rigaku OD, 2015)'
_computing_data_reduction        'CrysAlisPro 1.171.38.41 (Rigaku OD, 2015)'
_computing_molecular_graphics    'CrystalStructure 4.3'
_computing_publication_material  'CrystalStructure 4.3 (Rigaku, 2019)'
_computing_structure_refinement  'SHELXL Version 2018/3 (Sheldrick, 2008)'
_computing_structure_solution    'SHELXT Version 2018/2 (Sheldrick, 2014)'
_diffrn_ambient_temperature      113
_diffrn_measured_fraction_theta_full 0.996
_diffrn_measured_fraction_theta_max 0.864
_diffrn_measurement_device_type  PILATUS200K
_diffrn_radiation_type           'Mo K\a'
_diffrn_radiation_wavelength     0.71073
_diffrn_reflns_av_R_equivalents  0.2401
_diffrn_reflns_av_unetI/netI     0.2642
_diffrn_reflns_Laue_measured_fraction_full 0.996
_diffrn_reflns_Laue_measured_fraction_max 0.864
_diffrn_reflns_limit_h_max       8
_diffrn_reflns_limit_h_min       -7
_diffrn_reflns_limit_k_max       17
_diffrn_reflns_limit_k_min       -17
_diffrn_reflns_limit_l_max       23
_diffrn_reflns_limit_l_min       -23
_diffrn_reflns_number            17280
_diffrn_reflns_point_group_measured_fraction_full 0.996
_diffrn_reflns_point_group_measured_fraction_max 0.864
_diffrn_reflns_theta_full        25.242
_diffrn_reflns_theta_max         31.468
_diffrn_reflns_theta_min         3.413
_diffrn_standards_number         0
_exptl_absorpt_coefficient_mu    1.713
_exptl_absorpt_correction_T_max  0.918
_exptl_absorpt_correction_T_min  0.396
_exptl_absorpt_correction_type   multi-scan
_exptl_absorpt_process_details
;
CrysAlisPro 1.171.38.41 (Rigaku Oxford Diffraction, 2015)
Empirical absorption correction using spherical harmonics,
 implemented in SCALE3 ABSPACK scaling algorithm.
;
_exptl_crystal_colour            prism
_exptl_crystal_density_diffrn    1.259
_exptl_crystal_density_method    'not measured'
_exptl_crystal_description       orange
_exptl_crystal_F_000             400.48
_exptl_crystal_recrystallization_method
'heat-induced structural change from BrPQ-2a'
_exptl_crystal_size_max          0.050
_exptl_crystal_size_mid          0.050
_exptl_crystal_size_min          0.050
_refine_diff_density_max         1.38
_refine_diff_density_min         -0.61
_refine_ls_extinction_method     none
_refine_ls_goodness_of_fit_ref   0.915
_refine_ls_hydrogen_treatment    constr
_refine_ls_number_parameters     235
_refine_ls_number_reflns         6035
_refine_ls_number_restraints     0
_refine_ls_R_factor_all          0.2465
_refine_ls_R_factor_gt           0.1058
_refine_ls_shift/su_max          0.000
_refine_ls_structure_factor_coef Fsqd
_refine_ls_weighting_details
'w = 1/[\s^2^(Fo^2^)+(0.1581P)^2^] where P=(Fo^2^+2Fc^2^)/3'
_refine_ls_weighting_scheme      calc
_refine_ls_wR_factor_gt          0.2453
_refine_ls_wR_factor_ref         0.3275
_reflns_Friedel_coverage         0.000
_reflns_number_gt                2063
_reflns_number_total             6035
_reflns_threshold_expression     F^2^>2.0\s(F^2^)
_cod_data_source_file            d1cc03287a2.cif
_cod_data_source_block           BrPQ-3a
_cod_depositor_comments
'Adding full bibliography for 7128714--7128717.cif.'
_cod_database_code               7128715
_shelx_res_file
;
TITL BPQ-3a
    shelxl.res
    created by SHELXL-2018/3 at 15:27:59 on 13-Jul-2021
CELL  0.71073 5.58400 12.30500 15.82700 103.840 93.620 91.130
ZERR  1 0.00200 0.00300 0.00500 0.020 0.030 0.030
LATT 1
SFAC C H N O BR
UNIT 38 20.280000 4 8 1.720000
L.S. 30
FMAP 2
PLAN -25
WPDB -2
BOND $H
CONF
LIST 4
TEMP 23.0
ACTA
ABIN
REM HTAB
HTAB
WGHT    0.158100
FVAR       0.57994
PART 1
BR1   5    0.341697    0.279016    0.485336    10.86000    0.05311    0.06289 =
         0.05412   -0.00444   -0.01472    0.01934
PART 0
O1    4    1.276390    0.587989    0.996696    11.00000    0.04865    0.03914 =
         0.04405   -0.00079   -0.01509    0.00850
O2    4    1.348276    0.432357    0.894603    11.00000    0.05155    0.05093 =
         0.04799   -0.00742   -0.02615    0.01727
AFIX  83
H2O   2    1.485961    0.440662    0.917006    11.00000   -1.20000
AFIX   0
O3    4   -0.381037   -0.175360    0.018061    11.00000    0.07000    0.06547 =
         0.07504   -0.03843   -0.01563    0.02127
O4    4   -0.734747   -0.176355    0.079307    11.00000    0.05325    0.06555 =
         0.12869   -0.04356   -0.00965    0.00027
AFIX  83
H4O   2   -0.747012   -0.241153    0.050009    11.00000   -1.20000
AFIX   0
N1    3    0.389636    0.500916    0.619540    11.00000    0.03154    0.05122 =
         0.03984   -0.00443   -0.01086    0.00488
N2    3   -0.108484    0.305779    0.364746    11.00000    0.02659    0.04640 =
         0.04500    0.00484   -0.00561    0.00755
C1    1    0.437810    0.591051    0.683982    11.00000    0.02864    0.04246 =
         0.05085    0.00323   -0.00303    0.00308
C2    1    0.196274    0.500687    0.560692    11.00000    0.03237    0.06196 =
         0.02996    0.00120   -0.00875    0.01218
C3    1    0.148322    0.404482    0.491892    11.00000    0.02586    0.05250 =
         0.03640   -0.00175   -0.00535    0.01025
PART 2
AFIX  43
H3    2    0.245567    0.343025    0.486337    10.14000   -1.20000
AFIX   0
PART 0
C4    1   -0.051723    0.403228    0.431117    11.00000    0.03097    0.04411 =
         0.03626   -0.00300   -0.00261    0.00944
C5    1   -0.297947    0.305631    0.309716    11.00000    0.03010    0.04533 =
         0.03246    0.00067   -0.00329    0.01054
C6    1    0.643080    0.579506    0.747933    11.00000    0.03151    0.04450 =
         0.04164    0.00581   -0.00787    0.00195
C7    1    0.666600    0.642042    0.835871    11.00000    0.02713    0.05405 =
         0.04967   -0.01158   -0.00907    0.01248
AFIX  43
H7    2    0.553970    0.695028    0.856103    11.00000   -1.20000
AFIX   0
C8    1    0.859982    0.624964    0.893668    11.00000    0.03616    0.04630 =
         0.03587    0.00045   -0.00775    0.00677
AFIX  43
H8    2    0.878494    0.668330    0.950663    11.00000   -1.20000
AFIX   0
C9    1    1.022861    0.541048    0.862835    11.00000    0.03221    0.04231 =
         0.04157    0.00973   -0.01021    0.00418
C10   1    0.999957    0.476026    0.776664    11.00000    0.04261    0.04716 =
         0.03832    0.00025    0.00141    0.01486
AFIX  43
H10   2    1.109323    0.421045    0.757371    11.00000   -1.20000
AFIX   0
C11   1    0.810035    0.494773    0.719726    11.00000    0.03436    0.05129 =
         0.03954   -0.00212   -0.00907    0.01625
AFIX  43
H11   2    0.793358    0.451127    0.662796    11.00000   -1.20000
AFIX   0
C12   1    1.229047    0.522644    0.924799    11.00000    0.03403    0.04661 =
         0.04408    0.00691   -0.00296    0.01070
C13   1   -0.362623    0.196510    0.245685    11.00000    0.03510    0.04182 =
         0.03803   -0.00502   -0.00838    0.00745
C14   1   -0.198475    0.148967    0.184069    11.00000    0.03374    0.05621 =
         0.04540   -0.00269   -0.00721    0.00854
AFIX  43
H14   2   -0.053209    0.186151    0.181901    11.00000   -1.20000
AFIX   0
C15   1   -0.257923    0.043493    0.125328    11.00000    0.04443    0.05969 =
         0.04959   -0.00885   -0.00808    0.02353
AFIX  43
H15   2   -0.153729    0.012675    0.083134    11.00000   -1.20000
AFIX   0
C16   1   -0.470408   -0.013239    0.130900    11.00000    0.04114    0.04395 =
         0.06059   -0.01090   -0.01763    0.01181
C17   1   -0.633317    0.031843    0.192065    11.00000    0.03444    0.06168 =
         0.07563   -0.01927   -0.00371   -0.00206
AFIX  43
H17   2   -0.775331   -0.007113    0.195556    11.00000   -1.20000
AFIX   0
C18   1   -0.577683    0.137486    0.248248    11.00000    0.03554    0.05578 =
         0.05770   -0.00956   -0.01262    0.00184
AFIX  43
H18   2   -0.686906    0.169085    0.288280    11.00000   -1.20000
AFIX   0
C19   1   -0.523049   -0.130709    0.068288    11.00000    0.05722    0.05793 =
         0.07066   -0.02660   -0.03233    0.01359
HKLF 4




REM  BPQ-3a
REM wR2 = 0.3275, GooF = S = 0.915, Restrained GooF = 0.915 for all data
REM R1 = 0.1058 for 2063 Fo > 4sig(Fo) and 0.2465 for all 6035 data
REM 235 parameters refined using 0 restraints

END

WGHT      0.1581      0.0000

REM Instructions for potential hydrogen bonds
EQIV $2 -x+3, -y+1, -z+2
HTAB O2 O1_$2
EQIV $3 x-2, y-1, z-1
HTAB O4 O1_$3

REM Highest difference peak  1.378,  deepest hole -0.607,  1-sigma level  0.130
Q1    1   0.3481  0.3660  0.4923  11.00000  0.05    1.38
Q2    1   0.3193  0.1932  0.4879  11.00000  0.05    1.31
Q3    1   0.3166  0.3214  0.5439  11.00000  0.05    0.89
Q4    1   0.3640  0.2350  0.4253  11.00000  0.05    0.78
Q5    1   1.2760  0.6597  1.0108  11.00000  0.05    0.56
Q6    1  -0.4919 -0.0867  0.1183  11.00000  0.05    0.54
Q7    1   0.1801  0.4224  0.5432  11.00000  0.05    0.53
Q8    1  -0.2606  0.0657  0.1874  11.00000  0.05    0.53
Q9    1  -0.3496  0.1172  0.2447  11.00000  0.05    0.53
Q10   1   0.2078  0.4853  0.4973  11.00000  0.05    0.51
Q11   1  -0.3046  0.2657  0.2617  11.00000  0.05    0.48
Q12   1   0.3969  0.4189  0.6228  11.00000  0.05    0.46
Q13   1  -0.0402  0.3742  0.3756  11.00000  0.05    0.46
Q14   1   1.3739  0.5097  0.9035  11.00000  0.05    0.45
Q15   1  -0.4739 -0.0568  0.0836  11.00000  0.05    0.43
Q16   1  -0.2059  0.1182  0.1214  11.00000  0.05    0.43
Q17   1  -0.5202  0.0409  0.1438  11.00000  0.05    0.42
Q18   1   1.2376  0.5136  0.9975  11.00000  0.05    0.42
Q19   1  -0.3808 -0.1003  0.0340  11.00000  0.05    0.42
Q20   1  -0.3350  0.2375  0.2884  11.00000  0.05    0.41
Q21   1  -0.2539  0.2088  0.2069  11.00000  0.05    0.41
Q22   1  -0.4004 -0.1331  0.0757  11.00000  0.05    0.39
Q23   1  -0.6356  0.0541  0.2499  11.00000  0.05    0.39
Q24   1  -0.6066 -0.0462  0.1879  11.00000  0.05    0.38
Q25   1   0.3720  0.5144  0.6823  11.00000  0.05    0.38
;
_shelx_res_checksum              40486
_shelx_fab_file
;
    1    0    0      7.70      0.00
    2    0    0      2.80      0.00
    3    0    0      2.87      0.00
    4    0    0     -0.85      0.00
    5    0    0      0.63      0.00
    6    0    0     -0.62      0.00
    7    0    0     -1.91      0.00
    8    0    0      5.72      0.00
   -8    1    0      2.83      0.00
   -7    1    0     -1.67      0.00
   -6    1    0     -0.22      0.00
   -5    1    0      1.28      0.00
   -4    1    0      1.51      0.00
   -3    1    0      4.52      0.00
   -2    1    0      4.61      0.00
   -1    1    0      5.58      0.00
    1    1    0      3.74      0.00
    2    1    0     -3.25      0.00
    3    1    0     -1.30      0.00
    4    1    0     -2.17      0.00
    5    1    0     -0.62      0.00
    6    1    0     -1.40      0.00
    7    1    0     -0.39      0.00
    8    1    0      5.60      0.00
   -8    2    0     -0.79      0.00
   -7    2    0      0.18      0.00
   -6    2    0      1.07      0.00
   -5    2    0      0.77      0.00
   -4    2    0      1.77      0.00
   -3    2    0      2.85      0.00
   -2    2    0      0.48      0.00
   -1    2    0     -1.49      0.00
    0    2    0      6.12      0.00
    1    2    0     -6.13      0.00
    2    2    0     -5.73      0.00
    3    2    0     -2.62      0.00
    4    2    0     -0.09      0.00
    5    2    0     -0.22      0.00
    6    2    0     -2.10      0.00
    7    2    0      0.43      0.00
   -8    3    0     -1.89      0.00
   -7    3    0      0.69      0.00
   -6    3    0      1.65      0.00
   -5    3    0      0.26      0.00
   -4    3    0      0.34      0.00
   -3    3    0     -0.15      0.00
   -2    3    0     -4.69      0.00
   -1    3    0     -7.24      0.00
    0    3    0     -6.09      0.00
    1    3    0     -8.95      0.00
    2    3    0     -3.32      0.00
    3    3    0      0.10      0.00
    4    3    0      1.54      0.00
    5    3    0      1.03      0.00
    6    3    0     -0.01      0.00
    7    3    0     -0.37      0.00
   -7    4    0     -0.71      0.00
   -6    4    0      0.80      0.00
   -5    4    0     -0.22      0.00
   -4    4    0     -1.29      0.00
   -3    4    0     -2.38      0.00
   -2    4    0     -6.45      0.00
   -1    4    0     -5.28      0.00
    0    4    0     -0.74      0.00
    1    4    0     -1.98      0.00
    2    4    0     -0.12      0.00
    3    4    0      1.80      0.00
    4    4    0      0.92      0.00
    5    4    0     -0.12      0.00
    6    4    0      2.46      0.00
    7    4    0     -1.72      0.00
   -7    5    0     -1.14      0.00
   -6    5    0     -0.16      0.00
   -5    5    0     -1.27      0.00
   -4    5    0     -0.83      0.00
   -3    5    0     -1.95      0.00
   -2    5    0     -4.10      0.00
   -1    5    0     -0.05      0.00
    0    5    0      1.86      0.00
    1    5    0      2.87      0.00
    2    5    0      1.87      0.00
    3    5    0      1.08      0.00
    4    5    0      0.51      0.00
    5    5    0     -1.77      0.00
    6    5    0      1.70      0.00
    7    5    0     -2.44      0.00
   -7    6    0     -0.99      0.00
   -6    6    0     -0.24      0.00
   -5    6    0     -0.68      0.00
   -4    6    0      0.25      0.00
   -3    6    0     -0.07      0.00
   -2    6    0     -0.29      0.00
   -1    6    0      5.31      0.00
    0    6    0      5.19      0.00
    1    6    0      5.20      0.00
    2    6    0      1.30      0.00
    3    6    0     -0.16      0.00
    4    6    0      0.55      0.00
    5    6    0     -1.44      0.00
    6    6    0     -0.20      0.00
    7    6    0     -1.60      0.00
   -7    7    0     -1.53      0.00
   -6    7    0     -0.08      0.00
   -5    7    0      1.40      0.00
   -4    7    0     -0.11      0.00
   -3    7    0      0.86      0.00
   -2    7    0      2.27      0.00
   -1    7    0      5.92      0.00
    0    7    0      3.21      0.00
    1    7    0      3.67      0.00
    2    7    0     -0.86      0.00
    3    7    0     -1.39      0.00
    4    7    0     -0.42      0.00
    5    7    0     -1.42      0.00
    6    7    0     -0.44      0.00
    7    7    0     -0.28      0.00
   -7    8    0     -0.72      0.00
   -6    8    0     -0.80      0.00
   -5    8    0      1.26      0.00
   -4    8    0      0.35      0.00
   -3    8    0      0.75      0.00
   -2    8    0      1.74      0.00
   -1    8    0      0.48      0.00
    0    8    0     -1.25      0.00
    1    8    0     -2.17      0.00
    2    8    0     -1.70      0.00
    3    8    0     -0.79      0.00
    4    8    0     -1.59      0.00
    5    8    0     -0.72      0.00
    6    8    0     -0.38      0.00
    7    8    0      0.05      0.00
   -6    9    0     -0.64      0.00
   -5    9    0      0.63      0.00
   -4    9    0      0.21      0.00
   -3    9    0      0.66      0.00
   -2    9    0     -0.89      0.00
   -1    9    0     -2.52      0.00
    0    9    0     -3.02      0.00
    1    9    0     -3.70      0.00
    2    9    0     -0.89      0.00
    3    9    0      1.58      0.00
    4    9    0     -0.31      0.00
    5    9    0      2.11      0.00
    6    9    0     -0.46      0.00
   -6   10    0      0.66      0.00
   -5   10    0      1.21      0.00
   -4   10    0     -1.64      0.00
   -3   10    0      0.74      0.00
   -2   10    0     -3.08      0.00
   -1   10    0     -1.99      0.00
    0   10    0     -2.40      0.00
    1   10    0     -1.48      0.00
    2   10    0     -0.48      0.00
    3   10    0      2.25      0.00
    4   10    0      2.74      0.00
    5   10    0      2.00      0.00
    6   10    0      1.06      0.00
   -5   11    0      0.14      0.00
   -4   11    0     -1.38      0.00
   -3   11    0     -0.02      0.00
   -2   11    0     -3.30      0.00
   -1   11    0     -0.93      0.00
    0   11    0     -0.84      0.00
    1   11    0      0.34      0.00
    2   11    0     -0.70      0.00
    3   11    0      0.59      0.00
    4   11    0      3.08      0.00
    5   11    0     -1.69      0.00
    6   11    0      2.17      0.00
   -5   12    0     -1.04      0.00
   -4   12    0      0.30      0.00
   -3   12    0     -1.16      0.00
   -2   12    0     -0.09      0.00
   -1   12    0      0.36      0.00
    0   12    0      0.92      0.00
    1   12    0      0.70      0.00
    2   12    0      0.39      0.00
    3   12    0     -1.69      0.00
    4   12    0      0.27      0.00
    5   12    0     -2.42      0.00
   -4   13    0      0.86      0.00
   -3   13    0     -0.24      0.00
   -2   13    0      2.81      0.00
   -1   13    0      0.04      0.00
    0   13    0      2.40      0.00
    1   13    0     -0.89      0.00
    2   13    0      0.52      0.00
    3   13    0     -2.98      0.00
    4   13    0     -1.25      0.00
    5   13    0     -0.11      0.00
   -3   14    0      1.31      0.00
   -2   14    0      0.77      0.00
   -1   14    0     -0.24      0.00
    0   14    0      2.25      0.00
    1   14    0     -0.27      0.00
    2   14    0     -1.56      0.00
    3   14    0     -1.99      0.00
    4   14    0      0.09      0.00
   -2   15    0     -1.66      0.00
   -1   15    0      1.29      0.00
    0   15    0      1.37      0.00
    1   15    0      1.73      0.00
    2   15    0     -0.46      0.00
    3   15    0     -0.42      0.00
   -1   16    0      1.71      0.00
    0   16    0      0.69      0.00
    1   16    0      0.55      0.00
    2   16    0      2.62      0.00
    0   17    0      0.27      0.00
    1   17    0     -0.83      0.00
   -1  -17    1      0.23      0.00
   -2  -16    1     -0.60      0.00
   -1  -16    1     -2.14      0.00
    0  -16    1     -1.38      0.00
    1  -16    1     -1.60      0.00
   -3  -15    1      2.33      0.00
   -2  -15    1      1.61      0.00
   -1  -15    1     -0.74      0.00
    0  -15    1     -2.94      0.00
    1  -15    1     -1.51      0.00
    2  -15    1     -0.27      0.00
    3  -15    1     -0.68      0.00
   -4  -14    1      2.92      0.00
   -3  -14    1      3.87      0.00
   -2  -14    1      0.38      0.00
   -1  -14    1      1.43      0.00
    0  -14    1     -2.03      0.00
    1  -14    1     -0.73      0.00
    2  -14    1     -2.58      0.00
    3  -14    1      0.58      0.00
    4  -14    1     -0.34      0.00
   -5  -13    1      0.91      0.00
   -4  -13    1      1.24      0.00
   -3  -13    1      1.92      0.00
   -2  -13    1     -0.84      0.00
   -1  -13    1      0.14      0.00
    0  -13    1     -0.02      0.00
    1  -13    1     -0.09      0.00
    2  -13    1      0.42      0.00
    3  -13    1      2.26      0.00
    4  -13    1     -0.71      0.00
   -5  -12    1     -0.07      0.00
   -4  -12    1     -2.48      0.00
   -3  -12    1     -0.02      0.00
   -2  -12    1      0.52      0.00
   -1  -12    1      0.13      0.00
    0  -12    1      1.25      0.00
    1  -12    1      0.87      0.00
    2  -12    1      2.88      0.00
    3  -12    1      0.97      0.00
    4  -12    1     -0.37      0.00
    5  -12    1      0.01      0.00
   -6  -11    1     -0.88      0.00
   -5  -11    1     -2.95      0.00
   -4  -11    1     -2.60      0.00
   -3  -11    1     -0.74      0.00
   -2  -11    1      1.45      0.00
   -1  -11    1      2.22      0.00
    0  -11    1      2.80      0.00
    1  -11    1      1.67      0.00
    2  -11    1      1.36      0.00
    3  -11    1     -1.42      0.00
    4  -11    1      0.67      0.00
    5  -11    1     -0.90      0.00
   -6  -10    1      0.86      0.00
   -5  -10    1     -3.02      0.00
   -4  -10    1     -0.19      0.00
   -3  -10    1     -1.30      0.00
   -2  -10    1      0.82      0.00
   -1  -10    1      3.47      0.00
    0  -10    1      3.35      0.00
    1  -10    1      1.28      0.00
    2  -10    1      0.03      0.00
    3  -10    1     -1.57      0.00
    4  -10    1     -0.78      0.00
    5  -10    1     -0.09      0.00
    6  -10    1      1.49      0.00
   -6   -9    1      1.13      0.00
   -5   -9    1     -0.18      0.00
   -4   -9    1      0.20      0.00
   -3   -9    1     -0.27      0.00
   -2   -9    1      0.71      0.00
   -1   -9    1      2.04      0.00
    0   -9    1      1.50      0.00
    1   -9    1     -0.92      0.00
    2   -9    1     -1.03      0.00
    3   -9    1     -0.42      0.00
    4   -9    1     -1.71      0.00
    5   -9    1     -0.29      0.00
    6   -9    1      1.93      0.00
   -7   -8    1      0.48      0.00
   -6   -8    1      0.17      0.00
   -5   -8    1      0.95      0.00
   -4   -8    1     -0.55      0.00
   -3   -8    1      1.27      0.00
   -2   -8    1      1.33      0.00
   -1   -8    1     -2.93      0.00
    0   -8    1     -1.60      0.00
    1   -8    1     -4.22      0.00
    2   -8    1     -1.55      0.00
    3   -8    1      0.35      0.00
    4   -8    1     -0.24      0.00
    5   -8    1     -1.27      0.00
    6   -8    1      0.89      0.00
    7   -8    1      0.92      0.00
   -7   -7    1      1.92      0.00
   -6   -7    1     -0.95      0.00
   -5   -7    1      1.07      0.00
   -4   -7    1     -0.25      0.00
   -3   -7    1      0.88      0.00
   -2   -7    1      0.25      0.00
   -1   -7    1     -4.62      0.00
    0   -7    1     -4.46      0.00
    1   -7    1     -3.32      0.00
    2   -7    1      0.48      0.00
    3   -7    1      0.95      0.00
    4   -7    1      0.28      0.00
    5   -7    1      0.00      0.00
    6   -7    1      0.72      0.00
    7   -7    1      0.38      0.00
   -7   -6    1      2.66      0.00
   -6   -6    1     -2.23      0.00
   -5   -6    1      1.84      0.00
   -4   -6    1      0.10      0.00
   -3   -6    1      0.06      0.00
   -2   -6    1     -0.43      0.00
   -1   -6    1     -1.63      0.00
    0   -6    1     -2.25      0.00
    1   -6    1      2.23      0.00
    2   -6    1      3.63      0.00
    3   -6    1      1.34      0.00
    4   -6    1      0.81      0.00
    5   -6    1      0.66      0.00
    6   -6    1      0.24      0.00
    7   -6    1      0.14      0.00
   -7   -5    1      0.76      0.00
   -6   -5    1     -2.69      0.00
   -5   -5    1      0.95      0.00
   -4   -5    1     -0.28      0.00
   -3   -5    1      0.41      0.00
   -2   -5    1      2.47      0.00
   -1   -5    1      2.76      0.00
    0   -5    1      1.89      0.00
    1   -5    1      6.63      0.00
    2   -5    1      5.98      0.00
    3   -5    1      1.13      0.00
    4   -5    1      1.47      0.00
    5   -5    1     -0.38      0.00
    6   -5    1     -0.71      0.00
    7   -5    1      0.54      0.00
   -7   -4    1     -0.56      0.00
   -6   -4    1     -0.72      0.00
   -5   -4    1     -0.40      0.00
   -4   -4    1     -0.64      0.00
   -3   -4    1      1.58      0.00
   -2   -4    1      5.80      0.00
   -1   -4    1      9.63      0.00
    0   -4    1      2.46      0.00
    1   -4    1      6.15      0.00
    2   -4    1      4.16      0.00
    3   -4    1     -0.28      0.00
    4   -4    1      0.09      0.00
    5   -4    1     -0.37      0.00
    6   -4    1     -1.17      0.00
    7   -4    1     -0.24      0.00
    8   -4    1      2.56      0.00
   -8   -3    1     -2.05      0.00
   -7   -3    1     -0.17      0.00
   -6   -3    1      1.80      0.00
   -5   -3    1     -0.01      0.00
   -4   -3    1      0.17      0.00
   -3   -3    1      2.30      0.00
   -2   -3    1      6.21      0.00
   -1   -3    1      8.43      0.00
    0   -3    1     -8.49      0.00
    1   -3    1      0.34      0.00
    2   -3    1     -2.44      0.00
    3   -3    1     -2.60      0.00
    4   -3    1     -1.28      0.00
    5   -3    1     -0.53      0.00
    6   -3    1     -1.43      0.00
    7   -3    1     -0.46      0.00
    8   -3    1      1.53      0.00
   -8   -2    1     -6.00      0.00
   -7   -2    1      0.19      0.00
   -6   -2    1      1.84      0.00
   -5   -2    1     -0.13      0.00
   -4   -2    1      1.03      0.00
   -3   -2    1      0.29      0.00
   -2   -2    1      1.89      0.00
   -1   -2    1     -2.98      0.00
    1   -2    1     -2.79      0.00
    2   -2    1     -5.76      0.00
    3   -2    1     -3.32      0.00
    4   -2    1     -0.49      0.00
    5   -2    1     -1.50      0.00
    6   -2    1     -1.14      0.00
    7   -2    1      1.53      0.00
    8   -2    1     -2.05      0.00
   -8   -1    1     -6.92      0.00
   -7   -1    1      0.46      0.00
   -6   -1    1      1.25      0.00
   -5   -1    1     -1.04      0.00
   -4   -1    1     -0.51      0.00
   -3   -1    1     -3.40      0.00
   -2   -1    1     -4.15      0.00
   -1   -1    1     -9.09      0.00
    1   -1    1      0.19      0.00
    2   -1    1     -1.52      0.00
    3   -1    1     -1.03      0.00
    4   -1    1      2.15      0.00
    5   -1    1     -0.86      0.00
    6   -1    1     -0.78      0.00
    7   -1    1      3.02      0.00
    8   -1    1     -3.58      0.00
   -8    0    1     -3.37      0.00
   -7    0    1      0.86      0.00
   -6    0    1      1.45      0.00
   -5    0    1     -1.05      0.00
   -4    0    1     -2.52      0.00
   -3    0    1     -4.38      0.00
   -2    0    1     -3.57      0.00
   -1    0    1     -6.80      0.00
    1    0    1      2.47      0.00
    2    0    1      3.54      0.00
    3    0    1      2.15      0.00
    4    0    1      3.37      0.00
    5    0    1      0.70      0.00
    6    0    1     -0.51      0.00
    7    0    1      1.49      0.00
   -8    1    1     -0.05      0.00
   -7    1    1      0.34      0.00
   -6    1    1      0.27      0.00
   -5    1    1     -0.77      0.00
   -4    1    1     -2.14      0.00
   -3    1    1     -2.25      0.00
   -2    1    1      1.59      0.00
   -1    1    1      0.84      0.00
    1    1    1      5.31      0.00
    2    1    1      3.37      0.00
    3    1    1      2.38      0.00
    4    1    1      0.65      0.00
    5    1    1      0.26      0.00
    6    1    1      0.33      0.00
    7    1    1     -0.64      0.00
   -8    2    1      0.30      0.00
   -7    2    1     -0.51      0.00
   -6    2    1     -1.01      0.00
   -5    2    1     -0.22      0.00
   -4    2    1     -0.41      0.00
   -3    2    1      0.60      0.00
   -2    2    1      3.93      0.00
   -1    2    1      7.12      0.00
    0    2    1     11.63      0.00
    1    2    1      6.43      0.00
    2    2    1     -0.13      0.00
    3    2    1     -0.82      0.00
    4    2    1     -1.54      0.00
    5    2    1     -1.59      0.00
    6    2    1      0.08      0.00
    7    2    1      0.04      0.00
   -8    3    1     -0.40      0.00
   -7    3    1      0.57      0.00
   -6    3    1     -0.39      0.00
   -5    3    1      0.84      0.00
   -4    3    1      1.17      0.00
   -3    3    1      3.16      0.00
   -2    3    1      3.99      0.00
   -1    3    1      3.42      0.00
    0    3    1     -1.19      0.00
    1    3    1      0.55      0.00
    2    3    1     -2.92      0.00
    3    3    1     -2.89      0.00
    4    3    1     -0.61      0.00
    5    3    1     -1.29      0.00
    6    3    1     -1.24      0.00
    7    3    1      2.02      0.00
   -7    4    1      1.86      0.00
   -6    4    1      0.10      0.00
   -5    4    1      1.45      0.00
   -4    4    1      0.83      0.00
   -3    4    1      3.04      0.00
   -2    4    1      2.70      0.00
   -1    4    1     -2.98      0.00
    0    4    1     -3.28      0.00
    1    4    1     -4.26      0.00
    2    4    1     -3.58      0.00
    3    4    1     -1.86      0.00
    4    4    1     -0.31      0.00
    5    4    1      0.81      0.00
    6    4    1     -0.44      0.00
    7    4    1      2.35      0.00
   -7    5    1      1.49      0.00
   -6    5    1     -0.58      0.00
   -5    5    1      0.49      0.00
   -4    5    1     -1.01      0.00
   -3    5    1     -0.21      0.00
   -2    5    1     -0.24      0.00
   -1    5    1     -6.76      0.00
    0    5    1     -4.21      0.00
    1    5    1     -4.92      0.00
    2    5    1     -2.13      0.00
    3    5    1     -0.46      0.00
    4    5    1     -0.89      0.00
    5    5    1      1.43      0.00
    6    5    1      1.55      0.00
    7    5    1      1.30      0.00
   -7    6    1      1.50      0.00
   -6    6    1     -0.83      0.00
   -5    6    1     -1.29      0.00
   -4    6    1     -0.74      0.00
   -3    6    1     -2.46      0.00
   -2    6    1     -2.53      0.00
   -1    6    1     -7.07      0.00
    0    6    1     -2.76      0.00
    1    6    1     -2.74      0.00
    2    6    1      0.19      0.00
    3    6    1      0.73      0.00
    4    6    1      0.09      0.00
    5    6    1      1.23      0.00
    6    6    1      0.77      0.00
    7    6    1      0.46      0.00
   -7    7    1      0.68      0.00
   -6    7    1     -0.03      0.00
   -5    7    1     -0.97      0.00
   -4    7    1      0.40      0.00
   -3    7    1     -1.91      0.00
   -2    7    1     -1.98      0.00
   -1    7    1     -0.70      0.00
    0    7    1      2.36      0.00
    1    7    1      2.83      0.00
    2    7    1      1.71      0.00
    3    7    1      1.39      0.00
    4    7    1      1.36      0.00
    5    7    1      0.72      0.00
    6    7    1     -1.04      0.00
   -6    8    1      0.26      0.00
   -5    8    1      0.43      0.00
   -4    8    1      0.41      0.00
   -3    8    1     -0.35      0.00
   -2    8    1      0.98      0.00
   -1    8    1      3.36      0.00
    0    8    1      4.02      0.00
    1    8    1      4.08      0.00
    2    8    1      1.19      0.00
    3    8    1     -0.06      0.00
    4    8    1      0.32      0.00
    5    8    1     -1.13      0.00
    6    8    1     -0.76      0.00
   -6    9    1     -0.29      0.00
   -5    9    1      0.14      0.00
   -4    9    1      1.28      0.00
   -3    9    1      0.25      0.00
   -2    9    1      3.22      0.00
   -1    9    1      1.11      0.00
    0    9    1      2.15      0.00
    1    9    1      0.33      0.00
    2    9    1     -0.41      0.00
    3    9    1     -1.43      0.00
    4    9    1     -1.97      0.00
    5    9    1     -0.82      0.00
    6    9    1     -1.28      0.00
   -6   10    1      0.34      0.00
   -5   10    1      0.38      0.00
   -4   10    1      1.31      0.00
   -3   10    1     -0.31      0.00
   -2   10    1      2.44      0.00
   -1   10    1     -0.49      0.00
    0   10    1      0.42      0.00
    1   10    1     -1.40      0.00
    2   10    1     -0.15      0.00
    3   10    1     -0.53      0.00
    4   10    1     -2.21      0.00
    5   10    1      2.53      0.00
    6   10    1     -2.91      0.00
   -5   11    1      1.10      0.00
   -4   11    1     -0.80      0.00
   -3   11    1     -0.04      0.00
   -2   11    1     -0.91      0.00
   -1   11    1     -1.05      0.00
    0   11    1     -0.85      0.00
    1   11    1     -1.07      0.00
    2   11    1      0.01      0.00
    3   11    1      0.90      0.00
    4   11    1     -0.82      0.00
    5   11    1      2.89      0.00
   -5   12    1      0.27      0.00
   -4   12    1     -1.66      0.00
   -3   12    1      0.26      0.00
   -2   12    1     -3.00      0.00
   -1   12    1     -0.53      0.00
    0   12    1     -2.31      0.00
    1   12    1     -0.05      0.00
    2   12    1     -1.57      0.00
    3   12    1      1.16      0.00
    4   12    1     -0.59      0.00
    5   12    1     -0.09      0.00
   -4   13    1     -0.67      0.00
   -3   13    1     -0.76      0.00
   -2   13    1     -1.03      0.00
   -1   13    1      0.82      0.00
    0   13    1     -1.61      0.00
    1   13    1      0.23      0.00
    2   13    1     -0.58      0.00
    3   13    1      0.66      0.00
    4   13    1     -1.44      0.00
    5   13    1     -0.98      0.00
   -3   14    1     -0.06      0.00
   -2   14    1      0.66      0.00
   -1   14    1     -0.72      0.00
    0   14    1     -0.15      0.00
    1   14    1     -0.57      0.00
    2   14    1      0.86      0.00
    3   14    1      0.76      0.00
    4   14    1     -1.78      0.00
   -2   15    1     -0.48      0.00
   -1   15    1     -2.45      0.00
    0   15    1     -0.52      0.00
    1   15    1      0.00      0.00
    2   15    1     -1.75      0.00
    3   15    1      1.20      0.00
   -1   16    1     -0.49      0.00
    0   16    1     -0.37      0.00
    1   16    1      0.71      0.00
    2   16    1     -3.32      0.00
    0   17    1      0.43      0.00
   -1  -17    2      1.03      0.00
   -2  -16    2     -0.13      0.00
   -1  -16    2      1.30      0.00
    0  -16    2      2.66      0.00
    1  -16    2      2.22      0.00
   -3  -15    2     -2.87      0.00
   -2  -15    2     -0.22      0.00
   -1  -15    2     -0.90      0.00
    0  -15    2      2.09      0.00
    1  -15    2      1.65      0.00
    2  -15    2      2.12      0.00
    3  -15    2     -0.63      0.00
   -4  -14    2     -1.61      0.00
   -3  -14    2     -0.72      0.00
   -2  -14    2      0.24      0.00
   -1  -14    2     -0.75      0.00
    0  -14    2     -0.72      0.00
    1  -14    2      0.05      0.00
    2  -14    2     -0.14      0.00
    3  -14    2     -1.54      0.00
    4  -14    2      2.24      0.00
   -4  -13    2      1.40      0.00
   -3  -13    2      0.59      0.00
   -2  -13    2     -0.72      0.00
   -1  -13    2     -0.25      0.00
    0  -13    2     -1.52      0.00
    1  -13    2     -0.32      0.00
    2  -13    2     -2.08      0.00
    3  -13    2     -1.16      0.00
    4  -13    2      3.78      0.00
   -5  -12    2      1.96      0.00
   -4  -12    2      1.21      0.00
   -3  -12    2     -0.87      0.00
   -2  -12    2     -2.01      0.00
   -1  -12    2     -2.03      0.00
    0  -12    2     -2.25      0.00
    1  -12    2     -0.21      0.00
    2  -12    2      0.64      0.00
    3  -12    2      1.21      0.00
    4  -12    2      1.83      0.00
    5  -12    2     -0.76      0.00
   -6  -11    2     -0.47      0.00
   -5  -11    2      1.88      0.00
   -4  -11    2     -0.83      0.00
   -3  -11    2     -0.95      0.00
   -2  -11    2     -1.16      0.00
   -1  -11    2     -2.94      0.00
    0  -11    2     -3.48      0.00
    1  -11    2      0.30      0.00
    2  -11    2      1.72      0.00
    3  -11    2      1.86      0.00
    4  -11    2      1.07      0.00
    5  -11    2     -1.78      0.00
    6  -11    2     -1.87      0.00
   -6  -10    2     -0.56      0.00
   -5  -10    2      0.40      0.00
   -4  -10    2      0.39      0.00
   -3  -10    2     -0.10      0.00
   -2  -10    2      0.72      0.00
   -1  -10    2     -1.54      0.00
    0  -10    2     -1.59      0.00
    1  -10    2      1.92      0.00
    2  -10    2      0.82      0.00
    3  -10    2      0.31      0.00
    4  -10    2      2.12      0.00
    5  -10    2     -1.97      0.00
    6  -10    2     -2.65      0.00
   -6   -9    2      0.74      0.00
   -5   -9    2     -0.18      0.00
   -4   -9    2      2.04      0.00
   -3   -9    2     -0.66      0.00
   -2   -9    2      0.10      0.00
   -1   -9    2      2.26      0.00
    0   -9    2      1.06      0.00
    1   -9    2      3.52      0.00
    2   -9    2      0.96      0.00
    3   -9    2     -0.67      0.00
    4   -9    2      0.71      0.00
    5   -9    2     -0.41      0.00
    6   -9    2     -1.94      0.00
   -7   -8    2     -1.81      0.00
   -6   -8    2      2.11      0.00
   -5   -8    2     -0.36      0.00
   -4   -8    2      0.79      0.00
   -3   -8    2     -0.80      0.00
   -2   -8    2     -0.76      0.00
   -1   -8    2      3.49      0.00
    0   -8    2      2.94      0.00
    1   -8    2      1.81      0.00
    2   -8    2     -0.68      0.00
    3   -8    2     -1.40      0.00
    4   -8    2     -0.60      0.00
    5   -8    2      0.06      0.00
    6   -8    2     -1.63      0.00
    7   -8    2     -0.60      0.00
   -7   -7    2     -3.23      0.00
   -6   -7    2      2.59      0.00
   -5   -7    2     -1.04      0.00
   -4   -7    2     -0.66      0.00
   -3   -7    2     -0.58      0.00
   -2   -7    2     -0.25      0.00
   -1   -7    2     -0.24      0.00
    0   -7    2      2.25      0.00
    1   -7    2     -3.46      0.00
    2   -7    2     -3.18      0.00
    3   -7    2     -1.58      0.00
    4   -7    2     -0.80      0.00
    5   -7    2     -0.06      0.00
    6   -7    2     -0.70      0.00
    7   -7    2     -0.03      0.00
   -7   -6    2     -1.01      0.00
   -6   -6    2      2.01      0.00
   -5   -6    2     -0.45      0.00
   -4   -6    2     -0.99      0.00
   -3   -6    2     -2.11      0.00
   -2   -6    2     -2.95      0.00
   -1   -6    2     -3.82      0.00
    0   -6    2     -1.95      0.00
    1   -6    2     -7.08      0.00
    2   -6    2     -3.78      0.00
    3   -6    2     -0.39      0.00
    4   -6    2     -1.39      0.00
    5   -6    2      0.90      0.00
    6   -6    2      0.65      0.00
    7   -6    2     -0.15      0.00
   -7   -5    2      1.24      0.00
   -6   -5    2      0.68      0.00
   -5   -5    2      0.47      0.00
   -4   -5    2     -1.24      0.00
   -3   -5    2     -3.32      0.00
   -2   -5    2     -6.27      0.00
   -1   -5    2     -7.94      0.00
    0   -5    2     -0.45      0.00
    1   -5    2     -5.22      0.00
    2   -5    2     -1.76      0.00
    3   -5    2      0.99      0.00
    4   -5    2     -0.31      0.00
    5   -5    2      0.82      0.00
    6   -5    2      0.58      0.00
    7   -5    2      0.23      0.00
   -7   -4    2      0.38      0.00
   -6   -4    2     -0.80      0.00
   -5   -4    2      0.15      0.00
   -4   -4    2     -1.36      0.00
   -3   -4    2     -1.60      0.00
   -2   -4    2     -4.50      0.00
    0   -4    2     10.96      0.00
    1   -4    2      1.17      0.00
    2   -4    2      3.56      0.00
    3   -4    2      2.10      0.00
    4   -4    2      1.23      0.00
    5   -4    2      0.30      0.00
    6   -4    2      0.61      0.00
    7   -4    2      0.80      0.00
   -7   -3    2     -0.28      0.00
   -6   -3    2     -1.04      0.00
   -5   -3    2      0.61      0.00
   -4   -3    2     -0.85      0.00
   -3   -3    2      1.30      0.00
   -2   -3    2      0.98      0.00
    1   -3    2      3.34      0.00
    2   -3    2      5.98      0.00
    3   -3    2      1.59      0.00
    4   -3    2      0.31      0.00
    5   -3    2      1.10      0.00
    6   -3    2      0.97      0.00
    7   -3    2     -0.56      0.00
   -8   -2    2      5.86      0.00
   -7   -2    2      0.60      0.00
   -6   -2    2     -0.74      0.00
   -5   -2    2      1.42      0.00
   -4   -2    2      0.82      0.00
   -3   -2    2      3.16      0.00
   -2   -2    2      5.29      0.00
   -1   -2    2      3.95      0.00
    0   -2    2     52.39      0.00
    1   -2    2     -3.73      0.00
    2   -2    2      0.96      0.00
    3   -2    2     -1.36      0.00
    4   -2    2     -2.40      0.00
    5   -2    2      0.98      0.00
    6   -2    2      0.78      0.00
    7   -2    2     -2.80      0.00
   -8   -1    2      2.75      0.00
   -7   -1    2      0.47      0.00
   -6   -1    2     -1.27      0.00
   -5   -1    2      0.87      0.00
   -4   -1    2      2.45      0.00
   -3   -1    2      3.23      0.00
   -2   -1    2      2.82      0.00
   -1   -1    2      2.24      0.00
    1   -1    2     -8.73      0.00
    2   -1    2     -3.19      0.00
    3   -1    2     -3.34      0.00
    4   -1    2     -3.84      0.00
    5   -1    2     -0.29      0.00
    6   -1    2      1.17      0.00
    7   -1    2     -2.82      0.00
    8   -1    2      0.14      0.00
   -8    0    2     -0.30      0.00
   -7    0    2     -0.85      0.00
   -6    0    2     -0.88      0.00
   -5    0    2      0.57      0.00
   -4    0    2      1.89      0.00
   -3    0    2      1.31      0.00
   -2    0    2     -2.71      0.00
    1    0    2     -7.28      0.00
    2    0    2     -1.05      0.00
    3    0    2     -2.03      0.00
    4    0    2     -1.30      0.00
    5    0    2      0.02      0.00
    6    0    2      1.41      0.00
    7    0    2     -0.64      0.00
    8    0    2     -0.85      0.00
   -8    1    2      0.30      0.00
   -7    1    2     -0.80      0.00
   -6    1    2      0.09      0.00
   -5    1    2      0.11      0.00
   -4    1    2     -0.18      0.00
   -3    1    2     -1.30      0.00
   -2    1    2     -3.07      0.00
   -1    1    2     -6.34      0.00
    0    1    2    -20.19      0.00
    1    1    2     -5.23      0.00
    2    1    2      2.46      0.00
    3    1    2      0.95      0.00
    4    1    2      1.45      0.00
    5    1    2      1.75      0.00
    6    1    2      0.74      0.00
    7    1    2      0.15      0.00
   -8    2    2      1.04      0.00
   -7    2    2     -0.58      0.00
   -6    2    2     -0.42      0.00
   -5    2    2     -1.56      0.00
   -4    2    2     -1.64      0.00
   -3    2    2     -3.35      0.00
   -2    2    2     -1.00      0.00
   -1    2    2     -2.73      0.00
    0    2    2     -0.26      0.00
    1    2    2     -0.21      0.00
    2    2    2      4.43      0.00
    3    2    2      2.76      0.00
    4    2    2      0.54      0.00
    5    2    2      2.16      0.00
    6    2    2      0.43      0.00
    7    2    2     -1.25      0.00
   -8    3    2     -0.06      0.00
   -7    3    2     -1.48      0.00
   -6    3    2     -0.30      0.00
   -5    3    2     -1.86      0.00
   -4    3    2     -1.02      0.00
   -3    3    2     -3.17      0.00
   -2    3    2      0.24      0.00
   -1    3    2      5.69      0.00
    0    3    2      5.84      0.00
    1    3    2      5.34      0.00
    2    3    2      4.50      0.00
    3    3    2      1.91      0.00
    4    3    2     -0.20      0.00
    5    3    2      0.27      0.00
    6    3    2     -0.33      0.00
    7    3    2     -1.52      0.00
   -7    4    2     -1.13      0.00
   -6    4    2      1.46      0.00
   -5    4    2      0.11      0.00
   -4    4    2      1.50      0.00
   -3    4    2      0.39      0.00
   -2    4    2      1.90      0.00
   -1    4    2      7.86      0.00
    0    4    2      3.88      0.00
    1    4    2      5.10      0.00
    2    4    2      1.85      0.00
    3    4    2      0.22      0.00
    4    4    2      0.62      0.00
    5    4    2     -1.38      0.00
    6    4    2     -2.07      0.00
    7    4    2     -0.39      0.00
   -7    5    2     -0.60      0.00
   -6    5    2      2.10      0.00
   -5    5    2      1.99      0.00
   -4    5    2      2.39      0.00
   -3    5    2      3.44      0.00
   -2    5    2      2.45      0.00
   -1    5    2      5.88      0.00
    0    5    2      0.01      0.00
    1    5    2      0.86      0.00
    2    5    2     -0.86      0.00
    3    5    2     -0.70      0.00
    4    5    2      0.21      0.00
    5    5    2     -1.19      0.00
    6    5    2     -1.38      0.00
    7    5    2     -0.38      0.00
   -7    6    2     -0.15      0.00
   -6    6    2      1.04      0.00
   -5    6    2      1.41      0.00
   -4    6    2      0.86      0.00
   -3    6    2      2.86      0.00
   -2    6    2      0.89      0.00
   -1    6    2     -0.23      0.00
    0    6    2     -5.66      0.00
    1    6    2     -4.04      0.00
    2    6    2     -1.46      0.00
    3    6    2     -1.13      0.00
    4    6    2     -0.20      0.00
    5    6    2     -0.25      0.00
    6    6    2      1.26      0.00
   -7    7    2      2.14      0.00
   -6    7    2      0.11      0.00
   -5    7    2     -0.74      0.00
   -4    7    2      0.17      0.00
   -3    7    2      0.46      0.00
   -2    7    2     -1.91      0.00
   -1    7    2     -4.53      0.00
    0    7    2     -6.56      0.00
    1    7    2     -4.25      0.00
    2    7    2     -0.91      0.00
    3    7    2     -0.66      0.00
    4    7    2      1.25      0.00
    5    7    2      0.77      0.00
    6    7    2      1.05      0.00
   -6    8    2     -0.37      0.00
   -5    8    2     -1.29      0.00
   -4    8    2     -0.24      0.00
   -3    8    2     -1.05      0.00
   -2    8    2     -3.29      0.00
   -1    8    2     -0.76      0.00
    0    8    2     -2.83      0.00
    1    8    2      0.63      0.00
    2    8    2      0.79      0.00
    3    8    2     -0.03      0.00
    4    8    2      2.62      0.00
    5    8    2      0.45      0.00
    6    8    2      0.29      0.00
   -6    9    2     -0.98      0.00
   -5    9    2     -1.03      0.00
   -4    9    2     -0.89      0.00
   -3    9    2     -0.25      0.00
   -2    9    2     -1.06      0.00
   -1    9    2      2.42      0.00
    0    9    2      0.10      0.00
    1    9    2      2.86      0.00
    2    9    2      1.57      0.00
    3    9    2     -0.43      0.00
    4    9    2      1.83      0.00
    5    9    2     -1.44      0.00
    6    9    2      2.06      0.00
   -6   10    2     -1.02      0.00
   -5   10    2     -1.15      0.00
   -4   10    2      0.48      0.00
   -3   10    2      0.49      0.00
   -2   10    2      2.51      0.00
   -1   10    2      2.05      0.00
    0   10    2      0.52      0.00
    1   10    2      1.41      0.00
    2   10    2      0.58      0.00
    3   10    2     -0.70      0.00
    4   10    2      0.46      0.00
    5   10    2     -1.29      0.00
   -5   11    2     -0.09      0.00
   -4   11    2      1.72      0.00
   -3   11    2     -0.36      0.00
   -2   11    2      3.63      0.00
   -1   11    2      1.44      0.00
    0   11    2      1.00      0.00
    1   11    2      0.13      0.00
    2   11    2      1.65      0.00
    3   11    2     -0.36      0.00
    4   11    2      0.66      0.00
    5   11    2      0.91      0.00
   -4   12    2      0.72      0.00
   -3   12    2     -0.06      0.00
   -2   12    2      1.59      0.00
   -1   12    2      0.24      0.00
    0   12    2      0.63      0.00
    1   12    2     -0.13      0.00
    2   12    2      2.54      0.00
    3   12    2     -0.15      0.00
    4   12    2      1.30      0.00
    5   12    2      1.09      0.00
   -4   13    2     -0.23      0.00
   -3   13    2      0.16      0.00
   -2   13    2      0.20      0.00
   -1   13    2      0.62      0.00
    0   13    2     -1.20      0.00
    1   13    2     -0.30      0.00
    2   13    2      0.13      0.00
    3   13    2     -0.50      0.00
    4   13    2      1.52      0.00
   -3   14    2     -1.68      0.00
   -2   14    2      1.28      0.00
   -1   14    2      2.12      0.00
    0   14    2     -0.93      0.00
    1   14    2     -1.05      0.00
    2   14    2      0.38      0.00
    3   14    2     -1.27      0.00
    4   14    2      1.43      0.00
   -2   15    2      1.54      0.00
   -1   15    2      0.79      0.00
    0   15    2     -0.29      0.00
    1   15    2     -0.78      0.00
    2   15    2      3.42      0.00
    3   15    2     -1.08      0.00
   -1   16    2     -1.16      0.00
    0   16    2     -1.50      0.00
    1   16    2      0.47      0.00
    0   17    2     -1.78      0.00
   -2  -17    3     -0.62      0.00
   -1  -17    3     -0.33      0.00
   -3  -16    3      1.35      0.00
   -2  -16    3     -0.34      0.00
   -1  -16    3      0.48      0.00
    0  -16    3     -1.97      0.00
    1  -16    3     -1.65      0.00
   -3  -15    3     -0.52      0.00
   -2  -15    3      1.01      0.00
   -1  -15    3      0.30      0.00
    0  -15    3      0.40      0.00
    1  -15    3     -0.22      0.00
    2  -15    3     -1.23      0.00
    3  -15    3     -0.98      0.00
   -4  -14    3     -1.39      0.00
   -3  -14    3     -1.60      0.00
   -2  -14    3      2.27      0.00
   -1  -14    3     -0.37      0.00
    0  -14    3      1.40      0.00
    1  -14    3      0.21      0.00
    2  -14    3      0.87      0.00
    3  -14    3     -0.44      0.00
    4  -14    3     -6.25      0.00
   -4  -13    3     -1.27      0.00
   -3  -13    3      0.61      0.00
   -2  -13    3      2.56      0.00
   -1  -13    3      0.93      0.00
    0  -13    3      0.88      0.00
    1  -13    3     -0.56      0.00
    2  -13    3     -1.08      0.00
    3  -13    3     -0.53      0.00
    4  -13    3     -4.10      0.00
    5  -13    3      2.14      0.00
   -5  -12    3      0.54      0.00
   -4  -12    3      1.20      0.00
   -3  -12    3      2.09      0.00
   -2  -12    3      1.65      0.00
   -1  -12    3      1.92      0.00
    0  -12    3      2.38      0.00
    1  -12    3     -1.02      0.00
    2  -12    3     -2.42      0.00
    3  -12    3     -0.93      0.00
    4  -12    3     -1.27      0.00
    5  -12    3      2.85      0.00
   -5  -11    3      0.84      0.00
   -4  -11    3      0.36      0.00
   -3  -11    3      1.41      0.00
   -2  -11    3     -1.03      0.00
   -1  -11    3      1.10      0.00
    0  -11    3      1.62      0.00
    1  -11    3     -1.76      0.00
    2  -11    3     -0.60      0.00
    3  -11    3      0.31      0.00
    4  -11    3     -1.95      0.00
    5  -11    3      2.73      0.00
    6  -11    3      1.73      0.00
   -6  -10    3     -1.53      0.00
   -5  -10    3      0.29      0.00
   -4  -10    3     -2.00      0.00
   -3  -10    3      0.88      0.00
   -2  -10    3     -2.02      0.00
   -1  -10    3     -1.62      0.00
    0  -10    3     -1.40      0.00
    1  -10    3     -2.44      0.00
    2  -10    3     -0.20      0.00
    3  -10    3      0.92      0.00
    4  -10    3     -1.24      0.00
    5  -10    3      1.81      0.00
    6  -10    3      1.96      0.00
   -6   -9    3     -2.72      0.00
   -5   -9    3      0.06      0.00
   -4   -9    3     -1.17      0.00
   -3   -9    3      0.58      0.00
   -2   -9    3     -0.39      0.00
   -1   -9    3     -2.74      0.00
    0   -9    3     -2.26      0.00
    1   -9    3     -0.73      0.00
    2   -9    3      0.63      0.00
    3   -9    3      1.05      0.00
    4   -9    3      0.46      0.00
    5   -9    3      0.75      0.00
    6   -9    3      2.35      0.00
    7   -9    3      1.04      0.00
   -7   -8    3      2.62      0.00
   -6   -8    3     -3.02      0.00
   -5   -8    3      0.61      0.00
   -4   -8    3      0.73      0.00
   -3   -8    3      0.64      0.00
   -2   -8    3      0.00      0.00
   -1   -8    3      1.59      0.00
    0   -8    3     -1.62      0.00
    1   -8    3      3.60      0.00
    2   -8    3      2.91      0.00
    3   -8    3      1.47      0.00
    4   -8    3      0.52      0.00
    5   -8    3      0.02      0.00
    6   -8    3      1.44      0.00
    7   -8    3      0.68      0.00
   -7   -7    3      1.58      0.00
   -6   -7    3     -1.99      0.00
   -5   -7    3     -0.23      0.00
   -4   -7    3      1.78      0.00
   -3   -7    3      2.47      0.00
   -2   -7    3      1.91      0.00
   -1   -7    3      5.34      0.00
    0   -7    3      1.43      0.00
    1   -7    3      6.21      0.00
    2   -7    3      2.00      0.00
    3   -7    3      0.16      0.00
    4   -7    3      0.90      0.00
    5   -7    3     -0.98      0.00
    6   -7    3     -0.65      0.00
    7   -7    3      0.09      0.00
   -7   -6    3     -0.71      0.00
   -6   -6    3     -0.77      0.00
   -5   -6    3     -1.34      0.00
   -4   -6    3      2.61      0.00
   -3   -6    3      3.64      0.00
   -2   -6    3      5.14      0.00
   -1   -6    3      6.29      0.00
    0   -6    3      0.47      0.00
    1   -6    3      4.37      0.00
    2   -6    3     -1.46      0.00
    3   -6    3     -1.66      0.00
    4   -6    3      0.27      0.00
    5   -6    3     -1.23      0.00
    6   -6    3     -0.80      0.00
    7   -6    3     -0.58      0.00
   -7   -5    3     -0.20      0.00
   -6   -5    3      0.00      0.00
   -5   -5    3     -0.74      0.00
   -4   -5    3      2.62      0.00
   -3   -5    3      0.64      0.00
   -2   -5    3      2.52      0.00
    0   -5    3    -11.10      0.00
    1   -5    3     -0.27      0.00
    2   -5    3     -4.44      0.00
    3   -5    3     -1.98      0.00
    4   -5    3     -1.28      0.00
    5   -5    3     -0.25      0.00
    6   -5    3      0.07      0.00
    7   -5    3     -1.16      0.00
   -7   -4    3      0.52      0.00
   -6   -4    3      0.67      0.00
   -5   -4    3     -0.66      0.00
   -4   -4    3      1.51      0.00
   -3   -4    3     -2.85      0.00
   -2   -4    3     -4.01      0.00
   -1   -4    3     -0.58      0.00
    0   -4    3    -23.07      0.00
    1   -4    3     -2.95      0.00
    2   -4    3     -4.44      0.00
    3   -4    3     -0.45      0.00
    4   -4    3     -0.52      0.00
    5   -4    3      0.09      0.00
    6   -4    3      0.23      0.00
    7   -4    3     -0.45      0.00
   -7   -3    3     -0.94      0.00
   -6   -3    3      1.05      0.00
   -5   -3    3     -1.14      0.00
   -4   -3    3     -0.04      0.00
   -3   -3    3     -2.74      0.00
   -2   -3    3     -6.71      0.00
   -1   -3    3     -1.54      0.00
    0   -3    3    -23.00      0.00
    1   -3    3      1.69      0.00
    2   -3    3     -0.04      0.00
    3   -3    3      2.73      0.00
    4   -3    3      1.80      0.00
    5   -3    3     -0.05      0.00
    6   -3    3      0.57      0.00
    7   -3    3      1.08      0.00
   -7   -2    3     -1.59      0.00
   -6   -2    3      1.15      0.00
   -5   -2    3     -0.45      0.00
   -4   -2    3     -1.30      0.00
   -3   -2    3     -1.85      0.00
   -2   -2    3     -2.62      0.00
   -1   -2    3      2.14      0.00
    0   -2    3     -2.45      0.00
    1   -2    3      8.08      0.00
    2   -2    3      2.75      0.00
    3   -2    3      4.06      0.00
    4   -2    3      3.20      0.00
    5   -2    3      0.14      0.00
    6   -2    3      0.11      0.00
    7   -2    3      2.14      0.00
   -7   -1    3      0.68      0.00
   -6   -1    3      0.56      0.00
   -5   -1    3     -0.35      0.00
   -4   -1    3     -1.20      0.00
   -3   -1    3     -0.86      0.00
   -2   -1    3      2.64      0.00
    0   -1    3     24.86      0.00
    1   -1    3      7.89      0.00
    2   -1    3     -0.01      0.00
    3   -1    3      1.78      0.00
    4   -1    3      1.72      0.00
    5   -1    3     -0.39      0.00
    6   -1    3     -1.01      0.00
    7   -1    3      1.78      0.00
   -7    0    3      2.13      0.00
   -6    0    3     -0.10      0.00
   -5    0    3     -0.26      0.00
   -4    0    3      0.62      0.00
   -3    0    3      1.66      0.00
   -2    0    3      2.27      0.00
    0    0    3     25.54      0.00
    1    0    3      4.88      0.00
    2    0    3     -2.93      0.00
    3    0    3     -0.96      0.00
    4    0    3     -1.13      0.00
    5    0    3     -1.41      0.00
    6    0    3     -0.55      0.00
    7    0    3      0.77      0.00
    8    0    3      1.56      0.00
   -7    1    3      0.72      0.00
   -6    1    3      0.55      0.00
   -5    1    3      1.68      0.00
   -4    1    3      2.22      0.00
   -3    1    3      3.37      0.00
   -2    1    3     -0.14      0.00
    0    1    3      5.33      0.00
    1    1    3      0.90      0.00
    2    1    3     -3.76      0.00
    3    1    3     -2.25      0.00
    4    1    3     -1.00      0.00
    5    1    3     -1.76      0.00
    6    1    3      0.39      0.00
    7    1    3      1.11      0.00
   -7    2    3      0.00      0.00
   -6    2    3      0.49      0.00
   -5    2    3      2.21      0.00
   -4    2    3      1.31      0.00
   -3    2    3      2.28      0.00
   -2    2    3     -1.55      0.00
   -1    2    3     -6.09      0.00
    0    2    3     -5.63      0.00
    1    2    3     -4.58      0.00
    2    2    3     -3.60      0.00
    3    2    3     -1.66      0.00
    4    2    3      0.29      0.00
    5    2    3     -0.60      0.00
    6    2    3      0.42      0.00
    7    2    3      1.38      0.00
   -8    3    3      0.86      0.00
   -7    3    3      0.11      0.00
   -6    3    3     -1.47      0.00
   -5    3    3     -0.13      0.00
   -4    3    3     -1.48      0.00
   -3    3    3     -1.20      0.00
   -2    3    3     -3.20      0.00
   -1    3    3     -8.93      0.00
    0    3    3     -4.43      0.00
    1    3    3     -4.92      0.00
    2    3    3     -0.61      0.00
    3    3    3      0.40      0.00
    4    3    3     -0.20      0.00
    5    3    3      1.35      0.00
    6    3    3      0.93      0.00
    7    3    3     -0.05      0.00
   -7    4    3     -0.04      0.00
   -6    4    3     -2.40      0.00
   -5    4    3     -2.13      0.00
   -4    4    3     -3.05      0.00
   -3    4    3     -3.77      0.00
   -2    4    3     -2.27      0.00
   -1    4    3     -3.65      0.00
    0    4    3      2.19      0.00
    1    4    3      0.53      0.00
    2    4    3      2.64      0.00
    3    4    3      1.67      0.00
    4    4    3     -0.27      0.00
    5    4    3      1.53      0.00
    6    4    3      1.02      0.00
    7    4    3     -0.38      0.00
   -7    5    3      0.09      0.00
   -6    5    3     -1.56      0.00
   -5    5    3     -2.00      0.00
   -4    5    3     -2.24      0.00
   -3    5    3     -2.67      0.00
   -2    5    3      0.74      0.00
   -1    5    3      2.56      0.00
    0    5    3      8.76      0.00
    1    5    3      4.59      0.00
    2    5    3      1.95      0.00
    3    5    3      1.42      0.00
    4    5    3     -0.29      0.00
    5    5    3      0.19      0.00
    6    5    3     -0.46      0.00
    7    5    3      0.71      0.00
   -7    6    3     -1.51      0.00
   -6    6    3     -0.67      0.00
   -5    6    3     -0.28      0.00
   -4    6    3     -1.44      0.00
   -3    6    3      0.02      0.00
   -2    6    3      3.09      0.00
   -1    6    3      5.49      0.00
    0    6    3      8.37      0.00
    1    6    3      3.10      0.00
    2    6    3      0.06      0.00
    3    6    3      0.65      0.00
    4    6    3     -2.07      0.00
    5    6    3     -0.32      0.00
    6    6    3      0.14      0.00
   -7    7    3     -2.60      0.00
   -6    7    3      0.38      0.00
   -5    7    3      0.88      0.00
   -4    7    3     -1.03      0.00
   -3    7    3      1.77      0.00
   -2    7    3      3.76      0.00
   -1    7    3      1.10      0.00
    0    7    3      3.35      0.00
    1    7    3     -1.71      0.00
    2    7    3     -1.14      0.00
    3    7    3      0.41      0.00
    4    7    3     -3.37      0.00
    5    7    3      0.18      0.00
    6    7    3      2.07      0.00
   -6    8    3      1.23      0.00
   -5    8    3      0.84      0.00
   -4    8    3      0.55      0.00
   -3    8    3      1.19      0.00
   -2    8    3      0.72      0.00
   -1    8    3     -3.32      0.00
    0    8    3     -0.46      0.00
    1    8    3     -3.71      0.00
    2    8    3     -2.40      0.00
    3    8    3      0.79      0.00
    4    8    3     -2.25      0.00
    5    8    3      0.44      0.00
    6    8    3      0.83      0.00
   -6    9    3      0.50      0.00
   -5    9    3      0.98      0.00
   -4    9    3      0.93      0.00
   -3    9    3     -0.46      0.00
   -2    9    3     -3.42      0.00
   -1    9    3     -2.66      0.00
    0    9    3     -0.85      0.00
    1    9    3     -1.75      0.00
    2    9    3     -1.70      0.00
    3    9    3      0.55      0.00
    4    9    3     -0.36      0.00
    5    9    3     -0.61      0.00
   -5   10    3      0.29      0.00
   -4   10    3     -0.56      0.00
   -3   10    3     -0.16      0.00
   -2   10    3     -4.09      0.00
   -1   10    3     -1.64      0.00
    0   10    3      0.27      0.00
    1   10    3      0.31      0.00
    2   10    3     -1.03      0.00
    3   10    3      0.39      0.00
    4   10    3      0.25      0.00
    5   10    3     -1.78      0.00
   -5   11    3     -0.84      0.00
   -4   11    3     -0.86      0.00
   -3   11    3      0.14      0.00
   -2   11    3     -2.09      0.00
   -1   11    3     -1.20      0.00
    0   11    3      0.94      0.00
    1   11    3      0.92      0.00
    2   11    3     -2.52      0.00
    3   11    3      1.03      0.00
    4   11    3      0.18      0.00
    5   11    3     -1.16      0.00
   -4   12    3     -0.49      0.00
   -3   12    3     -0.48      0.00
   -2   12    3     -0.60      0.00
   -1   12    3     -0.92      0.00
    0   12    3      2.02      0.00
    1   12    3      1.13      0.00
    2   12    3     -1.68      0.00
    3   12    3      0.39      0.00
    4   12    3     -0.19      0.00
   -4   13    3     -0.03      0.00
   -3   13    3      0.55      0.00
   -2   13    3     -0.61      0.00
   -1   13    3     -0.96      0.00
    0   13    3      1.91      0.00
    1   13    3      1.44      0.00
    2   13    3     -0.40      0.00
    3   13    3     -0.75      0.00
    4   13    3     -1.44      0.00
   -3   14    3      1.74      0.00
   -2   14    3     -0.76      0.00
   -1   14    3     -0.05      0.00
    0   14    3      0.90      0.00
    1   14    3      0.22      0.00
    2   14    3     -3.01      0.00
    3   14    3     -0.19      0.00
    4   14    3     -1.63      0.00
   -2   15    3     -0.51      0.00
   -1   15    3      0.64      0.00
    0   15    3      1.77      0.00
    1   15    3     -1.86      0.00
    2   15    3     -3.74      0.00
   -1   16    3     -0.53      0.00
    0   16    3      2.57      0.00
    1   16    3     -1.28      0.00
   -2  -17    4      0.40      0.00
   -3  -16    4      0.72      0.00
   -2  -16    4     -1.54      0.00
   -1  -16    4      0.64      0.00
    0  -16    4      0.25      0.00
    1  -16    4      0.57      0.00
    2  -16    4      2.65      0.00
   -3  -15    4      1.42      0.00
   -2  -15    4     -3.55      0.00
   -1  -15    4      1.63      0.00
    0  -15    4     -1.36      0.00
    1  -15    4     -0.26      0.00
    2  -15    4      0.89      0.00
    3  -15    4      2.33      0.00
   -4  -14    4      2.53      0.00
   -3  -14    4     -0.11      0.00
   -2  -14    4     -3.03      0.00
   -1  -14    4      0.27      0.00
    0  -14    4     -0.32      0.00
    1  -14    4     -0.13      0.00
    2  -14    4      0.51      0.00
    3  -14    4      0.02      0.00
    4  -14    4      4.19      0.00
   -4  -13    4      1.06      0.00
   -3  -13    4     -1.49      0.00
   -2  -13    4     -1.87      0.00
   -1  -13    4     -0.81      0.00
    0  -13    4     -0.53      0.00
    1  -13    4      0.30      0.00
    2  -13    4      1.52      0.00
    3  -13    4     -0.32      0.00
    4  -13    4      0.84      0.00
    5  -13    4     -2.20      0.00
   -5  -12    4     -1.71      0.00
   -4  -12    4      0.14      0.00
   -3  -12    4     -1.91      0.00
   -2  -12    4     -0.13      0.00
   -1  -12    4     -0.82      0.00
    0  -12    4     -1.09      0.00
    1  -12    4      0.60      0.00
    2  -12    4      0.31      0.00
    3  -12    4     -0.72      0.00
    4  -12    4      1.49      0.00
    5  -12    4     -0.99      0.00
   -5  -11    4     -1.04      0.00
   -4  -11    4      1.00      0.00
   -3  -11    4     -1.89      0.00
   -2  -11    4      1.76      0.00
   -1  -11    4     -0.10      0.00
    0  -11    4      1.14      0.00
    1  -11    4      0.56      0.00
    2  -11    4     -0.87      0.00
    3  -11    4     -1.26      0.00
    4  -11    4      1.82      0.00
    5  -11    4     -0.95      0.00
    6  -11    4     -0.70      0.00
   -6  -10    4      1.99      0.00
   -5  -10    4     -0.22      0.00
   -4  -10    4      0.57      0.00
   -3  -10    4     -1.14      0.00
   -2  -10    4      1.00      0.00
   -1  -10    4      0.99      0.00
    0  -10    4      1.69      0.00
    1  -10    4     -0.58      0.00
    2  -10    4     -1.04      0.00
    3  -10    4     -0.92      0.00
    4  -10    4      0.17      0.00
    5  -10    4     -1.11      0.00
    6  -10    4     -1.69      0.00
   -6   -9    4      2.17      0.00
   -5   -9    4     -0.90      0.00
   -4   -9    4     -0.68      0.00
   -3   -9    4     -1.11      0.00
   -2   -9    4      0.20      0.00
   -1   -9    4     -1.85      0.00
    0   -9    4      0.67      0.00
    1   -9    4     -3.11      0.00
    2   -9    4     -2.27      0.00
    3   -9    4     -0.92      0.00
    4   -9    4      0.16      0.00
    5   -9    4     -0.17      0.00
    6   -9    4     -1.44      0.00
    7   -9    4     -0.81      0.00
   -6   -8    4      1.79      0.00
   -5   -8    4     -0.69      0.00
   -4   -8    4     -1.77      0.00
   -3   -8    4     -2.48      0.00
   -2   -8    4     -0.46      0.00
   -1   -8    4     -5.25      0.00
    0   -8    4     -0.16      0.00
    1   -8    4     -4.27      0.00
    2   -8    4     -1.09      0.00
    3   -8    4      0.10      0.00
    4   -8    4      0.28      0.00
    5   -8    4      0.92      0.00
    6   -8    4      0.59      0.00
    7   -8    4     -0.36      0.00
   -7   -7    4      0.44      0.00
   -6   -7    4      1.41      0.00
   -5   -7    4      1.08      0.00
   -4   -7    4     -2.62      0.00
   -3   -7    4     -2.68      0.00
   -2   -7    4     -2.85      0.00
   -1   -7    4     -4.27      0.00
    0   -7    4      0.53      0.00
    1   -7    4     -2.26      0.00
    2   -7    4      3.56      0.00
    3   -7    4      1.92      0.00
    4   -7    4      0.34      0.00
    5   -7    4      1.46      0.00
    6   -7    4      1.34      0.00
    7   -7    4      0.45      0.00
   -7   -6    4      0.11      0.00
   -6   -6    4      1.30      0.00
   -5   -6    4      1.26      0.00
   -4   -6    4     -2.51      0.00
   -3   -6    4      0.58      0.00
   -2   -6    4     -1.17      0.00
    0   -6    4      8.67      0.00
    1   -6    4     -0.42      0.00
    2   -6    4      5.63      0.00
    3   -6    4      2.03      0.00
    4   -6    4      1.30      0.00
    5   -6    4      0.62      0.00
    6   -6    4     -0.03      0.00
    7   -6    4      1.04      0.00
   -7   -5    4     -0.49      0.00
   -6   -5    4     -0.24      0.00
   -5   -5    4      0.68      0.00
   -4   -5    4     -1.78      0.00
   -3   -5    4      3.57      0.00
   -2   -5    4      5.03      0.00
   -1   -5    4      1.58      0.00
    0   -5    4     16.40      0.00
    1   -5    4     -0.28      0.00
    2   -5    4      2.75      0.00
    3   -5    4      0.29      0.00
    4   -5    4      0.46      0.00
    5   -5    4     -1.07      0.00
    6   -5    4     -1.14      0.00
    7   -5    4      0.73      0.00
   -7   -4    4      0.82      0.00
   -6   -4    4     -2.30      0.00
   -5   -4    4      0.66      0.00
   -4   -4    4     -0.84      0.00
   -3   -4    4      2.05      0.00
   -2   -4    4      7.33      0.00
   -1   -4    4      2.77      0.00
    0   -4    4      9.69      0.00
    1   -4    4     -1.62      0.00
    2   -4    4     -1.52      0.00
    3   -4    4     -2.24      0.00
    4   -4    4     -1.29      0.00
    5   -4    4     -1.53      0.00
    6   -4    4     -1.54      0.00
    7   -4    4      0.72      0.00
   -7   -3    4      1.90      0.00
   -6   -3    4     -2.34      0.00
   -5   -3    4      0.22      0.00
   -4   -3    4      0.00      0.00
   -3   -3    4      0.40      0.00
   -2   -3    4      2.48      0.00
   -1   -3    4     -2.09      0.00
    0   -3    4     -8.02      0.00
    1   -3    4     -5.10      0.00
    2   -3    4     -2.62      0.00
    3   -3    4     -2.96      0.00
    4   -3    4     -1.74      0.00
    5   -3    4     -0.42      0.00
    6   -3    4     -0.93      0.00
    7   -3    4      0.74      0.00
   -7   -2    4      0.07      0.00
   -6   -2    4     -0.77      0.00
   -5   -2    4      0.37      0.00
   -4   -2    4      0.28      0.00
   -3   -2    4      0.43      0.00
   -2   -2    4     -2.85      0.00
   -1   -2    4     -4.50      0.00
    0   -2    4    -22.63      0.00
    1   -2    4     -6.72      0.00
    2   -2    4      0.13      0.00
    3   -2    4     -0.77      0.00
    4   -2    4     -1.12      0.00
    5   -2    4      1.00      0.00
    6   -2    4      0.28      0.00
    7   -2    4     -0.33      0.00
   -7   -1    4     -2.18      0.00
   -6   -1    4      0.29      0.00
   -5   -1    4      0.55      0.00
   -4   -1    4     -0.61      0.00
   -3   -1    4     -1.62      0.00
   -2   -1    4     -2.10      0.00
   -1   -1    4     -5.47      0.00
    0   -1    4    -21.22      0.00
    1   -1    4     -4.07      0.00
    2   -1    4      2.40      0.00
    3   -1    4      1.22      0.00
    4   -1    4      0.70      0.00
    5   -1    4      1.24      0.00
    6   -1    4     -0.17      0.00
    7   -1    4     -0.80      0.00
   -7    0    4     -0.55      0.00
   -6    0    4     -0.13      0.00
   -5    0    4     -1.01      0.00
   -4    0    4     -2.11      0.00
   -3    0    4     -2.99      0.00
   -2    0    4      0.16      0.00
   -1    0    4     -4.34      0.00
    0    0    4     -6.96      0.00
    1    0    4      0.09      0.00
    2    0    4      2.38      0.00
    3    0    4      1.76      0.00
    4    0    4      1.30      0.00
    5    0    4      0.59      0.00
    6    0    4     -1.50      0.00
    7    0    4     -1.19      0.00
   -7    1    4      1.85      0.00
   -6    1    4     -0.29      0.00
   -5    1    4     -1.53      0.00
   -4    1    4     -1.30      0.00
   -3    1    4     -0.87      0.00
   -2    1    4      0.72      0.00
   -1    1    4      4.85      0.00
    0    1    4      3.57      0.00
    1    1    4      3.83      0.00
    2    1    4      1.39      0.00
    3    1    4      1.08      0.00
    4    1    4     -0.28      0.00
    5    1    4     -0.04      0.00
    6    1    4     -1.00      0.00
    7    1    4     -2.46      0.00
   -7    2    4      1.24      0.00
   -6    2    4      0.99      0.00
   -5    2    4      0.39      0.00
   -4    2    4      1.51      0.00
   -3    2    4      2.24      0.00
   -2    2    4      2.25      0.00
   -1    2    4      9.22      0.00
    0    2    4      3.68      0.00
    1    2    4      3.29      0.00
    2    2    4     -1.53      0.00
    3    2    4     -1.13      0.00
    4    2    4     -0.50      0.00
    5    2    4     -1.33      0.00
    6    2    4      0.16      0.00
    7    2    4     -1.75      0.00
   -7    3    4     -0.10      0.00
   -6    3    4      1.54      0.00
   -5    3    4      1.64      0.00
   -4    3    4      2.62      0.00
   -3    3    4      3.65      0.00
   -2    3    4      1.07      0.00
   -1    3    4      2.14      0.00
    0    3    4     -3.75      0.00
    1    3    4     -2.12      0.00
    2    3    4     -4.57      0.00
    3    3    4     -2.56      0.00
    4    3    4      0.51      0.00
    5    3    4     -1.85      0.00
    6    3    4      0.17      0.00
    7    3    4      0.16      0.00
   -7    4    4     -0.82      0.00
   -6    4    4      0.78      0.00
   -5    4    4      1.37      0.00
   -4    4    4      1.79      0.00
   -3    4    4      1.73      0.00
   -2    4    4     -2.48      0.00
   -1    4    4     -4.83      0.00
    0    4    4    -10.29      0.00
    1    4    4     -4.77      0.00
    2    4    4     -3.20      0.00
    3    4    4     -1.87      0.00
    4    4    4      0.89      0.00
    5    4    4     -0.47      0.00
    6    4    4      0.09      0.00
    7    4    4      0.26      0.00
   -7    5    4     -0.03      0.00
   -6    5    4      0.34      0.00
   -5    5    4      0.51      0.00
   -4    5    4      1.28      0.00
   -3    5    4     -1.13      0.00
   -2    5    4     -3.40      0.00
   -1    5    4     -5.42      0.00
    0    5    4     -8.12      0.00
    1    5    4     -1.35      0.00
    2    5    4      0.23      0.00
    3    5    4     -0.75      0.00
    4    5    4      1.66      0.00
    5    5    4      0.06      0.00
    6    5    4     -0.91      0.00
   -7    6    4      1.29      0.00
   -6    6    4     -0.35      0.00
   -5    6    4     -0.31      0.00
   -4    6    4      1.30      0.00
   -3    6    4     -2.33      0.00
   -2    6    4     -2.89      0.00
   -1    6    4     -0.58      0.00
    0    6    4     -2.27      0.00
    1    6    4      2.99      0.00
    2    6    4      1.57      0.00
    3    6    4     -0.36      0.00
    4    6    4      2.31      0.00
    5    6    4     -0.84      0.00
    6    6    4     -3.15      0.00
   -7    7    4     -0.28      0.00
   -6    7    4     -1.16      0.00
   -5    7    4     -0.16      0.00
   -4    7    4     -0.10      0.00
   -3    7    4     -1.82      0.00
   -2    7    4     -0.51      0.00
   -1    7    4      3.37      0.00
    0    7    4      0.87      0.00
    1    7    4      3.63      0.00
    2    7    4      2.35      0.00
    3    7    4     -0.63      0.00
    4    7    4      1.39      0.00
    5    7    4     -0.76      0.00
    6    7    4     -3.01      0.00
   -6    8    4     -0.15      0.00
   -5    8    4     -0.19      0.00
   -4    8    4     -1.70      0.00
   -3    8    4      0.20      0.00
   -2    8    4      3.19      0.00
   -1    8    4      2.47      0.00
    0    8    4      1.25      0.00
    1    8    4      1.36      0.00
    2    8    4      2.11      0.00
    3    8    4     -0.32      0.00
    4    8    4     -0.33      0.00
    5    8    4      0.59      0.00
   -6    9    4      0.86      0.00
   -5    9    4     -0.36      0.00
   -4    9    4     -0.54      0.00
   -3    9    4      1.02      0.00
   -2    9    4      3.55      0.00
   -1    9    4      1.04      0.00
    0    9    4     -0.40      0.00
    1    9    4     -0.73      0.00
    2    9    4      0.29      0.00
    3    9    4     -0.24      0.00
    4    9    4     -1.23      0.00
    5    9    4      1.27      0.00
   -5   10    4      0.76      0.00
   -4   10    4      1.06      0.00
   -3   10    4      0.40      0.00
   -2   10    4      1.64      0.00
   -1   10    4      0.93      0.00
    0   10    4     -1.92      0.00
    1   10    4     -1.63      0.00
    2   10    4      1.07      0.00
    3   10    4     -1.68      0.00
    4   10    4     -1.21      0.00
    5   10    4      0.70      0.00
   -5   11    4      0.94      0.00
   -4   11    4      1.23      0.00
   -3   11    4      0.45      0.00
   -2   11    4      0.54      0.00
   -1   11    4      0.98      0.00
    0   11    4     -2.12      0.00
    1   11    4     -1.77      0.00
    2   11    4      2.57      0.00
    3   11    4     -0.79      0.00
    4   11    4     -0.90      0.00
    5   11    4      0.39      0.00
   -4   12    4      0.66      0.00
   -3   12    4     -0.06      0.00
   -2   12    4     -0.43      0.00
   -1   12    4      0.44      0.00
    0   12    4     -1.34      0.00
    1   12    4     -1.18      0.00
    2   12    4      1.75      0.00
    3   12    4      2.78      0.00
    4   12    4      0.30      0.00
   -4   13    4     -1.42      0.00
   -3   13    4     -0.64      0.00
   -2   13    4     -1.15      0.00
   -1   13    4     -0.72      0.00
    0   13    4     -0.43      0.00
    1   13    4      0.66      0.00
    2   13    4      2.76      0.00
    3   13    4      2.87      0.00
    4   13    4      1.39      0.00
   -3   14    4     -0.39      0.00
   -2   14    4     -0.17      0.00
   -1   14    4     -0.49      0.00
    0   14    4     -1.12      0.00
    1   14    4      3.09      0.00
    2   14    4      3.70      0.00
    3   14    4     -0.05      0.00
   -2   15    4      0.68      0.00
   -1   15    4      1.28      0.00
    0   15    4     -2.18      0.00
    1   15    4      2.96      0.00
    2   15    4      0.73      0.00
   -1   16    4      1.97      0.00
    0   16    4     -1.23      0.00
   -2  -17    5      1.04      0.00
   -3  -16    5     -0.64      0.00
   -2  -16    5      2.95      0.00
   -1  -16    5     -2.34      0.00
    0  -16    5      1.69      0.00
    1  -16    5     -0.05      0.00
    2  -16    5     -1.73      0.00
   -3  -15    5      0.57      0.00
   -2  -15    5      2.56      0.00
   -1  -15    5     -0.37      0.00
    0  -15    5      1.35      0.00
    1  -15    5      0.99      0.00
    2  -15    5      0.01      0.00
    3  -15    5      0.54      0.00
   -4  -14    5     -3.09      0.00
   -3  -14    5      1.36      0.00
   -2  -14    5      1.44      0.00
   -1  -14    5      0.79      0.00
    0  -14    5     -0.32      0.00
    1  -14    5      1.08      0.00
    2  -14    5     -0.20      0.00
    3  -14    5      1.15      0.00
    4  -14    5      0.17      0.00
   -4  -13    5     -1.97      0.00
   -3  -13    5      1.95      0.00
   -2  -13    5      1.07      0.00
   -1  -13    5      0.17      0.00
    0  -13    5     -0.30      0.00
    1  -13    5      0.41      0.00
    2  -13    5     -0.46      0.00
    3  -13    5      0.25      0.00
    4  -13    5     -0.48      0.00
    5  -13    5     -1.33      0.00
   -5  -12    5      1.28      0.00
   -4  -12    5     -0.88      0.00
   -3  -12    5      2.68      0.00
   -2  -12    5     -0.17      0.00
   -1  -12    5      1.10      0.00
    0  -12    5     -1.25      0.00
    1  -12    5      0.33      0.00
    2  -12    5      1.12      0.00
    3  -12    5      0.73      0.00
    4  -12    5     -1.55      0.00
    5  -12    5     -1.15      0.00
   -5  -11    5      0.28      0.00
   -4  -11    5      0.18      0.00
   -3  -11    5      1.96      0.00
   -2  -11    5     -0.24      0.00
   -1  -11    5      1.48      0.00
    0  -11    5     -1.44      0.00
    1  -11    5      1.18      0.00
    2  -11    5      2.04      0.00
    3  -11    5      1.06      0.00
    4  -11    5     -0.35      0.00
    5  -11    5      0.62      0.00
    6  -11    5      0.40      0.00
   -6  -10    5     -0.40      0.00
   -5  -10    5      0.62      0.00
   -4  -10    5      0.51      0.00
   -3  -10    5      1.70      0.00
   -2  -10    5      0.52      0.00
   -1  -10    5      2.11      0.00
    0  -10    5      0.14      0.00
    1  -10    5      2.25      0.00
    2  -10    5      1.82      0.00
    3  -10    5      0.79      0.00
    4  -10    5     -0.21      0.00
    5  -10    5      0.40      0.00
    6  -10    5      0.44      0.00
   -6   -9    5     -0.22      0.00
   -5   -9    5      2.08      0.00
   -4   -9    5      0.86      0.00
   -3   -9    5      2.65      0.00
   -2   -9    5      0.00      0.00
   -1   -9    5      3.64      0.00
    0   -9    5     -0.60      0.00
    1   -9    5      2.41      0.00
    2   -9    5      0.61      0.00
    3   -9    5     -0.12      0.00
    4   -9    5     -0.98      0.00
    5   -9    5     -0.56      0.00
    6   -9    5     -0.39      0.00
   -6   -8    5     -0.80      0.00
   -5   -8    5      1.01      0.00
   -4   -8    5      1.38      0.00
   -3   -8    5      1.60      0.00
   -2   -8    5      0.37      0.00
   -1   -8    5      1.36      0.00
    0   -8    5     -3.04      0.00
    1   -8    5      0.31      0.00
    2   -8    5     -3.19      0.00
    3   -8    5     -1.39      0.00
    4   -8    5     -1.22      0.00
    5   -8    5     -1.18      0.00
    6   -8    5     -0.99      0.00
    7   -8    5      0.31      0.00
   -7   -7    5     -0.65      0.00
   -6   -7    5     -2.05      0.00
   -5   -7    5     -0.47      0.00
   -4   -7    5      0.84      0.00
   -3   -7    5     -1.74      0.00
   -2   -7    5     -0.39      0.00
   -1   -7    5     -1.29      0.00
    0   -7    5     -7.69      0.00
    1   -7    5     -0.87      0.00
    2   -7    5     -5.47      0.00
    3   -7    5     -1.43      0.00
    4   -7    5     -1.74      0.00
    5   -7    5     -1.38      0.00
    6   -7    5      0.01      0.00
    7   -7    5     -0.19      0.00
   -7   -6    5     -0.31      0.00
   -6   -6    5     -0.69      0.00
   -5   -6    5     -0.32      0.00
   -4   -6    5      0.77      0.00
   -3   -6    5     -3.46      0.00
   -2   -6    5     -4.36      0.00
   -1   -6    5     -2.19      0.00
    0   -6    5    -11.52      0.00
    1   -6    5      1.49      0.00
    2   -6    5     -2.00      0.00
    3   -6    5     -0.49      0.00
    4   -6    5     -0.84      0.00
    5   -6    5      0.34      0.00
    6   -6    5      1.35      0.00
    7   -6    5     -0.21      0.00
   -7   -5    5     -0.84      0.00
   -6   -5    5      2.84      0.00
   -5   -5    5     -0.10      0.00
   -4   -5    5      1.03      0.00
   -3   -5    5     -1.08      0.00
   -2   -5    5     -6.08      0.00
   -1   -5    5     -2.93      0.00
    0   -5    5     -4.18      0.00
    1   -5    5      3.30      0.00
    2   -5    5      2.25      0.00
    3   -5    5      0.51      0.00
    4   -5    5      0.68      0.00
    5   -5    5      2.02      0.00
    6   -5    5      1.49      0.00
    7   -5    5     -1.21      0.00
   -7   -4    5     -1.22      0.00
   -6   -4    5      3.55      0.00
   -5   -4    5     -0.31      0.00
   -4   -4    5      0.67      0.00
   -3   -4    5      0.94      0.00
   -2   -4    5     -1.59      0.00
   -1   -4    5      1.08      0.00
    0   -4    5      9.90      0.00
    1   -4    5      4.09      0.00
    2   -4    5      2.08      0.00
    3   -4    5      0.33      0.00
    4   -4    5      0.11      0.00
    5   -4    5      0.84      0.00
    6   -4    5      0.34      0.00
    7   -4    5     -2.99      0.00
   -7   -3    5     -0.30      0.00
   -6   -3    5      1.47      0.00
   -5   -3    5     -0.81      0.00
   -4   -3    5      0.73      0.00
   -3   -3    5      0.58      0.00
   -2   -3    5      4.21      0.00
   -1   -3    5      6.27      0.00
    0   -3    5     16.40      0.00
    1   -3    5      5.60      0.00
    2   -3    5     -0.47      0.00
    3   -3    5     -1.29      0.00
    4   -3    5     -0.51      0.00
    5   -3    5     -1.44      0.00
    6   -3    5     -0.87      0.00
    7   -3    5     -2.12      0.00
   -7   -2    5      1.30      0.00
   -6   -2    5      0.21      0.00
   -5   -2    5     -0.62      0.00
   -4   -2    5      0.98      0.00
   -3   -2    5      2.11      0.00
   -2   -2    5      3.69      0.00
   -1   -2    5      6.80      0.00
    0   -2    5     12.21      0.00
    1   -2    5      3.50      0.00
    2   -2    5     -1.90      0.00
    3   -2    5     -1.93      0.00
    4   -2    5     -0.73      0.00
    5   -2    5     -1.52      0.00
    6   -2    5     -0.23      0.00
    7   -2    5     -0.39      0.00
   -7   -1    5      0.20      0.00
   -6   -1    5      0.49      0.00
   -5   -1    5      0.60      0.00
   -4   -1    5      1.54      0.00
   -3   -1    5      2.37      0.00
   -2   -1    5      0.24      0.00
   -1   -1    5      3.48      0.00
    0   -1    5      2.83      0.00
    1   -1    5     -2.15      0.00
    2   -1    5     -1.37      0.00
    3   -1    5     -1.36      0.00
    4   -1    5     -1.25      0.00
    5   -1    5      0.17      0.00
    6   -1    5      1.43      0.00
    7   -1    5      0.15      0.00
   -7    0    5     -2.74      0.00
   -6    0    5      0.68      0.00
   -5    0    5      0.50      0.00
   -4    0    5      1.01      0.00
   -3    0    5     -1.17      0.00
   -2    0    5     -0.08      0.00
   -1    0    5     -4.30      0.00
    0    0    5     -3.81      0.00
    1    0    5     -4.84      0.00
    2    0    5      0.78      0.00
    3    0    5     -0.29      0.00
    4    0    5      0.17      0.00
    5    0    5      0.72      0.00
    6    0    5      1.46      0.00
    7    0    5      2.34      0.00
   -7    1    5     -2.24      0.00
   -6    1    5     -0.22      0.00
   -5    1    5     -1.13      0.00
   -4    1    5     -1.46      0.00
   -3    1    5     -3.22      0.00
   -2    1    5     -0.10      0.00
   -1    1    5     -8.05      0.00
    0    1    5     -2.12      0.00
    1    1    5     -1.74      0.00
    2    1    5      3.89      0.00
    3    1    5      1.99      0.00
    4    1    5      1.35      0.00
    5    1    5      0.87      0.00
    6    1    5      0.03      0.00
    7    1    5      3.94      0.00
   -7    2    5      0.41      0.00
   -6    2    5     -0.71      0.00
   -5    2    5     -1.64      0.00
   -4    2    5     -2.15      0.00
   -3    2    5     -2.80      0.00
   -2    2    5      1.31      0.00
   -1    2    5     -0.87      0.00
    0    2    5      6.02      0.00
    1    2    5      3.74      0.00
    2    2    5      5.72      0.00
    3    2    5      3.05      0.00
    4    2    5     -0.42      0.00
    5    2    5      1.53      0.00
    6    2    5     -0.48      0.00
    7    2    5      1.61      0.00
   -7    3    5      1.44      0.00
   -6    3    5      0.19      0.00
   -5    3    5     -0.75      0.00
   -4    3    5     -0.67      0.00
   -3    3    5     -0.76      0.00
   -2    3    5      4.50      0.00
   -1    3    5      6.19      0.00
    0    3    5     11.44      0.00
    1    3    5      4.91      0.00
    2    3    5      3.86      0.00
    3    3    5      1.40      0.00
    4    3    5     -1.95      0.00
    5    3    5      0.73      0.00
    6    3    5     -0.02      0.00
    7    3    5     -0.92      0.00
   -7    4    5      0.91      0.00
   -6    4    5      0.89      0.00
   -5    4    5      0.25      0.00
   -4    4    5      0.05      0.00
   -3    4    5      1.89      0.00
   -2    4    5      3.67      0.00
   -1    4    5      4.73      0.00
    0    4    5      7.48      0.00
    1    4    5      0.56      0.00
    2    4    5      0.03      0.00
    3    4    5     -0.04      0.00
    4    4    5     -1.67      0.00
    5    4    5     -0.36      0.00
    6    4    5      0.42      0.00
    7    4    5     -1.76      0.00
   -7    5    5     -0.02      0.00
   -6    5    5      1.11      0.00
   -5    5    5      0.81      0.00
   -4    5    5     -0.28      0.00
   -3    5    5      2.32      0.00
   -2    5    5      0.95      0.00
   -1    5    5     -0.94      0.00
    0    5    5      0.52      0.00
    1    5    5     -3.30      0.00
    2    5    5     -1.81      0.00
    3    5    5     -0.16      0.00
    4    5    5     -0.96      0.00
    5    5    5      0.06      0.00
    6    5    5      1.27      0.00
   -7    6    5      0.66      0.00
   -6    6    5      1.37      0.00
   -5    6    5     -0.06      0.00
   -4    6    5     -0.07      0.00
   -3    6    5      1.50      0.00
   -2    6    5     -0.95      0.00
   -1    6    5     -3.62      0.00
    0    6    5     -1.87      0.00
    1    6    5     -3.10      0.00
    2    6    5     -1.96      0.00
    3    6    5      0.38      0.00
    4    6    5      0.15      0.00
    5    6    5      0.51      0.00
    6    6    5      1.55      0.00
   -7    7    5      1.67      0.00
   -6    7    5      0.49      0.00
   -5    7    5     -0.99      0.00
   -4    7    5      1.18      0.00
   -3    7    5      0.20      0.00
   -2    7    5     -3.16      0.00
   -1    7    5     -1.90      0.00
    0    7    5     -1.32      0.00
    1    7    5     -0.56      0.00
    2    7    5     -1.40      0.00
    3    7    5      0.65      0.00
    4    7    5      1.64      0.00
    5    7    5      0.25      0.00
    6    7    5      1.09      0.00
   -6    8    5     -0.54      0.00
   -5    8    5     -0.28      0.00
   -4    8    5      0.62      0.00
   -3    8    5     -0.95      0.00
   -2    8    5     -2.72      0.00
   -1    8    5     -0.23      0.00
    0    8    5      0.22      0.00
    1    8    5      1.31      0.00
    2    8    5      0.68      0.00
    3    8    5      0.31      0.00
    4    8    5      2.19      0.00
    5    8    5      0.16      0.00
   -6    9    5      0.60      0.00
   -5    9    5     -0.60      0.00
   -4    9    5     -1.37      0.00
   -3    9    5     -0.46      0.00
   -2    9    5     -0.45      0.00
   -1    9    5      0.03      0.00
    0    9    5      1.82      0.00
    1    9    5      1.74      0.00
    2    9    5      0.63      0.00
    3    9    5      1.15      0.00
    4    9    5      1.30      0.00
    5    9    5      0.28      0.00
   -6   10    5      1.65      0.00
   -5   10    5     -1.31      0.00
   -4   10    5     -1.46      0.00
   -3   10    5      0.10      0.00
   -2   10    5     -0.09      0.00
   -1   10    5     -0.29      0.00
    0   10    5      1.68      0.00
    1   10    5      1.70      0.00
    2   10    5     -2.25      0.00
    3   10    5      0.93      0.00
    4   10    5      0.64      0.00
    5   10    5     -0.35      0.00
   -5   11    5      0.61      0.00
   -4   11    5     -0.43      0.00
   -3   11    5      0.43      0.00
   -2   11    5      0.14      0.00
   -1   11    5     -0.68      0.00
    0   11    5      0.18      0.00
    1   11    5      0.79      0.00
    2   11    5     -2.66      0.00
    3   11    5     -2.76      0.00
    4   11    5      0.84      0.00
   -4   12    5      1.18      0.00
   -3   12    5      0.31      0.00
   -2   12    5      1.54      0.00
   -1   12    5      0.04      0.00
    0   12    5     -0.68      0.00
    1   12    5     -1.02      0.00
    2   12    5     -2.08      0.00
    3   12    5     -3.85      0.00
    4   12    5      0.73      0.00
   -4   13    5      2.20      0.00
   -3   13    5     -0.74      0.00
   -2   13    5      1.10      0.00
   -1   13    5      0.36      0.00
    0   13    5      0.27      0.00
    1   13    5     -2.60      0.00
    2   13    5     -2.17      0.00
    3   13    5     -0.43      0.00
   -3   14    5     -0.53      0.00
   -2   14    5     -0.68      0.00
   -1   14    5     -0.82      0.00
    0   14    5      1.50      0.00
    1   14    5     -3.13      0.00
    2   14    5      0.27      0.00
    3   14    5      1.09      0.00
   -2   15    5     -0.16      0.00
   -1   15    5     -1.56      0.00
    0   15    5      0.80      0.00
    1   15    5     -1.67      0.00
    2   15    5      1.69      0.00
   -3  -16    6     -0.81      0.00
   -2  -16    6     -1.37      0.00
   -1  -16    6     -0.38      0.00
    0  -16    6     -2.01      0.00
    1  -16    6     -0.59      0.00
    2  -16    6     -0.39      0.00
   -3  -15    6     -2.06      0.00
   -2  -15    6     -0.68      0.00
   -1  -15    6     -1.96      0.00
    0  -15    6      0.28      0.00
    1  -15    6     -1.45      0.00
    2  -15    6     -0.57      0.00
    3  -15    6     -1.35      0.00
   -4  -14    6      2.23      0.00
   -3  -14    6     -2.73      0.00
   -2  -14    6     -1.00      0.00
   -1  -14    6      0.09      0.00
    0  -14    6      1.26      0.00
    1  -14    6     -1.03      0.00
    2  -14    6      0.66      0.00
    3  -14    6      0.39      0.00
    4  -14    6     -0.45      0.00
   -4  -13    6      1.27      0.00
   -3  -13    6     -3.09      0.00
   -2  -13    6     -0.34      0.00
   -1  -13    6     -0.07      0.00
    0  -13    6      1.60      0.00
    1  -13    6     -0.23      0.00
    2  -13    6     -0.40      0.00
    3  -13    6      0.48      0.00
    4  -13    6      0.39      0.00
    5  -13    6      2.42      0.00
   -5  -12    6     -0.32      0.00
   -4  -12    6     -0.21      0.00
   -3  -12    6     -1.92      0.00
   -2  -12    6      0.21      0.00
   -1  -12    6     -2.01      0.00
    0  -12    6      1.94      0.00
    1  -12    6     -0.58      0.00
    2  -12    6     -2.47      0.00
    3  -12    6     -0.43      0.00
    4  -12    6     -0.20      0.00
    5  -12    6      0.26      0.00
   -5  -11    6      0.23      0.00
   -4  -11    6     -0.32      0.00
   -3  -11    6     -1.26      0.00
   -2  -11    6     -0.88      0.00
   -1  -11    6     -1.96      0.00
    0  -11    6      0.40      0.00
    1  -11    6     -1.15      0.00
    2  -11    6     -1.66      0.00
    3  -11    6     -0.46      0.00
    4  -11    6     -0.69      0.00
    5  -11    6     -0.48      0.00
    6  -11    6      0.70      0.00
   -6  -10    6     -1.14      0.00
   -5  -10    6     -1.91      0.00
   -4  -10    6      0.52      0.00
   -3  -10    6     -2.07      0.00
   -2  -10    6     -0.44      0.00
   -1  -10    6     -1.91      0.00
    0  -10    6      0.71      0.00
    1  -10    6     -0.91      0.00
    2  -10    6      0.05      0.00
    3  -10    6      0.06      0.00
    4  -10    6     -0.26      0.00
    5  -10    6     -0.22      0.00
    6  -10    6      0.25      0.00
   -6   -9    6     -0.92      0.00
   -5   -9    6     -2.54      0.00
   -4   -9    6      0.72      0.00
   -3   -9    6     -0.48      0.00
   -2   -9    6      0.97      0.00
   -1   -9    6      0.30      0.00
    0   -9    6      4.09      0.00
    1   -9    6      0.27      0.00
    2   -9    6      1.59      0.00
    3   -9    6      0.26      0.00
    4   -9    6      0.45      0.00
    5   -9    6     -0.21      0.00
    6   -9    6     -0.41      0.00
   -6   -8    6      1.02      0.00
   -5   -8    6     -0.81      0.00
   -4   -8    6      1.59      0.00
   -3   -8    6      2.69      0.00
   -2   -8    6      1.99      0.00
   -1   -8    6      3.67      0.00
    0   -8    6      7.39      0.00
    1   -8    6      1.36      0.00
    2   -8    6      2.89      0.00
    3   -8    6     -0.13      0.00
    4   -8    6      1.54      0.00
    5   -8    6      1.19      0.00
    6   -8    6     -0.90      0.00
   -6   -7    6      1.06      0.00
   -5   -7    6     -0.21      0.00
   -4   -7    6      1.21      0.00
   -3   -7    6      3.02      0.00
   -2   -7    6      3.56      0.00
   -1   -7    6      3.19      0.00
    0   -7    6      8.79      0.00
    1   -7    6     -0.30      0.00
    2   -7    6      0.71      0.00
    3   -7    6      0.03      0.00
    4   -7    6      1.65      0.00
    5   -7    6      1.52      0.00
    6   -7    6     -1.38      0.00
   -7   -6    6      0.91      0.00
   -6   -6    6     -2.42      0.00
   -5   -6    6     -0.48      0.00
   -4   -6    6     -0.45      0.00
   -3   -6    6      0.17      0.00
   -2   -6    6      3.59      0.00
   -1   -6    6      1.84      0.00
    0   -6    6      2.90      0.00
    1   -6    6     -2.70      0.00
    2   -6    6     -2.32      0.00
    3   -6    6      0.98      0.00
    4   -6    6      0.83      0.00
    5   -6    6     -0.41      0.00
    6   -6    6     -0.97      0.00
   -7   -5    6     -0.25      0.00
   -6   -5    6     -3.64      0.00
   -5   -5    6      0.02      0.00
   -4   -5    6     -0.64      0.00
   -3   -5    6     -1.60      0.00
   -2   -5    6     -0.02      0.00
   -1   -5    6     -1.17      0.00
    0   -5    6     -8.00      0.00
    1   -5    6     -2.84      0.00
    2   -5    6     -1.25      0.00
    3   -5    6      2.10      0.00
    4   -5    6      1.66      0.00
    5   -5    6     -0.70      0.00
    6   -5    6      0.47      0.00
   -7   -4    6     -0.88      0.00
   -6   -4    6     -1.44      0.00
   -5   -4    6      0.91      0.00
   -4   -4    6     -1.29      0.00
   -3   -4    6     -1.12      0.00
   -2   -4    6     -4.97      0.00
   -1   -4    6     -7.23      0.00
    0   -4    6    -11.31      0.00
    1   -4    6     -3.05      0.00
    2   -4    6      1.10      0.00
    3   -4    6      3.07      0.00
    4   -4    6      2.27      0.00
    5   -4    6      1.02      0.00
    6   -4    6      1.41      0.00
    7   -4    6      2.46      0.00
   -7   -3    6     -0.84      0.00
   -6   -3    6     -0.36      0.00
   -5   -3    6      0.31      0.00
   -4   -3    6     -1.94      0.00
   -3   -3    6     -2.54      0.00
   -2   -3    6     -5.17      0.00
   -1   -3    6     -8.21      0.00
    0   -3    6     -5.62      0.00
    1   -3    6     -1.83      0.00
    2   -3    6      1.49      0.00
    3   -3    6      2.43      0.00
    4   -3    6      1.03      0.00
    5   -3    6      1.20      0.00
    6   -3    6      0.64      0.00
    7   -3    6      0.28      0.00
   -7   -2    6     -0.15      0.00
   -6   -2    6     -1.08      0.00
   -5   -2    6     -0.91      0.00
   -4   -2    6     -1.30      0.00
   -3   -2    6     -2.11      0.00
   -2   -2    6     -0.92      0.00
   -1   -2    6     -2.09      0.00
    0   -2    6      1.60      0.00
    1   -2    6      3.08      0.00
    2   -2    6      0.44      0.00
    3   -2    6      0.77      0.00
    4   -2    6      0.71      0.00
    5   -2    6     -0.64      0.00
    6   -2    6     -0.60      0.00
    7   -2    6      0.49      0.00
   -7   -1    6      1.80      0.00
   -6   -1    6     -1.80      0.00
   -5   -1    6     -0.16      0.00
   -4   -1    6     -0.61      0.00
   -3   -1    6      3.07      0.00
   -2   -1    6      0.20      0.00
   -1   -1    6      4.71      0.00
    0   -1    6      5.24      0.00
    1   -1    6      5.24      0.00
    2   -1    6     -2.35      0.00
    3   -1    6     -0.38      0.00
    4   -1    6      0.09      0.00
    5   -1    6     -0.99      0.00
    6   -1    6     -0.73      0.00
    7   -1    6     -0.32      0.00
   -7    0    6      1.74      0.00
   -6    0    6     -1.34      0.00
   -5    0    6      1.11      0.00
   -4    0    6      0.96      0.00
   -3    0    6      4.26      0.00
   -2    0    6     -1.60      0.00
   -1    0    6      5.44      0.00
    0    0    6      1.00      0.00
    1    0    6      0.95      0.00
    2    0    6     -5.42      0.00
    3    0    6     -2.16      0.00
    4    0    6     -1.32      0.00
    5    0    6      0.22      0.00
    6    0    6     -0.21      0.00
    7    0    6     -3.31      0.00
   -7    1    6     -0.67      0.00
   -6    1    6     -0.07      0.00
   -5    1    6      1.25      0.00
   -4    1    6      1.53      0.00
   -3    1    6      1.26      0.00
   -2    1    6     -3.69      0.00
   -1    1    6     -1.40      0.00
    0    1    6     -8.13      0.00
    1    1    6     -3.89      0.00
    2    1    6     -5.57      0.00
    3    1    6     -2.98      0.00
    4    1    6      0.37      0.00
    5    1    6     -0.08      0.00
    6    1    6     -0.15      0.00
    7    1    6     -2.54      0.00
   -7    2    6     -1.37      0.00
   -6    2    6     -0.19      0.00
   -5    2    6      0.97      0.00
   -4    2    6      0.11      0.00
   -3    2    6     -0.39      0.00
   -2    2    6     -5.89      0.00
   -1    2    6     -6.73      0.00
    0    2    6    -12.01      0.00
    1    2    6     -3.51      0.00
    2    2    6     -2.90      0.00
    3    2    6     -0.66      0.00
    4    2    6      2.72      0.00
    5    2    6     -0.41      0.00
    6    2    6     -0.48      0.00
    7    2    6      1.00      0.00
   -7    3    6     -0.59      0.00
   -6    3    6     -1.57      0.00
   -5    3    6     -0.01      0.00
   -4    3    6     -0.54      0.00
   -3    3    6     -1.81      0.00
   -2    3    6     -4.17      0.00
   -1    3    6     -3.72      0.00
    0    3    6     -7.00      0.00
    1    3    6      0.28      0.00
    2    3    6      0.39      0.00
    3    3    6      1.53      0.00
    4    3    6      1.86      0.00
    5    3    6      0.75      0.00
    6    3    6     -0.04      0.00
    7    3    6      2.52      0.00
   -7    4    6     -0.31      0.00
   -6    4    6     -1.89      0.00
   -5    4    6     -1.04      0.00
   -4    4    6     -0.31      0.00
   -3    4    6     -1.69      0.00
   -2    4    6      0.13      0.00
   -1    4    6      2.48      0.00
    0    4    6      0.28      0.00
    1    4    6      2.48      0.00
    2    4    6      2.18      0.00
    3    4    6      1.57      0.00
    4    4    6      0.31      0.00
    5    4    6      1.51      0.00
    6    4    6      1.07      0.00
    7    4    6      2.61      0.00
   -7    5    6     -0.78      0.00
   -6    5    6     -1.26      0.00
   -5    5    6      0.27      0.00
   -4    5    6      0.15      0.00
   -3    5    6     -0.24      0.00
   -2    5    6      2.67      0.00
   -1    5    6      4.34      0.00
    0    5    6      3.09      0.00
    1    5    6      2.18      0.00
    2    5    6      1.73      0.00
    3    5    6      0.45      0.00
    4    5    6     -0.44      0.00
    5    5    6      1.26      0.00
    6    5    6      1.73      0.00
   -7    6    6     -1.16      0.00
   -6    6    6     -0.82      0.00
   -5    6    6      2.37      0.00
   -4    6    6     -0.11      0.00
   -3    6    6     -0.01      0.00
   -2    6    6      3.95      0.00
   -1    6    6      1.73      0.00
    0    6    6      1.81      0.00
    1    6    6      0.34      0.00
    2    6    6      0.18      0.00
    3    6    6     -0.96      0.00
    4    6    6     -1.51      0.00
    5    6    6      0.37      0.00
    6    6    6      1.85      0.00
   -7    7    6      0.13      0.00
   -6    7    6     -0.55      0.00
   -5    7    6      1.45      0.00
   -4    7    6     -0.36      0.00
   -3    7    6     -0.13      0.00
   -2    7    6      2.77      0.00
   -1    7    6     -0.35      0.00
    0    7    6     -0.35      0.00
    1    7    6     -1.67      0.00
    2    7    6     -1.73      0.00
    3    7    6     -0.82      0.00
    4    7    6     -1.95      0.00
    5    7    6     -0.46      0.00
    6    7    6      1.31      0.00
   -6    8    6     -0.81      0.00
   -5    8    6      0.36      0.00
   -4    8    6      0.99      0.00
   -3    8    6     -0.74      0.00
   -2    8    6     -0.14      0.00
   -1    8    6     -0.88      0.00
    0    8    6     -1.53      0.00
    1    8    6     -1.83      0.00
    2    8    6     -1.71      0.00
    3    8    6     -0.19      0.00
    4    8    6     -0.71      0.00
    5    8    6     -0.49      0.00
   -6    9    6     -0.87      0.00
   -5    9    6      1.42      0.00
   -4    9    6      1.16      0.00
   -3    9    6     -1.20      0.00
   -2    9    6     -0.53      0.00
   -1    9    6     -0.92      0.00
    0    9    6     -1.07      0.00
    1    9    6     -1.20      0.00
    2    9    6      1.28      0.00
    3    9    6     -0.27      0.00
    4    9    6      0.25      0.00
    5    9    6      0.07      0.00
   -6   10    6      0.25      0.00
   -5   10    6     -0.11      0.00
   -4   10    6     -0.14      0.00
   -3   10    6     -0.82      0.00
   -2   10    6      0.73      0.00
   -1   10    6      0.12      0.00
    0   10    6      0.21      0.00
    1   10    6     -0.50      0.00
    2   10    6      2.23      0.00
    3   10    6      1.37      0.00
    4   10    6     -0.99      0.00
   -5   11    6     -2.65      0.00
   -4   11    6     -1.03      0.00
   -3   11    6     -0.15      0.00
   -2   11    6      0.28      0.00
   -1   11    6      0.88      0.00
    0   11    6      0.82      0.00
    1   11    6      0.70      0.00
    2   11    6      0.63      0.00
    3   11    6      2.34      0.00
    4   11    6     -2.48      0.00
   -4   12    6     -1.57      0.00
   -3   12    6      1.04      0.00
   -2   12    6     -0.62      0.00
   -1   12    6      0.38      0.00
    0   12    6      0.10      0.00
    1   12    6      1.01      0.00
    2   12    6     -0.16      0.00
    3   12    6     -0.16      0.00
   -4   13    6     -0.34      0.00
   -3   13    6      1.02      0.00
   -2   13    6      0.08      0.00
   -1   13    6     -0.05      0.00
    0   13    6     -0.91      0.00
    1   13    6      1.25      0.00
    2   13    6     -2.18      0.00
    3   13    6     -1.29      0.00
   -3   14    6     -0.21      0.00
   -2   14    6      0.07      0.00
   -1   14    6      0.16      0.00
    0   14    6     -0.34      0.00
    1   14    6      1.82      0.00
    2   14    6     -3.39      0.00
   -2   15    6     -0.76      0.00
   -1   15    6      0.39      0.00
    0   15    6      1.12      0.00
    1   15    6      0.95      0.00
   -1  -17    7      0.64      0.00
    0  -17    7      0.80      0.00
    1  -17    7     -0.39      0.00
   -3  -16    7      2.04      0.00
   -2  -16    7      0.15      0.00
   -1  -16    7      2.23      0.00
    0  -16    7     -1.32      0.00
    1  -16    7      0.18      0.00
    2  -16    7      0.46      0.00
   -3  -15    7      3.66      0.00
   -2  -15    7      0.66      0.00
   -1  -15    7      0.17      0.00
    0  -15    7     -1.77      0.00
    1  -15    7      0.92      0.00
    2  -15    7     -0.48      0.00
    3  -15    7     -0.65      0.00
   -4  -14    7     -0.75      0.00
   -3  -14    7      3.74      0.00
   -2  -14    7      0.23      0.00
   -1  -14    7     -1.10      0.00
    0  -14    7     -0.90      0.00
    1  -14    7      0.28      0.00
    2  -14    7     -0.02      0.00
    3  -14    7     -1.12      0.00
    4  -14    7      0.49      0.00
   -4  -13    7     -0.27      0.00
   -3  -13    7      1.46      0.00
   -2  -13    7     -1.00      0.00
   -1  -13    7      0.78      0.00
    0  -13    7     -1.54      0.00
    1  -13    7     -0.12      0.00
    2  -13    7      1.91      0.00
    3  -13    7     -0.73      0.00
    4  -13    7      0.57      0.00
   -5  -12    7     -0.34      0.00
   -4  -12    7      0.32      0.00
   -3  -12    7     -0.16      0.00
   -2  -12    7      0.04      0.00
   -1  -12    7      0.94      0.00
    0  -12    7     -1.41      0.00
    1  -12    7      0.65      0.00
    2  -12    7      1.03      0.00
    3  -12    7     -0.95      0.00
    4  -12    7      1.09      0.00
    5  -12    7     -0.07      0.00
    6  -12    7     -1.17      0.00
   -5  -11    7      1.04      0.00
   -4  -11    7     -0.98      0.00
   -3  -11    7      0.48      0.00
   -2  -11    7      0.69      0.00
   -1  -11    7      0.31      0.00
    0  -11    7     -1.09      0.00
    1  -11    7      0.29      0.00
    2  -11    7     -1.19      0.00
    3  -11    7     -0.92      0.00
    4  -11    7      2.03      0.00
    5  -11    7      0.31      0.00
    6  -11    7     -0.56      0.00
   -5  -10    7      2.07      0.00
   -4  -10    7     -2.42      0.00
   -3  -10    7     -1.11      0.00
   -2  -10    7     -1.12      0.00
   -1  -10    7     -0.37      0.00
    0  -10    7     -3.48      0.00
    1  -10    7     -0.81      0.00
    2  -10    7     -1.13      0.00
    3  -10    7      0.30      0.00
    4  -10    7      2.02      0.00
    5  -10    7      1.41      0.00
    6  -10    7      1.34      0.00
   -6   -9    7      0.45      0.00
   -5   -9    7      0.86      0.00
   -4   -9    7     -3.57      0.00
   -3   -9    7     -3.92      0.00
   -2   -9    7     -2.84      0.00
   -1   -9    7     -2.87      0.00
    0   -9    7     -5.73      0.00
    1   -9    7     -0.94      0.00
    2   -9    7     -0.47      0.00
    3   -9    7      1.66      0.00
    4   -9    7      0.64      0.00
    5   -9    7      0.32      0.00
    6   -9    7      2.02      0.00
   -6   -8    7     -0.60      0.00
   -5   -8    7      0.09      0.00
   -4   -8    7     -2.80      0.00
   -3   -8    7     -2.90      0.00
   -2   -8    7     -3.04      0.00
   -1   -8    7     -3.00      0.00
    0   -8    7     -5.81      0.00
    1   -8    7      0.03      0.00
    2   -8    7      1.04      0.00
    3   -8    7      1.13      0.00
    4   -8    7     -0.84      0.00
    5   -8    7     -2.05      0.00
    6   -8    7      1.60      0.00
   -6   -7    7      1.59      0.00
   -5   -7    7      0.29      0.00
   -4   -7    7      0.06      0.00
   -3   -7    7      0.46      0.00
   -2   -7    7     -1.00      0.00
   -1   -7    7     -0.77      0.00
    0   -7    7     -2.60      0.00
    1   -7    7      1.51      0.00
    2   -7    7      2.75      0.00
    3   -7    7     -1.06      0.00
    4   -7    7     -1.74      0.00
    5   -7    7     -1.47      0.00
    6   -7    7      0.54      0.00
   -6   -6    7      2.87      0.00
   -5   -6    7      0.29      0.00
   -4   -6    7      0.52      0.00
   -3   -6    7      1.78      0.00
   -2   -6    7      2.21      0.00
   -1   -6    7      1.38      0.00
    0   -6    7      3.89      0.00
    1   -6    7      1.44      0.00
    2   -6    7      1.25      0.00
    3   -6    7     -2.82      0.00
    4   -6    7     -3.03      0.00
    5   -6    7      0.06      0.00
    6   -6    7     -0.83      0.00
   -7   -5    7      2.85      0.00
   -6   -5    7      0.79      0.00
   -5   -5    7     -0.22      0.00
   -4   -5    7      0.77      0.00
   -3   -5    7      0.61      0.00
   -2   -5    7      4.44      0.00
   -1   -5    7      5.52      0.00
    0   -5    7      5.98      0.00
    1   -5    7     -0.18      0.00
    2   -5    7     -0.81      0.00
    3   -5    7     -3.39      0.00
    4   -5    7     -3.53      0.00
    5   -5    7     -0.18      0.00
    6   -5    7     -1.09      0.00
   -7   -4    7      1.28      0.00
   -6   -4    7     -0.47      0.00
   -5   -4    7      0.35      0.00
   -4   -4    7      2.15      0.00
   -3   -4    7      1.26      0.00
   -2   -4    7      3.82      0.00
   -1   -4    7      6.25      0.00
    0   -4    7      1.20      0.00
    1   -4    7     -1.81      0.00
    2   -4    7     -0.46      0.00
    3   -4    7     -2.26      0.00
    4   -4    7     -1.49      0.00
    5   -4    7     -0.21      0.00
    6   -4    7      0.20      0.00
    7   -4    7      1.41      0.00
   -7   -3    7      0.29      0.00
   -6   -3    7      0.23      0.00
   -5   -3    7      1.43      0.00
   -4   -3    7      1.28      0.00
   -3   -3    7      1.41      0.00
   -2   -3    7      0.37      0.00
   -1   -3    7     -0.44      0.00
    0   -3    7     -3.64      0.00
    1   -3    7     -3.66      0.00
    2   -3    7      0.79      0.00
    3   -3    7     -0.02      0.00
    4   -3    7      0.03      0.00
    5   -3    7      1.21      0.00
    6   -3    7      1.01      0.00
    7   -3    7      0.75      0.00
   -7   -2    7      0.15      0.00
   -6   -2    7      1.62      0.00
   -5   -2    7      0.25      0.00
   -4   -2    7      0.18      0.00
   -3   -2    7     -3.53      0.00
   -2   -2    7     -0.50      0.00
   -1   -2    7     -5.52      0.00
    0   -2    7     -4.61      0.00
    1   -2    7     -3.44      0.00
    2   -2    7      3.21      0.00
    3   -2    7      1.06      0.00
    4   -2    7      0.13      0.00
    5   -2    7      1.35      0.00
    6   -2    7      0.13      0.00
    7   -2    7     -1.18      0.00
   -7   -1    7      0.36      0.00
   -6   -1    7      2.49      0.00
   -5   -1    7     -0.48      0.00
   -4   -1    7     -0.46      0.00
   -3   -1    7     -4.66      0.00
   -2   -1    7      2.62      0.00
   -1   -1    7     -2.53      0.00
    0   -1    7      0.58      0.00
    1   -1    7      0.33      0.00
    2   -1    7      5.48      0.00
    3   -1    7      1.48      0.00
    4   -1    7      0.71      0.00
    5   -1    7     -0.80      0.00
    6   -1    7     -0.48      0.00
    7   -1    7      0.51      0.00
   -7    0    7      1.30      0.00
   -6    0    7      1.06      0.00
   -5    0    7      0.40      0.00
   -4    0    7     -0.74      0.00
   -3    0    7      0.32      0.00
   -2    0    7      5.17      0.00
   -1    0    7      4.07      0.00
    0    0    7      8.94      0.00
    1    0    7      2.81      0.00
    2    0    7      4.18      0.00
    3    0    7      1.77      0.00
    4    0    7     -0.98      0.00
    5    0    7     -1.44      0.00
    6    0    7      0.34      0.00
    7    0    7      1.34      0.00
   -7    1    7      0.88      0.00
   -6    1    7     -0.38      0.00
   -5    1    7     -0.49      0.00
   -4    1    7      0.42      0.00
   -3    1    7      2.02      0.00
   -2    1    7      5.76      0.00
   -1    1    7      6.55      0.00
    0    1    7     10.71      0.00
    1    1    7      0.58      0.00
    2    1    7      0.99      0.00
    3    1    7      0.22      0.00
    4    1    7     -3.51      0.00
    5    1    7     -0.51      0.00
    6    1    7      1.04      0.00
    7    1    7     -1.35      0.00
   -7    2    7     -0.25      0.00
   -6    2    7      0.94      0.00
   -5    2    7     -1.09      0.00
   -4    2    7      0.47      0.00
   -3    2    7      1.48      0.00
   -2    2    7      3.65      0.00
   -1    2    7      2.24      0.00
    0    2    7      5.08      0.00
    1    2    7     -2.41      0.00
    2    2    7     -1.46      0.00
    3    2    7     -1.93      0.00
    4    2    7     -1.81      0.00
    5    2    7     -1.13      0.00
    6    2    7      0.36      0.00
    7    2    7     -2.74      0.00
   -7    3    7      0.21      0.00
   -6    3    7      1.79      0.00
   -5    3    7      0.08      0.00
   -4    3    7     -0.19      0.00
   -3    3    7      0.87      0.00
   -2    3    7     -0.45      0.00
   -1    3    7     -3.65      0.00
    0    3    7     -0.90      0.00
    1    3    7     -2.14      0.00
    2    3    7     -2.83      0.00
    3    3    7     -2.44      0.00
    4    3    7      0.68      0.00
    5    3    7     -2.36      0.00
    6    3    7     -1.25      0.00
    7    3    7     -1.68      0.00
   -7    4    7      0.91      0.00
   -6    4    7      0.17      0.00
   -5    4    7     -1.01      0.00
   -4    4    7     -0.59      0.00
   -3    4    7     -1.08      0.00
   -2    4    7     -3.43      0.00
   -1    4    7     -4.98      0.00
    0    4    7     -3.69      0.00
    1    4    7     -1.04      0.00
    2    4    7     -1.69      0.00
    3    4    7     -1.31      0.00
    4    4    7      0.39      0.00
    5    4    7     -2.67      0.00
    6    4    7     -2.53      0.00
   -7    5    7      0.71      0.00
   -6    5    7     -0.29      0.00
   -5    5    7     -3.80      0.00
   -4    5    7     -1.05      0.00
   -3    5    7     -1.22      0.00
   -2    5    7     -4.61      0.00
   -1    5    7     -2.08      0.00
    0    5    7     -2.64      0.00
    1    5    7     -0.49      0.00
    2    5    7      1.09      0.00
    3    5    7      0.79      0.00
    4    5    7      0.04      0.00
    5    5    7     -1.90      0.00
    6    5    7     -3.36      0.00
   -7    6    7     -0.22      0.00
   -6    6    7      1.11      0.00
   -5    6    7     -2.88      0.00
   -4    6    7     -0.14      0.00
   -3    6    7      0.31      0.00
   -2    6    7     -3.34      0.00
   -1    6    7      0.54      0.00
    0    6    7      0.40      0.00
    1    6    7      1.24      0.00
    2    6    7      2.57      0.00
    3    6    7      1.17      0.00
    4    6    7      0.21      0.00
    5    6    7     -0.77      0.00
    6    6    7     -3.79      0.00
   -7    7    7     -1.25      0.00
   -6    7    7      1.25      0.00
   -5    7    7     -0.05      0.00
   -4    7    7      0.30      0.00
   -3    7    7      1.70      0.00
   -2    7    7     -0.54      0.00
   -1    7    7      1.42      0.00
    0    7    7      1.58      0.00
    1    7    7      1.98      0.00
    2    7    7      1.71      0.00
    3    7    7     -0.49      0.00
    4    7    7     -0.43      0.00
    5    7    7     -0.57      0.00
   -6    8    7     -0.04      0.00
   -5    8    7     -0.68      0.00
   -4    8    7      0.03      0.00
   -3    8    7      2.23      0.00
   -2    8    7      0.42      0.00
   -1    8    7      1.77      0.00
    0    8    7      0.42      0.00
    1    8    7      0.91      0.00
    2    8    7     -0.78      0.00
    3    8    7     -0.75      0.00
    4    8    7     -0.71      0.00
    5    8    7     -0.36      0.00
   -6    9    7     -1.30      0.00
   -5    9    7     -0.68      0.00
   -4    9    7      0.51      0.00
   -3    9    7      1.20      0.00
   -2    9    7     -0.81      0.00
   -1    9    7      1.16      0.00
    0    9    7     -0.32      0.00
    1    9    7      0.16      0.00
    2    9    7     -1.39      0.00
    3    9    7     -0.31      0.00
    4    9    7      0.75      0.00
   -5   10    7      2.11      0.00
   -4   10    7      0.37      0.00
   -3   10    7      0.02      0.00
   -2   10    7     -1.64      0.00
   -1   10    7     -0.20      0.00
    0   10    7      0.11      0.00
    1   10    7     -0.41      0.00
    2   10    7      0.60      0.00
    3   10    7     -0.35      0.00
    4   10    7      2.52      0.00
   -5   11    7      1.48      0.00
   -4   11    7      0.41      0.00
   -3   11    7     -0.92      0.00
   -2   11    7     -0.61      0.00
   -1   11    7     -0.63      0.00
    0   11    7      0.39      0.00
    1   11    7      0.06      0.00
    2   11    7      1.60      0.00
    3   11    7      0.84      0.00
   -4   12    7      0.33      0.00
   -3   12    7     -0.96      0.00
   -2   12    7      0.36      0.00
   -1   12    7      0.15      0.00
    0   12    7      0.31      0.00
    1   12    7      0.62      0.00
    2   12    7      3.04      0.00
    3   12    7      1.09      0.00
   -4   13    7     -0.62      0.00
   -3   13    7      0.19      0.00
   -2   13    7      0.39      0.00
   -1   13    7      0.54      0.00
    0   13    7     -0.21      0.00
    1   13    7     -0.84      0.00
    2   13    7      4.78      0.00
   -3   14    7      0.49      0.00
   -2   14    7      0.68      0.00
   -1   14    7     -0.14      0.00
    0   14    7     -1.08      0.00
    1   14    7     -1.16      0.00
    2   14    7      2.47      0.00
   -1  -17    8     -0.80      0.00
    0  -17    8      2.70      0.00
    1  -17    8      0.80      0.00
   -3  -16    8     -3.14      0.00
   -2  -16    8     -0.16      0.00
   -1  -16    8      0.30      0.00
    0  -16    8      2.40      0.00
    1  -16    8     -0.33      0.00
    2  -16    8      0.36      0.00
   -3  -15    8     -4.28      0.00
   -2  -15    8     -0.37      0.00
   -1  -15    8      1.41      0.00
    0  -15    8      0.13      0.00
    1  -15    8     -0.36      0.00
    2  -15    8     -0.30      0.00
    3  -15    8      1.01      0.00
   -4  -14    8      0.55      0.00
   -3  -14    8     -1.93      0.00
   -2  -14    8      0.68      0.00
   -1  -14    8      0.28      0.00
    0  -14    8      0.27      0.00
    1  -14    8      0.76      0.00
    2  -14    8     -1.12      0.00
    3  -14    8      1.23      0.00
    4  -14    8     -0.41      0.00
   -4  -13    8     -0.17      0.00
   -3  -13    8      0.90      0.00
   -2  -13    8      0.24      0.00
   -1  -13    8     -0.07      0.00
    0  -13    8      1.44      0.00
    1  -13    8     -0.42      0.00
    2  -13    8      0.16      0.00
    3  -13    8      2.23      0.00
    4  -13    8     -0.59      0.00
    5  -13    8      0.48      0.00
   -5  -12    8     -0.92      0.00
   -4  -12    8      0.14      0.00
   -3  -12    8      0.85      0.00
   -2  -12    8     -0.98      0.00
   -1  -12    8      0.66      0.00
    0  -12    8      1.04      0.00
    1  -12    8     -1.06      0.00
    2  -12    8      2.24      0.00
    3  -12    8      2.37      0.00
    4  -12    8     -2.31      0.00
    5  -12    8      0.24      0.00
   -5  -11    8     -0.86      0.00
   -4  -11    8      2.27      0.00
   -3  -11    8      2.25      0.00
   -2  -11    8      0.43      0.00
   -1  -11    8      0.40      0.00
    0  -11    8      2.20      0.00
    1  -11    8      1.12      0.00
    2  -11    8      1.76      0.00
    3  -11    8      0.32      0.00
    4  -11    8     -3.31      0.00
    5  -11    8     -0.79      0.00
   -5  -10    8      0.35      0.00
   -4  -10    8      4.07      0.00
   -3  -10    8      5.14      0.00
   -2  -10    8      2.81      0.00
   -1  -10    8      1.13      0.00
    0  -10    8      3.98      0.00
    1  -10    8      1.71      0.00
    2  -10    8      0.31      0.00
    3  -10    8     -1.83      0.00
    4  -10    8     -2.73      0.00
    5  -10    8     -0.91      0.00
    6  -10    8     -1.97      0.00
   -6   -9    8     -0.15      0.00
   -5   -9    8      0.37      0.00
   -4   -9    8      3.00      0.00
   -3   -9    8      3.50      0.00
   -2   -9    8      2.84      0.00
   -1   -9    8      1.53      0.00
    0   -9    8      2.92      0.00
    1   -9    8      0.01      0.00
    2   -9    8     -1.04      0.00
    3   -9    8     -1.77      0.00
    4   -9    8     -1.61      0.00
    5   -9    8      1.14      0.00
    6   -9    8     -1.46      0.00
   -6   -8    8     -0.91      0.00
   -5   -8    8      0.26      0.00
   -4   -8    8     -0.85      0.00
   -3   -8    8     -0.50      0.00
   -2   -8    8     -0.51      0.00
   -1   -8    8     -0.33      0.00
    0   -8    8      0.83      0.00
    1   -8    8     -1.34      0.00
    2   -8    8     -2.47      0.00
    3   -8    8      0.05      0.00
    4   -8    8      0.16      0.00
    5   -8    8      1.66      0.00
    6   -8    8     -0.21      0.00
   -6   -7    8     -1.71      0.00
   -5   -7    8      0.19      0.00
   -4   -7    8     -1.34      0.00
   -3   -7    8     -1.87      0.00
   -2   -7    8     -4.21      0.00
   -1   -7    8     -1.66      0.00
    0   -7    8     -1.20      0.00
    1   -7    8     -1.51      0.00
    2   -7    8     -1.46      0.00
    3   -7    8      1.65      0.00
    4   -7    8      2.19      0.00
    5   -7    8     -0.01      0.00
    6   -7    8      1.01      0.00
   -6   -6    8     -0.16      0.00
   -5   -6    8     -0.20      0.00
   -4   -6    8      0.36      0.00
   -3   -6    8     -0.40      0.00
   -2   -6    8     -4.20      0.00
   -1   -6    8     -2.86      0.00
    0   -6    8     -1.48      0.00
    1   -6    8      0.71      0.00
    2   -6    8      0.07      0.00
    3   -6    8      2.22      0.00
    4   -6    8      3.08      0.00
    5   -6    8     -0.68      0.00
    6   -6    8      0.83      0.00
   -6   -5    8      1.22      0.00
   -5   -5    8     -0.65      0.00
   -4   -5    8     -0.60      0.00
   -3   -5    8      0.68      0.00
   -2   -5    8     -1.39      0.00
   -1   -5    8     -2.24      0.00
    0   -5    8      1.76      0.00
    1   -5    8      3.92      0.00
    2   -5    8     -0.73      0.00
    3   -5    8      1.71      0.00
    4   -5    8      1.77      0.00
    5   -5    8     -0.46      0.00
    6   -5    8     -0.95      0.00
   -7   -4    8     -0.06      0.00
   -6   -4    8      1.49      0.00
   -5   -4    8     -1.38      0.00
   -4   -4    8     -0.64      0.00
   -3   -4    8      0.41      0.00
   -2   -4    8      1.24      0.00
   -1   -4    8      3.38      0.00
    0   -4    8      4.12      0.00
    1   -4    8      4.27      0.00
    2   -4    8     -1.69      0.00
    3   -4    8     -0.07      0.00
    4   -4    8      0.05      0.00
    5   -4    8     -1.12      0.00
    6   -4    8     -2.17      0.00
    7   -4    8     -2.07      0.00
   -7   -3    8     -1.34      0.00
   -6   -3    8      0.57      0.00
   -5   -3    8     -0.37      0.00
   -4   -3    8      0.10      0.00
   -3   -3    8      2.81      0.00
   -2   -3    8      0.82      0.00
   -1   -3    8      6.26      0.00
    0   -3    8      2.46      0.00
    1   -3    8      1.25      0.00
    2   -3    8     -2.90      0.00
    3   -3    8     -1.43      0.00
    4   -3    8     -0.29      0.00
    5   -3    8     -1.36      0.00
    6   -3    8     -0.82      0.00
    7   -3    8      1.03      0.00
   -7   -2    8     -2.56      0.00
   -6   -2    8     -1.51      0.00
   -5   -2    8      0.15      0.00
   -4   -2    8      0.12      0.00
   -3   -2    8      3.58      0.00
   -2   -2    8     -2.87      0.00
   -1   -2    8      0.94      0.00
    0   -2    8     -2.77      0.00
    1   -2    8     -1.87      0.00
    2   -2    8     -4.01      0.00
    3   -2    8     -0.98      0.00
    4   -2    8     -0.47      0.00
    5   -2    8      0.48      0.00
    6   -2    8      1.04      0.00
    7   -2    8      1.48      0.00
   -7   -1    8     -2.22      0.00
   -6   -1    8     -1.15      0.00
   -5   -1    8     -1.82      0.00
   -4   -1    8      0.45      0.00
   -3   -1    8     -1.45      0.00
   -2   -1    8     -5.22      0.00
   -1   -1    8     -4.95      0.00
    0   -1    8     -8.64      0.00
    1   -1    8     -1.65      0.00
    2   -1    8     -2.03      0.00
    3   -1    8     -0.09      0.00
    4   -1    8      1.25      0.00
    5   -1    8      1.49      0.00
    6   -1    8      0.29      0.00
    7   -1    8      0.29      0.00
   -7    0    8     -0.29      0.00
   -6    0    8      1.22      0.00
   -5    0    8     -1.00      0.00
   -4    0    8     -0.81      0.00
   -3    0    8     -3.59      0.00
   -2    0    8     -4.35      0.00
   -1    0    8     -5.03      0.00
    0    0    8     -8.17      0.00
    1    0    8      1.72      0.00
    2    0    8      0.74      0.00
    3    0    8      0.42      0.00
    4    0    8      4.16      0.00
    5    0    8      0.66      0.00
    6    0    8     -1.17      0.00
    7    0    8      1.62      0.00
   -7    1    8      1.26      0.00
   -6    1    8      0.72      0.00
   -5    1    8      1.38      0.00
   -4    1    8     -1.16      0.00
   -3    1    8     -1.54      0.00
   -2    1    8     -1.98      0.00
   -1    1    8     -0.53      0.00
    0    1    8     -2.01      0.00
    1    1    8      3.98      0.00
    2    1    8      1.92      0.00
    3    1    8      1.22      0.00
    4    1    8      2.25      0.00
    5    1    8      1.30      0.00
    6    1    8     -0.70      0.00
    7    1    8      2.92      0.00
   -7    2    8      0.07      0.00
   -6    2    8     -0.88      0.00
   -5    2    8      0.92      0.00
   -4    2    8      0.30      0.00
   -3    2    8     -0.12      0.00
   -2    2    8      1.04      0.00
   -1    2    8      3.99      0.00
    0    2    8      2.36      0.00
    1    2    8      2.35      0.00
    2    2    8      2.93      0.00
    3    2    8      1.94      0.00
    4    2    8     -1.57      0.00
    5    2    8      2.54      0.00
    6    2    8      0.30      0.00
    7    2    8      1.42      0.00
   -7    3    8     -1.18      0.00
   -6    3    8      0.68      0.00
   -5    3    8      1.33      0.00
   -4    3    8      0.79      0.00
   -3    3    8      1.71      0.00
   -2    3    8      3.60      0.00
   -1    3    8      4.56      0.00
    0    3    8      3.65      0.00
    1    3    8      0.23      0.00
    2    3    8      1.70      0.00
    3    3    8      1.30      0.00
    4    3    8     -1.05      0.00
    5    3    8      2.63      0.00
    6    3    8      0.49      0.00
    7    3    8     -0.55      0.00
   -7    4    8     -0.38      0.00
   -6    4    8      1.80      0.00
   -5    4    8      4.00      0.00
   -4    4    8      1.60      0.00
   -3    4    8      2.30      0.00
   -2    4    8      4.36      0.00
   -1    4    8      1.82      0.00
    0    4    8      2.58      0.00
    1    4    8      0.28      0.00
    2    4    8     -2.10      0.00
    3    4    8     -0.80      0.00
    4    4    8      0.73      0.00
    5    4    8      2.54      0.00
    6    4    8      1.53      0.00
   -7    5    8      0.44      0.00
   -6    5    8     -0.48      0.00
   -5    5    8      3.74      0.00
   -4    5    8      1.25      0.00
   -3    5    8      0.82      0.00
   -2    5    8      2.94      0.00
   -1    5    8     -0.84      0.00
    0    5    8     -0.51      0.00
    1    5    8     -0.46      0.00
    2    5    8     -3.27      0.00
    3    5    8     -1.49      0.00
    4    5    8      0.99      0.00
    5    5    8      2.09      0.00
    6    5    8      3.86      0.00
   -6    6    8     -1.30      0.00
   -5    6    8      0.19      0.00
   -4    6    8     -0.73      0.00
   -3    6    8     -0.63      0.00
   -2    6    8      1.19      0.00
   -1    6    8     -2.01      0.00
    0    6    8     -1.74      0.00
    1    6    8     -1.75      0.00
    2    6    8     -1.11      0.00
    3    6    8      0.45      0.00
    4    6    8      0.94      0.00
    5    6    8      1.62      0.00
    6    6    8      4.38      0.00
   -6    7    8      0.60      0.00
   -5    7    8     -0.56      0.00
   -4    7    8     -1.39      0.00
   -3    7    8     -1.55      0.00
   -2    7    8      0.76      0.00
   -1    7    8     -2.02      0.00
    0    7    8      0.13      0.00
    1    7    8     -1.02      0.00
    2    7    8      0.94      0.00
    3    7    8      1.33      0.00
    4    7    8      0.35      0.00
    5    7    8      0.86      0.00
   -6    8    8      1.49      0.00
   -5    8    8      0.54      0.00
   -4    8    8     -0.98      0.00
   -3    8    8     -1.16      0.00
   -2    8    8      0.97      0.00
   -1    8    8     -1.39      0.00
    0    8    8      1.07      0.00
    1    8    8      0.19      0.00
    2    8    8      0.99      0.00
    3    8    8      0.21      0.00
    4    8    8     -0.75      0.00
    5    8    8     -0.57      0.00
   -6    9    8      1.15      0.00
   -5    9    8     -1.29      0.00
   -4    9    8      0.33      0.00
   -3    9    8     -0.47      0.00
   -2    9    8      1.43      0.00
   -1    9    8     -0.67      0.00
    0    9    8     -0.38      0.00
    1    9    8      0.71      0.00
    2    9    8     -0.67      0.00
    3    9    8     -0.43      0.00
    4    9    8     -1.49      0.00
   -5   10    8     -1.43      0.00
   -4   10    8      1.08      0.00
   -3   10    8      0.03      0.00
   -2   10    8      0.82      0.00
   -1   10    8     -0.08      0.00
    0   10    8     -1.06      0.00
    1   10    8     -0.05      0.00
    2   10    8     -1.41      0.00
    3   10    8     -0.74      0.00
    4   10    8     -1.46      0.00
   -5   11    8      1.23      0.00
   -4   11    8      0.43      0.00
   -3   11    8      0.65      0.00
   -2   11    8     -0.91      0.00
   -1   11    8     -0.01      0.00
    0   11    8     -0.08      0.00
    1   11    8     -1.25      0.00
    2   11    8     -1.93      0.00
    3   11    8     -0.18      0.00
   -4   12    8      0.52      0.00
   -3   12    8      0.26      0.00
   -2   12    8     -1.24      0.00
   -1   12    8     -0.13      0.00
    0   12    8      0.56      0.00
    1   12    8      0.04      0.00
    2   12    8     -3.81      0.00
   -4   13    8      0.43      0.00
   -3   13    8     -0.15      0.00
   -2   13    8     -0.81      0.00
   -1   13    8      0.46      0.00
    0   13    8      0.48      0.00
    1   13    8      1.05      0.00
    2   13    8     -2.97      0.00
   -2   14    8     -0.62      0.00
   -1   14    8      0.50      0.00
    0   14    8     -0.32      0.00
    1   14    8     -0.62      0.00
    0  -17    9     -1.76      0.00
    1  -17    9      0.55      0.00
   -3  -16    9      3.33      0.00
   -2  -16    9     -0.21      0.00
   -1  -16    9     -1.42      0.00
    0  -16    9      0.04      0.00
    1  -16    9      0.69      0.00
    2  -16    9      0.72      0.00
   -3  -15    9      2.81      0.00
   -2  -15    9     -0.06      0.00
   -1  -15    9     -1.15      0.00
    0  -15    9     -0.11      0.00
    1  -15    9     -1.16      0.00
    2  -15    9      0.86      0.00
    3  -15    9     -1.06      0.00
   -4  -14    9     -0.31      0.00
   -3  -14    9     -0.18      0.00
   -2  -14    9      0.40      0.00
   -1  -14    9     -0.76      0.00
    0  -14    9     -1.63      0.00
    1  -14    9     -0.54      0.00
    2  -14    9     -0.98      0.00
    3  -14    9     -1.99      0.00
    4  -14    9      0.42      0.00
   -4  -13    9      0.51      0.00
   -3  -13    9     -1.06      0.00
   -2  -13    9      1.54      0.00
   -1  -13    9     -0.74      0.00
    0  -13    9     -0.72      0.00
    1  -13    9      1.55      0.00
    2  -13    9     -2.50      0.00
    3  -13    9     -2.63      0.00
    4  -13    9      2.00      0.00
    5  -13    9      0.18      0.00
   -5  -12    9     -0.07      0.00
   -4  -12    9     -0.65      0.00
   -3  -12    9     -1.91      0.00
   -2  -12    9      0.87      0.00
   -1  -12    9     -0.36      0.00
    0  -12    9     -0.03      0.00
    1  -12    9     -0.34      0.00
    2  -12    9     -1.86      0.00
    3  -12    9     -1.08      0.00
    4  -12    9      2.63      0.00
    5  -12    9     -0.08      0.00
   -5  -11    9     -2.07      0.00
   -4  -11    9     -2.77      0.00
   -3  -11    9     -4.76      0.00
   -2  -11    9     -1.65      0.00
   -1  -11    9     -0.57      0.00
    0  -11    9     -1.94      0.00
    1  -11    9     -2.35      0.00
    2  -11    9     -0.90      0.00
    3  -11    9      0.84      0.00
    4  -11    9      2.21      0.00
    5  -11    9     -0.16      0.00
   -5  -10    9     -1.12      0.00
   -4  -10    9     -2.26      0.00
   -3  -10    9     -3.81      0.00
   -2  -10    9     -2.55      0.00
   -1  -10    9     -0.94      0.00
    0  -10    9     -1.62      0.00
    1  -10    9     -0.63      0.00
    2  -10    9     -0.29      0.00
    3  -10    9      1.00      0.00
    4  -10    9      2.52      0.00
    5  -10    9     -0.78      0.00
   -5   -9    9     -0.26      0.00
   -4   -9    9      1.96      0.00
   -3   -9    9      0.03      0.00
   -2   -9    9      0.36      0.00
   -1   -9    9      0.61      0.00
    0   -9    9      0.60      0.00
    1   -9    9      1.02      0.00
    2   -9    9      0.98      0.00
    3   -9    9      0.45      0.00
    4   -9    9      1.87      0.00
    5   -9    9     -1.14      0.00
   -6   -8    9      0.93      0.00
   -5   -8    9     -0.85      0.00
   -4   -8    9      2.94      0.00
   -3   -8    9      1.47      0.00
   -2   -8    9      4.18      0.00
   -1   -8    9      1.77      0.00
    0   -8    9      0.58      0.00
    1   -8    9      1.29      0.00
    2   -8    9      0.75      0.00
    3   -8    9      0.02      0.00
    4   -8    9      0.27      0.00
    5   -8    9      0.22      0.00
   -6   -7    9     -0.34      0.00
   -5   -7    9     -0.31      0.00
   -4   -7    9     -0.90      0.00
   -3   -7    9      0.82      0.00
   -2   -7    9      3.75      0.00
   -1   -7    9      1.20      0.00
    0   -7    9     -0.75      0.00
    1   -7    9      0.09      0.00
    2   -7    9     -0.39      0.00
    3   -7    9     -0.43      0.00
    4   -7    9     -0.48      0.00
    5   -7    9      1.34      0.00
    6   -7    9     -1.07      0.00
   -6   -6    9     -1.19      0.00
   -5   -6    9     -0.05      0.00
   -4   -6    9     -1.78      0.00
   -3   -6    9     -0.89      0.00
   -2   -6    9      0.25      0.00
   -1   -6    9     -0.24      0.00
    0   -6    9     -2.30      0.00
    1   -6    9     -3.04      0.00
    2   -6    9      0.56      0.00
    3   -6    9     -0.77      0.00
    4   -6    9     -0.49      0.00
    5   -6    9      0.92      0.00
    6   -6    9      0.56      0.00
   -6   -5    9     -2.19      0.00
   -5   -5    9      0.18      0.00
   -4   -5    9     -0.69      0.00
   -3   -5    9     -1.88      0.00
   -2   -5    9     -1.61      0.00
   -1   -5    9     -3.93      0.00
    0   -5    9     -2.76      0.00
    1   -5    9     -3.62      0.00
    2   -5    9      1.44      0.00
    3   -5    9     -0.27      0.00
    4   -5    9     -0.24      0.00
    5   -5    9      0.65      0.00
    6   -5    9      2.21      0.00
   -6   -4    9     -2.64      0.00
   -5   -4    9      0.34      0.00
   -4   -4    9     -0.27      0.00
   -3   -4    9     -2.23      0.00
   -2   -4    9     -0.46      0.00
   -1   -4    9     -5.38      0.00
    0   -4    9     -0.11      0.00
    1   -4    9      0.11      0.00
    2   -4    9      1.41      0.00
    3   -4    9      1.07      0.00
    4   -4    9     -0.15      0.00
    5   -4    9      0.85      0.00
    6   -4    9      1.76      0.00
   -6   -3    9     -0.60      0.00
   -5   -3    9      0.33      0.00
   -4   -3    9      0.45      0.00
   -3   -3    9     -1.72      0.00
   -2   -3    9      2.43      0.00
   -1   -3    9     -0.41      0.00
    0   -3    9      4.34      0.00
    1   -3    9      2.57      0.00
    2   -3    9      1.54      0.00
    3   -3    9      0.95      0.00
    4   -3    9      0.13      0.00
    5   -3    9     -0.15      0.00
    6   -3    9     -0.80      0.00
    7   -3    9     -1.70      0.00
   -7   -2    9      2.79      0.00
   -6   -2    9      0.06      0.00
   -5   -2    9      2.17      0.00
   -4   -2    9     -0.24      0.00
   -3   -2    9      2.16      0.00
   -2   -2    9      3.88      0.00
   -1   -2    9      3.73      0.00
    0   -2    9      7.50      0.00
    1   -2    9      0.54      0.00
    2   -2    9     -0.25      0.00
    3   -2    9     -0.79      0.00
    4   -2    9     -0.84      0.00
    5   -2    9     -0.75      0.00
    6   -2    9     -1.21      0.00
    7   -2    9     -0.77      0.00
   -7   -1    9     -0.10      0.00
   -6   -1    9     -2.37      0.00
   -5   -1    9      2.07      0.00
   -4   -1    9      0.53      0.00
   -3   -1    9      4.37      0.00
   -2   -1    9      2.39      0.00
   -1   -1    9      2.28      0.00
    0   -1    9      5.68      0.00
    1   -1    9     -2.77      0.00
    2   -1    9     -2.10      0.00
    3   -1    9     -1.22      0.00
    4   -1    9     -3.58      0.00
    5   -1    9      0.28      0.00
    6   -1    9      0.87      0.00
   -7    0    9     -2.26      0.00
   -6    0    9     -2.76      0.00
   -5    0    9     -0.74      0.00
   -4    0    9      2.11      0.00
   -3    0    9      1.76      0.00
   -2    0    9      0.29      0.00
   -1    0    9     -1.13      0.00
    0    0    9     -0.12      0.00
    1    0    9     -3.59      0.00
    2    0    9     -1.68      0.00
    3    0    9     -0.63      0.00
    4    0    9     -2.57      0.00
    5    0    9     -0.57      0.00
    6    0    9      0.94      0.00
    7    0    9     -2.42      0.00
   -7    1    9     -0.84      0.00
   -6    1    9     -0.47      0.00
   -5    1    9     -1.30      0.00
   -4    1    9      0.54      0.00
   -3    1    9     -0.80      0.00
   -2    1    9     -1.58      0.00
   -1    1    9     -3.40      0.00
    0    1    9     -3.63      0.00
    1    1    9     -1.58      0.00
    2    1    9     -1.95      0.00
    3    1    9     -1.07      0.00
    4    1    9      1.60      0.00
    5    1    9     -2.42      0.00
    6    1    9     -0.09      0.00
    7    1    9     -2.06      0.00
   -7    2    9      1.10      0.00
   -6    2    9     -0.21      0.00
   -5    2    9     -1.18      0.00
   -4    2    9     -0.58      0.00
   -3    2    9     -2.22      0.00
   -2    2    9     -3.58      0.00
   -1    2    9     -2.83      0.00
    0    2    9     -3.37      0.00
    1    2    9      0.41      0.00
    2    2    9     -1.42      0.00
    3    2    9     -1.04      0.00
    4    2    9      1.63      0.00
    5    2    9     -1.99      0.00
    6    2    9      1.02      0.00
    7    2    9     -0.04      0.00
   -7    3    9      0.08      0.00
   -6    3    9     -1.16      0.00
   -5    3    9     -2.55      0.00
   -4    3    9     -1.08      0.00
   -3    3    9     -2.34      0.00
   -2    3    9     -3.63      0.00
   -1    3    9     -0.23      0.00
    0    3    9     -1.40      0.00
    1    3    9      0.22      0.00
    2    3    9      2.21      0.00
    3    3    9      0.73      0.00
    4    3    9     -0.70      0.00
    5    3    9     -1.87      0.00
    6    3    9      1.35      0.00
   -6    4    9      0.40      0.00
   -5    4    9     -2.78      0.00
   -4    4    9     -1.84      0.00
   -3    4    9     -1.17      0.00
   -2    4    9     -1.22      0.00
   -1    4    9      1.83      0.00
    0    4    9      1.13      0.00
    1    4    9     -0.05      0.00
    2    4    9      3.43      0.00
    3    4    9      1.68      0.00
    4    4    9     -0.87      0.00
    5    4    9     -2.48      0.00
    6    4    9     -1.88      0.00
   -6    5    9      1.17      0.00
   -5    5    9     -0.51      0.00
   -4    5    9     -0.27      0.00
   -3    5    9     -0.74      0.00
   -2    5    9     -0.17      0.00
   -1    5    9      2.85      0.00
    0    5    9      1.68      0.00
    1    5    9      1.03      0.00
    2    5    9      0.57      0.00
    3    5    9      0.13      0.00
    4    5    9      0.00      0.00
    5    5    9     -1.66      0.00
    6    5    9     -4.11      0.00
   -6    6    9     -0.86      0.00
   -5    6    9      1.13      0.00
   -4    6    9      1.40      0.00
   -3    6    9     -0.47      0.00
   -2    6    9     -1.48      0.00
   -1    6    9      2.43      0.00
    0    6    9     -0.32      0.00
    1    6    9      1.16      0.00
    2    6    9     -1.17      0.00
    3    6    9     -1.23      0.00
    4    6    9      0.90      0.00
    5    6    9     -0.32      0.00
   -6    7    9     -1.00      0.00
   -5    7    9      0.36      0.00
   -4    7    9      1.11      0.00
   -3    7    9     -0.10      0.00
   -2    7    9     -1.80      0.00
   -1    7    9      0.75      0.00
    0    7    9     -1.54      0.00
    1    7    9     -0.15      0.00
    2    7    9     -0.70      0.00
    3    7    9     -0.76      0.00
    4    7    9      0.98      0.00
    5    7    9      1.01      0.00
   -6    8    9      0.52      0.00
   -5    8    9      0.95      0.00
   -4    8    9     -0.60      0.00
   -3    8    9      0.58      0.00
   -2    8    9     -1.18      0.00
   -1    8    9     -0.01      0.00
    0    8    9     -0.20      0.00
    1    8    9     -1.17      0.00
    2    8    9      0.21      0.00
    3    8    9     -0.13      0.00
    4    8    9      0.11      0.00
   -5    9    9      1.59      0.00
   -4    9    9     -1.93      0.00
   -3    9    9      1.31      0.00
   -2    9    9     -0.38      0.00
   -1    9    9      0.33      0.00
    0    9    9      1.05      0.00
    1    9    9     -0.38      0.00
    2    9    9      0.57      0.00
    3    9    9      0.08      0.00
    4    9    9      0.01      0.00
   -5   10    9     -0.92      0.00
   -4   10    9     -1.36      0.00
   -3   10    9      0.34      0.00
   -2   10    9      1.59      0.00
   -1   10    9      0.18      0.00
    0   10    9      0.33      0.00
    1   10    9      1.31      0.00
    2   10    9      0.36      0.00
    3   10    9     -0.65      0.00
   -4   11    9     -1.17      0.00
   -3   11    9     -0.59      0.00
   -2   11    9      2.40      0.00
   -1   11    9     -0.42      0.00
    0   11    9     -0.29      0.00
    1   11    9      0.41      0.00
    2   11    9      1.17      0.00
    3   11    9     -2.62      0.00
   -4   12    9     -1.21      0.00
   -3   12    9     -0.33      0.00
   -2   12    9      1.60      0.00
   -1   12    9     -0.72      0.00
    0   12    9      0.38      0.00
    1   12    9     -1.17      0.00
    2   12    9      1.36      0.00
   -3   13    9      0.01      0.00
   -2   13    9      1.36      0.00
   -1   13    9     -0.17      0.00
    0   13    9      1.51      0.00
    1   13    9      0.35      0.00
    0   14    9      1.97      0.00
    0  -17   10     -0.58      0.00
    1  -17   10     -1.48      0.00
   -1  -16   10      1.68      0.00
    0  -16   10      0.50      0.00
    1  -16   10      0.17      0.00
    2  -16   10     -1.09      0.00
   -3  -15   10     -0.70      0.00
   -2  -15   10     -0.02      0.00
   -1  -15   10      1.84      0.00
    0  -15   10      2.24      0.00
    1  -15   10      0.74      0.00
    2  -15   10      0.73      0.00
    3  -15   10      0.99      0.00
   -4  -14   10     -0.03      0.00
   -3  -14   10      0.98      0.00
   -2  -14   10     -0.86      0.00
   -1  -14   10      0.80      0.00
    0  -14   10      1.30      0.00
    1  -14   10     -0.71      0.00
    2  -14   10      1.81      0.00
    3  -14   10      1.50      0.00
    4  -14   10     -2.23      0.00
   -4  -13   10     -0.44      0.00
   -3  -13   10      1.32      0.00
   -2  -13   10     -1.07      0.00
   -1  -13   10      0.05      0.00
    0  -13   10     -1.40      0.00
    1  -13   10      0.07      0.00
    2  -13   10      1.14      0.00
    3  -13   10      1.00      0.00
    4  -13   10     -2.03      0.00
   -5  -12   10      3.35      0.00
   -4  -12   10      0.43      0.00
   -3  -12   10      2.90      0.00
   -2  -12   10      0.15      0.00
   -1  -12   10      0.38      0.00
    0  -12   10     -1.02      0.00
    1  -12   10      1.71      0.00
    2  -12   10      0.72      0.00
    3  -12   10      0.09      0.00
    4  -12   10     -0.56      0.00
    5  -12   10      0.67      0.00
   -5  -11   10      2.61      0.00
   -4  -11   10      0.91      0.00
   -3  -11   10      2.59      0.00
   -2  -11   10      1.54      0.00
   -1  -11   10      0.98      0.00
    0  -11   10      0.06      0.00
    1  -11   10      0.24      0.00
    2  -11   10      0.68      0.00
    3  -11   10      0.46      0.00
    4  -11   10     -1.00      0.00
    5  -11   10      0.81      0.00
   -5  -10   10      0.73      0.00
   -4  -10   10     -1.85      0.00
   -3  -10   10     -0.15      0.00
   -2  -10   10      0.27      0.00
   -1  -10   10     -0.08      0.00
    0  -10   10     -1.18      0.00
    1  -10   10     -1.10      0.00
    2  -10   10     -0.18      0.00
    3  -10   10      0.32      0.00
    4  -10   10     -1.40      0.00
    5  -10   10      0.99      0.00
   -5   -9   10      1.38      0.00
   -4   -9   10     -3.53      0.00
   -3   -9   10     -0.88      0.00
   -2   -9   10     -2.41      0.00
   -1   -9   10     -1.46      0.00
    0   -9   10     -0.64      0.00
    1   -9   10     -0.34      0.00
    2   -9   10     -0.23      0.00
    3   -9   10     -0.47      0.00
    4   -9   10     -0.96      0.00
    5   -9   10      0.56      0.00
   -6   -8   10      0.62      0.00
   -5   -8   10      1.07      0.00
   -4   -8   10      0.66      0.00
   -3   -8   10     -0.80      0.00
   -2   -8   10     -1.82      0.00
   -1   -8   10     -0.44      0.00
    0   -8   10      1.65      0.00
    1   -8   10      0.53      0.00
    2   -8   10      1.05      0.00
    3   -8   10     -0.45      0.00
    4   -8   10     -1.62      0.00
    5   -8   10     -0.75      0.00
   -6   -7   10      0.91      0.00
   -5   -7   10      0.83      0.00
   -4   -7   10      3.35      0.00
   -3   -7   10     -0.17      0.00
   -2   -7   10      1.02      0.00
   -1   -7   10      1.25      0.00
    0   -7   10      2.00      0.00
    1   -7   10      2.01      0.00
    2   -7   10      0.60      0.00
    3   -7   10     -0.17      0.00
    4   -7   10     -1.77      0.00
    5   -7   10     -1.11      0.00
   -6   -6   10      1.54      0.00
   -5   -6   10      1.37      0.00
   -4   -6   10      1.68      0.00
   -3   -6   10      1.77      0.00
   -2   -6   10      1.28      0.00
   -1   -6   10      2.59      0.00
    0   -6   10      0.55      0.00
    1   -6   10      2.19      0.00
    2   -6   10     -0.66      0.00
    3   -6   10     -0.17      0.00
    4   -6   10     -0.79      0.00
    5   -6   10     -0.79      0.00
   -6   -5   10      3.00      0.00
   -5   -5   10      0.08      0.00
   -4   -5   10      0.28      0.00
   -3   -5   10      2.20      0.00
   -2   -5   10     -0.50      0.00
   -1   -5   10      2.79      0.00
    0   -5   10     -2.12      0.00
    1   -5   10     -0.94      0.00
    2   -5   10     -0.32      0.00
    3   -5   10     -0.90      0.00
    4   -5   10     -0.14      0.00
    5   -5   10     -0.96      0.00
   -6   -4   10      1.77      0.00
   -5   -4   10     -1.32      0.00
   -4   -4   10     -0.93      0.00
   -3   -4   10      0.65      0.00
   -2   -4   10     -1.79      0.00
   -1   -4   10     -0.26      0.00
    0   -4   10     -5.04      0.00
    1   -4   10     -2.61      0.00
    2   -4   10      0.44      0.00
    3   -4   10     -1.08      0.00
    4   -4   10      0.12      0.00
    5   -4   10     -0.40      0.00
    6   -4   10      0.03      0.00
   -6   -3   10      0.77      0.00
   -5   -3   10     -2.43      0.00
   -4   -3   10     -0.55      0.00
   -3   -3   10     -2.49      0.00
   -2   -3   10     -2.14      0.00
   -1   -3   10     -2.39      0.00
    0   -3   10     -5.89      0.00
    1   -3   10      0.26      0.00
    2   -3   10      1.92      0.00
    3   -3   10      0.81      0.00
    4   -3   10      0.73      0.00
    5   -3   10      0.35      0.00
    6   -3   10      1.82      0.00
   -6   -2   10      3.04      0.00
   -5   -2   10     -2.42      0.00
   -4   -2   10     -0.30      0.00
   -3   -2   10     -4.46      0.00
   -2   -2   10     -1.00      0.00
   -1   -2   10     -0.18      0.00
    0   -2   10     -3.44      0.00
    1   -2   10      3.41      0.00
    2   -2   10      3.20      0.00
    3   -2   10      1.78      0.00
    4   -2   10      2.35      0.00
    5   -2   10     -0.66      0.00
    6   -2   10     -0.09      0.00
   -6   -1   10      4.08      0.00
   -5   -1   10     -0.19      0.00
   -4   -1   10     -2.24      0.00
   -3   -1   10     -1.78      0.00
   -2   -1   10      0.68      0.00
   -1   -1   10      2.38      0.00
    0   -1   10      1.03      0.00
    1   -1   10      2.99      0.00
    2   -1   10      1.86      0.00
    3   -1   10      0.57      0.00
    4   -1   10      1.83      0.00
    5   -1   10     -0.39      0.00
    6   -1   10     -1.32      0.00
   -6    0   10      1.64      0.00
   -5    0   10      1.23      0.00
   -4    0   10     -1.33      0.00
   -3    0   10      2.03      0.00
   -2    0   10      1.90      0.00
   -1    0   10      2.86      0.00
    0    0   10      3.78      0.00
    1    0   10      0.31      0.00
    2    0   10      0.69      0.00
    3    0   10      0.39      0.00
    4    0   10     -1.74      0.00
    5    0   10      1.95      0.00
    6    0   10      0.14      0.00
   -6    1   10     -0.87      0.00
   -5    1   10      1.68      0.00
   -4    1   10      0.66      0.00
   -3    1   10      3.42      0.00
   -2    1   10      3.42      0.00
   -1    1   10      1.29      0.00
    0    1   10      2.91      0.00
    1    1   10     -1.36      0.00
    2    1   10      0.45      0.00
    3    1   10      0.79      0.00
    4    1   10     -2.29      0.00
    5    1   10      1.59      0.00
    6    1   10     -0.46      0.00
   -6    2   10     -1.42      0.00
   -5    2   10      1.69      0.00
   -4    2   10      0.65      0.00
   -3    2   10      2.39      0.00
   -2    2   10      3.24      0.00
   -1    2   10     -1.26      0.00
    0    2   10      0.10      0.00
    1    2   10     -0.87      0.00
    2    2   10     -1.70      0.00
    3    2   10     -0.27      0.00
    4    2   10      0.21      0.00
    5    2   10      0.50      0.00
    6    2   10     -2.21      0.00
   -6    3   10     -1.87      0.00
   -5    3   10      0.90      0.00
   -4    3   10      1.20      0.00
   -3    3   10      0.42      0.00
   -2    3   10     -0.03      0.00
   -1    3   10     -2.57      0.00
    0    3   10     -1.83      0.00
    1    3   10      0.08      0.00
    2    3   10     -2.57      0.00
    3    3   10     -1.00      0.00
    4    3   10      0.49      0.00
    5    3   10      1.56      0.00
    6    3   10     -0.14      0.00
   -6    4   10     -1.75      0.00
   -5    4   10      0.24      0.00
   -4    4   10      0.79      0.00
   -3    4   10      0.13      0.00
   -2    4   10     -1.51      0.00
   -1    4   10     -3.02      0.00
    0    4   10     -1.12      0.00
    1    4   10     -0.18      0.00
    2    4   10      0.11      0.00
    3    4   10     -0.04      0.00
    4    4   10     -1.03      0.00
    5    4   10      0.91      0.00
    6    4   10      2.87      0.00
   -6    5   10      0.31      0.00
   -5    5   10     -0.75      0.00
   -4    5   10     -0.66      0.00
   -3    5   10      0.88      0.00
   -2    5   10      0.83      0.00
   -1    5   10     -2.70      0.00
    0    5   10      0.63      0.00
    1    5   10     -0.76      0.00
    2    5   10      1.50      0.00
    3    5   10      1.22      0.00
    4    5   10     -2.08      0.00
    5    5   10     -1.24      0.00
   -6    6   10      0.30      0.00
   -5    6   10     -0.92      0.00
   -4    6   10     -0.50      0.00
   -3    6   10      1.09      0.00
   -2    6   10      2.01      0.00
   -1    6   10     -0.55      0.00
    0    6   10      0.94      0.00
    1    6   10     -0.02      0.00
    2    6   10      0.51      0.00
    3    6   10      1.61      0.00
    4    6   10     -1.30      0.00
    5    6   10     -2.05      0.00
   -6    7   10     -2.00      0.00
   -5    7   10     -0.63      0.00
   -4    7   10      1.09      0.00
   -3    7   10      0.12      0.00
   -2    7   10      0.92      0.00
   -1    7   10      1.05      0.00
    0    7   10     -0.08      0.00
    1    7   10      1.19      0.00
    2    7   10     -0.09      0.00
    3    7   10      1.31      0.00
    4    7   10      0.88      0.00
    5    7   10     -1.55      0.00
   -5    8   10     -1.12      0.00
   -4    8   10      2.23      0.00
   -3    8   10     -1.72      0.00
   -2    8   10     -0.17      0.00
   -1    8   10      0.21      0.00
    0    8   10     -0.87      0.00
    1    8   10      0.47      0.00
    2    8   10     -0.40      0.00
    3    8   10      0.73      0.00
    4    8   10      1.25      0.00
   -5    9   10      0.27      0.00
   -4    9   10      1.50      0.00
   -3    9   10     -1.53      0.00
   -2    9   10     -1.93      0.00
   -1    9   10     -0.50      0.00
    0    9   10     -0.59      0.00
    1    9   10     -1.45      0.00
    2    9   10     -0.12      0.00
    3    9   10      1.04      0.00
   -4   10   10      1.17      0.00
   -3   10   10     -0.04      0.00
   -2   10   10     -3.04      0.00
   -1   10   10      0.42      0.00
    0   10   10     -0.29      0.00
    1   10   10     -0.87      0.00
    2   10   10      0.67      0.00
    3   10   10      3.00      0.00
   -4   11   10      1.67      0.00
   -3   11   10      0.04      0.00
   -2   11   10     -2.23      0.00
   -1   11   10      0.85      0.00
    0   11   10     -0.87      0.00
    1   11   10      1.09      0.00
    2   11   10      0.61      0.00
   -3   12   10     -0.30      0.00
   -2   12   10     -1.95      0.00
   -1   12   10     -0.37      0.00
    0   12   10     -1.72      0.00
    1   12   10      0.24      0.00
    2   12   10      0.91      0.00
   -1   13   10     -1.50      0.00
    0   13   10     -2.09      0.00
    1   13   10     -1.28      0.00
    1  -17   11      1.25      0.00
   -1  -16   11     -1.82      0.00
    0  -16   11     -1.57      0.00
    1  -16   11      0.96      0.00
    2  -16   11     -0.01      0.00
   -3  -15   11     -1.06      0.00
   -2  -15   11     -0.94      0.00
   -1  -15   11     -0.44      0.00
    0  -15   11     -1.61      0.00
    1  -15   11      0.41      0.00
    2  -15   11     -0.69      0.00
    3  -15   11     -0.46      0.00
   -4  -14   11     -0.08      0.00
   -3  -14   11     -1.90      0.00
   -2  -14   11     -0.93      0.00
   -1  -14   11      0.22      0.00
    0  -14   11      0.53      0.00
    1  -14   11     -0.92      0.00
    2  -14   11     -0.18      0.00
    3  -14   11     -0.53      0.00
    4  -14   11      1.88      0.00
   -4  -13   11      1.09      0.00
   -3  -13   11     -2.18      0.00
   -2  -13   11     -0.46      0.00
   -1  -13   11     -0.22      0.00
    0  -13   11      2.17      0.00
    1  -13   11     -1.21      0.00
    2  -13   11     -0.18      0.00
    3  -13   11     -0.45      0.00
    4  -13   11      0.07      0.00
   -4  -12   11      1.02      0.00
   -3  -12   11     -1.27      0.00
   -2  -12   11     -0.83      0.00
   -1  -12   11     -0.35      0.00
    0  -12   11      1.90      0.00
    1  -12   11      0.64      0.00
    2  -12   11      0.06      0.00
    3  -12   11     -1.54      0.00
    4  -12   11     -0.35      0.00
   -5  -11   11     -2.04      0.00
   -4  -11   11      1.17      0.00
   -3  -11   11      0.96      0.00
   -2  -11   11     -0.61      0.00
   -1  -11   11      0.17      0.00
    0  -11   11      2.10      0.00
    1  -11   11      1.56      0.00
    2  -11   11      0.94      0.00
    3  -11   11     -1.57      0.00
    4  -11   11     -0.44      0.00
   -5  -10   11     -2.25      0.00
   -4  -10   11      2.51      0.00
   -3  -10   11      1.08      0.00
   -2  -10   11      1.03      0.00
   -1  -10   11      1.44      0.00
    0  -10   11      1.50      0.00
    1  -10   11      0.11      0.00
    2  -10   11      0.99      0.00
    3  -10   11     -0.15      0.00
    4  -10   11     -0.66      0.00
    5  -10   11     -1.29      0.00
   -5   -9   11     -1.47      0.00
   -4   -9   11      0.04      0.00
   -3   -9   11      0.65      0.00
   -2   -9   11      0.36      0.00
   -1   -9   11      1.00      0.00
    0   -9   11     -0.89      0.00
    1   -9   11     -1.06      0.00
    2   -9   11     -0.38      0.00
    3   -9   11      0.04      0.00
    4   -9   11      1.19      0.00
    5   -9   11     -0.86      0.00
   -6   -8   11     -0.81      0.00
   -5   -8   11     -0.41      0.00
   -4   -8   11     -3.27      0.00
   -3   -8   11      0.93      0.00
   -2   -8   11     -2.40      0.00
   -1   -8   11     -1.24      0.00
    0   -8   11     -1.45      0.00
    1   -8   11     -1.35      0.00
    2   -8   11     -0.95      0.00
    3   -8   11      0.10      0.00
    4   -8   11      2.39      0.00
    5   -8   11      0.33      0.00
   -6   -7   11     -0.62      0.00
   -5   -7   11     -1.44      0.00
   -4   -7   11     -1.69      0.00
   -3   -7   11     -0.79      0.00
   -2   -7   11     -2.00      0.00
   -1   -7   11     -1.79      0.00
    0   -7   11      0.62      0.00
    1   -7   11     -0.77      0.00
    2   -7   11      0.43      0.00
    3   -7   11      0.76      0.00
    4   -7   11      1.41      0.00
    5   -7   11      0.81      0.00
   -6   -6   11     -2.31      0.00
   -5   -6   11     -0.26      0.00
   -4   -6   11      0.32      0.00
   -3   -6   11     -2.02      0.00
   -2   -6   11      0.60      0.00
   -1   -6   11     -0.69      0.00
    0   -6   11      3.34      0.00
    1   -6   11      1.53      0.00
    2   -6   11      0.96      0.00
    3   -6   11      1.26      0.00
    4   -6   11      0.97      0.00
    5   -6   11      1.30      0.00
   -6   -5   11     -2.03      0.00
   -5   -5   11      2.28      0.00
   -4   -5   11      1.03      0.00
   -3   -5   11     -0.47      0.00
   -2   -5   11      1.00      0.00
   -1   -5   11      0.89      0.00
    0   -5   11      5.14      0.00
    1   -5   11      2.40      0.00
    2   -5   11     -0.35      0.00
    3   -5   11      1.31      0.00
    4   -5   11      0.54      0.00
    5   -5   11      1.26      0.00
   -6   -4   11     -0.83      0.00
   -5   -4   11      2.98      0.00
   -4   -4   11      1.21      0.00
   -3   -4   11      2.32      0.00
   -2   -4   11      0.52      0.00
   -1   -4   11      1.57      0.00
    0   -4   11      4.33      0.00
    1   -4   11     -0.40      0.00
    2   -4   11     -2.17      0.00
    3   -4   11     -0.41      0.00
    4   -4   11     -0.74      0.00
    5   -4   11      0.08      0.00
   -6   -3   11     -2.62      0.00
   -5   -3   11      2.62      0.00
   -4   -3   11      0.64      0.00
   -3   -3   11      4.17      0.00
   -2   -3   11      0.39      0.00
   -1   -3   11     -0.33      0.00
    0   -3   11      1.29      0.00
    1   -3   11     -3.45      0.00
    2   -3   11     -3.45      0.00
    3   -3   11     -1.90      0.00
    4   -3   11     -1.71      0.00
    5   -3   11      0.03      0.00
   -6   -2   11     -3.92      0.00
   -5   -2   11      1.17      0.00
   -4   -2   11      1.55      0.00
   -3   -2   11      1.65      0.00
   -2   -2   11     -0.89      0.00
   -1   -2   11     -2.65      0.00
    0   -2   11     -1.80      0.00
    1   -2   11     -3.26      0.00
    2   -2   11     -2.48      0.00
    3   -2   11     -0.77      0.00
    4   -2   11     -0.96      0.00
    5   -2   11      0.37      0.00
    6   -2   11      1.43      0.00
   -6   -1   11     -1.83      0.00
   -5   -1   11     -0.53      0.00
   -4   -1   11      1.25      0.00
   -3   -1   11     -3.18      0.00
   -2   -1   11     -2.44      0.00
   -1   -1   11     -2.88      0.00
    0   -1   11     -3.34      0.00
    1   -1   11     -0.33      0.00
    2   -1   11     -0.30      0.00
    3   -1   11      0.09      0.00
    4   -1   11      1.98      0.00
    5   -1   11     -1.47      0.00
    6   -1   11      0.56      0.00
   -6    0   11      1.66      0.00
   -5    0   11     -2.17      0.00
   -4    0   11     -0.84      0.00
   -3    0   11     -4.74      0.00
   -2    0   11     -3.42      0.00
   -1    0   11     -0.93      0.00
    0    0   11     -2.23      0.00
    1    0   11      1.95      0.00
    2    0   11      0.75      0.00
    3    0   11     -0.16      0.00
    4    0   11      3.18      0.00
    5    0   11     -1.76      0.00
    6    0   11     -0.33      0.00
   -6    1   11      3.44      0.00
   -5    1   11     -2.33      0.00
   -4    1   11     -0.83      0.00
   -3    1   11     -2.86      0.00
   -2    1   11     -3.12      0.00
   -1    1   11      1.38      0.00
    0    1   11      0.82      0.00
    1    1   11      1.66      0.00
    2    1   11      1.46      0.00
    3    1   11      0.22      0.00
    4    1   11      1.13      0.00
    5    1   11      0.37      0.00
    6    1   11      1.01      0.00
   -6    2   11      2.97      0.00
   -5    2   11     -0.21      0.00
   -4    2   11     -0.43      0.00
   -3    2   11     -0.32      0.00
   -2    2   11     -0.40      0.00
   -1    2   11      1.83      0.00
    0    2   11      2.24      0.00
    1    2   11      0.34      0.00
    2    2   11      1.29      0.00
    3    2   11      0.09      0.00
    4    2   11      0.21      0.00
    5    2   11      0.20      0.00
    6    2   11      0.67      0.00
   -6    3   11      2.14      0.00
   -5    3   11      0.23      0.00
   -4    3   11     -0.24      0.00
   -3    3   11      0.90      0.00
   -2    3   11      1.29      0.00
   -1    3   11      1.47      0.00
    0    3   11      0.35      0.00
    1    3   11     -0.20      0.00
    2    3   11     -0.89      0.00
    3    3   11     -0.98      0.00
    4    3   11      1.29      0.00
    5    3   11      0.07      0.00
    6    3   11     -1.59      0.00
   -6    4   11      0.92      0.00
   -5    4   11     -0.26      0.00
   -4    4   11      0.53      0.00
   -3    4   11      0.54      0.00
   -2    4   11     -0.63      0.00
   -1    4   11      1.39      0.00
    0    4   11     -1.40      0.00
    1    4   11      0.02      0.00
    2    4   11     -2.03      0.00
    3    4   11     -1.84      0.00
    4    4   11      2.04      0.00
    5    4   11      2.27      0.00
    6    4   11     -1.13      0.00
   -6    5   11      0.72      0.00
   -5    5   11      0.37      0.00
   -4    5   11     -0.12      0.00
   -3    5   11     -0.36      0.00
   -2    5   11     -1.80      0.00
   -1    5   11      0.04      0.00
    0    5   11     -0.32      0.00
    1    5   11     -0.28      0.00
    2    5   11     -0.87      0.00
    3    5   11     -2.32      0.00
    4    5   11      1.16      0.00
    5    5   11      3.02      0.00
   -5    6   11      0.04      0.00
   -4    6   11     -1.82      0.00
   -3    6   11     -0.30      0.00
   -2    6   11     -0.06      0.00
   -1    6   11     -1.44      0.00
    0    6   11      1.36      0.00
    1    6   11     -0.97      0.00
    2    6   11      0.15      0.00
    3    6   11     -1.96      0.00
    4    6   11     -0.93      0.00
    5    6   11      1.93      0.00
   -5    7   11     -0.18      0.00
   -4    7   11     -2.50      0.00
   -3    7   11      1.43      0.00
   -2    7   11      1.61      0.00
   -1    7   11     -0.52      0.00
    0    7   11      1.35      0.00
    1    7   11     -0.06      0.00
    2    7   11      1.06      0.00
    3    7   11     -1.03      0.00
    4    7   11     -1.30      0.00
   -5    8   11     -0.31      0.00
   -4    8   11     -1.20      0.00
   -3    8   11      2.18      0.00
   -2    8   11      2.59      0.00
   -1    8   11      0.97      0.00
    0    8   11      0.53      0.00
    1    8   11      1.60      0.00
    2    8   11      1.33      0.00
    3    8   11     -1.15      0.00
    4    8   11      0.01      0.00
   -4    9   11     -0.11      0.00
   -3    9   11      1.18      0.00
   -2    9   11      3.02      0.00
   -1    9   11      0.34      0.00
    0    9   11      0.48      0.00
    1    9   11      0.89      0.00
    2    9   11     -0.51      0.00
    3    9   11     -2.78      0.00
   -4   10   11     -0.66      0.00
   -3   10   11      0.97      0.00
   -2   10   11      1.96      0.00
   -1   10   11     -0.48      0.00
    0   10   11      0.94      0.00
    1   10   11     -0.94      0.00
    2   10   11     -1.31      0.00
   -3   11   11      1.01      0.00
   -2   11   11      1.22      0.00
   -1   11   11      0.49      0.00
    0   11   11      1.00      0.00
    1   11   11     -0.38      0.00
    2   11   11      0.06      0.00
   -2   12   11      1.34      0.00
   -1   12   11      1.44      0.00
    0   12   11      0.90      0.00
    1   12   11      1.10      0.00
   -1   13   11      1.04      0.00
    0   13   11      0.63      0.00
    0  -16   12      0.66      0.00
    1  -16   12     -1.05      0.00
    2  -16   12     -0.02      0.00
   -3  -15   12      2.32      0.00
   -2  -15   12      2.74      0.00
   -1  -15   12     -0.77      0.00
    0  -15   12      0.89      0.00
    1  -15   12      1.15      0.00
    2  -15   12     -0.86      0.00
    3  -15   12      0.22      0.00
   -4  -14   12     -0.56      0.00
   -3  -14   12      3.18      0.00
   -2  -14   12      2.18      0.00
   -1  -14   12      0.49      0.00
    0  -14   12     -0.29      0.00
    1  -14   12      0.62      0.00
    2  -14   12     -0.69      0.00
    3  -14   12      0.32      0.00
   -4  -13   12     -2.10      0.00
   -3  -13   12      1.95      0.00
   -2  -13   12      1.33      0.00
   -1  -13   12     -0.30      0.00
    0  -13   12     -1.53      0.00
    1  -13   12     -1.03      0.00
    2  -13   12     -0.98      0.00
    3  -13   12      1.98      0.00
    4  -13   12      0.41      0.00
   -4  -12   12     -1.07      0.00
   -3  -12   12     -0.78      0.00
   -2  -12   12      1.14      0.00
   -1  -12   12     -0.86      0.00
    0  -12   12     -1.95      0.00
    1  -12   12     -0.57      0.00
    2  -12   12     -2.01      0.00
    3  -12   12      2.70      0.00
    4  -12   12      1.33      0.00
   -5  -11   12      2.46      0.00
   -4  -11   12     -1.17      0.00
   -3  -11   12     -1.48      0.00
   -2  -11   12     -0.21      0.00
   -1  -11   12     -1.21      0.00
    0  -11   12     -1.70      0.00
    1  -11   12      0.66      0.00
    2  -11   12     -1.95      0.00
    3  -11   12      0.84      0.00
    4  -11   12      1.90      0.00
   -5  -10   12      1.10      0.00
   -4  -10   12     -1.22      0.00
   -3  -10   12     -0.94      0.00
   -2  -10   12     -0.66      0.00
   -1  -10   12     -2.03      0.00
    0  -10   12     -0.82      0.00
    1  -10   12      0.69      0.00
    2  -10   12     -1.00      0.00
    3  -10   12      0.20      0.00
    4  -10   12     -0.18      0.00
   -5   -9   12     -1.25      0.00
   -4   -9   12      1.30      0.00
   -3   -9   12     -1.25      0.00
   -2   -9   12      1.51      0.00
   -1   -9   12     -0.47      0.00
    0   -9   12     -0.42      0.00
    1   -9   12     -0.07      0.00
    2   -9   12      0.19      0.00
    3   -9   12      0.30      0.00
    4   -9   12     -1.57      0.00
   -6   -8   12      0.10      0.00
   -5   -8   12     -0.37      0.00
   -4   -8   12      0.96      0.00
   -3   -8   12     -0.09      0.00
   -2   -8   12      2.15      0.00
   -1   -8   12      1.01      0.00
    0   -8   12     -1.34      0.00
    1   -8   12     -1.01      0.00
    2   -8   12     -0.34      0.00
    3   -8   12     -0.66      0.00
    4   -8   12     -0.17      0.00
   -6   -7   12      1.63      0.00
   -5   -7   12     -0.46      0.00
   -4   -7   12     -1.35      0.00
   -3   -7   12      1.04      0.00
   -2   -7   12     -0.17      0.00
   -1   -7   12     -0.32      0.00
    0   -7   12     -3.29      0.00
    1   -7   12     -2.20      0.00
    2   -7   12     -2.04      0.00
    3   -7   12     -1.07      0.00
    4   -7   12     -0.13      0.00
    5   -7   12     -0.39      0.00
   -6   -6   12      2.37      0.00
   -5   -6   12     -3.09      0.00
   -4   -6   12     -1.50      0.00
   -3   -6   12     -0.32      0.00
   -2   -6   12     -0.68      0.00
   -1   -6   12     -1.43      0.00
    0   -6   12     -4.67      0.00
    1   -6   12     -1.92      0.00
    2   -6   12     -1.31      0.00
    3   -6   12     -0.98      0.00
    4   -6   12     -0.80      0.00
    5   -6   12     -0.68      0.00
   -6   -5   12      1.10      0.00
   -5   -5   12     -3.58      0.00
   -4   -5   12     -1.27      0.00
   -3   -5   12     -2.23      0.00
   -2   -5   12      0.65      0.00
   -1   -5   12     -0.86      0.00
    0   -5   12     -3.01      0.00
    1   -5   12      0.54      0.00
    2   -5   12      1.07      0.00
    3   -5   12      0.01      0.00
    4   -5   12      0.53      0.00
    5   -5   12     -0.14      0.00
   -6   -4   12      1.77      0.00
   -5   -4   12     -2.73      0.00
   -4   -4   12     -0.88      0.00
   -3   -4   12     -3.43      0.00
   -2   -4   12      0.53      0.00
   -1   -4   12      0.64      0.00
    0   -4   12      0.58      0.00
    1   -4   12      2.68      0.00
    2   -4   12      2.48      0.00
    3   -4   12      1.40      0.00
    4   -4   12      1.43      0.00
    5   -4   12      0.52      0.00
   -6   -3   12      2.71      0.00
   -5   -3   12     -1.86      0.00
   -4   -3   12     -0.54      0.00
   -3   -3   12     -1.46      0.00
   -2   -3   12      1.07      0.00
   -1   -3   12      2.44      0.00
    0   -3   12      2.58      0.00
    1   -3   12      2.93      0.00
    2   -3   12      2.36      0.00
    3   -3   12      0.73      0.00
    4   -3   12      0.63      0.00
    5   -3   12      0.20      0.00
   -6   -2   12      1.10      0.00
   -5   -2   12     -0.42      0.00
   -4   -2   12     -0.23      0.00
   -3   -2   12      3.56      0.00
   -2   -2   12      3.05      0.00
   -1   -2   12      2.89      0.00
    0   -2   12      2.66      0.00
    1   -2   12      1.11      0.00
    2   -2   12      0.70      0.00
    3   -2   12     -0.22      0.00
    4   -2   12     -1.23      0.00
    5   -2   12      1.01      0.00
   -6   -1   12     -2.10      0.00
   -5   -1   12      1.46      0.00
   -4   -1   12      0.77      0.00
   -3   -1   12      5.10      0.00
   -2   -1   12      3.53      0.00
   -1   -1   12      0.83      0.00
    0   -1   12      1.41      0.00
    1   -1   12     -1.45      0.00
    2   -1   12     -0.91      0.00
    3   -1   12     -0.04      0.00
    4   -1   12     -2.71      0.00
    5   -1   12      2.04      0.00
    6   -1   12     -0.05      0.00
   -6    0   12     -3.97      0.00
   -5    0   12      2.17      0.00
   -4    0   12      0.52      0.00
   -3    0   12      2.45      0.00
   -2    0   12      2.37      0.00
   -1    0   12     -1.39      0.00
    0    0   12     -1.25      0.00
    1    0   12     -1.90      0.00
    2    0   12     -1.00      0.00
    3    0   12     -0.23      0.00
    4    0   12     -2.02      0.00
    5    0   12      0.11      0.00
    6    0   12      0.13      0.00
   -6    1   12     -2.37      0.00
   -5    1   12      0.05      0.00
   -4    1   12     -0.15      0.00
   -3    1   12      0.46      0.00
   -2    1   12      0.91      0.00
   -1    1   12     -0.83      0.00
    0    1   12     -2.39      0.00
    1    1   12     -0.59      0.00
    2    1   12     -0.04      0.00
    3    1   12      0.30      0.00
    4    1   12     -1.12      0.00
    5    1   12     -1.20      0.00
    6    1   12      0.05      0.00
   -6    2   12     -0.90      0.00
   -5    2   12     -0.61      0.00
   -4    2   12     -0.30      0.00
   -3    2   12     -0.48      0.00
   -2    2   12      0.54      0.00
   -1    2   12      0.65      0.00
    0    2   12     -0.13      0.00
    1    2   12      0.28      0.00
    2    2   12      1.29      0.00
    3    2   12      1.62      0.00
    4    2   12     -1.51      0.00
    5    2   12     -0.46      0.00
    6    2   12      1.00      0.00
   -6    3   12     -1.39      0.00
   -5    3   12      1.37      0.00
   -4    3   12     -0.61      0.00
   -3    3   12     -1.07      0.00
   -2    3   12      1.90      0.00
   -1    3   12      1.02      0.00
    0    3   12      1.74      0.00
    1    3   12      0.41      0.00
    2    3   12      1.91      0.00
    3    3   12      2.13      0.00
    4    3   12     -1.48      0.00
    5    3   12     -1.40      0.00
    6    3   12      1.04      0.00
   -6    4   12     -1.58      0.00
   -5    4   12      1.41      0.00
   -4    4   12      0.52      0.00
   -3    4   12     -0.37      0.00
   -2    4   12      2.44      0.00
   -1    4   12      1.60      0.00
    0    4   12      0.19      0.00
    1    4   12      0.65      0.00
    2    4   12      1.16      0.00
    3    4   12      2.17      0.00
    4    4   12     -0.44      0.00
    5    4   12     -2.34      0.00
   -5    5   12      0.83      0.00
   -4    5   12      2.33      0.00
   -3    5   12      0.20      0.00
   -2    5   12     -0.02      0.00
   -1    5   12      2.05      0.00
    0    5   12     -2.28      0.00
    1    5   12      0.71      0.00
    2    5   12     -0.08      0.00
    3    5   12      1.47      0.00
    4    5   12      0.67      0.00
    5    5   12     -1.52      0.00
   -5    6   12      0.92      0.00
   -4    6   12      2.44      0.00
   -3    6   12     -1.15      0.00
   -2    6   12     -3.08      0.00
   -1    6   12      0.60      0.00
    0    6   12     -2.14      0.00
    1    6   12     -0.65      0.00
    2    6   12     -1.69      0.00
    3    6   12      0.43      0.00
    4    6   12      0.21      0.00
   -5    7   12      0.40      0.00
   -4    7   12      0.82      0.00
   -3    7   12     -2.40      0.00
   -2    7   12     -3.73      0.00
   -1    7   12     -1.30      0.00
    0    7   12     -0.31      0.00
    1    7   12     -1.79      0.00
    2    7   12     -2.70      0.00
    3    7   12      0.91      0.00
    4    7   12     -1.00      0.00
   -4    8   12     -0.75      0.00
   -3    8   12     -2.09      0.00
   -2    8   12     -2.82      0.00
   -1    8   12     -1.28      0.00
    0    8   12      0.05      0.00
    1    8   12     -0.31      0.00
    2    8   12     -0.90      0.00
    3    8   12      2.18      0.00
   -4    9   12     -0.77      0.00
   -3    9   12     -1.78      0.00
   -2    9   12     -1.58      0.00
   -1    9   12     -0.83      0.00
    0    9   12     -0.72      0.00
    1    9   12      1.49      0.00
    2    9   12      0.60      0.00
    3    9   12      2.24      0.00
   -3   10   12     -1.33      0.00
   -2   10   12     -0.21      0.00
   -1   10   12     -1.35      0.00
    0   10   12     -0.47      0.00
    1   10   12      0.73      0.00
    2   10   12     -1.43      0.00
   -2   11   12      0.30      0.00
   -1   11   12     -0.82      0.00
    0   11   12      0.44      0.00
    1   11   12     -0.85      0.00
   -1   12   12      0.13      0.00
    1   12   12     -0.69      0.00
    0  -16   13     -1.12      0.00
    1  -16   13     -0.72      0.00
    2  -16   13      1.50      0.00
   -1  -15   13     -0.91      0.00
    0  -15   13     -1.62      0.00
    1  -15   13      0.99      0.00
    2  -15   13      1.94      0.00
    3  -15   13      0.22      0.00
   -4  -14   13      1.24      0.00
   -3  -14   13     -3.20      0.00
   -2  -14   13     -1.43      0.00
   -1  -14   13      0.10      0.00
    0  -14   13     -0.65      0.00
    1  -14   13      2.20      0.00
    2  -14   13      1.91      0.00
    3  -14   13     -1.65      0.00
   -4  -13   13      0.93      0.00
   -3  -13   13     -0.41      0.00
   -2  -13   13     -1.03      0.00
   -1  -13   13      1.12      0.00
    0  -13   13     -0.09      0.00
    1  -13   13     -0.99      0.00
    2  -13   13      2.53      0.00
    3  -13   13     -3.45      0.00
   -4  -12   13      0.15      0.00
   -3  -12   13      1.26      0.00
   -2  -12   13     -0.25      0.00
   -1  -12   13     -0.15      0.00
    0  -12   13     -0.43      0.00
    1  -12   13     -2.81      0.00
    2  -12   13      1.97      0.00
    3  -12   13     -1.63      0.00
    4  -12   13     -1.78      0.00
   -4  -11   13      1.98      0.00
   -3  -11   13      0.92      0.00
   -2  -11   13      0.85      0.00
   -1  -11   13      0.87      0.00
    0  -11   13      0.19      0.00
    1  -11   13     -0.96      0.00
    2  -11   13      1.38      0.00
    3  -11   13      0.04      0.00
    4  -11   13      0.37      0.00
   -5  -10   13      3.05      0.00
   -4  -10   13      1.50      0.00
   -3  -10   13      0.90      0.00
   -2  -10   13      0.49      0.00
   -1  -10   13      1.64      0.00
    0  -10   13      1.45      0.00
    1  -10   13      0.98      0.00
    2  -10   13      0.54      0.00
    3  -10   13      0.07      0.00
    4  -10   13      1.49      0.00
   -5   -9   13      2.61      0.00
   -4   -9   13      0.15      0.00
   -3   -9   13      0.33      0.00
   -2   -9   13     -0.54      0.00
   -1   -9   13      0.16      0.00
    0   -9   13      1.80      0.00
    1   -9   13      2.01      0.00
    2   -9   13     -0.20      0.00
    3   -9   13      0.83      0.00
    4   -9   13     -0.90      0.00
   -6   -8   13     -1.15      0.00
   -5   -8   13      1.31      0.00
   -4   -8   13      1.78      0.00
   -3   -8   13      0.22      0.00
   -2   -8   13      0.23      0.00
   -1   -8   13      0.84      0.00
    0   -8   13      2.54      0.00
    1   -8   13      2.44      0.00
    2   -8   13      1.68      0.00
    3   -8   13      0.83      0.00
    4   -8   13     -1.66      0.00
   -6   -7   13     -2.72      0.00
   -5   -7   13      3.31      0.00
   -4   -7   13      2.35      0.00
   -3   -7   13      2.08      0.00
   -2   -7   13      1.19      0.00
   -1   -7   13      2.21      0.00
    0   -7   13      3.77      0.00
    1   -7   13      1.30      0.00
    2   -7   13      2.48      0.00
    3   -7   13      0.24      0.00
    4   -7   13     -0.21      0.00
   -6   -6   13     -1.91      0.00
   -5   -6   13      3.95      0.00
   -4   -6   13      1.21      0.00
   -3   -6   13      2.81      0.00
   -2   -6   13     -0.27      0.00
   -1   -6   13      0.87      0.00
    0   -6   13      2.09      0.00
    1   -6   13     -0.97      0.00
    2   -6   13      0.18      0.00
    3   -6   13      0.08      0.00
    4   -6   13     -0.69      0.00
   -6   -5   13     -1.41      0.00
   -5   -5   13      2.65      0.00
   -4   -5   13      0.38      0.00
   -3   -5   13      2.29      0.00
   -2   -5   13     -1.57      0.00
   -1   -5   13     -1.26      0.00
    0   -5   13     -1.81      0.00
    1   -5   13     -1.88      0.00
    2   -5   13     -1.23      0.00
    3   -5   13     -0.47      0.00
    4   -5   13     -1.11      0.00
   -6   -4   13     -1.41      0.00
   -5   -4   13      2.00      0.00
   -4   -4   13     -0.42      0.00
   -3   -4   13      1.05      0.00
   -2   -4   13     -1.84      0.00
   -1   -4   13     -2.50      0.00
    0   -4   13     -2.91      0.00
    1   -4   13     -1.50      0.00
    2   -4   13     -1.29      0.00
    3   -4   13     -0.10      0.00
    4   -4   13     -0.13      0.00
    5   -4   13     -0.43      0.00
   -6   -3   13     -0.16      0.00
   -5   -3   13      0.88      0.00
   -4   -3   13     -0.84      0.00
   -3   -3   13     -2.63      0.00
   -2   -3   13     -3.00      0.00
   -1   -3   13     -2.50      0.00
    0   -3   13     -1.41      0.00
    1   -3   13     -0.92      0.00
    2   -3   13     -0.83      0.00
    3   -3   13      0.41      0.00
    4   -3   13      0.27      0.00
    5   -3   13     -0.23      0.00
   -6   -2   13      2.09      0.00
   -5   -2   13     -0.48      0.00
   -4   -2   13     -0.75      0.00
   -3   -2   13     -4.12      0.00
   -2   -2   13     -3.02      0.00
   -1   -2   13     -0.22      0.00
    0   -2   13     -0.42      0.00
    1   -2   13      0.55      0.00
    2   -2   13      0.02      0.00
    3   -2   13     -0.44      0.00
    4   -2   13      0.89      0.00
    5   -2   13     -1.33      0.00
   -6   -1   13      3.72      0.00
   -5   -1   13     -0.59      0.00
   -4   -1   13      0.13      0.00
   -3   -1   13     -1.00      0.00
   -2   -1   13     -0.90      0.00
   -1   -1   13      2.17      0.00
    0   -1   13      0.80      0.00
    1   -1   13      1.37      0.00
    2   -1   13     -0.40      0.00
    3   -1   13     -0.80      0.00
    4   -1   13      1.39      0.00
    5   -1   13     -0.74      0.00
   -6    0   13      1.56      0.00
   -5    0   13      1.15      0.00
   -4    0   13      0.79      0.00
   -3    0   13      0.50      0.00
   -2    0   13      0.01      0.00
   -1    0   13      1.20      0.00
    0    0   13      1.66      0.00
    1    0   13      0.22      0.00
    2    0   13     -1.56      0.00
    3    0   13     -1.03      0.00
    4    0   13      1.06      0.00
    5    0   13      0.93      0.00
   -6    1   13     -0.85      0.00
   -5    1   13      1.50      0.00
   -4    1   13      0.46      0.00
   -3    1   13     -0.14      0.00
   -2    1   13     -1.48      0.00
   -1    1   13     -1.18      0.00
    0    1   13      0.15      0.00
    1    1   13     -0.86      0.00
    2    1   13     -1.49      0.00
    3    1   13     -1.72      0.00
    4    1   13      1.38      0.00
    5    1   13     -0.19      0.00
   -6    2   13      0.81      0.00
   -5    2   13     -1.57      0.00
   -4    2   13      0.27      0.00
   -3    2   13      0.30      0.00
   -2    2   13     -2.87      0.00
   -1    2   13     -2.14      0.00
    0    2   13     -1.23      0.00
    1    2   13     -0.88      0.00
    2    2   13     -0.84      0.00
    3    2   13     -1.48      0.00
    4    2   13      1.52      0.00
    5    2   13     -1.18      0.00
    6    2   13     -1.04      0.00
   -5    3   13     -3.13      0.00
   -4    3   13     -0.89      0.00
   -3    3   13     -0.14      0.00
   -2    3   13     -2.72      0.00
   -1    3   13     -2.60      0.00
    0    3   13      0.17      0.00
    1    3   13     -0.73      0.00
    2    3   13     -0.56      0.00
    3    3   13     -0.99      0.00
    4    3   13      0.34      0.00
    5    3   13     -0.20      0.00
   -5    4   13     -1.76      0.00
   -4    4   13     -2.62      0.00
   -3    4   13     -1.15      0.00
   -2    4   13     -0.70      0.00
   -1    4   13     -2.40      0.00
    0    4   13      2.62      0.00
    1    4   13     -0.28      0.00
    2    4   13      0.05      0.00
    3    4   13     -0.39      0.00
    4    4   13     -0.52      0.00
    5    4   13      0.10      0.00
   -5    5   13     -0.40      0.00
   -4    5   13     -2.16      0.00
   -3    5   13     -0.04      0.00
   -2    5   13      2.88      0.00
   -1    5   13     -0.48      0.00
    0    5   13      2.75      0.00
    1    5   13      1.30      0.00
    2    5   13      1.53      0.00
    3    5   13      0.24      0.00
    4    5   13      0.48      0.00
   -5    6   13      0.54      0.00
   -4    6   13     -0.44      0.00
   -3    6   13      1.75      0.00
   -2    6   13      4.03      0.00
   -1    6   13      1.46      0.00
    0    6   13      0.40      0.00
    1    6   13      2.06      0.00
    2    6   13      2.73      0.00
    3    6   13     -0.72      0.00
    4    6   13      1.99      0.00
   -4    7   13      0.57      0.00
   -3    7   13      2.26      0.00
   -2    7   13      1.97      0.00
   -1    7   13      1.50      0.00
    0    7   13     -0.71      0.00
    1    7   13     -0.08      0.00
    2    7   13      1.80      0.00
    3    7   13     -1.53      0.00
   -4    8   13      0.90      0.00
   -3    8   13      1.93      0.00
   -2    8   13      1.10      0.00
   -1    8   13      1.68      0.00
    0    8   13      0.02      0.00
    1    8   13     -2.19      0.00
    2    8   13      0.72      0.00
    3    8   13     -0.36      0.00
   -3    9   13      0.82      0.00
   -2    9   13      0.53      0.00
   -1    9   13      2.88      0.00
    0    9   13     -0.09      0.00
    1    9   13     -1.73      0.00
    2    9   13      2.47      0.00
   -3   10   13     -0.47      0.00
   -2   10   13     -1.33      0.00
   -1   10   13      1.16      0.00
    0   10   13     -1.12      0.00
    1   10   13     -0.33      0.00
    2   10   13      3.69      0.00
   -2   11   13     -1.83      0.00
   -1   11   13     -1.74      0.00
    1   11   13      0.14      0.00
   -1  -15   14      0.64      0.00
    0  -15   14      1.64      0.00
    1  -15   14     -3.71      0.00
    2  -15   14     -2.22      0.00
   -3  -14   14      0.65      0.00
   -2  -14   14     -0.47      0.00
   -1  -14   14     -0.61      0.00
    0  -14   14      1.72      0.00
    1  -14   14      1.06      0.00
    2  -14   14     -2.39      0.00
    3  -14   14      3.03      0.00
   -4  -13   14      0.53      0.00
   -3  -13   14     -1.54      0.00
   -2  -13   14     -0.74      0.00
   -1  -13   14      1.62      0.00
    0  -13   14      2.67      0.00
    1  -13   14      4.06      0.00
    2  -13   14     -1.32      0.00
    3  -13   14      2.15      0.00
   -4  -12   14     -1.27      0.00
   -3  -12   14     -1.00      0.00
   -2  -12   14     -0.61      0.00
   -1  -12   14      1.97      0.00
    0  -12   14      2.34      0.00
    1  -12   14      1.19      0.00
    2  -12   14     -0.41      0.00
    3  -12   14      0.31      0.00
   -4  -11   14     -2.62      0.00
   -3  -11   14      0.06      0.00
   -2  -11   14     -0.76      0.00
   -1  -11   14     -0.29      0.00
    0  -11   14      0.17      0.00
    1  -11   14     -0.98      0.00
    2  -11   14     -0.33      0.00
    3  -11   14      0.14      0.00
   -5  -10   14     -3.64      0.00
   -4  -10   14     -0.87      0.00
   -3  -10   14      0.27      0.00
   -2  -10   14     -0.72      0.00
   -1  -10   14     -0.19      0.00
    0  -10   14     -0.65      0.00
    1  -10   14     -1.19      0.00
    2  -10   14      0.71      0.00
    3  -10   14     -0.87      0.00
   -5   -9   14     -1.43      0.00
   -4   -9   14     -1.16      0.00
   -3   -9   14     -0.80      0.00
   -2   -9   14      0.03      0.00
   -1   -9   14     -0.37      0.00
    0   -9   14     -1.05      0.00
    1   -9   14     -1.24      0.00
    2   -9   14     -0.52      0.00
    3   -9   14     -1.42      0.00
    4   -9   14      1.98      0.00
   -5   -8   14     -2.12      0.00
   -4   -8   14     -2.36      0.00
   -3   -8   14     -3.05      0.00
   -2   -8   14     -0.50      0.00
   -1   -8   14     -2.02      0.00
    0   -8   14     -2.61      0.00
    1   -8   14     -0.46      0.00
    2   -8   14     -2.52      0.00
    3   -8   14     -0.58      0.00
    4   -8   14      0.61      0.00
   -6   -7   14      2.36      0.00
   -5   -7   14     -3.28      0.00
   -4   -7   14     -0.96      0.00
   -3   -7   14     -2.99      0.00
   -2   -7   14     -0.63      0.00
   -1   -7   14     -1.09      0.00
    0   -7   14     -1.73      0.00
    1   -7   14      0.92      0.00
    2   -7   14     -0.90      0.00
    3   -7   14     -0.57      0.00
    4   -7   14      0.63      0.00
   -6   -6   14      1.54      0.00
   -5   -6   14     -1.97      0.00
   -4   -6   14      0.87      0.00
   -3   -6   14     -0.92      0.00
   -2   -6   14      1.35      0.00
   -1   -6   14      1.55      0.00
    0   -6   14      1.96      0.00
    1   -6   14      1.09      0.00
    2   -6   14      0.70      0.00
    3   -6   14     -0.63      0.00
   -6   -5   14      0.72      0.00
   -5   -5   14     -1.28      0.00
   -4   -5   14      1.50      0.00
   -3   -5   14     -0.33      0.00
   -2   -5   14      2.37      0.00
   -1   -5   14      2.55      0.00
    0   -5   14      2.71      0.00
    1   -5   14      0.10      0.00
    2   -5   14      0.52      0.00
    3   -5   14     -0.82      0.00
    4   -5   14     -0.84      0.00
   -6   -4   14     -0.52      0.00
   -5   -4   14     -0.79      0.00
   -4   -4   14      1.04      0.00
   -3   -4   14      0.77      0.00
   -2   -4   14      1.92      0.00
   -1   -4   14      1.62      0.00
    0   -4   14      0.00      0.00
    1   -4   14     -0.04      0.00
    2   -4   14      0.53      0.00
    3   -4   14     -1.09      0.00
    4   -4   14     -0.45      0.00
   -6   -3   14     -1.65      0.00
   -5   -3   14      0.11      0.00
   -4   -3   14      0.29      0.00
   -3   -3   14      1.89      0.00
   -2   -3   14      1.24      0.00
   -1   -3   14     -0.68      0.00
    0   -3   14     -0.85      0.00
    1   -3   14     -0.12      0.00
    2   -3   14      0.53      0.00
    3   -3   14      0.27      0.00
    4   -3   14      0.10      0.00
    5   -3   14     -0.03      0.00
   -5   -2   14     -0.43      0.00
   -4   -2   14     -0.27      0.00
   -3   -2   14     -0.33      0.00
   -2   -2   14     -0.32      0.00
   -1   -2   14     -2.61      0.00
    0   -2   14      0.11      0.00
    1   -2   14     -0.92      0.00
    2   -2   14      1.48      0.00
    3   -2   14      1.60      0.00
    4   -2   14     -1.13      0.00
    5   -2   14      0.16      0.00
   -5   -1   14     -2.07      0.00
   -4   -1   14     -0.65      0.00
   -3   -1   14     -1.54      0.00
   -2   -1   14     -0.97      0.00
   -1   -1   14     -1.72      0.00
    0   -1   14      0.16      0.00
    1   -1   14     -0.29      0.00
    2   -1   14      2.74      0.00
    3   -1   14      1.90      0.00
    4   -1   14     -0.99      0.00
    5   -1   14     -0.91      0.00
   -5    0   14     -2.05      0.00
   -4    0   14     -0.16      0.00
   -3    0   14      0.20      0.00
   -2    0   14      1.27      0.00
   -1    0   14      0.48      0.00
    0    0   14      0.48      0.00
    1    0   14      1.22      0.00
    2    0   14      1.55      0.00
    3    0   14      2.01      0.00
    4    0   14     -0.55      0.00
    5    0   14      0.70      0.00
   -5    1   14      1.11      0.00
   -4    1   14      0.37      0.00
   -3    1   14      0.54      0.00
   -2    1   14      2.76      0.00
   -1    1   14      1.48      0.00
    0    1   14      0.87      0.00
    1    1   14      1.55      0.00
    2    1   14     -0.43      0.00
    3    1   14      1.01      0.00
    4    1   14     -1.56      0.00
    5    1   14      3.63      0.00
   -5    2   14      3.41      0.00
   -4    2   14      0.97      0.00
   -3    2   14      0.65      0.00
   -2    2   14      1.46      0.00
   -1    2   14      1.74      0.00
    0    2   14     -0.37      0.00
    1    2   14      1.02      0.00
    2    2   14     -0.42      0.00
    3    2   14     -0.12      0.00
    4    2   14     -1.56      0.00
    5    2   14      2.91      0.00
   -5    3   14      1.76      0.00
   -4    3   14      2.26      0.00
   -3    3   14      1.95      0.00
   -2    3   14      0.05      0.00
   -1    3   14      1.18      0.00
    0    3   14     -2.48      0.00
    1    3   14      0.19      0.00
    2    3   14      0.16      0.00
    3    3   14     -0.22      0.00
    4    3   14     -0.52      0.00
    5    3   14      1.04      0.00
   -5    4   14     -1.00      0.00
   -4    4   14      1.95      0.00
   -3    4   14      1.72      0.00
   -2    4   14     -2.12      0.00
   -1    4   14     -0.64      0.00
    0    4   14     -2.99      0.00
    1    4   14     -1.25      0.00
    2    4   14     -0.48      0.00
    3    4   14      0.05      0.00
    4    4   14     -0.73      0.00
    5    4   14      0.70      0.00
   -5    5   14     -2.07      0.00
   -4    5   14      0.40      0.00
   -3    5   14      0.08      0.00
   -2    5   14     -3.43      0.00
   -1    5   14     -2.10      0.00
    0    5   14     -0.99      0.00
    1    5   14     -1.82      0.00
    2    5   14     -1.26      0.00
    3    5   14      1.16      0.00
    4    5   14     -1.85      0.00
   -4    6   14      0.26      0.00
   -3    6   14     -1.34      0.00
   -2    6   14     -0.65      0.00
   -1    6   14     -1.45      0.00
    0    6   14      0.53      0.00
    1    6   14      0.07      0.00
    2    6   14     -0.99      0.00
    3    6   14      1.34      0.00
   -4    7   14      0.35      0.00
   -3    7   14     -1.37      0.00
   -2    7   14      0.48      0.00
   -1    7   14     -0.81      0.00
    0    7   14      0.55      0.00
    1    7   14      1.94      0.00
    2    7   14     -1.15      0.00
    3    7   14     -1.02      0.00
   -3    8   14      0.41      0.00
   -2    8   14     -0.90      0.00
   -1    8   14     -2.44      0.00
    0    8   14      1.36      0.00
    1    8   14      2.02      0.00
    2    8   14     -3.01      0.00
   -3    9   14      1.91      0.00
   -2    9   14      1.13      0.00
   -1    9   14     -1.45      0.00
    0    9   14      2.13      0.00
    1    9   14      1.57      0.00
    2    9   14     -3.64      0.00
   -2   10   14      3.02      0.00
   -1   10   14      2.62      0.00
    0   10   14      1.99      0.00
    1   10   14      0.77      0.00
    0  -15   15     -1.59      0.00
    1  -15   15     -0.57      0.00
    2  -15   15      1.43      0.00
   -2  -14   15      2.22      0.00
   -1  -14   15     -2.15      0.00
    0  -14   15     -2.48      0.00
    1  -14   15     -3.56      0.00
    2  -14   15      0.69      0.00
   -4  -13   15      0.28      0.00
   -3  -13   15      2.11      0.00
   -2  -13   15      1.17      0.00
   -1  -13   15     -3.25      0.00
    0  -13   15     -3.00      0.00
    1  -13   15     -0.34      0.00
    2  -13   15     -0.96      0.00
   -4  -12   15      1.54      0.00
   -3  -12   15     -0.03      0.00
   -2  -12   15     -0.04      0.00
   -1  -12   15     -1.23      0.00
    0  -12   15     -1.64      0.00
    1  -12   15      1.51      0.00
    2  -12   15     -1.05      0.00
    3  -12   15     -1.51      0.00
   -4  -11   15      0.48      0.00
   -3  -11   15     -0.53      0.00
   -2  -11   15      0.59      0.00
   -1  -11   15     -0.46      0.00
    0  -11   15     -0.89      0.00
    1  -11   15      0.22      0.00
    2  -11   15     -1.20      0.00
    3  -11   15     -0.93      0.00
   -4  -10   15      0.14      0.00
   -3  -10   15      1.34      0.00
   -2  -10   15     -0.71      0.00
   -1  -10   15     -0.60      0.00
    0  -10   15     -0.52      0.00
    1  -10   15     -0.55      0.00
    2  -10   15     -0.17      0.00
    3  -10   15      1.06      0.00
   -5   -9   15      0.22      0.00
   -4   -9   15      1.22      0.00
   -3   -9   15      2.86      0.00
   -2   -9   15     -2.27      0.00
   -1   -9   15      0.50      0.00
    0   -9   15      1.48      0.00
    1   -9   15     -0.72      0.00
    2   -9   15      2.22      0.00
    3   -9   15      1.41      0.00
   -5   -8   15      1.23      0.00
   -4   -8   15     -0.01      0.00
   -3   -8   15      1.51      0.00
   -2   -8   15     -0.79      0.00
   -1   -8   15      0.14      0.00
    0   -8   15      1.79      0.00
    1   -8   15     -0.39      0.00
    2   -8   15      1.29      0.00
    3   -8   15      1.49      0.00
   -5   -7   15      0.48      0.00
   -4   -7   15     -2.33      0.00
   -3   -7   15     -0.73      0.00
   -2   -7   15     -0.72      0.00
   -1   -7   15     -2.05      0.00
    0   -7   15     -0.93      0.00
    1   -7   15      0.26      0.00
    2   -7   15     -0.68      0.00
    3   -7   15      1.69      0.00
   -6   -6   15     -0.72      0.00
   -5   -6   15     -0.53      0.00
   -4   -6   15     -2.85      0.00
   -3   -6   15     -0.43      0.00
   -2   -6   15     -2.07      0.00
   -1   -6   15     -2.62      0.00
    0   -6   15     -1.84      0.00
    1   -6   15      0.86      0.00
    2   -6   15     -0.60      0.00
    3   -6   15      1.52      0.00
   -6   -5   15      0.60      0.00
   -5   -5   15     -0.17      0.00
   -4   -5   15     -1.19      0.00
   -3   -5   15      0.56      0.00
   -2   -5   15     -0.63      0.00
   -1   -5   15     -0.65      0.00
    0   -5   15      0.74      0.00
    1   -5   15      0.70      0.00
    2   -5   15     -0.42      0.00
    3   -5   15      1.66      0.00
    4   -5   15      1.38      0.00
   -6   -4   15      1.11      0.00
   -5   -4   15      0.09      0.00
   -4   -4   15      0.67      0.00
   -3   -4   15      0.24      0.00
   -2   -4   15      1.29      0.00
   -1   -4   15      1.80      0.00
    0   -4   15      1.89      0.00
    1   -4   15      0.06      0.00
    2   -4   15     -0.24      0.00
    3   -4   15      0.72      0.00
    4   -4   15      0.15      0.00
   -5   -3   15      0.73      0.00
   -4   -3   15      0.55      0.00
   -3   -3   15      0.99      0.00
   -2   -3   15      1.15      0.00
   -1   -3   15      2.50      0.00
    0   -3   15     -0.14      0.00
    1   -3   15      0.84      0.00
    2   -3   15     -0.89      0.00
    3   -3   15     -0.79      0.00
    4   -3   15      2.18      0.00
   -5   -2   15      1.63      0.00
   -4   -2   15     -0.12      0.00
   -3   -2   15      1.34      0.00
   -2   -2   15      0.32      0.00
   -1   -2   15      0.99      0.00
    0   -2   15     -1.51      0.00
    1   -2   15      1.39      0.00
    2   -2   15     -2.18      0.00
    3   -2   15     -1.33      0.00
    4   -2   15      2.65      0.00
   -5   -1   15      1.03      0.00
   -4   -1   15     -0.47      0.00
   -3   -1   15     -0.73      0.00
   -2   -1   15     -1.51      0.00
   -1   -1   15     -0.55      0.00
    0   -1   15     -1.33      0.00
    1   -1   15     -0.09      0.00
    2   -1   15     -0.82      0.00
    3   -1   15     -1.77      0.00
    4   -1   15      0.43      0.00
    5   -1   15      0.02      0.00
   -5    0   15     -1.44      0.00
   -4    0   15     -0.98      0.00
   -3    0   15     -1.63      0.00
   -2    0   15     -2.74      0.00
   -1    0   15     -0.87      0.00
    0    0   15     -1.06      0.00
    1    0   15     -1.32      0.00
    2    0   15      1.50      0.00
    3    0   15     -1.28      0.00
    4    0   15      1.05      0.00
    5    0   15     -4.03      0.00
   -5    1   15     -2.95      0.00
   -4    1   15     -0.93      0.00
   -3    1   15     -1.14      0.00
   -2    1   15     -0.59      0.00
   -1    1   15     -0.65      0.00
    0    1   15     -0.29      0.00
    1    1   15     -1.15      0.00
    2    1   15      0.95      0.00
    3    1   15      0.15      0.00
    4    1   15      2.99      0.00
    5    1   15     -4.10      0.00
   -5    2   15     -0.72      0.00
   -4    2   15     -1.20      0.00
   -3    2   15     -1.45      0.00
   -2    2   15      1.36      0.00
   -1    2   15      0.50      0.00
    0    2   15      1.29      0.00
    1    2   15     -0.50      0.00
    2    2   15     -0.78      0.00
    3    2   15      0.17      0.00
    4    2   15      2.66      0.00
    5    2   15     -0.98      0.00
   -5    3   15      2.77      0.00
   -4    3   15     -1.53      0.00
   -3    3   15     -1.72      0.00
   -2    3   15      2.09      0.00
   -1    3   15      2.13      0.00
    0    3   15      2.32      0.00
    1    3   15      0.39      0.00
    2    3   15     -0.86      0.00
    3    3   15     -0.91      0.00
    4    3   15      1.64      0.00
    5    3   15     -0.15      0.00
   -4    4   15     -0.66      0.00
   -3    4   15     -1.39      0.00
   -2    4   15      3.09      0.00
   -1    4   15      2.81      0.00
    0    4   15      1.35      0.00
    1    4   15      0.78      0.00
    2    4   15     -0.26      0.00
    3    4   15     -1.75      0.00
    4    4   15      1.53      0.00
   -4    5   15     -0.68      0.00
   -3    5   15      0.10      0.00
   -2    5   15      0.49      0.00
   -1    5   15      1.64      0.00
    0    5   15      0.21      0.00
    1    5   15     -0.34      0.00
    2    5   15     -0.43      0.00
    3    5   15     -1.11      0.00
    4    5   15      1.35      0.00
   -4    6   15     -1.39      0.00
   -3    6   15      0.71      0.00
   -2    6   15     -2.04      0.00
   -1    6   15     -0.55      0.00
    0    6   15     -0.23      0.00
    1    6   15     -1.30      0.00
    2    6   15      0.17      0.00
    3    6   15      1.54      0.00
   -4    7   15     -0.52      0.00
   -3    7   15     -1.91      0.00
   -2    7   15     -0.23      0.00
   -1    7   15     -0.34      0.00
    0    7   15     -2.20      0.00
    1    7   15     -1.07      0.00
    2    7   15      2.38      0.00
   -3    8   15     -3.82      0.00
   -2    8   15     -1.28      0.00
   -1    8   15     -0.02      0.00
    0    8   15     -3.39      0.00
    1    8   15     -1.23      0.00
   -2    9   15     -4.13      0.00
   -1    9   15     -3.15      0.00
   -2   10   15     -2.47      0.00
    0  -15   16      0.91      0.00
    1  -15   16      2.60      0.00
   -1  -14   16      2.35      0.00
    0  -14   16      1.50      0.00
    1  -14   16     -0.22      0.00
   -3  -13   16     -1.12      0.00
   -2  -13   16      0.39      0.00
   -1  -13   16      0.77      0.00
    0  -13   16      0.97      0.00
    1  -13   16     -1.89      0.00
    2  -13   16      2.57      0.00
   -4  -12   16      0.32      0.00
   -3  -12   16     -0.39      0.00
   -2  -12   16      0.04      0.00
   -1  -12   16      0.18      0.00
    0  -12   16      0.54      0.00
    1  -12   16     -0.18      0.00
    2  -12   16      2.09      0.00
   -4  -11   16      0.45      0.00
   -3  -11   16     -2.70      0.00
   -2  -11   16      0.68      0.00
   -1  -11   16      0.69      0.00
    0  -11   16      0.69      0.00
    1  -11   16      1.19      0.00
    2  -11   16      0.53      0.00
   -4  -10   16     -0.06      0.00
   -3  -10   16     -3.46      0.00
   -2  -10   16      4.08      0.00
   -1  -10   16      0.42      0.00
    0  -10   16     -0.77      0.00
    1  -10   16      1.77      0.00
    2  -10   16     -1.77      0.00
   -4   -9   16      1.38      0.00
   -3   -9   16      0.07      0.00
   -2   -9   16      3.53      0.00
   -1   -9   16      0.89      0.00
    0   -9   16     -1.57      0.00
    1   -9   16      0.57      0.00
    2   -9   16     -1.27      0.00
    3   -9   16     -1.34      0.00
   -5   -8   16      0.94      0.00
   -4   -8   16      3.21      0.00
   -3   -8   16      2.25      0.00
   -2   -8   16      1.13      0.00
   -1   -8   16      2.72      0.00
    0   -8   16     -0.27      0.00
    1   -8   16     -1.20      0.00
    2   -8   16      0.79      0.00
    3   -8   16     -1.60      0.00
   -5   -7   16      2.21      0.00
   -4   -7   16      3.38      0.00
   -3   -7   16      0.47      0.00
   -2   -7   16      1.70      0.00
   -1   -7   16      3.04      0.00
    0   -7   16      0.20      0.00
    1   -7   16     -1.33      0.00
    2   -7   16      0.92      0.00
    3   -7   16     -1.38      0.00
   -6   -6   16     -0.13      0.00
   -5   -6   16      2.07      0.00
   -4   -6   16      1.99      0.00
   -3   -6   16     -0.89      0.00
   -2   -6   16      0.52      0.00
   -1   -6   16      0.39      0.00
    0   -6   16     -1.09      0.00
    1   -6   16     -0.88      0.00
    2   -6   16      0.54      0.00
   -5   -5   16      0.26      0.00
   -4   -5   16     -0.32      0.00
   -3   -5   16     -0.39      0.00
   -2   -5   16     -2.72      0.00
   -1   -5   16     -2.66      0.00
    0   -5   16     -2.00      0.00
    1   -5   16     -0.24      0.00
    2   -5   16     -0.19      0.00
    3   -5   16     -0.93      0.00
   -5   -4   16     -1.38      0.00
   -4   -4   16     -0.85      0.00
   -3   -4   16     -0.55      0.00
   -2   -4   16     -2.00      0.00
   -1   -4   16     -2.86      0.00
    0   -4   16     -0.72      0.00
    1   -4   16     -0.63      0.00
    2   -4   16     -0.46      0.00
    3   -4   16      0.00      0.00
    4   -4   16     -2.43      0.00
   -5   -3   16     -1.41      0.00
   -4   -3   16      0.29      0.00
   -3   -3   16     -0.41      0.00
   -2   -3   16      0.98      0.00
   -1   -3   16     -0.29      0.00
    0   -3   16      1.14      0.00
    1   -3   16     -1.91      0.00
    2   -3   16      0.65      0.00
    3   -3   16      0.20      0.00
    4   -3   16     -4.22      0.00
   -5   -2   16      0.20      0.00
   -4   -2   16      0.56      0.00
   -3   -2   16      1.69      0.00
   -2   -2   16      2.28      0.00
   -1   -2   16      1.53      0.00
    0   -2   16      1.49      0.00
    1   -2   16     -1.18      0.00
    2   -2   16     -0.19      0.00
    3   -2   16      0.78      0.00
    4   -2   16     -1.28      0.00
   -5   -1   16      2.05      0.00
   -4   -1   16      0.77      0.00
   -3   -1   16      2.91      0.00
   -2   -1   16      2.61      0.00
   -1   -1   16      1.29      0.00
    0   -1   16      1.09      0.00
    1   -1   16      0.37      0.00
    2   -1   16     -2.07      0.00
    3   -1   16      1.50      0.00
    4   -1   16     -0.45      0.00
   -5    0   16      2.48      0.00
   -4    0   16      0.79      0.00
   -3    0   16      2.21      0.00
   -2    0   16      1.09      0.00
   -1    0   16      0.63      0.00
    0    0   16      0.89      0.00
    1    0   16      0.40      0.00
    2    0   16     -0.95      0.00
    3    0   16      0.41      0.00
    4    0   16     -3.40      0.00
   -5    1   16     -0.07      0.00
   -4    1   16      0.47      0.00
   -3    1   16      1.05      0.00
   -2    1   16     -1.00      0.00
   -1    1   16     -0.81      0.00
    0    1   16      0.34      0.00
    1    1   16      0.05      0.00
    2    1   16      1.36      0.00
    3    1   16     -0.21      0.00
    4    1   16     -4.33      0.00
   -5    2   16     -3.80      0.00
   -4    2   16      1.24      0.00
   -3    2   16      0.23      0.00
   -2    2   16     -1.51      0.00
   -1    2   16     -2.35      0.00
    0    2   16     -0.83      0.00
    1    2   16     -0.01      0.00
    2    2   16      1.60      0.00
    3    2   16      1.13      0.00
    4    2   16     -2.67      0.00
   -4    3   16      1.26      0.00
   -3    3   16      0.95      0.00
   -2    3   16     -2.50      0.00
   -1    3   16     -2.22      0.00
    0    3   16     -1.06      0.00
    1    3   16      0.00      0.00
    2    3   16      0.64      0.00
    3    3   16      1.79      0.00
    4    3   16     -1.40      0.00
   -4    4   16      0.41      0.00
   -3    4   16      0.63      0.00
   -2    4   16     -1.37      0.00
   -1    4   16     -1.05      0.00
    0    4   16     -0.49      0.00
    1    4   16      0.74      0.00
    2    4   16      0.58      0.00
    3    4   16      0.26      0.00
    4    4   16     -1.17      0.00
   -4    5   16      0.78      0.00
   -3    5   16     -0.55      0.00
   -2    5   16      1.78      0.00
   -1    5   16      1.22      0.00
    0    5   16     -0.23      0.00
    1    5   16      1.42      0.00
    2    5   16      0.56      0.00
    3    5   16     -2.12      0.00
   -4    6   16      0.73      0.00
   -3    6   16      2.54      0.00
   -2    6   16      1.31      0.00
   -1    6   16      2.51      0.00
    0    6   16      1.74      0.00
    1    6   16      0.80      0.00
    2    6   16     -0.96      0.00
   -3    7   16      5.53      0.00
   -2    7   16      1.75      0.00
   -1    7   16      1.69      0.00
    0    7   16      3.31      0.00
    1    7   16      0.27      0.00
   -3    8   16      3.46      0.00
   -2    8   16      4.79      0.00
   -1    8   16      2.92      0.00
   -1  -14   17      0.28      0.00
    0  -14   17     -0.14      0.00
    1  -14   17      0.90      0.00
   -2  -13   17     -0.71      0.00
   -1  -13   17      0.53      0.00
    0  -13   17      0.80      0.00
    1  -13   17     -0.11      0.00
   -3  -12   17      3.39      0.00
   -2  -12   17     -0.54      0.00
   -1  -12   17     -0.35      0.00
    0  -12   17      0.47      0.00
    1  -12   17     -0.74      0.00
   -4  -11   17     -0.29      0.00
   -3  -11   17      4.72      0.00
   -2  -11   17     -3.32      0.00
   -1  -11   17     -0.44      0.00
    0  -11   17      0.40      0.00
    1  -11   17     -1.90      0.00
    2  -11   17      1.25      0.00
   -4  -10   17     -2.20      0.00
   -3  -10   17      0.35      0.00
   -2  -10   17     -3.93      0.00
   -1  -10   17     -0.57      0.00
    0  -10   17      0.32      0.00
    1  -10   17     -1.61      0.00
    2  -10   17      0.90      0.00
   -4   -9   17     -3.45      0.00
   -3   -9   17     -2.59      0.00
   -2   -9   17     -1.22      0.00
   -1   -9   17     -2.01      0.00
    0   -9   17     -0.09      0.00
    1   -9   17      0.48      0.00
    2   -9   17     -0.93      0.00
   -4   -8   17     -2.46      0.00
   -3   -8   17      0.30      0.00
   -2   -8   17     -1.27      0.00
   -1   -8   17     -2.71      0.00
    0   -8   17      0.94      0.00
    1   -8   17      0.54      0.00
    2   -8   17     -1.07      0.00
   -5   -7   17     -3.09      0.00
   -4   -7   17     -2.01      0.00
   -3   -7   17      1.44      0.00
   -2   -7   17     -1.46      0.00
   -1   -7   17     -0.44      0.00
    0   -7   17      1.61      0.00
    1   -7   17      0.21      0.00
    2   -7   17     -0.52      0.00
   -5   -6   17     -1.44      0.00
   -4   -6   17     -1.44      0.00
   -3   -6   17     -0.78      0.00
   -2   -6   17      1.89      0.00
   -1   -6   17      2.72      0.00
    0   -6   17      1.25      0.00
    1   -6   17      0.57      0.00
    2   -6   17      0.36      0.00
    3   -6   17     -0.15      0.00
   -5   -5   17      1.68      0.00
   -4   -5   17     -0.15      0.00
   -3   -5   17     -0.95      0.00
   -2   -5   17      2.36      0.00
   -1   -5   17      3.21      0.00
    0   -5   17      1.03      0.00
    1   -5   17      0.45      0.00
    2   -5   17      1.20      0.00
    3   -5   17     -0.80      0.00
   -5   -4   17      2.18      0.00
   -4   -4   17     -0.16      0.00
   -3   -4   17     -0.38      0.00
   -2   -4   17     -1.43      0.00
   -1   -4   17      0.50      0.00
    0   -4   17     -0.01      0.00
    1   -4   17      0.97      0.00
    2   -4   17      0.23      0.00
    3   -4   17     -0.74      0.00
   -5   -3   17     -0.11      0.00
   -4   -3   17     -0.25      0.00
   -3   -3   17     -2.14      0.00
   -2   -3   17     -2.58      0.00
   -1   -3   17     -2.16      0.00
    0   -3   17     -1.28      0.00
    1   -3   17      0.68      0.00
    2   -3   17      0.28      0.00
    3   -3   17     -0.68      0.00
   -5   -2   17     -1.46      0.00
   -4   -2   17      0.06      0.00
   -3   -2   17     -3.33      0.00
   -2   -2   17     -1.30      0.00
   -1   -2   17     -2.11      0.00
    0   -2   17     -1.13      0.00
    1   -2   17     -0.43      0.00
    2   -2   17      1.59      0.00
    3   -2   17     -1.59      0.00
    4   -2   17     -0.28      0.00
   -5   -1   17     -0.97      0.00
   -4   -1   17     -0.05      0.00
   -3   -1   17     -2.59      0.00
   -2   -1   17     -0.74      0.00
   -1   -1   17     -0.89      0.00
    0   -1   17     -0.53      0.00
    1   -1   17      0.22      0.00
    2   -1   17      0.30      0.00
    3   -1   17     -0.80      0.00
    4   -1   17      2.62      0.00
   -5    0   17      0.71      0.00
   -4    0   17     -0.13      0.00
   -3    0   17     -1.02      0.00
   -2    0   17     -0.29      0.00
   -1    0   17      0.41      0.00
    0    0   17     -0.68      0.00
    1    0   17      1.23      0.00
    2    0   17     -1.71      0.00
    3    0   17      0.83      0.00
    4    0   17      4.32      0.00
   -4    1   17     -1.50      0.00
   -3    1   17      1.10      0.00
   -2    1   17     -0.02      0.00
   -1    1   17      1.34      0.00
    0    1   17     -0.32      0.00
    1    1   17      0.88      0.00
    2    1   17     -1.51      0.00
    3    1   17     -0.17      0.00
    4    1   17      2.56      0.00
   -4    2   17     -2.52      0.00
   -3    2   17      0.47      0.00
   -2    2   17      1.09      0.00
   -1    2   17      0.46      0.00
    0    2   17      0.58      0.00
    1    2   17      0.25      0.00
    2    2   17     -0.42      0.00
    3    2   17     -1.42      0.00
    4    2   17      0.57      0.00
   -4    3   17     -0.74      0.00
   -3    3   17     -1.26      0.00
   -2    3   17      1.53      0.00
   -1    3   17     -0.63      0.00
    0    3   17      0.43      0.00
    1    3   17     -0.60      0.00
    2    3   17     -0.06      0.00
    3    3   17      0.13      0.00
    4    3   17      0.43      0.00
   -4    4   17      0.56      0.00
   -3    4   17     -0.03      0.00
   -2    4   17     -0.64      0.00
   -1    4   17     -1.47      0.00
    0    4   17     -0.07      0.00
    1    4   17     -1.96      0.00
    2    4   17     -0.16      0.00
    3    4   17      2.41      0.00
   -4    5   17      0.11      0.00
   -3    5   17     -1.74      0.00
   -2    5   17     -0.95      0.00
   -1    5   17     -2.38      0.00
    0    5   17     -1.08      0.00
    1    5   17     -2.20      0.00
    2    5   17      0.38      0.00
   -3    6   17     -5.58      0.00
   -2    6   17     -0.88      0.00
   -1    6   17     -1.32      0.00
    0    6   17     -1.97      0.00
    1    6   17     -0.97      0.00
   -3    7   17     -3.69      0.00
   -2    7   17     -3.62      0.00
    0  -14   18     -1.12      0.00
   -1  -13   18      0.30      0.00
    0  -13   18     -1.53      0.00
   -2  -12   18      2.03      0.00
   -1  -12   18      0.71      0.00
    0  -12   18     -0.28      0.00
    1  -12   18      1.11      0.00
   -3  -11   18     -1.59      0.00
   -2  -11   18      1.90      0.00
   -1  -11   18      0.07      0.00
    0  -11   18      1.30      0.00
    1  -11   18      2.09      0.00
   -4  -10   18      3.21      0.00
   -3  -10   18      1.64      0.00
   -2  -10   18     -0.39      0.00
   -1  -10   18      0.21      0.00
    0  -10   18      2.03      0.00
    1  -10   18      0.81      0.00
   -4   -9   18      1.56      0.00
   -3   -9   18     -0.75      0.00
   -2   -9   18     -0.09      0.00
   -1   -9   18      1.06      0.00
    0   -9   18     -0.11      0.00
    1   -9   18      1.03      0.00
   -4   -8   18      0.79      0.00
   -3   -8   18     -2.20      0.00
   -2   -8   18      1.72      0.00
   -1   -8   18     -0.32      0.00
    0   -8   18     -1.55      0.00
    1   -8   18      1.45      0.00
   -4   -7   18      2.02      0.00
   -3   -7   18      0.98      0.00
   -2   -7   18     -0.06      0.00
   -1   -7   18     -2.71      0.00
    0   -7   18     -0.17      0.00
    1   -7   18     -0.29      0.00
    2   -7   18     -0.46      0.00
   -4   -6   18      1.39      0.00
   -3   -6   18      1.86      0.00
   -2   -6   18     -1.57      0.00
   -1   -6   18     -2.64      0.00
    0   -6   18     -0.10      0.00
    1   -6   18     -0.56      0.00
    2   -6   18     -1.34      0.00
   -5   -5   18     -2.61      0.00
   -4   -5   18      0.14      0.00
   -3   -5   18      0.36      0.00
   -2   -5   18      1.24      0.00
   -1   -5   18     -0.26      0.00
    0   -5   18     -0.57      0.00
    1   -5   18      0.08      0.00
    2   -5   18     -0.49      0.00
   -5   -4   18     -0.42      0.00
   -4   -4   18      0.21      0.00
   -3   -4   18      1.52      0.00
   -2   -4   18      2.22      0.00
   -1   -4   18      2.41      0.00
    0   -4   18      0.91      0.00
    1   -4   18      0.33      0.00
    2   -4   18      0.16      0.00
    3   -4   18      1.81      0.00
   -4   -3   18      0.03      0.00
   -3   -3   18      2.79      0.00
   -2   -3   18     -0.62      0.00
   -1   -3   18      2.78      0.00
    0   -3   18      1.43      0.00
    1   -3   18      0.95      0.00
    2   -3   18     -0.60      0.00
    3   -3   18      1.94      0.00
   -4   -2   18     -0.43      0.00
   -3   -2   18      1.64      0.00
   -2   -2   18     -1.49      0.00
   -1   -2   18      0.72      0.00
    0   -2   18     -0.15      0.00
    1   -2   18     -0.05      0.00
    2   -2   18      0.68      0.00
    3   -2   18      1.04      0.00
   -4   -1   18     -0.32      0.00
   -3   -1   18      0.11      0.00
   -2   -1   18     -0.08      0.00
   -1   -1   18     -0.96      0.00
    0   -1   18     -0.55      0.00
    1   -1   18     -1.90      0.00
    2   -1   18      2.23      0.00
    3   -1   18     -1.34      0.00
   -4    0   18      1.51      0.00
   -3    0   18     -2.11      0.00
   -2    0   18      0.70      0.00
   -1    0   18     -0.76      0.00
    0    0   18      0.31      0.00
    1    0   18     -1.78      0.00
    2    0   18      1.18      0.00
    3    0   18     -1.25      0.00
   -4    1   18      3.61      0.00
   -3    1   18     -2.19      0.00
   -2    1   18     -0.08      0.00
   -1    1   18      1.06      0.00
    0    1   18     -0.21      0.00
    1    1   18     -0.63      0.00
    2    1   18      0.28      0.00
    3    1   18      0.65      0.00
   -4    2   18      2.16      0.00
   -3    2   18      1.53      0.00
   -2    2   18     -1.01      0.00
   -1    2   18      1.98      0.00
    0    2   18     -0.50      0.00
    1    2   18      0.47      0.00
    2    2   18      0.47      0.00
    3    2   18      0.37      0.00
    4    2   18      0.85      0.00
   -4    3   18     -0.57      0.00
   -3    3   18      2.02      0.00
   -2    3   18      0.15      0.00
   -1    3   18      1.07      0.00
    0    3   18      0.58      0.00
    1    3   18      2.26      0.00
    2    3   18      0.13      0.00
    3    3   18     -1.27      0.00
   -3    4   18      1.02      0.00
   -2    4   18      0.31      0.00
   -1    4   18      0.43      0.00
    0    4   18      1.10      0.00
    1    4   18      3.74      0.00
    2    4   18     -0.68      0.00
   -3    5   18      3.47      0.00
   -2    5   18     -0.87      0.00
   -1    5   18     -0.73      0.00
    0    5   18      0.75      0.00
    1    5   18      2.85      0.00
   -3    6   18      2.92      0.00
   -1  -13   19     -0.68      0.00
   -2  -12   19      0.00      0.00
   -1  -12   19     -0.23      0.00
    0  -12   19     -1.74      0.00
   -2  -11   19      2.20      0.00
   -1  -11   19      0.81      0.00
    0  -11   19     -3.13      0.00
   -3  -10   19      0.31      0.00
   -2  -10   19      1.82      0.00
   -1  -10   19      0.44      0.00
    0  -10   19     -1.47      0.00
   -3   -9   19      1.64      0.00
   -2   -9   19     -0.57      0.00
   -1   -9   19      1.27      0.00
    0   -9   19      0.57      0.00
   -4   -8   19     -0.91      0.00
   -3   -8   19     -0.38      0.00
   -2   -8   19     -0.76      0.00
   -1   -8   19      3.25      0.00
    0   -8   19     -0.85      0.00
    1   -8   19     -0.56      0.00
   -4   -7   19     -0.95      0.00
   -3   -7   19     -1.30      0.00
   -2   -7   19      0.23      0.00
   -1   -7   19      2.03      0.00
    0   -7   19     -1.35      0.00
    1   -7   19      0.51      0.00
   -4   -6   19      0.56      0.00
   -3   -6   19      0.55      0.00
   -2   -6   19     -1.25      0.00
   -1   -6   19     -0.91      0.00
    0   -6   19      0.50      0.00
    1   -6   19     -0.49      0.00
   -5   -5   19      0.60      0.00
   -4   -5   19      0.39      0.00
   -3   -5   19      0.27      0.00
   -2   -5   19     -1.56      0.00
   -1   -5   19     -2.75      0.00
    0   -5   19      0.22      0.00
    1   -5   19     -0.18      0.00
    2   -5   19     -0.06      0.00
   -4   -4   19     -0.60      0.00
   -3   -4   19     -1.33      0.00
   -2   -4   19      2.10      0.00
   -1   -4   19     -2.96      0.00
    0   -4   19     -0.87      0.00
    1   -4   19      0.19      0.00
    2   -4   19      0.29      0.00
   -4   -3   19     -0.24      0.00
   -3   -3   19     -0.38      0.00
   -2   -3   19      4.03      0.00
   -1   -3   19     -0.46      0.00
    0   -3   19      0.66      0.00
    1   -3   19      0.56      0.00
    2   -3   19     -1.00      0.00
   -4   -2   19      0.31      0.00
   -3   -2   19      1.18      0.00
   -2   -2   19      2.10      0.00
   -1   -2   19      2.25      0.00
    0   -2   19      1.93      0.00
    1   -2   19      1.72      0.00
    2   -2   19     -2.67      0.00
    3   -2   19      1.17      0.00
   -4   -1   19     -0.97      0.00
   -3   -1   19      2.73      0.00
   -2   -1   19      0.18      0.00
   -1   -1   19      1.52      0.00
    0   -1   19      0.52      0.00
    1   -1   19      1.61      0.00
    2   -1   19     -1.06      0.00
    3   -1   19      1.82      0.00
   -4    0   19     -3.31      0.00
   -3    0   19      3.56      0.00
   -2    0   19      0.05      0.00
   -1    0   19     -1.40      0.00
    0    0   19     -0.03      0.00
    1    0   19      0.32      0.00
    2    0   19      0.17      0.00
    3    0   19      0.34      0.00
   -4    1   19     -2.99      0.00
   -3    1   19     -0.47      0.00
   -2    1   19      0.66      0.00
   -1    1   19     -2.18      0.00
    0    1   19      0.62      0.00
    1    1   19     -0.85      0.00
    2    1   19     -0.92      0.00
    3    1   19     -0.34      0.00
   -4    2   19     -0.50      0.00
   -3    2   19     -3.87      0.00
   -2    2   19     -0.08      0.00
   -1    2   19      0.28      0.00
    0    2   19     -0.64      0.00
    1    2   19     -2.38      0.00
    2    2   19     -0.78      0.00
    3    2   19     -0.08      0.00
   -3    3   19     -1.72      0.00
   -2    3   19     -0.37      0.00
   -1    3   19      2.37      0.00
    0    3   19     -1.46      0.00
    1    3   19     -4.05      0.00
    2    3   19      0.72      0.00
   -3    4   19     -0.89      0.00
   -1    4   19      3.06      0.00
    0    4   19     -0.15      0.00
    1    4   19     -3.76      0.00
   -1  -12   20     -0.73      0.00
   -2  -11   20     -2.30      0.00
   -1  -11   20     -0.71      0.00
   -2  -10   20     -0.76      0.00
   -1  -10   20     -1.09      0.00
   -3   -9   20      0.47      0.00
   -2   -9   20      0.26      0.00
   -1   -9   20     -3.31      0.00
   -3   -8   20      0.57      0.00
   -2   -8   20      0.62      0.00
   -1   -8   20     -2.18      0.00
    0   -8   20      2.13      0.00
   -3   -7   20     -0.98      0.00
   -2   -7   20      1.52      0.00
   -1   -7   20      1.65      0.00
    0   -7   20     -0.06      0.00
   -3   -6   20     -1.83      0.00
   -2   -6   20      0.91      0.00
   -1   -6   20      2.91      0.00
    0   -6   20     -1.51      0.00
    1   -6   20     -0.02      0.00
   -4   -5   20     -0.08      0.00
   -3   -5   20     -0.90      0.00
   -2   -5   20     -3.05      0.00
   -1   -5   20      2.25      0.00
    0   -5   20     -0.79      0.00
    1   -5   20     -1.96      0.00
   -4   -4   20      0.52      0.00
   -3   -4   20     -0.89      0.00
   -2   -4   20     -5.63      0.00
   -1   -4   20      0.18      0.00
    0   -4   20     -1.22      0.00
    1   -4   20     -2.09      0.00
   -4   -3   20      0.09      0.00
   -3   -3   20     -1.78      0.00
   -2   -3   20     -4.12      0.00
   -1   -3   20     -2.77      0.00
    0   -3   20     -2.30      0.00
    1   -3   20     -1.66      0.00
    2   -3   20      2.43      0.00
   -4   -2   20      0.55      0.00
   -3   -2   20     -2.30      0.00
   -2   -2   20     -1.77      0.00
   -1   -2   20     -2.70      0.00
    0   -2   20     -1.18      0.00
    1   -2   20     -0.95      0.00
    2   -2   20      0.99      0.00
   -4   -1   20      2.09      0.00
   -3   -1   20     -3.19      0.00
   -2   -1   20     -0.41      0.00
   -1   -1   20      0.31      0.00
    0   -1   20     -0.08      0.00
    1   -1   20      0.11      0.00
    2   -1   20     -1.09      0.00
   -3    0   20     -0.90      0.00
   -2    0   20     -0.08      0.00
   -1    0   20      1.26      0.00
    0    0   20     -0.86      0.00
    1    0   20      0.89      0.00
    2    0   20     -0.18      0.00
   -3    1   20      3.68      0.00
   -2    1   20      0.22      0.00
   -1    1   20     -1.78      0.00
    0    1   20      0.14      0.00
    1    1   20      1.87      0.00
    2    1   20      0.28      0.00
   -3    2   20      2.86      0.00
   -1    2   20     -4.61      0.00
    0    2   20      1.81      0.00
    1    2   20      3.11      0.00
    2    2   20     -0.94      0.00
   -2  -10   21      0.46      0.00
   -2   -9   21     -0.67      0.00
   -3   -8   21      0.26      0.00
   -2   -8   21     -1.50      0.00
   -3   -7   21      1.41      0.00
   -2   -7   21     -0.51      0.00
   -1   -7   21     -2.70      0.00
   -3   -6   21      2.15      0.00
   -2   -6   21      3.16      0.00
   -1   -6   21     -1.24      0.00
    0   -6   21      1.61      0.00
   -3   -5   21      1.94      0.00
   -2   -5   21      5.80      0.00
   -1   -5   21      0.29      0.00
    0   -5   21      1.32      0.00
   -3   -4   21      1.77      0.00
   -2   -4   21      4.87      0.00
   -1   -4   21      2.03      0.00
    0   -4   21      1.65      0.00
    1   -4   21      1.51      0.00
   -3   -3   21      1.37      0.00
   -2   -3   21      3.02      0.00
   -1   -3   21      2.61      0.00
    0   -3   21      1.09      0.00
    1   -3   21      0.47      0.00
   -3   -2   21      1.42      0.00
   -2   -2   21      1.19      0.00
   -1   -2   21      1.23      0.00
    0   -2   21      0.29      0.00
    1   -2   21     -0.15      0.00
   -3   -1   21      0.89      0.00
   -2   -1   21     -0.45      0.00
   -1   -1   21      0.66      0.00
    0   -1   21      1.08      0.00
    1   -1   21     -0.19      0.00
    2   -1   21      1.68      0.00
   -1    0   21      2.87      0.00
    0    0   21      0.61      0.00
    1    0   21     -0.50      0.00
    2    0   21      1.18      0.00
   -1    1   21      5.13      0.00
    0    1   21     -1.79      0.00
    1    1   21     -1.33      0.00
    2    1   21      1.79      0.00
   -2   -7   22     -2.16      0.00
   -2   -6   22     -4.20      0.00
   -1   -6   22     -0.48      0.00
   -2   -5   22     -3.76      0.00
   -1   -5   22     -0.98      0.00
   -2   -4   22     -2.77      0.00
   -1   -4   22     -1.10      0.00
    0   -4   22     -0.64      0.00
   -2   -3   22     -1.91      0.00
   -1   -3   22     -1.49      0.00
    0   -3   22     -0.26      0.00
   -1   -2   22     -2.28      0.00
    0   -2   22     -0.62      0.00
    1   -2   22     -0.32      0.00
   -1   -1   22     -3.36      0.00
    0   -1   22     -0.67      0.00
    1   -1   22     -0.58      0.00
    1    0   22     -0.24      0.00
   -1   -4   23      0.39      0.00
   -1   -3   23      2.18      0.00
    0   -2   23     -0.28      0.00
    0    1    0     68.60      0.00
    8    2    0      2.85      0.00
    8    3    0      0.46      0.00
   -8    4    0     -0.47      0.00
   -7    9    0      0.43      0.00
   -6   11    0     -0.07      0.00
   -6   12    0     -1.43      0.00
   -5   13    0     -0.42      0.00
   -5   14    0     -0.08      0.00
   -4   14    0      0.63      0.00
   -4   15    0     -0.18      0.00
   -3   15    0      0.06      0.00
    4   15    0      1.25      0.00
   -3   16    0     -1.43      0.00
   -2   16    0     -0.70      0.00
    3   16    0      0.00      0.00
   -2   17    0      0.41      0.00
   -1   17    0      0.02      0.00
   -2  -17    1     -1.84      0.00
    0  -17    1      0.28      0.00
    1  -17    1     -0.95      0.00
    2  -17    1      0.96      0.00
   -3  -16    1     -0.20      0.00
    2  -16    1      2.25      0.00
    3  -16    1      0.26      0.00
   -4  -15    1      0.84      0.00
    4  -15    1     -0.32      0.00
    5  -14    1      0.26      0.00
    5  -13    1      0.71      0.00
    6  -12    1      0.14      0.00
    6  -11    1     -0.18      0.00
   -7   -9    1      0.37      0.00
    7   -9    1      0.30      0.00
    0   -2    1    -52.73      0.00
    0   -1    1    -93.07      0.00
    0    0    1    -59.45      0.00
    8    0    1     -2.85      0.00
    0    1    1      1.38      0.00
    8    1    1     -1.59      0.00
    8    2    1     -0.44      0.00
    8    3    1     -0.14      0.00
   -8    4    1      0.06      0.00
    7    7    1     -0.10      0.00
   -7    8    1     -1.47      0.00
    7    8    1     -0.55      0.00
   -7    9    1     -1.48      0.00
   -6   11    1      1.41      0.00
    6   11    1     -2.05      0.00
   -6   12    1      0.67      0.00
   -5   13    1     -0.08      0.00
   -5   14    1      0.13      0.00
   -4   14    1      0.26      0.00
   -4   15    1      0.23      0.00
   -3   15    1      2.04      0.00
   -3   16    1      1.67      0.00
   -2   16    1     -0.96      0.00
   -2   17    1     -0.17      0.00
   -1   17    1      1.19      0.00
    1   17    1     -0.11      0.00
   -2  -17    2      0.88      0.00
    0  -17    2      0.31      0.00
    1  -17    2      1.16      0.00
    2  -17    2     -1.92      0.00
   -3  -16    2     -1.47      0.00
    2  -16    2     -0.43      0.00
    3  -16    2     -0.39      0.00
   -4  -15    2     -2.33      0.00
    4  -15    2      0.38      0.00
   -5  -14    2      0.14      0.00
    5  -14    2     -0.17      0.00
   -5  -13    2      0.81      0.00
    5  -13    2     -0.49      0.00
   -6  -12    2      0.78      0.00
    6  -12    2     -0.35      0.00
   -7   -9    2     -0.39      0.00
    7   -9    2     -0.53      0.00
   -8   -4    2      0.86      0.00
   -1   -4    2     -7.75      0.00
    8   -4    2     -1.25      0.00
   -8   -3    2      4.13      0.00
   -1   -3    2      0.26      0.00
    0   -3    2     33.64      0.00
    8   -3    2      1.49      0.00
    8   -2    2      2.00      0.00
    0   -1    2     28.72      0.00
   -1    0    2     -1.26      0.00
    0    0    2    -15.60      0.00
    8    1    2     -0.74      0.00
    8    2    2     -0.09      0.00
   -8    4    2     -0.92      0.00
    7    6    2     -0.62      0.00
    7    7    2      0.23      0.00
   -7    8    2      2.64      0.00
    7    8    2      0.39      0.00
   -7    9    2      0.45      0.00
    6   10    2      2.07      0.00
   -6   11    2     -0.22      0.00
    6   11    2      0.10      0.00
   -6   12    2      0.00      0.00
   -5   12    2      0.52      0.00
   -5   13    2      0.06      0.00
    5   13    2     -0.23      0.00
   -5   14    2      0.41      0.00
   -4   14    2     -0.41      0.00
   -4   15    2     -0.55      0.00
   -3   15    2     -2.43      0.00
   -3   16    2     -1.37      0.00
   -2   16    2      0.34      0.00
    2   16    2      2.81      0.00
   -1   17    2     -0.13      0.00
    0  -18    3      0.30      0.00
    1  -18    3     -0.50      0.00
    0  -17    3     -1.24      0.00
    1  -17    3     -1.33      0.00
    2  -17    3      0.51      0.00
    3  -17    3      0.65      0.00
    2  -16    3     -1.86      0.00
    3  -16    3      0.07      0.00
    4  -16    3     -0.54      0.00
   -4  -15    3      0.53      0.00
    4  -15    3     -3.22      0.00
   -5  -14    3     -0.52      0.00
    5  -14    3      0.70      0.00
   -5  -13    3     -0.03      0.00
   -6  -12    3      0.16      0.00
    6  -12    3      1.18      0.00
   -6  -11    3     -0.20      0.00
   -7   -9    3      0.79      0.00
   -1   -5    3      5.01      0.00
   -8   -4    3     -1.96      0.00
    8   -4    3     -1.03      0.00
   -8   -3    3     -3.31      0.00
    8   -3    3     -1.06      0.00
   -8   -2    3     -1.12      0.00
    8   -2    3      0.81      0.00
   -8   -1    3      1.65      0.00
   -1   -1    3      2.99      0.00
    8   -1    3      1.83      0.00
   -8    0    3      0.75      0.00
   -1    0    3      5.71      0.00
   -8    1    3     -0.51      0.00
   -1    1    3      3.80      0.00
    8    1    3      0.68      0.00
   -8    2    3      0.27      0.00
   -8    4    3      0.18      0.00
    7    6    3      0.42      0.00
    7    7    3     -0.04      0.00
   -7    8    3     -0.17      0.00
   -7    9    3      1.33      0.00
    6    9    3     -0.20      0.00
   -6   10    3     -0.44      0.00
    6   10    3      1.21      0.00
   -6   11    3      0.22      0.00
   -5   12    3     -0.51      0.00
    5   12    3      0.06      0.00
   -5   13    3     -0.34      0.00
   -4   14    3      1.44      0.00
   -4   15    3      1.67      0.00
   -3   15    3      1.59      0.00
    3   15    3      0.59      0.00
   -3   16    3      1.02      0.00
   -2   16    3     -0.02      0.00
    2   16    3     -0.61      0.00
    0  -18    4      0.15      0.00
    1  -18    4      0.27      0.00
   -1  -17    4     -0.72      0.00
    0  -17    4      1.33      0.00
    1  -17    4      0.98      0.00
    2  -17    4      1.66      0.00
    3  -17    4      0.23      0.00
    3  -16    4      2.72      0.00
    4  -16    4      2.40      0.00
   -4  -15    4      1.35      0.00
    4  -15    4      5.71      0.00
   -5  -14    4     -0.87      0.00
    5  -14    4     -2.14      0.00
   -5  -13    4     -1.48      0.00
   -6  -12    4      0.46      0.00
    6  -12    4     -0.12      0.00
   -6  -11    4      1.47      0.00
   -7   -9    4     -1.10      0.00
   -7   -8    4     -0.98      0.00
   -1   -6    4     -2.20      0.00
   -8   -4    4      1.11      0.00
   -8   -3    4     -0.17      0.00
   -8   -2    4     -2.31      0.00
    8   -2    4     -0.95      0.00
   -8   -1    4     -1.85      0.00
    8   -1    4     -0.82      0.00
   -8    0    4     -0.53      0.00
    8    0    4     -0.57      0.00
   -8    1    4     -0.70      0.00
   -8    2    4     -0.90      0.00
   -8    3    4     -0.68      0.00
    7    5    4      0.27      0.00
    7    6    4      0.62      0.00
    7    7    4     -0.21      0.00
   -7    8    4     -1.86      0.00
    6    8    4     -1.78      0.00
    6    9    4     -2.40      0.00
   -6   10    4     -0.50      0.00
    6   10    4     -1.85      0.00
   -6   11    4     -1.55      0.00
   -5   12    4     -0.21      0.00
    5   12    4      0.31      0.00
   -5   13    4     -0.29      0.00
   -4   14    4     -2.45      0.00
   -3   15    4     -0.59      0.00
    3   15    4     -0.97      0.00
   -2   16    4     -0.21      0.00
    1   16    4      0.25      0.00
   -1  -18    5      0.74      0.00
    0  -18    5     -0.72      0.00
    1  -18    5     -0.48      0.00
   -1  -17    5     -1.02      0.00
    0  -17    5     -0.44      0.00
    1  -17    5     -0.85      0.00
    2  -17    5     -2.40      0.00
    3  -17    5     -1.99      0.00
    3  -16    5     -2.28      0.00
    4  -16    5     -2.93      0.00
   -4  -15    5     -2.41      0.00
    4  -15    5     -2.32      0.00
   -5  -14    5      0.62      0.00
    5  -14    5      0.70      0.00
   -5  -13    5      0.90      0.00
   -6  -12    5     -0.87      0.00
    6  -12    5     -0.19      0.00
   -6  -11    5     -0.78      0.00
   -7   -9    5      0.18      0.00
    7   -9    5      0.45      0.00
   -7   -8    5     -0.69      0.00
   -8   -3    5      1.56      0.00
   -8   -2    5      1.58      0.00
   -8   -1    5      0.79      0.00
   -8    0    5      0.78      0.00
   -8    1    5      0.72      0.00
   -8    2    5      1.03      0.00
   -8    3    5      1.16      0.00
    7    5    5     -2.17      0.00
    7    6    5     -1.27      0.00
   -7    8    5      0.29      0.00
    6    8    5      1.56      0.00
    6    9    5      1.35      0.00
   -6   11    5      0.53      0.00
    5   11    5     -0.71      0.00
   -5   12    5      1.84      0.00
    5   12    5      0.36      0.00
   -5   13    5      0.72      0.00
    4   13    5      0.48      0.00
   -4   14    5      0.43      0.00
   -3   15    5      0.38      0.00
   -1   16    5     -0.91      0.00
    0   16    5     -0.77      0.00
    1   16    5      0.09      0.00
   -1  -18    6      0.63      0.00
    0  -18    6      0.19      0.00
    1  -18    6      0.78      0.00
   -2  -17    6     -1.46      0.00
   -1  -17    6      1.82      0.00
    0  -17    6     -1.66      0.00
    1  -17    6      0.48      0.00
    2  -17    6      0.91      0.00
    3  -17    6      0.80      0.00
    3  -16    6     -1.01      0.00
    4  -16    6      0.33      0.00
   -4  -15    6      2.38      0.00
    4  -15    6     -0.80      0.00
   -5  -14    6      0.27      0.00
    5  -14    6      2.16      0.00
   -5  -13    6     -0.83      0.00
   -6  -12    6      0.10      0.00
    6  -12    6      0.18      0.00
   -6  -11    6     -0.48      0.00
   -7   -9    6      0.41      0.00
    7   -9    6     -0.82      0.00
   -7   -8    6      0.82      0.00
    7   -8    6     -0.69      0.00
   -7   -7    6      1.10      0.00
    7   -7    6     -0.48      0.00
    7   -6    6      0.53      0.00
    7   -5    6      2.77      0.00
   -8   -3    6     -0.61      0.00
   -8   -2    6     -0.33      0.00
   -8   -1    6     -0.42      0.00
   -8    0    6     -0.23      0.00
   -8    1    6     -0.50      0.00
   -8    2    6     -1.28      0.00
    7    5    6      2.10      0.00
   -7    8    6      1.48      0.00
    6    8    6      0.78      0.00
    6    9    6      0.71      0.00
    5   10    6      0.50      0.00
    5   11    6     -0.15      0.00
   -5   12    6     -1.35      0.00
    4   12    6     -2.17      0.00
    4   13    6     -0.90      0.00
   -4   14    6      1.10      0.00
    3   14    6      0.18      0.00
   -3   15    6     -0.45      0.00
    2   15    6     -0.78      0.00
    0  -18    7      1.06      0.00
    1  -18    7     -0.37      0.00
   -2  -17    7      0.52      0.00
    2  -17    7      0.53      0.00
    3  -16    7      0.71      0.00
   -4  -15    7     -0.50      0.00
    4  -15    7      0.52      0.00
   -5  -14    7      0.29      0.00
    5  -14    7     -2.00      0.00
   -5  -13    7      0.37      0.00
    5  -13    7     -0.94      0.00
   -6  -12    7      0.39      0.00
   -6  -11    7      0.98      0.00
   -6  -10    7      1.55      0.00
   -7   -9    7     -0.18      0.00
   -7   -8    7     -1.04      0.00
    7   -8    7      0.64      0.00
   -7   -7    7     -0.73      0.00
    7   -7    7      0.21      0.00
   -7   -6    7      1.71      0.00
    7   -6    7     -1.25      0.00
    7   -5    7     -0.99      0.00
   -8   -1    7     -0.02      0.00
   -8    0    7     -0.32      0.00
    7    4    7     -0.82      0.00
    7    5    7     -0.44      0.00
    6    7    7     -3.17      0.00
    6    8    7     -1.85      0.00
    5    9    7      0.12      0.00
   -6   10    7     -1.43      0.00
    5   10    7      0.02      0.00
    4   11    7      2.47      0.00
    5   11    7     -0.09      0.00
   -5   12    7     -0.80      0.00
    4   12    7      1.10      0.00
    3   13    7     -0.49      0.00
   -2   15    7      0.30      0.00
   -1   15    7     -0.28      0.00
    0   15    7     -0.70      0.00
    1   15    7      0.14      0.00
    0  -18    8      0.58      0.00
   -2  -17    8      0.12      0.00
    2  -17    8      0.12      0.00
    3  -16    8      0.77      0.00
   -4  -15    8     -0.36      0.00
    4  -15    8     -0.44      0.00
   -5  -14    8     -0.06      0.00
    5  -14    8      0.86      0.00
   -5  -13    8     -0.04      0.00
   -6  -11    8     -0.81      0.00
    6  -11    8     -0.93      0.00
   -6  -10    8     -0.89      0.00
   -7   -8    8      0.61      0.00
    7   -8    8     -0.38      0.00
   -7   -7    8     -1.99      0.00
    7   -7    8      0.21      0.00
   -7   -6    8     -3.84      0.00
    7   -6    8     -0.03      0.00
   -7   -5    8     -1.76      0.00
    7   -5    8     -2.20      0.00
    7    4    8     -0.77      0.00
   -7    6    8      0.52      0.00
    6    7    8      2.51      0.00
    6    8    8      0.94      0.00
    5    9    8     -0.48      0.00
    5   10    8      0.50      0.00
    4   11    8     -0.79      0.00
    3   12    8      1.49      0.00
    4   12    8     -0.21      0.00
    3   13    8      1.23      0.00
   -3   14    8     -0.12      0.00
    2   14    8     -0.09      0.00
   -1   15    8     -0.34      0.00
    0   15    8     -1.10      0.00
   -2  -17    9     -0.48      0.00
   -1  -17    9     -0.88      0.00
    2  -17    9     -0.38      0.00
    3  -16    9     -0.77      0.00
   -4  -15    9     -0.37      0.00
    4  -15    9      0.08      0.00
   -5  -13    9      0.92      0.00
   -6  -11    9      0.54      0.00
    6  -11    9      1.01      0.00
   -6  -10    9      0.97      0.00
    6  -10    9      0.71      0.00
   -6   -9    9      1.18      0.00
    6   -9    9     -0.32      0.00
   -7   -8    9      1.02      0.00
    6   -8    9     -1.33      0.00
   -7   -7    9      2.92      0.00
    7   -7    9      0.00      0.00
   -7   -6    9      1.43      0.00
    7   -6    9      1.31      0.00
   -7   -5    9     -0.59      0.00
    7   -5    9      1.70      0.00
   -7   -4    9      1.01      0.00
    7   -4    9     -0.53      0.00
   -7   -3    9      3.29      0.00
    7   -1    9     -1.09      0.00
    7    3    9      1.00      0.00
   -7    4    9     -1.16      0.00
   -7    5    9     -0.50      0.00
   -7    6    9      0.25      0.00
    6    6    9     -2.37      0.00
    6    7    9     -0.76      0.00
    5    8    9      1.07      0.00
   -6    9    9      0.48      0.00
    5    9    9     -0.27      0.00
    4   10    9      0.52      0.00
   -5   11    9     -1.70      0.00
    4   11    9      0.40      0.00
    3   12    9     -2.65      0.00
    2   13    9     -0.59      0.00
   -2   14    9      0.99      0.00
   -1   14    9      0.75      0.00
    1   14    9      1.47      0.00
   -2  -17   10      1.19      0.00
   -1  -17   10      0.73      0.00
    2  -17   10     -0.80      0.00
   -3  -16   10     -2.34      0.00
   -2  -16   10      0.90      0.00
    3  -16   10      0.87      0.00
   -4  -15   10      0.56      0.00
    4  -15   10     -0.58      0.00
   -5  -13   10      0.63      0.00
    5  -13   10     -0.42      0.00
   -6  -11   10     -1.28      0.00
    6  -11   10     -0.15      0.00
   -6  -10   10     -1.96      0.00
    6  -10   10      0.70      0.00
   -6   -9   10     -1.08      0.00
    6   -9   10      1.55      0.00
    6   -8   10      1.30      0.00
   -7   -7   10     -0.59      0.00
    6   -7   10      0.08      0.00
   -7   -6   10      0.97      0.00
    6   -6   10     -1.29      0.00
    7   -6   10     -0.60      0.00
   -7   -5   10     -0.07      0.00
    6   -5   10     -1.92      0.00
    7   -5   10      0.40      0.00
   -7   -4   10     -2.41      0.00
    7   -4   10      1.08      0.00
   -7   -3   10     -2.46      0.00
    7   -3   10      0.45      0.00
   -7   -2   10      0.20      0.00
    7   -2   10      0.31      0.00
   -7   -1   10      2.60      0.00
    7   -1   10      1.17      0.00
   -7    0   10      1.44      0.00
    7    0   10      1.82      0.00
   -7    1   10     -0.83      0.00
    7    1   10      1.17      0.00
   -7    2   10     -0.02      0.00
   -7    3   10      1.78      0.00
   -7    4   10      1.29      0.00
   -7    5   10     -0.03      0.00
    6    5   10      1.71      0.00
    6    6   10     -0.02      0.00
   -6    8   10     -2.00      0.00
    5    8   10     -0.05      0.00
    4    9   10     -0.11      0.00
    5    9   10      0.53      0.00
   -5   10   10      1.73      0.00
    4   10   10     -0.58      0.00
    3   11   10      3.65      0.00
   -4   12   10      0.69      0.00
    3   12   10      1.34      0.00
   -3   13   10     -0.37      0.00
   -2   13   10     -1.72      0.00
    2   13   10      1.26      0.00
   -1   14   10     -0.86      0.00
    0   14   10     -0.94      0.00
   -2  -17   11     -1.81      0.00
   -1  -17   11     -1.16      0.00
    0  -17   11     -0.33      0.00
    2  -17   11      1.13      0.00
   -3  -16   11      0.68      0.00
   -2  -16   11     -1.13      0.00
    3  -16   11     -0.44      0.00
   -4  -15   11     -0.62      0.00
    4  -15   11      1.89      0.00
   -5  -13   11     -3.01      0.00
    5  -13   11     -0.22      0.00
   -5  -12   11     -3.48      0.00
    5  -12   11     -0.23      0.00
   -6  -11   11      1.65      0.00
    5  -11   11     -0.35      0.00
   -6  -10   11      1.17      0.00
    6  -10   11     -1.16      0.00
   -6   -9   11     -0.60      0.00
    6   -9   11     -1.04      0.00
    6   -8   11     -0.19      0.00
   -7   -7   11     -0.68      0.00
    6   -7   11      0.57      0.00
   -7   -6   11     -0.26      0.00
    6   -6   11      1.46      0.00
   -7   -5   11      1.16      0.00
    6   -5   11      0.74      0.00
   -7   -4   11      1.47      0.00
    6   -4   11     -1.56      0.00
    7   -4   11     -0.08      0.00
   -7   -3   11     -0.23      0.00
    6   -3   11     -0.79      0.00
    7   -3   11     -0.07      0.00
   -7   -2   11     -2.23      0.00
    7   -2   11     -0.31      0.00
   -7   -1   11     -1.26      0.00
   -7    0   11      1.05      0.00
   -7    1   11      0.48      0.00
   -7    2   11     -1.57      0.00
   -7    3   11     -1.73      0.00
   -7    4   11     -0.50      0.00
    6    5   11      0.77      0.00
   -6    6   11      2.36      0.00
   -6    7   11      2.24      0.00
    5    7   11      0.42      0.00
    5    8   11     -0.76      0.00
   -5    9   11     -1.14      0.00
    4    9   11      0.39      0.00
   -5   10   11     -0.66      0.00
    3   10   11     -3.49      0.00
    4   10   11      0.17      0.00
   -4   11   11     -0.41      0.00
    3   11   11     -1.44      0.00
   -3   12   11      0.46      0.00
    2   12   11      0.41      0.00
   -2   13   11      0.32      0.00
    1   13   11      0.78      0.00
   -1  -17   12      0.83      0.00
    0  -17   12      0.35      0.00
    1  -17   12     -2.08      0.00
   -3  -16   12      0.69      0.00
   -2  -16   12      1.51      0.00
   -1  -16   12     -0.80      0.00
    4  -14   12     -0.22      0.00
   -5  -13   12      2.28      0.00
   -5  -12   12      2.13      0.00
    5  -12   12     -0.52      0.00
    5  -11   12      0.61      0.00
   -6  -10   12      0.42      0.00
    5  -10   12      1.36      0.00
   -6   -9   12      0.65      0.00
    5   -9   12      0.50      0.00
    6   -9   12     -0.02      0.00
    5   -8   12     -0.15      0.00
    6   -8   12     -0.29      0.00
    6   -7   12     -0.76      0.00
   -7   -6   12     -0.49      0.00
    6   -6   12     -0.92      0.00
   -7   -5   12     -0.61      0.00
    6   -5   12      0.65      0.00
   -7   -4   12      0.17      0.00
    6   -4   12      0.99      0.00
   -7   -3   12      1.64      0.00
    6   -3   12     -1.02      0.00
   -7   -2   12      0.97      0.00
    6   -2   12     -1.33      0.00
   -7   -1   12     -1.32      0.00
   -7    0   12     -1.00      0.00
   -7    1   12      0.91      0.00
   -7    2   12      1.32      0.00
    6    4   12     -0.58      0.00
   -6    5   12     -1.82      0.00
   -6    6   12     -1.37      0.00
    5    6   12     -0.53      0.00
   -6    7   12      0.01      0.00
    5    7   12      0.33      0.00
   -5    8   12      0.35      0.00
    4    8   12     -0.69      0.00
   -5    9   12      0.24      0.00
    4    9   12     -0.23      0.00
   -4   10   12     -0.56      0.00
    3   10   12      0.70      0.00
   -3   11   12     -0.33      0.00
    2   11   12     -2.69      0.00
   -2   12   12      0.47      0.00
    0   12   12      0.68      0.00
    0  -17   13      0.00      0.00
   -2  -16   13     -2.32      0.00
   -1  -16   13      1.21      0.00
   -3  -15   13     -3.20      0.00
   -2  -15   13     -2.52      0.00
    4  -14   13     -0.16      0.00
    4  -13   13     -1.26      0.00
   -5  -12   13     -1.19      0.00
    5  -12   13      0.25      0.00
   -5  -11   13      0.09      0.00
    5  -11   13     -0.49      0.00
   -6  -10   13     -0.11      0.00
    5  -10   13     -0.25      0.00
   -6   -9   13      0.17      0.00
    5   -9   13      0.07      0.00
    5   -8   13     -0.61      0.00
    6   -8   13      0.23      0.00
    5   -7   13     -1.30      0.00
    6   -7   13      0.44      0.00
    5   -6   13     -1.15      0.00
    6   -6   13     -0.03      0.00
    5   -5   13     -0.93      0.00
    6   -5   13     -0.45      0.00
   -7   -4   13     -0.76      0.00
    6   -4   13      0.51      0.00
   -7   -3   13     -0.89      0.00
    6   -3   13      1.16      0.00
   -7   -2   13      0.82      0.00
    6   -2   13      0.64      0.00
   -7   -1   13      0.81      0.00
    6   -1   13     -0.16      0.00
   -7    0   13     -0.73      0.00
    6    0   13     -0.69      0.00
   -7    1   13     -0.80      0.00
    6    1   13     -0.89      0.00
   -6    3   13      1.78      0.00
   -6    4   13      0.66      0.00
   -6    5   13      0.17      0.00
    5    5   13     -0.12      0.00
   -6    6   13     -0.21      0.00
    5    6   13     -0.10      0.00
   -5    7   13      0.69      0.00
    4    7   13      1.57      0.00
   -5    8   13      0.36      0.00
    4    8   13      0.62      0.00
   -4    9   13      1.00      0.00
    3    9   13      0.78      0.00
   -4   10   13      0.79      0.00
    3   10   13      0.71      0.00
   -3   11   13     -0.31      0.00
    0   11   13     -1.69      0.00
    2   11   13      1.74      0.00
   -1   12   13     -1.02      0.00
    0   12   13     -1.09      0.00
   -2  -16   14      1.21      0.00
   -1  -16   14      1.11      0.00
    0  -16   14      1.38      0.00
    1  -16   14     -1.92      0.00
    2  -16   14     -2.30      0.00
   -3  -15   14      2.58      0.00
   -2  -15   14      0.15      0.00
    3  -15   14      0.72      0.00
   -4  -14   14     -0.30      0.00
    4  -13   14      1.14      0.00
   -5  -12   14     -0.75      0.00
    4  -12   14     -0.77      0.00
   -5  -11   14     -3.29      0.00
    4  -11   14     -1.71      0.00
    5  -11   14     -0.11      0.00
    4  -10   14      0.70      0.00
    5  -10   14     -0.55      0.00
   -6   -9   14      0.70      0.00
    5   -9   14      0.08      0.00
   -6   -8   14      2.39      0.00
    5   -8   14      1.95      0.00
    5   -7   14      2.47      0.00
    6   -7   14      0.06      0.00
    4   -6   14      0.66      0.00
    5   -6   14      1.34      0.00
    6   -6   14     -0.05      0.00
    5   -5   14      0.39      0.00
    6   -5   14     -0.31      0.00
    5   -4   14     -0.34      0.00
    6   -4   14     -0.37      0.00
    6   -3   14     -0.40      0.00
   -6   -2   14     -2.95      0.00
    6   -2   14     -0.13      0.00
   -6   -1   14     -1.68      0.00
    6   -1   14      0.66      0.00
   -6    0   14      1.08      0.00
    6    0   14      0.72      0.00
   -6    1   14     -0.39      0.00
    6    1   14      0.55      0.00
   -6    2   14     -1.95      0.00
   -6    3   14      0.19      0.00
   -6    4   14      1.00      0.00
   -6    5   14     -0.01      0.00
    5    5   14      0.53      0.00
   -5    6   14     -1.41      0.00
    4    6   14     -1.74      0.00
   -5    7   14     -0.64      0.00
    4    7   14     -0.80      0.00
   -4    8   14     -0.42      0.00
    3    8   14     -2.32      0.00
   -4    9   14     -0.53      0.00
    3    9   14     -0.99      0.00
   -3   10   14      1.29      0.00
    2   10   14     -1.35      0.00
   -2   11   14      1.58      0.00
   -1   11   14      2.29      0.00
    0   11   14      1.48      0.00
    1   11   14      0.25      0.00
   -1  -16   15     -1.00      0.00
    0  -16   15     -0.95      0.00
    1  -16   15      3.13      0.00
   -2  -15   15      1.59      0.00
   -1  -15   15     -0.28      0.00
   -3  -14   15      2.27      0.00
    3  -14   15     -1.34      0.00
    3  -13   15     -0.59      0.00
    4  -13   15      0.77      0.00
    4  -12   15      1.13      0.00
   -5  -11   15      2.64      0.00
    4  -11   15     -0.60      0.00
   -5  -10   15      1.16      0.00
    4  -10   15     -1.31      0.00
    5  -10   15      0.67      0.00
    4   -9   15      0.13      0.00
    5   -9   15     -0.80      0.00
   -6   -8   15     -1.85      0.00
    4   -8   15      0.35      0.00
    5   -8   15     -2.16      0.00
   -6   -7   15     -1.49      0.00
    4   -7   15      0.21      0.00
    5   -7   15     -1.16      0.00
    4   -6   15      1.81      0.00
    5   -6   15     -0.08      0.00
    5   -5   15      0.33      0.00
    5   -4   15      0.53      0.00
   -6   -3   15      1.69      0.00
    5   -3   15      0.52      0.00
   -6   -2   15      1.78      0.00
    5   -2   15      1.40      0.00
   -6   -1   15     -0.06      0.00
   -6    0   15      0.45      0.00
   -6    1   15      2.18      0.00
   -6    2   15      0.16      0.00
   -6    3   15     -1.43      0.00
   -5    4   15      3.40      0.00
    5    4   15     -0.67      0.00
   -5    5   15      1.38      0.00
   -5    6   15      0.03      0.00
    4    6   15      0.51      0.00
    3    7   15      2.84      0.00
   -4    8   15      0.18      0.00
    2    8   15      3.13      0.00
    3    8   15      1.19      0.00
   -3    9   15     -2.53      0.00
    0    9   15     -2.08      0.00
    1    9   15     -0.87      0.00
    2    9   15      1.01      0.00
   -1   10   15     -3.25      0.00
    0   10   15     -1.14      0.00
    1   10   15      0.15      0.00
   -2  -15   16     -1.96      0.00
   -1  -15   16      1.80      0.00
    2  -15   16     -0.35      0.00
   -3  -14   16     -2.50      0.00
   -2  -14   16     -1.64      0.00
    2  -14   16      1.43      0.00
    3  -13   16      1.78      0.00
    3  -12   16      2.82      0.00
    4  -12   16      0.68      0.00
    3  -11   16      0.79      0.00
    4  -11   16      0.88      0.00
   -5  -10   16      0.64      0.00
    3  -10   16     -0.91      0.00
    4  -10   16     -0.46      0.00
   -5   -9   16      0.88      0.00
    4   -9   16     -1.02      0.00
    5   -9   16      1.08      0.00
    4   -8   16     -0.81      0.00
    5   -8   16      0.61      0.00
   -6   -7   16      0.67      0.00
    4   -7   16     -2.04      0.00
    5   -7   16     -0.37      0.00
    3   -6   16     -1.31      0.00
    4   -6   16     -1.91      0.00
    5   -6   16     -0.27      0.00
   -6   -5   16     -0.65      0.00
    4   -5   16     -0.30      0.00
    5   -5   16     -0.17      0.00
   -6   -4   16     -0.61      0.00
    5   -4   16     -0.13      0.00
   -6   -3   16     -1.03      0.00
    5   -3   16     -0.92      0.00
   -6   -2   16     -0.53      0.00
    5   -2   16     -0.73      0.00
   -6   -1   16     -0.35      0.00
    5   -1   16      2.60      0.00
   -6    0   16     -1.60      0.00
    5    0   16      3.54      0.00
   -6    1   16     -0.81      0.00
    5    1   16      0.36      0.00
    5    2   16     -0.86      0.00
   -5    3   16     -4.19      0.00
   -5    4   16     -1.32      0.00
   -5    5   16      0.59      0.00
    4    5   16     -0.61      0.00
    3    6   16     -2.64      0.00
   -4    7   16      0.04      0.00
    2    7   16     -1.95      0.00
    3    7   16     -0.93      0.00
    0    8   16      1.54      0.00
    1    8   16      0.00      0.00
    2    8   16     -0.74      0.00
   -2    9   16      3.47      0.00
   -1    9   16      3.52      0.00
    0    9   16      0.36      0.00
    1    9   16     -0.69      0.00
   -1  -15   17     -0.94      0.00
    0  -15   17     -0.21      0.00
    1  -15   17      0.06      0.00
   -2  -14   17     -0.42      0.00
    2  -14   17     -2.52      0.00
   -3  -13   17      1.13      0.00
    2  -13   17     -2.48      0.00
    3  -13   17     -2.08      0.00
   -4  -12   17     -0.39      0.00
    2  -12   17     -0.72      0.00
    3  -12   17     -1.46      0.00
    3  -11   17      0.14      0.00
    4  -11   17      0.28      0.00
    3  -10   17      0.35      0.00
    4  -10   17      0.71      0.00
   -5   -9   17     -1.47      0.00
    3   -9   17      0.10      0.00
    4   -9   17      0.54      0.00
   -5   -8   17     -2.10      0.00
    3   -8   17      0.04      0.00
    4   -8   17      1.10      0.00
    3   -7   17      0.03      0.00
    4   -7   17      1.41      0.00
    5   -7   17      0.31      0.00
    4   -6   17      0.05      0.00
    5   -6   17      0.05      0.00
    4   -5   17      1.11      0.00
    5   -5   17     -0.28      0.00
   -6   -4   17      0.22      0.00
    4   -4   17      3.31      0.00
    5   -4   17     -0.16      0.00
   -6   -3   17      0.20      0.00
    4   -3   17      1.21      0.00
    5   -3   17      0.39      0.00
   -6   -2   17      0.06      0.00
    5   -2   17     -1.07      0.00
    5   -1   17     -2.23      0.00
    5    0   17     -0.13      0.00
   -5    1   17      3.33      0.00
   -5    2   17      3.82      0.00
   -5    3   17      1.39      0.00
   -5    4   17     -0.29      0.00
    4    4   17      0.75      0.00
    3    5   17      2.45      0.00
   -4    6   17     -0.08      0.00
    2    6   17      0.90      0.00
    3    6   17      0.76      0.00
   -1    7   17     -0.96      0.00
    0    7   17     -0.30      0.00
    1    7   17      0.17      0.00
    2    7   17      0.32      0.00
   -2    8   17     -3.41      0.00
   -1    8   17     -2.16      0.00
    0    8   17      0.72      0.00
    1    8   17      0.69      0.00
   -1  -14   18     -0.52      0.00
    1  -14   18      0.69      0.00
   -2  -13   18      0.92      0.00
    1  -13   18      0.25      0.00
    2  -13   18      0.36      0.00
   -3  -12   18     -4.03      0.00
    2  -12   18     -1.04      0.00
    3  -12   18     -0.45      0.00
   -4  -11   18      1.92      0.00
    2  -11   18     -0.85      0.00
    3  -11   18     -0.41      0.00
    2  -10   18      0.59      0.00
    3  -10   18      0.79      0.00
    2   -9   18      0.86      0.00
    3   -9   18      1.30      0.00
    4   -9   18     -0.03      0.00
   -5   -8   18      1.99      0.00
    2   -8   18      0.29      0.00
    3   -8   18      1.23      0.00
    4   -8   18     -0.31      0.00
   -5   -7   18      1.88      0.00
    3   -7   18      1.35      0.00
    4   -7   18      0.08      0.00
   -5   -6   18     -1.04      0.00
    3   -6   18      1.98      0.00
    4   -6   18     -0.05      0.00
    3   -5   18      2.24      0.00
    4   -5   18     -1.34      0.00
    4   -4   18     -0.17      0.00
   -5   -3   18      0.75      0.00
    4   -3   18      1.12      0.00
   -5   -2   18     -0.93      0.00
    4   -2   18     -1.22      0.00
   -5   -1   18     -1.97      0.00
    4   -1   18     -3.00      0.00
   -5    0   18     -2.41      0.00
    4    0   18     -1.57      0.00
   -5    1   18     -2.47      0.00
    4    1   18      0.47      0.00
   -5    2   18     -0.98      0.00
   -4    4   18     -0.84      0.00
    3    4   18     -1.59      0.00
   -4    5   18     -0.09      0.00
    2    5   18     -0.85      0.00
    3    5   18     -0.69      0.00
   -2    6   18      0.80      0.00
   -1    6   18     -1.61      0.00
    0    6   18     -0.56      0.00
    1    6   18      0.88      0.00
    2    6   18     -0.23      0.00
   -2    7   18      1.90      0.00
   -1    7   18     -0.12      0.00
    0    7   18     -1.21      0.00
    1    7   18      0.10      0.00
   -2  -13   19     -1.19      0.00
    0  -13   19      0.40      0.00
    1  -13   19     -0.26      0.00
   -3  -12   19      1.37      0.00
    1  -12   19     -1.47      0.00
    2  -12   19      0.88      0.00
   -3  -11   19     -0.52      0.00
    1  -11   19     -0.94      0.00
    2  -11   19      0.17      0.00
    3  -11   19     -0.19      0.00
   -4  -10   19     -1.45      0.00
    1  -10   19     -1.34      0.00
    2  -10   19     -0.30      0.00
    3  -10   19     -1.20      0.00
   -4   -9   19     -0.23      0.00
    1   -9   19     -2.46      0.00
    2   -9   19      0.01      0.00
    3   -9   19     -1.32      0.00
    2   -8   19      0.65      0.00
    3   -8   19     -1.53      0.00
    2   -7   19      1.34      0.00
    3   -7   19     -2.00      0.00
    4   -7   19      0.04      0.00
   -5   -6   19      2.14      0.00
    2   -6   19      0.77      0.00
    3   -6   19     -2.43      0.00
    4   -6   19      0.43      0.00
    3   -5   19     -2.25      0.00
    4   -5   19     -0.16      0.00
   -5   -4   19     -1.08      0.00
    3   -4   19     -1.93      0.00
    4   -4   19     -1.13      0.00
   -5   -3   19      0.90      0.00
    3   -3   19     -1.02      0.00
    4   -3   19      0.24      0.00
   -5   -2   19      2.54      0.00
    4   -2   19      1.53      0.00
   -5   -1   19      1.80      0.00
    4   -1   19      0.63      0.00
   -5    0   19      1.18      0.00
    4    0   19     -0.65      0.00
   -4    3   19      0.56      0.00
    3    3   19      0.08      0.00
   -2    4   19      1.52      0.00
    2    4   19      1.05      0.00
   -3    5   19     -1.33      0.00
   -2    5   19      1.44      0.00
   -1    5   19      3.10      0.00
    0    5   19      0.89      0.00
    1    5   19     -1.63      0.00
    2    5   19      0.24      0.00
   -2    6   19     -0.20      0.00
   -1    6   19      1.42      0.00
    0    6   19      0.78      0.00
    1    6   19     -0.58      0.00
   -2  -12   20     -2.44      0.00
    0  -12   20      2.15      0.00
    1  -12   20      0.42      0.00
    0  -11   20      1.49      0.00
    1  -11   20      0.32      0.00
    2  -11   20     -0.03      0.00
   -3  -10   20     -0.13      0.00
    0  -10   20     -0.03      0.00
    1  -10   20      1.49      0.00
    2  -10   20      0.00      0.00
    0   -9   20      1.07      0.00
    1   -9   20      0.64      0.00
    2   -9   20     -0.71      0.00
    3   -9   20      0.80      0.00
   -4   -8   20     -0.23      0.00
    1   -8   20     -0.33      0.00
    2   -8   20     -1.30      0.00
    3   -8   20      1.16      0.00
   -4   -7   20     -1.38      0.00
    1   -7   20      0.79      0.00
    2   -7   20     -0.94      0.00
    3   -7   20      1.30      0.00
   -4   -6   20     -1.54      0.00
    2   -6   20     -0.23      0.00
    3   -6   20      1.34      0.00
    2   -5   20     -0.37      0.00
    3   -5   20      1.14      0.00
    2   -4   20      0.61      0.00
    3   -4   20      0.54      0.00
    3   -3   20     -0.78      0.00
    3   -2   20     -1.30      0.00
    3   -1   20     -0.61      0.00
   -4    0   20      2.31      0.00
    3    0   20     -0.39      0.00
   -4    1   20      0.86      0.00
    3    1   20     -0.01      0.00
   -2    2   20      0.63      0.00
   -3    3   20     -0.27      0.00
   -2    3   20     -0.67      0.00
   -1    3   20     -4.54      0.00
    0    3   20      0.36      0.00
    1    3   20      3.18      0.00
    2    3   20     -0.96      0.00
   -2    4   20     -1.63      0.00
   -1    4   20     -3.24      0.00
    0    4   20     -1.05      0.00
    1    4   20      1.41      0.00
   -1    5   20     -1.42      0.00
    0    5   20     -0.40      0.00
   -1  -11   21      0.14      0.00
    0  -11   21      0.47      0.00
    1  -11   21     -0.02      0.00
   -1  -10   21      2.14      0.00
    0  -10   21     -0.15      0.00
    1  -10   21      0.15      0.00
   -3   -9   21     -0.37      0.00
   -1   -9   21      2.21      0.00
    0   -9   21     -1.51      0.00
    1   -9   21      0.46      0.00
    2   -9   21      1.07      0.00
   -1   -8   21     -1.36      0.00
    0   -8   21     -0.32      0.00
    1   -8   21     -0.85      0.00
    2   -8   21      0.81      0.00
    0   -7   21      1.59      0.00
    1   -7   21     -0.59      0.00
    2   -7   21      0.20      0.00
    1   -6   21      1.90      0.00
    2   -6   21      0.06      0.00
    3   -6   21     -0.31      0.00
   -4   -5   21      0.32      0.00
    1   -5   21      2.57      0.00
    2   -5   21     -0.44      0.00
    3   -5   21     -0.03      0.00
   -4   -4   21      0.10      0.00
    2   -4   21     -1.70      0.00
    3   -4   21      0.60      0.00
   -4   -3   21     -0.27      0.00
    2   -3   21     -0.76      0.00
    3   -3   21      0.66      0.00
   -4   -2   21     -0.97      0.00
    2   -2   21      1.66      0.00
    3   -2   21      0.06      0.00
   -3    0   21     -2.16      0.00
   -2    0   21     -0.73      0.00
   -3    1   21     -2.85      0.00
   -2    1   21     -0.64      0.00
   -2    2   21     -0.31      0.00
   -1    2   21      4.34      0.00
    0    2   21     -1.32      0.00
    1    2   21     -1.78      0.00
   -2    3   21      0.47      0.00
   -1    3   21      2.24      0.00
    0    3   21      0.59      0.00
    1    3   21     -0.94      0.00
    0  -10   22      0.22      0.00
   -2   -9   22      1.00      0.00
   -1   -9   22      0.82      0.00
    0   -9   22      0.17      0.00
    1   -9   22      0.41      0.00
   -2   -8   22      0.17      0.00
   -1   -8   22      2.32      0.00
    0   -8   22     -0.77      0.00
    1   -8   22      0.77      0.00
   -1   -7   22      1.00      0.00
    0   -7   22     -0.73      0.00
    1   -7   22     -0.72      0.00
    2   -7   22      0.20      0.00
   -3   -6   22     -1.70      0.00
    0   -6   22     -0.38      0.00
    1   -6   22     -1.45      0.00
    2   -6   22      0.51      0.00
   -3   -5   22     -1.11      0.00
    0   -5   22     -0.59      0.00
    1   -5   22     -0.68      0.00
    2   -5   22      0.99      0.00
   -3   -4   22     -0.63      0.00
    1   -4   22     -0.09      0.00
    2   -4   22      0.44      0.00
   -3   -3   22     -0.15      0.00
    1   -3   22      0.05      0.00
    2   -3   22     -1.41      0.00
   -3   -2   22     -0.08      0.00
   -2   -2   22     -0.04      0.00
    2   -2   22     -1.81      0.00
   -2   -1   22      0.86      0.00
   -2    0   22      0.37      0.00
   -1    0   22     -4.13      0.00
    0    0   22      1.26      0.00
   -2    1   22      0.31      0.00
   -1    1   22     -2.89      0.00
    0    1   22      1.88      0.00
   -1   -7   23      0.08      0.00
    0   -7   23     -0.70      0.00
   -1   -6   23      0.48      0.00
    0   -6   23     -0.24      0.00
   -1   -5   23     -0.15      0.00
    0   -5   23      0.39      0.00
   -2   -4   23      1.26      0.00
    0   -4   23      0.29      0.00
    1   -4   23     -0.01      0.00
    0   -3   23     -0.18      0.00
   -1   -2   23      2.77      0.00
    0    0    0      0.00      0.00
# SQUEEZE RESULTS (Version = 170121)
# Note: Data are Listed for all Voids in the P1 Unit Cell
# i.e. Centre of Gravity, Solvent Accessible Volume,
# Recovered number of Electrons in the Void and
# Details about the Squeezed Material
loop_
  _platon_squeeze_void_nr
  _platon_squeeze_void_average_x
  _platon_squeeze_void_average_y
  _platon_squeeze_void_average_z
  _platon_squeeze_void_volume
  _platon_squeeze_void_count_electrons
  _platon_squeeze_void_content
   1 -0.036  0.000  0.500       301        96 ' '
# Missing Reflections Below sin(th)/lambda = 0.25
loop_
  _platon_missing_refln_index_h
  _platon_missing_refln_index_k
  _platon_missing_refln_index_l
  _platon_missing_refln_theta
    0    1    0     1.706
    0   -2    1     3.350
    0   -1    1     1.893
    0    0    1     1.328
    0    1    1     2.401
   -1   -4    2     7.681
   -1   -3    2     6.340
    0   -3    2     5.172
    0   -1    2     2.791
   -1    0    2     4.371
    0    0    2     2.657
   -1   -5    3     9.302
   -1   -1    3     5.231
   -1    0    3     5.223
   -1    1    3     5.749
_platon_squeeze_void_probe_radius                  1.20
_platon_squeeze_details
)
TITL shelxl           P -1         R = 0.11
CELL    5.5840   12.3050   15.8270    103.84     93.62     91.13
SPGR P-1
# Solvent Accessible Volume =       301
# Electrons Found in S.A.V. =        92
# Note: Atoms in Void are Labelled as Cxxx and Qxxx for all Others
C101 0.933 0.844 0.298 !       7.22 eA-3
C102 0.537 0.938 0.409 !       2.79 eA-3
C103 0.395 0.932 0.424 !       2.73 eA-3
C104 0.999 0.929 0.412 !       2.54 eA-3
C105 0.616 0.950 0.437 !       2.52 eA-3
C106 0.868 0.942 0.394 !       2.37 eA-3
C107 0.313 0.962 0.447 !       2.27 eA-3
C108 0.752 0.814 0.277 !       2.03 eA-3
Q109 0.353 0.780 0.220 !       2.01 eA-3
C110 0.223 0.878 0.314 !       1.97 eA-3
C111 0.525 0.979 0.453 !       1.97 eA-3
Q112 0.341 0.364 0.481 !       1.94 eA-3
C113 0.283 0.889 0.345 !       1.92 eA-3
C114 0.759 0.989 0.451 !       1.90 eA-3
C115 0.628 0.882 0.315 !       1.89 eA-3
C116 0.156 0.843 0.360 !       1.88 eA-3
C117 0.726 0.953 0.327 !       1.86 eA-3
Q118 0.316 0.199 0.496 !       1.83 eA-3
C119 0.493 0.846 0.278 !       1.80 eA-3
C120 0.655 0.931 0.358 !       1.79 eA-3
Q121 0.345 0.923 0.309 !       1.79 eA-3
C122 0.096 1.002 0.440 !       1.74 eA-3
C123 0.763 0.857 0.325 !       1.73 eA-3
C124 0.938 0.026 0.418 !       1.69 eA-3
Q125 0.490 0.918 0.451 !       1.65 eA-3
C126 0.024 0.864 0.376 !       1.61 eA-3
C127 0.743 0.909 0.408 !       1.59 eA-3
C128 0.214 0.817 0.312 !       1.56 eA-3
C129 0.393 0.859 0.326 !       1.55 eA-3
Q130 0.968 0.102 0.437 !       1.52 eA-3
C131 0.619 0.042 0.495 !       1.49 eA-3
C132 0.188 0.915 0.346 !       1.49 eA-3
Q133 0.252 0.932 0.297 !       1.48 eA-3
C134 0.149 0.954 0.404 !       1.47 eA-3
C135 0.220 0.984 0.483 !       1.46 eA-3
C136 0.253 0.915 0.394 !       1.45 eA-3
Q137 0.539 0.892 0.281 !       1.44 eA-3
C138 0.218 0.981 0.362 !       1.43 eA-3
C139 0.119 0.992 0.389 !       1.43 eA-3
C140 0.866 0.923 0.327 !       1.39 eA-3
C141 0.071 0.973 0.327 !       1.38 eA-3
C142 0.619 0.779 0.312 !       1.37 eA-3
Q143 0.662 0.661 0.465 !       1.37 eA-3
Q144 0.632 0.797 0.200 !       1.37 eA-3
C145 0.118 0.849 0.261 !       1.35 eA-3
C146 0.811 1.000 0.399 !       1.34 eA-3
C147 0.688 0.737 0.299 !       1.32 eA-3
Q148 0.376 0.237 0.435 !       1.30 eA-3
Q149 0.520 0.075 0.448 !       1.30 eA-3
C150 0.714 0.043 0.403 !       1.29 eA-3
C151 0.747 1.008 0.350 !       1.28 eA-3
C152 0.347 0.984 0.390 !       1.27 eA-3
C153 0.440 0.873 0.397 !       1.24 eA-3
C154 0.029 0.066 0.483 !       1.23 eA-3
Q155 0.222 0.042 0.425 !       1.22 eA-3
C156 0.174 0.752 0.386 !       1.22 eA-3
Q157 0.027 0.783 0.155 !       1.21 eA-3
Q158 0.478 0.765 0.218 !       1.21 eA-3
C159 0.528 0.782 0.260 !       1.20 eA-3
C160 0.065 0.857 0.460 !       1.19 eA-3
Q161 0.688 0.731 0.182 !       1.17 eA-3
Q162 0.361 0.029 0.455 !       1.17 eA-3
Q163 0.880 0.880 0.422 !       1.16 eA-3
C164 0.624 0.855 0.373 !       1.15 eA-3
Q165 0.243 0.039 0.480 !       1.14 eA-3
C166 0.498 0.874 0.348 !       1.13 eA-3
Q167 0.781 0.727 0.485 !       1.11 eA-3
Q168 0.884 0.745 0.158 !       1.11 eA-3
Q169 0.905 0.836 0.138 !       1.10 eA-3
Q170 0.811 0.588 0.451 !       1.10 eA-3
Q171 0.249 0.836 0.247 !       1.09 eA-3
C172 0.100 0.765 0.269 !       1.08 eA-3
C173 0.627 0.763 0.251 !       1.08 eA-3
C174 0.400 0.769 0.318 !       1.07 eA-3
Q175 0.989 0.697 0.160 !       1.06 eA-3
C176 0.024 0.034 0.348 !       1.06 eA-3
C177 0.163 0.797 0.379 !       1.05 eA-3
Q178 0.706 0.019 0.291 !       1.05 eA-3
Q179 0.750 0.656 0.330 !       1.05 eA-3
Q180 0.900 0.893 0.486 !       1.05 eA-3
Q181 0.529 0.576 0.202 !       1.05 eA-3
Q182 0.337 0.789 0.414 !       1.04 eA-3
Q183 0.875 0.124 0.392 !       1.04 eA-3
Q184 0.942 0.477 0.465 !       1.04 eA-3
Q185 0.566 0.568 0.381 !       1.04 eA-3
Q186 0.876 0.800 0.487 !       1.03 eA-3
Q187 0.937 0.392 0.155 !       1.03 eA-3
Q188 0.804 0.481 0.300 !       1.02 eA-3
Q189 0.648 0.958 0.029 !       1.00 eA-3
Q190 0.942 0.127 0.481 !       1.00 eA-3
Q191 0.276 0.960 0.246 !       1.00 eA-3
C192 0.123 0.754 0.327 !       1.00 eA-3
Q193 0.256 0.777 0.467 !       0.99 eA-3
Q194 0.979 0.943 0.268 !       0.98 eA-3
Q195 0.600 0.764 0.081 !       0.98 eA-3
Q196 0.935 0.198 0.332 !       0.98 eA-3
Q197 0.055 0.071 0.415 !       0.97 eA-3
Q198 0.846 0.141 0.217 !       0.96 eA-3
Q199 0.724 0.592 0.346 !       0.96 eA-3
)
;
_shelx_fab_checksum              13285
loop_
_space_group_symop_id
_space_group_symop_operation_xyz
1 +X,+Y,+Z
2 -X,-Y,-Z
loop_
_atom_site_label
_atom_site_type_symbol
_atom_site_fract_x
_atom_site_fract_y
_atom_site_fract_z
_atom_site_U_iso_or_equiv
_atom_site_adp_type
_atom_site_occupancy
_atom_site_site_symmetry_order
_atom_site_calc_flag
_atom_site_refinement_flags_posn
_atom_site_refinement_flags_adp
_atom_site_refinement_flags_occupancy
_atom_site_disorder_assembly
_atom_site_disorder_group
Br1 Br 0.34170(19) 0.27902(9) 0.48534(7) 0.0604(4) Uani 0.86 1 d . . P A 1
O1 O 1.2764(9) 0.5880(4) 0.9967(3) 0.0465(14) Uani 1 1 d . . . . .
O2 O 1.3483(10) 0.4324(4) 0.8946(3) 0.0545(16) Uani 1 1 d . . . . .
H2O H 1.485961 0.440662 0.917006 0.065 Uiso 1 1 calc R U . . .
O3 O -0.3810(12) -0.1754(5) 0.0181(5) 0.080(2) Uani 1 1 d . . . . .
O4 O -0.7347(12) -0.1764(6) 0.0793(5) 0.095(3) Uani 1 1 d . . . . .
H4O H -0.747012 -0.241153 0.050009 0.113 Uiso 1 1 calc R U . . .
N1 N 0.3896(10) 0.5009(5) 0.6195(4) 0.0440(16) Uani 1 1 d . . . . .
N2 N -0.1085(10) 0.3058(5) 0.3647(4) 0.0406(15) Uani 1 1 d . . . . .
C1 C 0.4378(13) 0.5911(6) 0.6840(5) 0.0422(19) Uani 1 1 d . . . . .
C2 C 0.1963(13) 0.5007(7) 0.5607(5) 0.0434(19) Uani 1 1 d . . . . .
C3 C 0.1483(12) 0.4045(6) 0.4919(5) 0.0406(19) Uani 1 1 d . . . . .
H3 H 0.245567 0.343025 0.486337 0.049 Uiso 0.14 1 calc R U P A 2
C4 C -0.0517(12) 0.4032(6) 0.4311(5) 0.0394(18) Uani 1 1 d . . . . .
C5 C -0.2979(12) 0.3056(6) 0.3097(4) 0.0376(17) Uani 1 1 d . . . . .
C6 C 0.6431(13) 0.5795(6) 0.7479(5) 0.0404(18) Uani 1 1 d . . . . .
C7 C 0.6666(13) 0.6420(7) 0.8359(5) 0.048(2) Uani 1 1 d . . . . .
H7 H 0.553970 0.695028 0.856103 0.058 Uiso 1 1 calc R U . . .
C8 C 0.8600(13) 0.6250(6) 0.8937(5) 0.0414(19) Uani 1 1 d . . . . .
H8 H 0.878494 0.668330 0.950663 0.050 Uiso 1 1 calc R U . . .
C9 C 1.0229(13) 0.5410(6) 0.8628(5) 0.0393(18) Uani 1 1 d . . . . .
C10 C 1.0000(14) 0.4760(7) 0.7767(5) 0.0443(19) Uani 1 1 d . . . . .
H10 H 1.109323 0.421045 0.757371 0.053 Uiso 1 1 calc R U . . .
C11 C 0.8100(13) 0.4948(6) 0.7197(5) 0.044(2) Uani 1 1 d . . . . .
H11 H 0.793358 0.451127 0.662796 0.053 Uiso 1 1 calc R U . . .
C12 C 1.2290(13) 0.5226(6) 0.9248(5) 0.0424(19) Uani 1 1 d . . . . .
C13 C -0.3626(13) 0.1965(6) 0.2457(5) 0.0412(19) Uani 1 1 d . . . . .
C14 C -0.1985(14) 0.1490(7) 0.1841(5) 0.048(2) Uani 1 1 d . . . . .
H14 H -0.053209 0.186151 0.181901 0.058 Uiso 1 1 calc R U . . .
C15 C -0.2579(15) 0.0435(7) 0.1253(6) 0.055(2) Uani 1 1 d . . . . .
H15 H -0.153729 0.012675 0.083134 0.066 Uiso 1 1 calc R U . . .
C16 C -0.4704(14) -0.0132(7) 0.1309(6) 0.053(2) Uani 1 1 d . . . . .
C17 C -0.6333(15) 0.0318(7) 0.1921(6) 0.064(3) Uani 1 1 d . . . . .
H17 H -0.775331 -0.007113 0.195556 0.076 Uiso 1 1 calc R U . . .
C18 C -0.5777(14) 0.1375(7) 0.2482(6) 0.054(2) Uani 1 1 d . . . . .
H18 H -0.686906 0.169085 0.288280 0.065 Uiso 1 1 calc R U . . .
C19 C -0.5230(18) -0.1307(8) 0.0683(7) 0.071(3) Uani 1 1 d . . . . .
loop_
_atom_site_aniso_label
_atom_site_aniso_U_11
_atom_site_aniso_U_22
_atom_site_aniso_U_33
_atom_site_aniso_U_23
_atom_site_aniso_U_13
_atom_site_aniso_U_12
Br1 0.0531(6) 0.0629(7) 0.0541(7) -0.0044(5) -0.0147(5) 0.0193(5)
O1 0.049(3) 0.039(3) 0.044(3) -0.001(2) -0.015(3) 0.009(2)
O2 0.052(3) 0.051(3) 0.048(3) -0.007(3) -0.026(3) 0.017(3)
O3 0.070(4) 0.065(4) 0.075(4) -0.038(3) -0.016(4) 0.021(3)
O4 0.053(4) 0.066(4) 0.129(7) -0.044(4) -0.010(4) 0.000(3)
N1 0.032(3) 0.051(4) 0.040(4) -0.004(3) -0.011(3) 0.005(3)
N2 0.027(3) 0.046(4) 0.045(4) 0.005(3) -0.006(3) 0.008(3)
C1 0.029(4) 0.042(4) 0.051(5) 0.003(4) -0.003(3) 0.003(3)
C2 0.032(4) 0.062(5) 0.030(4) 0.001(3) -0.009(3) 0.012(4)
C3 0.026(3) 0.053(5) 0.036(4) -0.002(3) -0.005(3) 0.010(3)
C4 0.031(4) 0.044(4) 0.036(4) -0.003(3) -0.003(3) 0.009(3)
C5 0.030(4) 0.045(4) 0.032(4) 0.001(3) -0.003(3) 0.011(3)
C6 0.032(4) 0.045(4) 0.042(4) 0.006(3) -0.008(3) 0.002(3)
C7 0.027(4) 0.054(5) 0.050(5) -0.012(4) -0.009(3) 0.012(3)
C8 0.036(4) 0.046(4) 0.036(4) 0.000(3) -0.008(3) 0.007(3)
C9 0.032(4) 0.042(4) 0.042(4) 0.010(3) -0.010(3) 0.004(3)
C10 0.043(4) 0.047(4) 0.038(4) 0.000(3) 0.001(3) 0.015(4)
C11 0.034(4) 0.051(5) 0.040(4) -0.002(3) -0.009(3) 0.016(3)
C12 0.034(4) 0.047(5) 0.044(4) 0.007(4) -0.003(3) 0.011(3)
C13 0.035(4) 0.042(4) 0.038(4) -0.005(3) -0.008(3) 0.007(3)
C14 0.034(4) 0.056(5) 0.045(5) -0.003(4) -0.007(3) 0.009(4)
C15 0.044(5) 0.060(5) 0.050(5) -0.009(4) -0.008(4) 0.024(4)
C16 0.041(5) 0.044(5) 0.061(5) -0.011(4) -0.018(4) 0.012(4)
C17 0.034(4) 0.062(6) 0.076(6) -0.019(5) -0.004(4) -0.002(4)
C18 0.036(4) 0.056(5) 0.058(5) -0.010(4) -0.013(4) 0.002(4)
C19 0.057(6) 0.058(6) 0.071(6) -0.027(5) -0.032(5) 0.014(5)
loop_
_atom_type_symbol
_atom_type_description
_atom_type_scat_dispersion_real
_atom_type_scat_dispersion_imag
_atom_type_scat_source
C C 0.0033 0.0016
;
International Tables for Crystallography
(Vol. C, Tables 4.2.6.8 and 6.1.1.4)
;
H H 0.0000 0.0000
;
International Tables for Crystallography
(Vol. C, Table 6.1.1.4)
;
N N 0.0061 0.0033
;
International Tables for Crystallography
(Vol. C, Tables 4.2.6.8 and 6.1.1.4)
;
O O 0.0106 0.0060
;
International Tables for Crystallography
(Vol. C, Tables 4.2.6.8 and 6.1.1.4)
;
Br Br -0.2901 2.4595
;
International Tables for Crystallography
(Vol. C, Tables 4.2.6.8 and 6.1.1.4)
;
loop_
_geom_angle_atom_site_label_1
_geom_angle_atom_site_label_2
_geom_angle_atom_site_label_3
_geom_angle
_geom_angle_site_symmetry_1
_geom_angle_site_symmetry_3
_geom_angle_publ_flag
C12 O2 H2O 109.5 . . ?
C19 O4 H4O 109.5 . . ?
C1 N1 C2 119.0(6) . . ?
C5 N2 C4 118.4(6) . . ?
N1 C1 C5 121.2(6) . 2_566 ?
N1 C1 C6 114.6(6) . . ?
C5 C1 C6 124.2(6) 2_566 . ?
N1 C2 C3 118.4(6) . . ?
N1 C2 C4 120.4(6) . 2_566 ?
C3 C2 C4 121.2(6) . 2_566 ?
C2 C3 C4 118.8(6) . . ?
C2 C3 Br1 119.4(5) . . ?
C4 C3 Br1 121.7(5) . . ?
C2 C3 H3 120.6 . . ?
C4 C3 H3 120.6 . . ?
N2 C4 C3 119.4(6) . . ?
N2 C4 C2 120.7(6) . 2_566 ?
C3 C4 C2 120.0(6) . 2_566 ?
N2 C5 C1 120.1(6) . 2_566 ?
N2 C5 C13 116.0(6) . . ?
C1 C5 C13 123.9(6) 2_566 . ?
C7 C6 C11 118.5(6) . . ?
C7 C6 C1 123.6(6) . . ?
C11 C6 C1 117.7(6) . . ?
C6 C7 C8 121.0(6) . . ?
C6 C7 H7 119.5 . . ?
C8 C7 H7 119.5 . . ?
C9 C8 C7 118.7(6) . . ?
C9 C8 H8 120.7 . . ?
C7 C8 H8 120.7 . . ?
C10 C9 C8 121.5(6) . . ?
C10 C9 C12 119.9(6) . . ?
C8 C9 C12 118.6(6) . . ?
C9 C10 C11 119.4(6) . . ?
C9 C10 H10 120.3 . . ?
C11 C10 H10 120.3 . . ?
C10 C11 C6 121.0(7) . . ?
C10 C11 H11 119.5 . . ?
C6 C11 H11 119.5 . . ?
O1 C12 O2 124.2(6) . . ?
O1 C12 C9 122.0(6) . . ?
O2 C12 C9 113.8(6) . . ?
C18 C13 C14 118.9(7) . . ?
C18 C13 C5 121.4(7) . . ?
C14 C13 C5 119.6(7) . . ?
C13 C14 C15 119.2(8) . . ?
C13 C14 H14 120.4 . . ?
C15 C14 H14 120.4 . . ?
C16 C15 C14 120.1(8) . . ?
C16 C15 H15 119.9 . . ?
C14 C15 H15 119.9 . . ?
C15 C16 C17 121.4(7) . . ?
C15 C16 C19 118.5(8) . . ?
C17 C16 C19 120.1(9) . . ?
C16 C17 C18 118.4(8) . . ?
C16 C17 H17 120.8 . . ?
C18 C17 H17 120.8 . . ?
C13 C18 C17 121.9(8) . . ?
C13 C18 H18 119.1 . . ?
C17 C18 H18 119.1 . . ?
O3 C19 O4 125.0(8) . . ?
O3 C19 C16 122.2(9) . . ?
O4 C19 C16 112.8(8) . . ?
loop_
_geom_bond_atom_site_label_1
_geom_bond_atom_site_label_2
_geom_bond_distance
_geom_bond_site_symmetry_2
_geom_bond_publ_flag
Br1 C3 1.888(7) . ?
O1 C12 1.236(9) . ?
O2 C12 1.312(8) . ?
O2 H2O 0.8200 . ?
O3 C19 1.204(11) . ?
O4 C19 1.338(13) . ?
O4 H4O 0.8200 . ?
N1 C1 1.325(9) . ?
N1 C2 1.380(8) . ?
N2 C5 1.327(8) . ?
N2 C4 1.408(9) . ?
C1 C5 1.491(10) 2_566 ?
C1 C6 1.512(10) . ?
C2 C3 1.412(10) . ?
C2 C4 1.430(10) 2_566 ?
C3 C4 1.425(9) . ?
C3 H3 0.9300 . ?
C5 C13 1.498(10) . ?
C6 C7 1.417(10) . ?
C6 C11 1.423(10) . ?
C7 C8 1.422(9) . ?
C7 H7 0.9300 . ?
C8 C9 1.408(10) . ?
C8 H8 0.9300 . ?
C9 C10 1.403(10) . ?
C9 C12 1.521(9) . ?
C10 C11 1.407(10) . ?
C10 H10 0.9300 . ?
C11 H11 0.9300 . ?
C13 C18 1.399(11) . ?
C13 C14 1.412(11) . ?
C14 C15 1.423(11) . ?
C14 H14 0.9300 . ?
C15 C16 1.383(13) . ?
C15 H15 0.9300 . ?
C16 C17 1.395(12) . ?
C16 C19 1.555(11) . ?
C17 C18 1.405(11) . ?
C17 H17 0.9300 . ?
C18 H18 0.9300 . ?
loop_
_geom_hbond_atom_site_label_D
_geom_hbond_atom_site_label_H
_geom_hbond_atom_site_label_A
_geom_hbond_site_symmetry_D
_geom_hbond_site_symmetry_H
_geom_hbond_site_symmetry_A
_geom_hbond_distance_DA
_geom_hbond_distance_DH
_geom_hbond_distance_HA
_geom_hbond_angle_DHA
_geom_hbond_publ_flag
O2 H2O O1 . . 2_867 2.681(8) 0.820 1.942 149.5 no
O4 H4O O1 . . 1_344 2.885(8) 0.820 2.080 167.3 no
loop_
_geom_torsion_atom_site_label_1
_geom_torsion_atom_site_label_2
_geom_torsion_atom_site_label_3
_geom_torsion_atom_site_label_4
_geom_torsion
_geom_torsion_site_symmetry_1
_geom_torsion_site_symmetry_2
_geom_torsion_site_symmetry_3
_geom_torsion_site_symmetry_4
_geom_torsion_publ_flag
C2 N1 C1 C5 -4.3(12) . . . 2_566 ?
C2 N1 C1 C6 176.2(7) . . . . ?
C1 N1 C2 C3 179.4(8) . . . . ?
C1 N1 C2 C4 0.5(12) . . . 2_566 ?
N1 C2 C3 C4 179.6(7) . . . . ?
C4 C2 C3 C4 -1.5(13) 2_566 . . . ?
N1 C2 C3 Br1 2.2(11) . . . . ?
C4 C2 C3 Br1 -178.9(6) 2_566 . . . ?
C5 N2 C4 C3 178.8(7) . . . . ?
C5 N2 C4 C2 0.5(11) . . . 2_566 ?
C2 C3 C4 N2 -176.9(8) . . . . ?
Br1 C3 C4 N2 0.5(11) . . . . ?
C2 C3 C4 C2 1.5(13) . . . 2_566 ?
Br1 C3 C4 C2 178.9(6) . . . 2_566 ?
C4 N2 C5 C1 3.2(11) . . . 2_566 ?
C4 N2 C5 C13 -174.6(7) . . . . ?
N1 C1 C6 C7 -154.2(8) . . . . ?
C5 C1 C6 C7 26.3(13) 2_566 . . . ?
N1 C1 C6 C11 20.5(11) . . . . ?
C5 C1 C6 C11 -159.0(8) 2_566 . . . ?
C11 C6 C7 C8 3.3(12) . . . . ?
C1 C6 C7 C8 178.0(7) . . . . ?
C6 C7 C8 C9 -2.7(12) . . . . ?
C7 C8 C9 C10 1.0(12) . . . . ?
C7 C8 C9 C12 -179.8(7) . . . . ?
C8 C9 C10 C11 -0.1(12) . . . . ?
C12 C9 C10 C11 -179.3(7) . . . . ?
C9 C10 C11 C6 0.8(13) . . . . ?
C7 C6 C11 C10 -2.4(12) . . . . ?
C1 C6 C11 C10 -177.4(8) . . . . ?
C10 C9 C12 O1 169.4(8) . . . . ?
C8 C9 C12 O1 -9.8(12) . . . . ?
C10 C9 C12 O2 -10.6(11) . . . . ?
C8 C9 C12 O2 170.2(7) . . . . ?
N2 C5 C13 C18 114.2(8) . . . . ?
C1 C5 C13 C18 -63.6(11) 2_566 . . . ?
N2 C5 C13 C14 -62.6(10) . . . . ?
C1 C5 C13 C14 119.7(8) 2_566 . . . ?
C18 C13 C14 C15 1.1(11) . . . . ?
C5 C13 C14 C15 178.0(7) . . . . ?
C13 C14 C15 C16 -2.3(12) . . . . ?
C14 C15 C16 C17 1.5(13) . . . . ?
C14 C15 C16 C19 -177.2(7) . . . . ?
C15 C16 C17 C18 0.4(14) . . . . ?
C19 C16 C17 C18 179.1(8) . . . . ?
C14 C13 C18 C17 0.8(13) . . . . ?
C5 C13 C18 C17 -176.0(8) . . . . ?
C16 C17 C18 C13 -1.6(14) . . . . ?
C15 C16 C19 O3 3.2(14) . . . . ?
C17 C16 C19 O3 -175.6(9) . . . . ?
C15 C16 C19 O4 -179.3(8) . . . . ?
C17 C16 C19 O4 1.9(13) . . . . ?
