#------------------------------------------------------------------------------
#$Date: 2021-11-06 20:51:41 +0200 (Sat, 06 Nov 2021) $
#$Revision: 270372 $
#$URL: file:///home/coder/svn-repositories/cod/cif/7/12/89/7128957.cif $
#------------------------------------------------------------------------------
#
# This file is available in the Crystallography Open Database (COD),
# http://www.crystallography.net/
#
# All data on this site have been placed in the public domain by the
# contributors.
#
data_7128957
loop_
_publ_author_name
'Yan, Yong'
'Henfling, Stefan'
'Zhang, Ning-Ning'
'Krautscheid, Harald'
_publ_section_title
;
 Semiconductive coordination polymers with continuous \p-\p interactions
 and defined crystal structures.
;
_journal_issue                   80
_journal_name_full
'Chemical communications (Cambridge, England)'
_journal_page_first              10407
_journal_page_last               10410
_journal_paper_doi               10.1039/d1cc03333f
_journal_volume                  57
_journal_year                    2021
_chemical_formula_moiety         'C2H8N 1+, C14H5N2O6 1-'
_chemical_formula_sum            'C16 H13 N3 O6'
_chemical_formula_weight         343.30
_space_group_crystal_system      triclinic
_space_group_IT_number           2
_space_group_name_Hall           '-P 1'
_space_group_name_H-M_alt        'P -1'
_atom_sites_solution_hydrogens   mixed
_atom_sites_solution_primary     direct
_atom_sites_solution_secondary   difmap
_audit_creation_method           SHELXL-2014/7
_audit_update_record
;
2021-06-16 deposited with the CCDC.	2021-09-07 downloaded from the CCDC.
;
_cell_angle_alpha                71.835(8)
_cell_angle_beta                 78.233(9)
_cell_angle_gamma                71.616(8)
_cell_formula_units_Z            2
_cell_length_a                   6.6813(7)
_cell_length_b                   9.1526(9)
_cell_length_c                   12.8079(13)
_cell_measurement_reflns_used    5681
_cell_measurement_temperature    180(2)
_cell_measurement_theta_max      71.03
_cell_measurement_theta_min      5.29
_cell_volume                     701.34(13)
_computing_cell_refinement       'STOE X-AREA'
_computing_data_collection       'STOE X-AREA'
_computing_data_reduction        'STOE X-AREA'
_computing_structure_refinement  'SHELXL-2014/7 (Sheldrick, 2014)'
_computing_structure_solution    SHELXS
_diffrn_ambient_temperature      180(2)
_diffrn_measured_fraction_theta_full 0.995
_diffrn_measured_fraction_theta_max 0.995
_diffrn_measurement_device_type  'STOE STADIVARI'
_diffrn_measurement_method       'rotation method, \w scans'
_diffrn_radiation_type           CuK\a
_diffrn_radiation_wavelength     1.54186
_diffrn_reflns_av_R_equivalents  0.0563
_diffrn_reflns_av_unetI/netI     0.0546
_diffrn_reflns_Laue_measured_fraction_full 0.995
_diffrn_reflns_Laue_measured_fraction_max 0.995
_diffrn_reflns_limit_h_max       8
_diffrn_reflns_limit_h_min       -8
_diffrn_reflns_limit_k_max       10
_diffrn_reflns_limit_k_min       -10
_diffrn_reflns_limit_l_max       15
_diffrn_reflns_limit_l_min       -15
_diffrn_reflns_number            20194
_diffrn_reflns_point_group_measured_fraction_full 0.995
_diffrn_reflns_point_group_measured_fraction_max 0.995
_diffrn_reflns_theta_full        67.686
_diffrn_reflns_theta_max         67.983
_diffrn_reflns_theta_min         5.284
_diffrn_source                   'GeniX 3D HF Cu'
_exptl_absorpt_coefficient_mu    1.081
_exptl_absorpt_correction_T_max  0.958
_exptl_absorpt_correction_T_min  0.937
_exptl_absorpt_correction_type   multi-scan
_exptl_absorpt_process_details
;
STOE LANA, absorption correction by scaling of reflection intensities.
J. Koziskova, F. Hahn, J. Richter, J. Kozisek, "Comparison of different
absorption corrections on the model structure of tetrakis(\m~2~-acetato)-
diaqua-di-copper(II)", Acta Chimica Slovaca, vol. 9, no. 2, 2016, pp. 136 - 140.
Afterwards a spherical absorption correction was performed within STOE LANA.
;
_exptl_crystal_colour            brown
_exptl_crystal_density_diffrn    1.626
_exptl_crystal_density_method    'not measured'
_exptl_crystal_description       plate
_exptl_crystal_F_000             356
_exptl_crystal_size_max          0.100
_exptl_crystal_size_mid          0.050
_exptl_crystal_size_min          0.040
_refine_diff_density_max         0.255
_refine_diff_density_min         -0.310
_refine_diff_density_rms         0.056
_refine_ls_extinction_method     none
_refine_ls_goodness_of_fit_ref   1.021
_refine_ls_hydrogen_treatment    mixed
_refine_ls_matrix_type           full
_refine_ls_number_parameters     233
_refine_ls_number_reflns         4632
_refine_ls_number_restraints     0
_refine_ls_restrained_S_all      1.021
_refine_ls_R_factor_all          0.0870
_refine_ls_R_factor_gt           0.0600
_refine_ls_shift/su_max          0.000
_refine_ls_shift/su_mean         0.000
_refine_ls_structure_factor_coef Fsqd
_refine_ls_weighting_details
'w=1/[\s^2^(Fo^2^)+(0.0787P)^2^+0.0872P] where P=(Fo^2^+2Fc^2^)/3'
_refine_ls_weighting_scheme      calc
_refine_ls_wR_factor_gt          0.1456
_refine_ls_wR_factor_ref         0.1575
_reflns_Friedel_coverage         0.000
_reflns_number_gt                3092
_reflns_number_total             4632
_reflns_threshold_expression     'I > 2\s(I)'
_cod_data_source_file            d1cc03333f2.cif
_cod_data_source_block           l-hk
_cod_depositor_comments
'Adding full bibliography for 7128957--7128960.cif.'
_cod_database_code               7128957
_shelx_shelxl_version_number     2014/7
_shelx_space_group_comment
;
The symmetry employed for this shelxl refinement is uniquely defined
by the following loop, which should always be used as a source of
symmetry information in preference to the above space-group names.
They are only intended as comments.
;
_shelx_estimated_absorpt_t_min   0.900
_shelx_estimated_absorpt_t_max   0.958
_shelx_res_file
;

    l-hk.res created by SHELXL-2014/7


TITL deprot. ligand: (MeNH2)(HONDI)  in P-1
CELL 1.54186 6.6813  9.1526  12.8079  71.835  78.233  71.616
ZERR 2       0.0007  0.0009   0.0013   0.008   0.009   0.008
LATT 1
SFAC C H N O
UNIT 32 26 6 12
SIZE 0.04 0.05 0.10
TEMP -93.15
OMIT  -2 136
L.S. 10
PLAN  -5
CONF
BOND $H
list 4
MORE -1
fmap 2 53
acta
MERG 0

WGHT    0.078700    0.087200
BASF   0.62285
FVAR       0.63241
MOLE   1
O1    4    0.931372    0.263211    0.728069    11.00000    0.04642    0.03286 =
         0.04622   -0.01936   -0.00718   -0.01102
O2    4    0.823709    0.022875    0.883645    11.00000    0.05233    0.03705 =
         0.03215   -0.01348   -0.00520   -0.01271
O3    4    0.885346   -0.247367    0.832545    11.00000    0.07812    0.03355 =
         0.03473   -0.00537   -0.00809   -0.02030
N1    3    0.889796    0.012286    0.777272    11.00000    0.03796    0.03013 =
         0.03262   -0.00964   -0.00580   -0.00878
C1    1    0.908457   -0.133411    0.757123    11.00000    0.03599    0.03080 =
         0.03839   -0.00842   -0.00657   -0.00968
C2    1    0.935983    0.145781    0.700396    11.00000    0.02982    0.03217 =
         0.04055   -0.01050   -0.00794   -0.00779
C3    1    0.978689    0.139942    0.583541    11.00000    0.02550    0.02970 =
         0.03776   -0.01407   -0.00488   -0.00945
C4    1    1.004047    0.273159    0.500256    11.00000    0.03223    0.02900 =
         0.04344   -0.01341   -0.00419   -0.01186
AFIX  43
H4    2    0.998030    0.367527    0.518515    11.00000   -1.20000
AFIX   0
C5    1    1.038672    0.271242    0.388725    11.00000    0.02873    0.02636 =
         0.04154   -0.00713   -0.00595   -0.00713
AFIX  43
H5A   2    1.056248    0.364052    0.332361    11.00000   -1.20000
AFIX   0
C6    1    1.047269    0.136806    0.360674    11.00000    0.02694    0.03144 =
         0.03846   -0.01130   -0.00800   -0.00544
C7    1    1.017394   -0.001065    0.444139    11.00000    0.02802    0.02746 =
         0.03309   -0.00771   -0.00598   -0.00924

MOLE  2
O4    4    0.422671    0.427985    0.844365    11.00000    0.05254    0.04419 =
         0.03787   -0.01373   -0.00232   -0.01904
O5    4    0.420728    0.131449    0.865467    11.00000    0.05300    0.04056 =
         0.03675   -0.00272   -0.00472   -0.02116
H5    2    0.575725    0.084246    0.880805    11.00000    0.08583
O6    4    0.440785    0.043638    0.683530    11.00000    0.04788    0.02678 =
         0.04968   -0.00604   -0.00984   -0.01600
N2    3    0.438623    0.236951    0.761804    11.00000    0.03878    0.03144 =
         0.03485   -0.00647   -0.00354   -0.01395
C8    1    0.447837    0.179032    0.671287    11.00000    0.02650    0.03209 =
         0.04600   -0.00940   -0.00694   -0.00792
C9    1    0.441167    0.389856    0.759273    11.00000    0.02566    0.03292 =
         0.04352   -0.01108   -0.00462   -0.00740
C10   1    0.468762    0.498991    0.648341    11.00000    0.02775    0.03259 =
         0.03807   -0.01075   -0.00265   -0.00827
C11   1    0.484508    0.447900    0.552984    11.00000    0.02646    0.03286 =
         0.04143   -0.01256   -0.00437   -0.01300
C12   1    0.480091    0.651413    0.637622    11.00000    0.03538    0.03126 =
         0.03954   -0.01239   -0.00641   -0.00768
AFIX  43
H12   2    0.469256    0.685562    0.701898    11.00000   -1.20000
AFIX   0
C13   1    0.507226    0.754974    0.533432    11.00000    0.03592    0.02649 =
         0.04425   -0.01001   -0.01121   -0.01045
AFIX  43
H13   2    0.513022    0.859675    0.527518    11.00000   -1.20000
AFIX   0
C14   1    0.525828    0.708606    0.438789    11.00000    0.02678    0.02837 =
         0.04227   -0.00784   -0.00557   -0.01158

MOLE  3
N3    3    0.885178    0.234004    0.981869    11.00000    0.05211    0.03292 =
         0.03534   -0.01096   -0.01073   -0.01331
AFIX  23
H3A   2    1.003946    0.182638    1.016707    11.00000   -1.20000
H3B   2    0.890649    0.186121    0.928453    11.00000   -1.20000
AFIX   0
C15   1    0.695160    0.216946    1.063220    11.00000    0.05887    0.04398 =
         0.04323   -0.01255   -0.00125   -0.02395
AFIX 137
H15A  2    0.567965    0.260310    1.024621    11.00000   -1.50000
H15B  2    0.681976    0.275579    1.117662    11.00000   -1.50000
H15C  2    0.710158    0.103695    1.101056    11.00000   -1.50000
AFIX   0
C16   1    0.884407    0.401206    0.929760    11.00000    0.05008    0.03458 =
         0.04684   -0.00952   -0.00933   -0.01808
AFIX 137
H16A  2    1.020398    0.405910    0.884227    11.00000   -1.50000
H16B  2    0.863519    0.456388    0.987166    11.00000   -1.50000
H16C  2    0.768790    0.453147    0.883034    11.00000   -1.50000
AFIX   0
HKLF 5

REM  deprot. ligand: (MeNH2)(HONDI)  in P-1
REM R1 =  0.0600 for    3092 Fo > 4sig(Fo)  and  0.0870 for all    4632 data
REM    233 parameters refined using      0 restraints

END

WGHT      0.0787      0.0872

REM Highest difference peak  0.255,  deepest hole -0.310,  1-sigma level  0.056
Q1    1   0.5166  0.3535  0.5608  11.00000  0.05    0.26
Q2    1   0.9970  0.2769  0.6628  11.00000  0.05    0.21
Q3    1   0.9323  0.0123  0.4943  11.00000  0.05    0.21
Q4    1   0.8669 -0.0339  0.5981  11.00000  0.05    0.20
Q5    1   0.3579  0.1993  0.9160  11.00000  0.05    0.19
;
_shelx_res_checksum              8333
_shelx_hkl_file
;
   0  -1  13    0.01    1.29   1
   0  -1  12    4.37    1.59   1
   0   1 -11    8.37    2.00   1
   0  -1  10    9.56    1.78   1
   0  -1   9   30.27    2.42   1
   0  -1   8    6.47    0.92   1
   0  -1   7   18.96    1.30   1
   0  -1   6   48.08    2.30   1
   0   1  -5  179.44    7.10   1
   0  -1   4   16.42    0.86   1
   0   1  -3   78.87    1.04   1
   0  -1   2   88.79    1.03   1
   0  -1   1  144.45    3.29   1
   0  -1   0  174.82    4.96   1
   0  -1  -1  226.02    1.90   1
   0  -1  -2   40.46    0.74   1
   0   1   3   53.35    1.29   1
   0  -1  -4   13.92    0.77   1
   0  -1  -5   19.99    0.92   1
   0   1   6  192.05    4.53   1
   0   1   7    1.01    0.61   1
   0  -1  -8   14.23    1.49   1
   0   1   9   29.44    1.39   1
   0  -1 -10  110.25    6.48   1
   0  -1 -11   21.59    2.49   1
   0  -1 -12    0.72    1.50   1
   0  -1 -13   -0.50    1.20   1
   0  -1 -14    0.68    1.38   1
   0  -1 -15   -1.40    1.22   1
   0  -2  13   -0.21    1.31   1
   0  -2  12    2.28    1.61   1
   0  -2  11   19.45    1.87   1
   0  -2  10   15.12    1.81   1
   0  -2   9   61.29    4.86   1
   0  -2   8   15.58    1.73   1
   0   2  -7    1.98    0.96   1
   0  -2   6    8.10    0.96   1
   0  -2   5   38.18    1.14   1
   0  -2   4  260.02    4.08   1
   0   2  -3   17.41    1.12   1
   0  -2   2    8.86    0.70   1
   0   2  -1    0.21    0.63   1
   0  -2   0  195.42    1.67   1
   0  -2  -1   29.77    1.47   1
   0  -2  -2  220.76    3.92   1
   0  -2  -3    4.43    0.63   1
   0   2   4   48.12    1.52   1
   0  -2  -5  236.50    6.34   1
   0   2   6   27.89    1.88   1
   0   2   7   -0.24    1.11   1
   0  -2  -8    0.30    0.94   1
   0  -2  -9   29.58    2.01   1
   0  -2 -10   13.36    2.01   1
   0  -2 -11    7.25    1.23   1
   0  -2 -12    6.36    2.01   1
   0  -2 -13   -0.05    1.22   1
   0  -2 -14    2.29    1.23   1
   0  -2 -15    0.96    0.81   1
   0  -3  12    5.75    0.83   1
   0  -3  11   -0.78    1.01   1
   0  -3  10    9.19    1.45   1
   0  -3   9    9.50    1.59   1
   0  -3   8    0.65    1.36   1
   0  -3   7   22.40    2.91   1
   0  -3   6    1.57    0.98   1
   0  -3   5   26.11    1.97   1
   0  -3   4   57.78    2.79   1
   0  -3   3  310.76    4.81   1
   0  -3   2  101.55    2.43   1
   0  -3   1  181.15    7.19   1
   0  -3   0    3.32    0.80   1
   0  -3  -1   70.92    1.59   1
   0  -3  -2  160.01    1.75   1
   0  -3  -3   87.77    1.18   1
   0  -3  -4    9.60    1.29   1
   0   3   5   90.98    2.47   1
   0  -3  -6  109.59    1.94   1
   0  -3  -7   15.29    1.45   1
   0  -3  -8    4.24    1.53   1
   0  -3  -9   -0.01    0.97   1
   0  -3 -10    1.04    1.08   1
   0  -3 -11   -0.18    1.53   1
   0  -3 -12   50.25    2.95   1
   0  -3 -13    0.51    1.95   1
   0  -3 -14    0.08    0.90   1
   0  -3 -15    3.30    0.77   1
   0  -5  11    0.14    0.68   1
   0  -5  10    2.54    1.36   1
   0  -5   9    1.72    0.92   1
   0  -5   8    0.57    2.23   1
   0  -5   7    0.90    0.94   1
   0  -5   6    3.53    0.65   1
   0  -5   5    5.34    1.09   1
   0  -5   4   -0.61    1.30   1
   0  -5   2    0.44    0.57   1
   0  -5   1    2.76    1.13   1
   0  -5   0   28.80    1.44   1
   0  -5  -2   11.02    0.65   1
   0  -5  -3   57.30    1.62   1
   0  -5  -4   42.50    1.30   1
   0  -5  -5    5.89    0.96   1
   0  -5  -9   53.82    5.31   1
   0  -5 -10    0.09    1.11   1
   0  -5 -11    5.19    2.30   1
   0  -5 -12   14.30    2.46   1
   0  -5 -13    4.44    1.37   1
   0  -5 -14    1.37    0.79   1
   0  -5 -15   -0.53    1.98   1
   0  -6   9    4.29    1.99   1
   0  -6   8    2.93    0.78   1
   0  -6   7    1.59    1.25   1
   0  -6   6   11.06    1.95   1
   0  -6   5    0.28    1.21   1
   0  -6   4   41.15    2.65   1
   0  -6   3   51.45    3.02   1
   0  -6   2    0.92    0.81   1
   0  -6   1   36.88    4.03   1
   0  -6   0   10.61    1.59   1
   0  -6  -1    3.18    0.83   1
   0  -6  -2    4.05    1.23   1
   0  -6  -3   -0.19    0.71   1
   0  -6  -4    2.18    0.98   1
   0  -6  -5    1.25    1.14   1
   0  -6  -6   21.41    1.33   1
   0  -6  -7   29.42    2.08   1
   0  -6  -8   29.75    1.81   1
   0  -6  -9   70.34    3.98   1
   0  -6 -10    8.27    1.69   1
   0  -6 -11    0.42    1.37   1
   0  -6 -12   17.79    2.23   1
   0  -6 -13    0.78    0.97   1
   0  -6 -14    5.78    1.92   1
   0  -7   8    1.60    0.85   1
   0  -7   7    0.12    0.64   1
   0  -7   6    0.61    1.21   1
   0  -7   5    4.56    1.94   1
   0  -7   4    0.38    1.16   1
   0  -7   3   39.04    4.03   1
   0  -7   2    2.57    1.27   1
   0  -7   1   23.60    2.20   1
   0  -7   0   62.24    2.03   1
   0  -7  -1    0.52    1.32   1
   0  -7  -2    4.68    1.12   1
   0  -7  -3    6.92    1.38   1
   0  -7  -4    7.03    1.08   1
   0  -7  -5   18.02    1.75   1
   0  -7  -6   32.53    3.39   1
   0  -7  -7   89.75    4.06   1
   0  -7  -8    5.14    1.84   1
   0  -7  -9    2.31    1.92   1
   0  -7 -10    1.67    1.43   1
   0  -7 -11    2.01    1.12   1
   0  -7 -12    0.37    0.98   1
   0  -7 -13    1.02    1.48   1
   0  -8   6    0.79    0.49   1
   0  -8 -10    0.88    1.25   1
   0  -8 -11   -0.81    1.03   1
   0  -8 -12    1.01    1.03   1
   0  -9 -10    2.40    0.96   1
   0 -10   1    0.03    1.27   1
   0 -10   0    4.66    1.74   1
   0 -10  -1    2.53    1.74   1
   0 -10  -2    9.00    1.46   1
   0 -10  -3    1.17    1.29   1
   0 -10  -4    1.66    1.42   1
   0 -10  -5    1.18    0.73   1
   0 -10  -6    5.58    1.63   1
   0 -10  -7    7.55    2.05   1
   0 -10  -8    1.19    1.77   1
   1  -9  -9    5.27    1.37   1
   1  -9  -8    3.49    1.14   1
   1  -9  -7    0.12    0.90   1
   1  -9  -6    1.01    1.03   1
   1  -9  -5    6.64    1.42   1
   1  -9  -4    1.59    1.10   1
   1  -9  -3    2.24    1.05   1
   1  -9  -2   10.11    1.33   1
   1  -9  -1    1.03    1.08   1
   1  -9   0    0.14    0.69   1
   1  -9   1   -0.29    0.77   1
   1  -9   2   -0.06    1.03   1
   1  -9   3    0.61    0.65   1
   1  -8 -11    0.38    1.05   1
   1  -8 -10    0.59    1.05   1
   1  -8  -9    7.67    2.07   1
   1  -8  -8    2.93    0.98   1
   1  -8  -7    7.36    1.58   1
   1  -8  -6    0.55    1.32   1
   1  -8  -5   15.89    2.17   1
   1  -8  -4   -0.23    1.21   1
   1  -8  -3   -0.50    1.37   1
   1  -8  -2    6.09    1.86   1
   1  -8  -1    0.62    0.73   1
   1  -8   0   31.74    2.61   1
   1  -8   1    9.88    1.94   1
   1  -8   2    1.63    1.58   1
   1  -8   3    5.31    1.81   1
   1  -8   4   -0.24    0.97   1
   1  -8   5    0.35    1.45   1
   1  -8   6    2.39    1.40   1
   1  -7 -12   -0.46    0.93   1
   1  -7   7    0.07    1.00   1
   1  -7   8   -0.04    1.00   1
   1  -6 -13    0.18    1.54   1
   1  -6 -12   -0.29    1.66   1
   1  -6 -11    1.65    1.44   1
   1  -6  -8   37.13    1.82   1
   1  -6  -7    7.85    3.42   1
   1  -6  -5    8.55    1.04   1
   1  -6   9    1.67    1.38   1
   1  -5 -14    1.23    1.13   1
   1  -5 -13    0.56    1.10   1
   1  -5 -12    2.14    1.80   1
   1  -5 -11   23.41    1.91   1
   1  -5 -10    1.83    1.63   1
   1  -5  -9   35.95    2.54   1
   1  -5  -8   71.94    4.22   1
   1  -5  -7    1.92    1.47   1
   1  -5  -6   -0.06    1.35   1
   1  -5  -5   19.82    1.89   1
   1  -5  -4    0.75    1.06   1
   1  -5  -3    7.75    1.16   1
   1  -5  -2   97.39    7.24   1
   1  -5  -1   11.12    0.89   1
   1  -5   0    2.23    0.80   1
   1  -5   1    2.06    0.78   1
   1  -5   2    7.46    1.84   1
   1  -5   3    5.15    0.99   1
   1  -5   4   18.12    1.12   1
   1  -5   5    0.43    1.12   1
   1  -5   6    1.83    1.68   1
   1  -5   7    7.92    1.54   1
   1  -5   8    1.37    1.19   1
   1  -5   9    2.64    1.35   1
   1  -5  10    2.88    1.35   1
   1  -4 -14    2.11    1.46   1
   1  -4 -13    0.78    1.67   1
   1  -4 -12    1.48    1.06   1
   1  -4 -11    1.31    1.41   1
   1  -4 -10    7.54    1.37   1
   1  -4  -9    7.53    1.78   1
   1  -4  -8    6.20    1.68   1
   1  -4  -7   -0.69    1.09   1
   1  -4  -6    0.66    0.78   1
   1  -4  -5   16.59    1.39   1
   1  -4  -4   29.59    1.03   1
   1  -4  -3   32.01    1.60   1
   1  -4  -2  124.82    5.19   1
   1  -4  -1  195.38    7.56   1
   1  -4   0    6.73    1.20   1
   1  -4   1    1.23    0.83   1
   1  -4   2   20.57    1.86   1
   1  -4   3    0.96    0.94   1
   1  -4   4   33.36    1.20   1
   1  -4   5   28.36    1.28   1
   1  -4   6    9.00    1.21   1
   1  -4   7    6.71    1.34   1
   1  -4   8    2.08    1.53   1
   1  -4   9   38.59    2.82   1
   1  -4  10    0.78    1.32   1
   1  -4  11   -0.18    1.25   1
   1  -4  12    2.59    1.06   1
   1  -3 -14    0.43    1.14   1
   1  -3 -12    2.07    1.29   1
   1  -3 -11    0.24    1.33   1
   1  -3 -10    1.32    1.15   1
   1  -3  -9    6.39    1.62   1
   1  -3  -4    1.15    0.85   1
   1  -3  -3    5.99    1.13   1
   1  -3  -2   70.45    4.26   1
   1  -3  -1    3.99    0.67   1
   1  -3   0   30.89    2.90   1
   1  -3   4   13.29    1.06   1
   1  -3   7   13.85    1.98   1
   1  -3   8    6.91    1.17   1
   1  -3   9   19.28    1.84   1
   1  -3  10    5.29    1.71   1
   1  -3  11    1.11    1.77   1
   1  -3  12    0.18    0.87   1
   1  -2  -1   31.23    1.03   1
   1  -2  12    1.32    1.18   1
   1  -1 -14    0.83    1.44   1
   1  -1 -13   -0.44    0.99   1
   1  -1 -12   12.54    2.05   1
   1  -1 -11   35.31    1.64   1
   1  -1 -10   47.65    1.94   1
   1  -1  -9   10.25    1.64   1
   1  -1  -8    9.38    1.59   1
   1  -1  -7    0.63    1.25   1
   1  -1  -6   11.78    1.16   1
  -1   1   5  386.54   14.01   1
   1  -1  -4    0.43    0.73   1
  -1   1   3  160.60    3.44   1
   1  -1  -2  127.68    5.50   1
   1  -1  -1  443.60    5.66   1
   1  -1   0  435.48    8.82   1
   1  -1   1  159.44    3.79   1
   1  -1   2  130.43    3.25   1
   1  -1   3  197.55    2.62   1
   1  -1   4   71.38    2.56   1
  -1   1  -5   13.50    1.31   1
   1  -1   6    0.95    1.04   1
  -1   1  -7    3.90    1.12   1
   1  -1   8    7.87    2.10   1
   1  -1   9   12.33    1.36   1
   1  -1  10   17.67    1.27   1
   1  -1  11    8.67    1.57   1
   1  -1  12    4.61    1.59   1
   1  -1  13    1.88    0.92   1
   1  -1  14    2.23    0.89   1
   1   0 -14    1.04    0.76   1
   1   0 -13    1.06    1.31   1
   1   0 -12    5.29    1.71   1
   1   0 -11   13.07    2.00   1
   1   0 -10   36.14    2.35   1
   1   0  -9   26.52    2.58   1
   1   0  -8    7.36    1.38   1
   1   0  -7    5.53    1.01   1
  -1   0   6   27.38    1.07   1
   1   0  -5   48.86    0.99   1
   1   0  -4   44.07    1.51   1
   1   0  -3    1.83    0.64   1
   1   0  -2   75.14    2.42   1
   1   0  -1  112.39    2.34   1
   1   0   0    1.33    0.46   1
   1   0   1    0.45    0.54   1
   1   0   2    3.85    0.92   1
  -1   0  -3    6.76    0.78   1
  -1   0  -4   92.96    2.39   1
   1   0   5    6.62    0.96   1
  -1   0  -6   49.06    2.90   1
   1   0   7    7.04    0.97   1
  -1   0  -8    3.05    1.18   1
   1   0   9   36.53    2.67   1
   1   0  10   42.37    2.88   1
   1   0  11    0.83    1.44   1
  -1   0 -12    2.89    1.11   1
   1   0  13    4.05    0.93   1
  -1   0 -14    0.41    1.24   1
   1   1 -13    1.05    1.34   1
  -1  -1  12    7.00    1.78   1
   1   1 -11    0.18    1.49   1
   1   1 -10    3.72    1.49   1
  -1  -1   9   30.71    2.20   1
   1   1  -8    4.65    0.98   1
   1   1  -7   21.74    1.20   1
   1   1  -6   30.55    1.36   1
  -1  -1   5    4.48    0.92   1
  -1  -1   4  116.24    2.76   1
  -1  -1   3    0.33    0.73   1
  -1  -1   2  154.11    2.79   1
  -1  -1   1  260.89    4.72   1
  -1  -1   0  481.57    5.21   1
  -1  -1  -1  634.02    3.12   1
   1   1   2    3.11    0.63   1
  -1  -1  -3   89.11    1.22   1
   1   1   4  461.31    2.40   1
  -1  -1  -5  283.22    1.89   1
  -1  -1  -6   99.37    1.46   1
   1   1   7   30.39    2.20   1
   1   1   8   11.95    1.52   1
   1   1   9    3.76    0.85   1
   1   1  10   50.20    3.79   1
  -1  -1 -11   43.32    1.77   1
   1   1  12    0.19    1.60   1
   1   1  13    1.73    1.06   1
   1   1  14    0.75    1.40   1
  -1  -1 -15   -1.31    1.00   1
   1   3 -12    0.32    0.57   1
   1   3 -11   -0.53    1.30   1
  -1  -3  10    0.63    1.18   1
  -1  -3   9   25.67    2.87   1
  -1  -3   8    1.05    1.46   1
   1   3  -7    1.05    0.79   1
  -1  -3   6   31.74    2.46   1
   1   3  -5    3.60    1.21   1
  -1  -3   4    3.69    1.10   1
  -1  -3   3  157.41    5.55   1
   1   3  -2   94.06    4.77   1
   1   3  -1   86.30    2.10   1
  -1  -3   0    4.68    0.88   1
   1   3   1   83.84    3.33   1
  -1  -3  -2   33.55    0.83   1
  -1  -3  -3  320.05    3.40   1
  -1  -3  -4   91.33    2.94   1
   1   3   5   15.44    0.84   1
  -1  -3  -6   82.82    1.75   1
  -1  -3  -7   33.66    1.83   1
  -1  -3  -8    0.87    0.97   1
   1   3   9   11.55    0.84   1
  -1  -3 -10    3.68    1.24   1
  -1  -3 -11    0.89    1.12   1
  -1  -3 -12    1.27    1.51   1
  -1  -3 -13    1.02    1.24   1
  -1  -3 -14   -0.36    1.81   1
  -1  -3 -15    0.55    0.95   1
  -1  -4  11    4.51    0.64   1
  -1  -4  10    1.06    1.52   1
  -1  -4   9    3.20    1.26   1
   1   4  -8   42.14    4.86   1
  -1  -4   7   12.77    2.12   1
  -1  -4   6    1.86    1.22   1
  -1  -4   5    1.15    1.16   1
  -1  -4   4    7.49    1.66   1
   1   4  -3   60.32    2.09   1
  -1  -4   2    4.55    0.77   1
  -1  -4   1   38.71    1.49   1
  -1  -4   0   29.90    1.02   1
  -1  -4  -1   61.51    1.66   1
  -1  -4  -2   88.66    2.15   1
  -1  -4  -3  389.26    5.84   1
  -1  -4  -4    2.99    0.82   1
  -1  -4  -5    4.39    1.04   1
  -1  -4  -6   43.50    2.42   1
  -1  -4  -7   34.34    2.25   1
  -1  -4  -8   36.94    3.16   1
  -1  -4  -9    1.81    1.54   1
  -1  -4 -10    3.77    1.39   1
  -1  -4 -11   17.55    2.10   1
  -1  -4 -12    2.61    1.22   1
  -1  -4 -13    5.71    1.73   1
  -1  -4 -14    0.05    0.91   1
  -1  -4 -15   -0.22    0.85   1
  -1  -5   9    0.02    1.39   1
  -1  -5   8    1.41    1.12   1
  -1  -5   7    2.90    1.29   1
  -1  -5   6    7.98    1.70   1
  -1  -5   5    7.13    0.93   1
  -1  -5   4   21.24    1.95   1
  -1  -5   3   14.87    1.77   1
  -1  -5   2   25.96    1.35   1
   1   5  -1   92.32    2.38   1
  -1  -5   0    9.03    1.06   1
  -1  -5  -1    8.04    0.80   1
  -1  -5  -2  117.97    3.00   1
  -1  -5  -3   33.61    1.58   1
  -1  -5  -4   14.23    0.70   1
  -1  -5  -5   16.37    0.72   1
  -1  -5  -6    8.76    1.16   1
  -1  -5  -7    5.10    1.37   1
  -1  -5  -8   -0.03    0.83   1
  -1  -5  -9  149.39    5.80   1
  -1  -5 -10    4.85    0.87   1
  -1  -5 -11    3.37    1.54   1
  -1  -5 -12   10.56    2.59   1
  -1  -5 -13    4.96    1.78   1
  -1  -5 -14    0.65    1.28   1
  -1  -5 -15    0.93    1.21   1
  -1  -7   8    1.19    0.90   1
  -1  -7   7    1.21    0.67   1
  -1  -7   6    7.60    1.92   1
  -1  -7   5   10.11    1.69   1
  -1  -7   4    7.14    1.66   1
  -1  -7   0   73.81    1.34   1
  -1  -7  -1   38.87    1.67   1
  -1  -7  -2    1.61    0.64   1
  -1  -7  -3    0.70    0.72   1
  -1  -7  -4   35.14    2.72   1
  -1  -7  -5   19.80    1.52   1
  -1  -7  -6    0.79    1.09   1
  -1  -7  -7   75.84    6.33   1
  -1  -7  -8   46.32    2.34   1
  -1  -7  -9    9.42    2.23   1
  -1  -7 -10    1.46    1.47   1
  -1  -7 -11    1.00    1.27   1
  -1  -7 -12    0.46    1.26   1
  -1  -7 -13    1.45    0.63   1
  -1  -7 -14    4.18    1.48   1
  -1  -8   6   -0.16    0.76   1
  -1  -8   5    3.46    1.26   1
  -1  -8   4    0.40    1.11   1
  -1  -8   3   -0.80    1.50   1
  -1  -8   2    8.03    1.45   1
  -1  -8   1    2.11    1.26   1
  -1  -8   0   33.00    2.21   1
  -1  -8  -1   27.20    1.56   1
  -1  -8  -2   -0.01    1.18   1
  -1  -8  -3    5.53    1.52   1
  -1  -8  -4   -0.10    0.89   1
  -1  -8  -5    5.47    1.36   1
  -1  -8  -6    7.61    1.52   1
  -1  -8  -7    0.53    1.46   1
  -1  -8  -8    8.90    2.33   1
  -1  -8  -9    6.49    1.33   1
  -1  -8 -10    2.26    1.36   1
  -1  -8 -11    1.74    1.26   1
  -1  -8 -12   -0.07    1.13   1
  -1  -8 -13    2.71    1.03   1
  -1  -9   4   -0.01    1.07   1
  -1  -9   3   -0.11    0.88   1
  -1  -9   2   -0.31    0.90   1
  -1  -9   1   -0.81    1.33   1
  -1  -9   0    0.28    1.06   1
  -1  -9  -1   -0.53    1.11   1
  -1  -9  -2    4.95    1.20   1
  -1  -9  -3   18.61    1.37   1
  -1  -9  -4    0.35    1.92   1
  -1  -9  -5    9.78    1.55   1
  -1  -9  -6    2.61    1.47   1
  -1  -9  -7    5.56    1.49   1
  -1  -9  -8    1.02    1.31   1
  -1  -9  -9   28.00    2.06   1
  -1  -9 -10    1.50    1.04   1
  -1  -9 -11    0.66    1.49   1
  -1  -9 -12   -0.79    1.57   1
   2  -8  -9    0.44    0.75   1
   2  -8  -8   10.00    3.59   1
   2  -8  -5   15.91    1.36   1
   2  -8  -4    1.42    1.14   1
   2  -8  -3    1.36    1.81   1
   2  -8   2    0.90    0.97   1
   2  -8   3    0.08    1.39   1
   2  -8   4    0.86    1.00   1
   2  -7 -11   -0.47    0.88   1
   2  -7 -10   -0.33    1.11   1
   2  -7  -9    5.15    1.29   1
   2  -7  -8    0.76    1.25   1
   2  -7  -7   23.42    2.53   1
   2  -7  -6   44.91    3.79   1
   2  -7  -5   -0.93    1.45   1
   2  -7  -4    0.67    1.29   1
   2  -7  -3    1.33    1.16   1
   2  -7  -2    0.69    0.90   1
   2  -7  -1    2.31    1.23   1
   2  -7   0   10.51    1.59   1
   2  -7   1   19.22    1.68   1
   2  -7   2   21.13    2.28   1
   2  -7   3    5.07    1.61   1
   2  -7   4   14.23    1.52   1
   2  -7   5    0.52    1.02   1
   2  -7   6    0.46    1.20   1
   2  -7   7    0.22    1.31   1
   2  -6 -12    4.85    1.68   1
   2  -6 -11    5.72    1.50   1
   2  -6 -10   -0.00    1.47   1
   2  -6  -9   -0.24    1.54   1
   2  -6  -8   77.21    4.50   1
   2  -6  -7    0.15    1.27   1
   2  -6  -6   26.37    2.61   1
   2  -6  -5    2.33    1.39   1
   2  -6  -4    1.02    1.26   1
   2  -6  -3    0.47    0.95   1
   2  -6  -2    1.95    1.50   1
   2  -6  -1    3.46    0.97   1
   2  -6   0    4.60    1.55   1
   2  -6   1    1.23    1.23   1
   2  -6   2    8.20    2.67   1
   2  -6   3   15.98    1.70   1
   2  -6   4   43.56    2.32   1
   2  -6   5    0.91    1.23   1
   2  -6   6    1.06    0.97   1
   2  -6   7    4.65    1.30   1
   2  -6   8   -0.76    0.96   1
   2  -5 -12    0.68    1.38   1
   2  -5   9    0.12    0.99   1
   2  -5  10    1.62    1.01   1
   2  -4 -13    5.62    1.57   1
   2  -4 -12   10.75    1.11   1
   2  -4 -11    7.34    2.20   1
   2  -4 -10    0.20    1.52   1
   2  -4  -9    3.71    1.19   1
   2  -4  -8    0.40    1.51   1
   2  -4  -7    4.78    1.68   1
   2  -4  -2   20.14    1.22   1
   2  -4   2    4.98    0.92   1
   2  -4   5    0.28    1.09   1
   2  -4   6    0.86    1.70   1
   2  -4   7    2.13    1.53   1
   2  -4   8    0.64    1.00   1
   2  -4   9    0.64    1.91   1
   2  -4  10    0.66    1.26   1
   2  -4  11    0.75    1.28   1
   2  -3 -14    0.63    1.76   1
   2  -3 -13   -0.40    0.98   1
   2  -3 -12    4.72    1.45   1
   2  -3 -11   19.51    2.24   1
   2  -3 -10    0.97    1.63   1
   2  -3  -9    0.96    1.25   1
   2  -3  -8    0.15    1.21   1
   2  -3  -7    0.56    1.13   1
   2  -3  -6   49.10    3.70   1
   2  -3  -5    7.81    1.38   1
   2  -3  -4   40.32    2.39   1
   2  -3  -3   68.75    2.81   1
   2  -3  -2    8.27    1.47   1
   2  -3  -1   22.94    2.29   1
   2  -3   0   67.07    4.08   1
   2  -3   1   40.90    2.05   1
   2  -3   2    6.17    0.85   1
   2  -3   3    4.67    1.30   1
   2  -3   4  241.39   22.46   1
   2  -3   5    2.97    1.06   1
   2  -3   6    1.28    1.00   1
   2  -3   7    4.25    1.05   1
   2  -3   8    2.77    1.32   1
   2  -3   9    5.88    2.35   1
   2  -3  10    0.24    1.34   1
   2  -3  11   -0.53    0.92   1
   2  -3  12    0.66    0.75   1
   2  -2 -14   -0.10    1.91   1
   2  -2 -13    0.07    1.31   1
   2  -2 -12   -0.20    1.91   1
   2  -2 -11   13.17    1.39   1
   2  -2 -10    2.27    1.38   1
   2  -2  -9   10.85    1.54   1
   2  -2  -8   55.16    4.35   1
   2  -2  -7   12.07    2.08   1
   2  -2  -6   16.47    1.14   1
   2  -2  -5    6.21    1.27   1
   2  -2  -4   13.63    1.92   1
   2  -2  -3    8.51    1.18   1
   2  -2  -2    8.07    1.25   1
   2  -2  -1   33.32    1.89   1
   2  -2   0   47.56    2.02   1
   2  -2   1   19.27    1.45   1
   2  -2   2    3.09    0.68   1
   2  -2   3    7.55    1.29   1
   2  -2   4   13.29    1.54   1
   2  -2   5  105.65    6.33   1
   2  -2   6    0.93    1.27   1
   2  -2   7    4.32    0.97   1
   2  -2   8    1.73    1.20   1
   2  -2   9   10.01    1.77   1
   2  -2  10   63.26    3.17   1
   2  -2  11   -0.69    1.49   1
   2  -2  12   10.72    1.99   1
   2  -2  13    5.30    1.81   1
   2  -1 -14    0.03    1.45   1
   2  -1 -13    0.43    1.59   1
   2  -1 -12   -0.95    1.29   1
   2  -1 -11   -1.07    1.94   1
   2  -1  -9   16.93    1.63   1
   2  -1  -3   18.92    3.87   1
   2  -1  -2    9.64    0.85   1
   2  -1  -1  132.57   21.22   1
   2  -1   0  135.40    3.30   1
   2  -1   1  498.10    2.33   1
   2  -1   2   15.13    0.88   1
   2  -1   9   -0.63    1.39   1
   2  -1  11   -0.11    1.73   1
   2  -1  13    1.32    0.89   1
   2  -1  14   -0.14    1.31   1
   2   0 -13    1.33    1.02   1
   2   0   0 2353.39   77.09   1
   2   0   1 4523.10   78.44   1
   2   0  14    0.35    1.01   1
   2   1 -13    0.77    1.40   1
   2   1 -12    1.21    1.53   1
   2   1 -11    1.97    1.57   1
   2   1 -10    4.78    2.03   1
   2   1  -9   20.28    1.64   1
   2   1  -8   24.29    2.05   1
   2   1  -7   15.34    1.87   1
   2   1  -6    1.16    1.28   1
   2   1  -5   87.20    3.07   1
  -2  -1   4   69.67    2.26   1
  -2  -1   3   60.09    2.02   1
   2   1  -2   69.95    2.01   1
   2   1  -1    2.48    1.25   1
   2   1   0  122.90    2.80   1
   2   1   1    0.62    0.56   1
   2   1   2    0.26    0.96   1
   2   1   3   69.74    1.54   1
   2   1   4  102.99    3.28   1
  -2  -1  -5    8.92    0.84   1
  -2  -1  -6   23.15    1.89   1
   2   1   7  116.50    4.76   1
   2   1   8   11.91    1.46   1
   2   1   9    1.30    1.50   1
   2   1  10    1.78    1.31   1
   2   1  11   93.80    7.68   1
   2   1  12    0.64    1.44   1
  -2  -1 -13    0.31    1.39   1
   2   1  14    0.13    1.42   1
   2   2 -12    1.81    1.03   1
   2   2 -11    1.70    1.41   1
   2   2 -10    1.61    1.55   1
  -2  -2   9   15.42    2.09   1
  -2  -2   8   84.12    1.78   1
   2   2  -7    2.51    1.12   1
   2   2  -6    7.64    1.44   1
   2   2  -5    0.25    1.61   1
   2   2  -4  163.34    4.93   1
   2   2  -3   22.93    1.93   1
   2   2  -2   18.08    1.76   1
   2   2  -1   14.89    1.58   1
  -2  -2   0   90.45    2.34   1
  -2  -2  -1   58.06    0.76   1
   2   2   2   55.84    1.34   1
   2   2   3   59.23    1.20   1
   2   2   4    1.19    1.04   1
  -2  -2  -5   11.17    0.86   1
  -2  -2  -6  100.41    2.03   1
   2   2   7   39.15    1.47   1
   2   2   8    0.88    0.62   1
   2   2   9    5.99    1.17   1
  -2  -2 -10    0.97    1.05   1
   2   2  11    1.08    1.16   1
   2   2  12    4.05    1.46   1
   2   2  13    4.18    1.47   1
   2   2  14   -0.23    0.93   1
   2   3 -12    3.96    1.18   1
   2   3 -11    1.76    1.38   1
   2   3 -10    0.44    1.78   1
   2   3  -9   15.68    2.41   1
  -2  -3   8   40.00    2.85   1
  -2  -3   7   14.16    1.82   1
  -2  -3   5   10.41    1.25   1
   2   3  -4    2.31    0.83   1
  -2  -3   3  175.56    3.78   1
   2   3  -2   18.52    1.34   1
   2   3  -1    0.32    0.73   1
   2   3   0   46.70    1.67   1
   2   3   1   36.11    1.17   1
  -2  -3  -2    0.76    1.00   1
  -2  -3  -3   17.51    0.79   1
  -2  -3  -4  112.82    2.14   1
  -2  -3  -5   58.22    0.98   1
  -2  -3  -7   31.81    1.27   1
  -2  -3  -8    8.77    1.15   1
  -2  -3  -9   14.82    1.37   1
  -2  -3 -10    1.20    1.20   1
  -2  -3 -11    4.55    1.34   1
  -2  -3 -12    6.59    1.59   1
   2   3  13   25.01    2.03   1
   2   3  14    1.80    1.15   1
  -2  -3 -15    0.53    1.11   1
  -2  -5  10   -0.47    1.03   1
  -2  -5   9    0.96    1.10   1
   2   5  -8   -0.13    1.40   1
   2   5  -7   -1.55    1.19   1
   2   5  -6    0.51    1.57   1
  -2  -5   5    2.54    1.44   1
  -2  -5   4   26.39    1.53   1
  -2  -5   3   27.73    1.92   1
  -2  -5   2    4.45    0.91   1
  -2  -5   1    2.07    1.06   1
  -2  -5   0    6.72    1.30   1
  -2  -5  -1    3.96    0.87   1
  -2  -5  -2  216.11    4.36   1
  -2  -5  -3    4.03    1.34   1
  -2  -5  -4  138.92    1.66   1
  -2  -5  -5   -0.17    0.72   1
  -2  -5  -6    1.50    1.32   1
  -2  -5  -7    2.79    0.87   1
  -2  -5  -8    7.54    1.37   1
  -2  -5  -9   72.87    3.01   1
  -2  -5 -10   30.41    2.24   1
  -2  -5 -11    3.63    1.48   1
  -2  -5 -12   23.13    1.39   1
  -2  -5 -13    0.37    1.85   1
  -2  -5 -14   -0.42    0.90   1
  -2  -5 -15   -1.16    0.97   1
  -2  -6   9    2.59    1.85   1
  -2  -6   8    1.42    0.93   1
  -2  -6   7   11.67    1.82   1
  -2  -6   6   15.73    1.86   1
  -2  -6   5   -0.16    1.25   1
  -2  -6   4    9.81    0.89   1
  -2  -6   3   88.60    2.45   1
   2   6  -2   19.10    1.66   1
  -2  -6   1   13.03    1.68   1
  -2  -6   0    4.20    1.02   1
   2   6   1    0.85    1.27   1
   2   6   2    2.63    0.82   1
  -2  -6  -3   22.21    1.62   1
  -2  -6  -4    4.68    0.86   1
  -2  -6  -5   15.37    0.87   1
  -2  -6  -6   50.11    1.86   1
  -2  -6  -7   21.65    1.75   1
  -2  -6  -8    6.59    1.40   1
  -2  -6  -9   61.84    3.12   1
  -2  -6 -10   22.09    1.87   1
  -2  -6 -11   10.86    1.57   1
  -2  -6 -12    4.40    1.36   1
  -2  -6 -13   14.95    1.34   1
  -2  -6 -14    4.72    1.88   1
  -2  -6 -15    2.07    1.06   1
  -2  -7   8    1.36    0.99   1
  -2  -7   7    2.38    1.24   1
  -2  -7   6   -0.22    1.18   1
  -2  -7   5   -0.31    1.05   1
  -2  -7   4   10.81    1.34   1
  -2  -7   3   16.22    2.29   1
  -2  -7   2   31.43    1.88   1
  -2  -7   1    0.16    1.52   1
  -2  -7   0   47.92    1.49   1
  -2  -7  -1   87.94    4.76   1
  -2  -7  -2   20.11    1.96   1
  -2  -7  -3    5.98    1.26   1
  -2  -7  -4    2.26    1.12   1
  -2  -7  -5    0.15    0.76   1
  -2  -7  -6    7.29    1.16   1
  -2  -7  -7  131.85    3.10   1
  -2  -7  -8   47.96    4.82   1
  -2  -7  -9    6.71    1.44   1
  -2  -7 -10   -0.06    1.48   1
  -2  -7 -11    2.97    1.72   1
  -2  -7 -12   -0.70    1.08   1
  -2  -7 -13    6.51    1.31   1
  -2  -7 -14    0.35    1.17   1
  -2  -9   4    0.12    0.60   1
  -2  -9   3    0.09    0.84   1
  -2  -9   2    5.65    0.92   1
  -2  -9  -5    2.51    0.98   1
  -2  -9  -6   11.38    1.05   1
  -2  -9  -8    9.95    2.37   1
  -2  -9  -9    0.32    1.50   1
  -2  -9 -10    0.10    1.43   1
  -2  -9 -11    0.29    1.19   1
  -2  -9 -12   23.11    2.47   1
  -2 -10   2    1.10    0.67   1
  -2 -10   1    0.49    0.95   1
  -2 -10   0    1.05    0.78   1
  -2 -10  -1   18.29    0.92   1
  -2 -10  -2    1.54    1.44   1
  -2 -10  -3    5.97    1.15   1
  -2 -10  -4    3.28    1.39   1
  -2 -10  -5    0.12    1.04   1
  -2 -10  -6   -0.01    1.07   1
  -2 -10  -7    4.58    1.41   1
  -2 -10  -8   29.37    2.01   1
  -2 -10  -9    3.11    1.29   1
  -2 -10 -10    0.47    1.06   1
  -2 -11  -2    1.23    1.22   1
  -2 -11  -3    1.16    2.15   1
  -2 -11  -4    0.38    0.83   1
  -2 -11  -5    0.42    0.73   1
  -2 -11  -6    0.30    1.28   1
  -2 -11  -7    0.70    1.44   1
   3  -8  -6   -2.21    2.27   1
   3  -8  -4    2.99    1.25   1
   3  -8  -3    0.71    1.30   1
   3  -8  -2   -0.76    0.85   1
   3  -8   0    0.46    1.87   1
   3  -8   1    9.09    1.60   1
   3  -8   2    0.63    0.90   1
   3  -6 -10   -0.13    1.09   1
   3  -6  -9    2.04    0.84   1
   3  -6  -8   26.33    1.02   1
   3  -6  -7    8.88    1.48   1
   3  -6  -6    2.48    0.95   1
   3  -6  -5   -0.59    1.05   1
   3  -6  -4    0.18    1.16   1
   3  -6  -3    0.65    1.18   1
   3  -6  -1    2.94    1.01   1
   3  -6   0    0.58    0.79   1
   3  -6   1    1.38    0.84   1
   3  -6   2    0.18    0.85   1
   3  -6   3    0.23    0.91   1
   3  -6   4   38.27    2.06   1
   3  -6   5    2.85    1.25   1
   3  -6   6    0.44    0.97   1
   3  -6   7    3.35    1.89   1
   3  -5 -11    0.18    1.76   1
   3  -5 -10    6.84    1.86   1
   3  -5  -9    0.13    1.53   1
   3  -5  -8   39.51    3.72   1
   3  -5  -7   17.80    1.70   1
   3  -5  -6    1.35    2.04   1
   3  -5  -5    1.20    0.91   1
   3  -5  -4    4.36    1.78   1
   3  -5  -3   -0.05    1.40   1
   3  -5  -2   12.11    2.40   1
   3  -5  -1   47.67    1.37   1
   3  -5   0    1.28    0.71   1
   3  -5   1    1.14    1.23   1
   3  -5   2    1.65    1.82   1
   3  -5   3    1.11    1.39   1
   3  -5   4    2.20    1.38   1
   3  -5   5    0.41    1.14   1
   3  -5   6    0.60    0.99   1
   3  -5   7    0.40    1.02   1
   3  -5   8    8.35    1.64   1
   3  -5   9    0.72    1.20   1
   3  -4 -12    0.37    0.94   1
   3  -4 -11    0.65    1.38   1
   3  -4 -10    0.66    1.37   1
   3  -4  -9    0.11    1.37   1
   3  -4  -8    0.16    1.61   1
   3  -4  -7   -0.07    1.49   1
   3  -4  -6   -0.08    1.22   1
   3  -4  -5    0.54    1.38   1
   3  -4  -4    0.91    0.85   1
   3  -4  -3    4.40    0.64   1
   3  -4  -1   -0.91    1.21   1
   3  -4   0   20.06    2.80   1
   3  -4   1    3.87    1.23   1
   3  -4   2   -0.69    1.12   1
   3  -4   3    3.50    1.36   1
   3  -4   4    5.26    1.24   1
   3  -4   5    1.38    1.49   1
   3  -4   6    4.51    1.26   1
   3  -4   7    3.66    1.32   1
   3  -4   8    5.38    1.64   1
   3  -4   9   19.05    1.60   1
   3  -4  10    5.25    1.35   1
   3  -3 -12   -1.38    1.23   1
   3  -2 -13    0.40    1.44   1
   3  -2 -12    1.22    0.96   1
   3  -2 -11   -0.46    1.46   1
   3  -2 -10   -0.17    1.07   1
   3  -2  -9   -2.13    1.98   1
   3  -2  -8   10.95    1.57   1
   3  -2  -7    2.80    1.24   1
   3  -2  -2    0.52    0.80   1
   3  -2   0    2.36    1.02   1
   3  -2   1   26.59    1.26   1
   3  -2   2    0.39    1.16   1
   3  -2   6    0.66    1.01   1
   3  -2   7    4.82    1.46   1
   3  -2   8    1.93    1.38   1
   3  -2   9   16.16    1.91   1
   3  -2  10   36.68    1.72   1
   3  -2  11    8.27    1.13   1
   3  -2  12    2.51    1.20   1
   3  -1 -13    1.54    1.50   1
   3  -1 -12    4.59    1.51   1
   3  -1 -11   -0.03    1.55   1
   3  -1 -10   58.58    3.00   1
   3  -1  -9    9.63    1.34   1
   3  -1  -8    1.03    1.22   1
   3  -1  -7    2.45    0.98   1
   3  -1  -6    1.01    1.19   1
   3  -1  -5   27.76    1.60   1
   3  -1  -4  142.36    5.35   1
   3  -1  -3   67.58    3.50   1
   3  -1  -2    2.84    0.84   1
   3  -1  -1   17.44    1.33   1
   3  -1   0  162.31    4.99   1
   3  -1   1  121.30    5.10   1
   3  -1   2    1.68    0.84   1
   3  -1   3    0.28    1.10   1
   3  -1   4   10.12    1.17   1
   3  -1   5   22.10    1.96   1
   3  -1   6   -0.01    1.36   1
   3  -1   7    2.08    1.47   1
   3  -1   8    0.97    1.18   1
   3  -1   9    1.14    1.64   1
   3  -1  10   22.56    2.75   1
   3  -1  11    1.70    1.56   1
   3  -1  12    0.98    1.46   1
   3  -1  13    2.23    1.00   1
   3   0 -13    3.21    2.08   1
   3   0 -12    3.17    0.67   1
   3   0 -11    0.29    1.23   1
   3   0 -10    0.53    1.24   1
   3   0  -9   40.65    3.04   1
   3   0  -8    1.48    1.45   1
   3   0  -7    0.05    1.41   1
   3   0  -6    3.83    1.59   1
   3   0  -5   50.40    2.72   1
   3   0  -4    3.70    0.96   1
   3   0  -3    0.03    1.02   1
   3   0  -2    5.44    0.90   1
   3   0  -1   11.42    0.90   1
   3   0   0  118.41    6.71   1
   3   0   1    9.98    0.72   1
   3   0   2   30.13    0.96   1
   3   0   3    2.70    1.11   1
   3   0   4    0.39    1.02   1
   3   0   5   64.45    2.30   1
   3   0   6   65.66    1.01   1
   3   0   7    2.56    1.17   1
   3   0   8    8.93    1.58   1
   3   0   9   14.75    1.91   1
   3   0  10   55.03    5.05   1
   3   0  11   11.12    1.84   1
   3   0  12    0.41    1.25   1
   3   0  13   -0.04    1.04   1
   3   0  14    0.84    0.72   1
   3   1 -12    0.02    1.24   1
   3   1 -11    5.18    1.85   1
   3   1 -10    1.10    1.97   1
   3   1  -3   87.98    1.79   1
   3   1  -1   14.84    1.43   1
   3   1   0   26.63    1.12   1
   3   1   1  252.31    2.56   1
   3   1  13    0.63    1.40   1
   3   1  14    0.05    0.87   1
   3   2 -12    0.48    1.08   1
   3   2 -11    3.49    1.83   1
   3   2  -1   73.96    1.63   1
   3   2   1    3.93    1.30   1
  -3  -2  -2    4.47    0.64   1
  -3  -2  -3    4.72    0.74   1
   3   2  14    1.13    0.88   1
   3   3 -11   -0.18    0.90   1
   3   3 -10   -0.13    0.91   1
   3   3  -9    1.47    1.36   1
   3   3  -8   19.58    2.22   1
   3   3  -7    3.05    1.93   1
   3   3  -6    8.43    1.87   1
   3   3  -5   -0.94    2.70   1
  -3  -3   4    2.86    1.13   1
   3   3  -3    6.79    0.95   1
   3   3  -2  133.32    2.57   1
   3   3  -1   10.00    0.88   1
   3   3   0   71.60    1.91   1
   3   3   1   93.02    2.48   1
   3   3   2    0.25    0.90   1
  -3  -3  -3   12.12    0.78   1
  -3  -3  -4   66.10    1.14   1
  -3  -3  -5   44.91    1.68   1
  -3  -3  -6   31.45    2.13   1
  -3  -3  -7   63.57    1.95   1
   3   3   8    1.32    1.00   1
  -3  -3  -9   16.32    1.99   1
   3   3  10    0.85    1.14   1
   3   3  11    2.06    1.48   1
   3   3  12    3.35    1.28   1
  -3  -3 -13    5.47    1.08   1
   3   3  14    0.85    1.43   1
   3   4 -10    2.03    1.14   1
   3   4  -9    3.23    1.16   1
   3   4  -8   14.79    1.91   1
   3   4  -7    6.62    1.42   1
   3   4  -6    7.79    1.61   1
   3   4  -5    3.76    1.21   1
  -3  -4   4   16.61    1.40   1
   3   4  -3    5.76    1.53   1
  -3  -4   2   12.59    1.04   1
   3   4  -1    8.20    1.34   1
   3   4   0    6.63    1.04   1
   3   4   1    3.28    0.87   1
   3   4   2  113.21    2.57   1
   3   4   3   19.10    1.40   1
   3   4   4   98.11    1.77   1
  -3  -4  -5    4.53    1.16   1
   3   4   6    4.14    0.88   1
   3   4   7    2.45    1.09   1
   3   4   8    7.40    1.89   1
   3   4   9   35.79    1.83   1
  -3  -4 -10   25.39    1.51   1
  -3  -4 -11    8.60    1.81   1
   3   4  12    2.03    1.15   1
   3   4  13    0.58    1.07   1
  -3  -4 -14    3.23    0.96   1
   3   5  -9    0.35    0.64   1
   3   5  -8    1.85    2.13   1
  -3  -5   7   -1.33    1.19   1
   3   5  -6    0.30    1.33   1
   3   5  -4    3.94    1.70   1
  -3  -5   3   66.89    3.21   1
   3   5  -2    7.15    1.36   1
  -3  -5   1    2.28    0.68   1
   3   5   0   29.18    1.03   1
   3   5   1   -0.52    0.72   1
  -3  -5  -2   11.19    1.47   1
   3   5   4   11.38    1.13   1
  -3  -5  -5    4.19    0.96   1
   3   5   8    7.32    1.35   1
   3   5   9   28.17    0.96   1
  -3  -5 -10   68.27    2.32   1
   3   5  12    5.07    2.61   1
  -3  -5 -13    2.03    1.03   1
  -3  -5 -14   -0.28    1.38   1
  -3  -7   7    0.22    0.64   1
  -3  -7   6   -0.24    0.86   1
  -3  -7   5   14.69    3.31   1
   3   7  -4   -0.15    1.35   1
  -3  -7   3   12.25    1.30   1
  -3  -7   2   39.65    2.70   1
   3   7  -1    1.17    1.49   1
   3   7   0   10.17    1.84   1
  -3  -7  -2   13.61    1.89   1
  -3  -7  -3    0.23    0.87   1
  -3  -7  -4    2.24    1.16   1
  -3  -7  -5    8.12    1.11   1
  -3  -7  -6    9.62    1.02   1
  -3  -7  -7    6.56    1.62   1
  -3  -7  -8  103.18    4.00   1
  -3  -7  -9    1.20    1.22   1
   3   7  10    1.67    1.11   1
  -3  -7 -11    1.59    1.39   1
  -3  -7 -12   -0.40    1.74   1
  -3  -7 -13    0.16    1.50   1
  -3  -7 -14    1.81    1.03   1
  -3  -8   6    6.71    0.87   1
  -3  -8   5    1.22    0.86   1
  -3  -8   4    0.79    1.01   1
  -3  -8   3    0.61    0.62   1
  -3  -8   2    2.05    1.32   1
  -3  -8   1    8.73    1.23   1
  -3  -8   0    0.16    0.92   1
  -3  -8  -1   65.94    2.60   1
  -3  -8  -2   11.43    1.38   1
  -3  -8  -3    1.03    1.20   1
  -3  -8  -4    2.78    1.31   1
  -3  -8  -5    1.00    1.50   1
  -3  -8  -6   13.74    1.37   1
  -3  -8  -7   -0.67    1.30   1
  -3  -8  -8   21.64    1.36   1
  -3  -8  -9    3.28    1.25   1
  -3  -8 -10    1.66    1.38   1
  -3  -8 -11    0.67    1.30   1
  -3  -8 -12    1.65    0.84   1
  -3  -8 -13    1.01    0.86   1
  -3  -9   3    0.32    0.58   1
  -3  -9   2    0.24    0.94   1
  -3  -9   1   -0.22    0.63   1
  -3  -9  -2   -0.96    1.03   1
  -3  -9  -3   21.94    1.30   1
  -3  -9  -4    1.28    1.36   1
  -3  -9  -5    0.47    2.05   1
  -3  -9  -6    8.17    1.52   1
  -3  -9  -7    2.69    1.35   1
  -3  -9  -8    0.97    1.36   1
  -3  -9  -9   -1.29    1.07   1
  -3  -9 -10   33.01    2.54   1
  -3  -9 -11   -0.54    0.95   1
  -3  -9 -12    0.42    0.90   1
  -3 -11  -6   10.54    1.62   1
   4  -7  -5    0.22    1.60   1
   4  -7  -4    1.64    1.61   1
   4  -7  -3   -1.20    1.62   1
   4  -7  -2   -0.42    1.21   1
   4  -7  -1    1.01    2.07   1
   4  -7   0    0.02    0.97   1
   4  -7   1    1.03    1.61   1
   4  -7   2    8.63    1.28   1
   4  -6  -8    0.64    2.77   1
   4  -6  -1    0.80    0.71   1
   4  -6   4   16.41    1.57   1
   4  -6   5    5.71    1.58   1
   4  -4 -10    4.34    0.96   1
   4  -4  -9    0.66    1.79   1
   4  -4  -8    1.75    0.96   1
   4  -4  -7    1.29    1.82   1
   4  -4  -6    0.22    1.45   1
   4  -4  -5    1.40    2.12   1
   4  -4  -4    1.65    2.12   1
   4  -4  -3   11.06    1.07   1
   4  -4  -2    2.45    1.67   1
   4  -4  -1    7.53    1.28   1
   4  -4   0    6.57    4.12   1
   4  -4   1    1.01    0.99   1
   4  -4   2    3.95    1.48   1
   4  -4   3   -0.11    0.79   1
   4  -4   4   -1.07    1.74   1
   4  -4   5   15.72    1.12   1
   4  -4   6    0.60    1.31   1
   4  -4   7    3.18    1.62   1
   4  -4   8    0.31    0.82   1
   4  -4   9    0.46    0.80   1
   4  -3 -11    5.49    1.78   1
   4  -3 -10    2.65    1.14   1
   4  -3  -9    0.92    1.42   1
   4  -3  -8    1.36    1.27   1
   4  -3  -7    0.22    1.36   1
   4  -3  -6   -0.83    1.14   1
   4  -3  -5   19.04    2.26   1
   4  -3  -4    1.84    1.33   1
   4  -3  -3    0.39    1.40   1
   4  -3  -2    4.73    0.96   1
   4  -3  -1    8.84    1.76   1
   4  -3   0   -0.68    1.07   1
   4  -3   1    5.58    1.20   1
   4  -3   2   17.85    1.91   1
   4  -3   3    1.57    1.33   1
   4  -3   4   16.20    1.61   1
   4  -3   5   37.67    3.73   1
   4  -3   6    4.12    1.33   1
   4  -3   7    0.51    1.04   1
   4  -3   8    2.21    1.15   1
   4  -3   9    0.23    1.47   1
   4  -3  10    0.36    1.16   1
   4  -2 -11    0.31    1.54   1
   4  -2 -10   16.95    2.13   1
   4  -2  -9    0.01    1.48   1
   4  -2  -8    0.55    1.41   1
   4  -2  -7   12.32    1.71   1
   4  -2  -6    2.23    1.94   1
   4  -2  -5    2.85    1.30   1
   4  -2  -4    3.05    1.62   1
   4  -2  -3   -0.47    0.75   1
   4  -2  -2    0.88    0.78   1
   4  -2  -1    0.03    1.52   1
   4  -2   0    3.82    0.73   1
   4  -2   1   14.77    1.39   1
   4  -2   2    0.74    1.25   1
   4  -2   3    1.70    1.00   1
   4  -2   4    0.03    1.06   1
   4  -2   5   16.23    1.99   1
   4  -2   6    9.89    1.26   1
   4  -2   7    0.64    1.54   1
   4  -2   8    1.04    1.54   1
   4  -2   9    5.04    1.42   1
   4  -2  10    6.37    1.73   1
   4  -2  11   34.74    1.99   1
   4  -1 -11   -0.05    1.04   1
   4   0 -11    0.82    1.16   1
   4   0 -10    1.42    1.83   1
   4   0  -9   14.32    1.10   1
   4   0  -8    0.16    1.24   1
   4   0  -7    0.12    1.31   1
   4   0  -6    0.83    1.44   1
   4   0  -5    1.22    1.24   1
   4   0  -4    2.62    1.21   1
   4   0  -3    6.21    1.62   1
   4   0  -2    0.10    0.89   1
   4   0   0   17.51    1.28   1
   4   0   1 1056.23    5.69   1
   4   0   7    2.42    1.46   1
   4   0   8    4.43    1.14   1
   4   0   9    1.37    1.45   1
   4   0  10    8.46    1.36   1
   4   0  11   23.39    1.18   1
   4   0  12   -0.08    0.94   1
   4   0  13    2.30    1.09   1
   4   1 -11    1.14    1.31   1
   4   1 -10    0.86    1.66   1
   4   1  -9   -0.05    1.92   1
   4   1  -8   15.36    2.98   1
   4   1  -7   24.37    3.10   1
   4   1  -6    0.27    1.57   1
   4   1  -5    8.74    1.68   1
   4   1  -4   52.36    2.38   1
   4   1  -3   -0.26    0.96   1
   4   1  -2   21.23    1.14   1
   4   1  -1   11.48    1.00   1
   4   1   0   42.79    2.33   1
   4   1   1    0.12    0.99   1
   4   1   2   17.56    1.41   1
   4   1   3    0.86    1.21   1
   4   1   4   10.09    0.96   1
   4   1   5   23.46    1.68   1
   4   1   6   16.87    0.89   1
   4   1   7   12.68    1.23   1
   4   1   8   16.88    1.76   1
   4   1   9    3.75    1.00   1
   4   1  10    1.09    1.10   1
   4   1  11   27.76    2.01   1
   4   1  12   14.48    1.63   1
   4   1  13    1.57    0.95   1
   4   1  14    0.31    1.19   1
   4   2 -11   -0.63    1.57   1
   4   2 -10   -0.29    1.00   1
   4   2  -9   -0.02    1.99   1
   4   2  -8   19.87    1.67   1
   4   2  -7   61.44    2.90   1
   4   2  -6    2.61    1.89   1
   4   2  -5    2.43    1.26   1
   4   2  -4   13.03    1.65   1
   4   2  -3   37.50    1.56   1
   4   2  -2    1.15    1.04   1
   4   2  -1    5.88    0.73   1
   4   2   0    0.54    0.88   1
   4   2   1   58.00    1.68   1
   4   2   2    3.29    1.32   1
   4   2   3   28.97    1.41   1
   4   2   4    5.04    1.01   1
   4   2   5   -0.22    1.53   1
   4   2   6   40.07    0.94   1
   4   2   7    0.50    1.21   1
   4   2   8    4.89    1.15   1
   4   2   9    1.26    1.32   1
   4   2  10   -1.03    2.27   1
   4   2  11    1.33    1.39   1
   4   2  12   -0.63    1.43   1
   4   2  13    1.69    1.56   1
   4   2  14    1.29    0.93   1
   4   3 -10    1.76    0.72   1
   4   3  13   13.81    1.59   1
   4   3  14    0.88    0.77   1
   4   4 -10   -0.77    1.13   1
   4   4  -9    0.67    0.81   1
   4   4  -8    0.97    1.62   1
  -4  -4   2    7.10    1.23   1
  -4  -4  -3   21.64    1.29   1
   4   4   8    2.09    1.08   1
   4   4  12    6.22    0.85   1
   4   4  13    0.15    1.28   1
   4   4  14    0.47    0.70   1
   4   5  -9   -1.50    1.63   1
   4   5  -8    0.78    1.08   1
   4   5  -7   -0.48    1.02   1
   4   5  -6    0.48    1.45   1
   4   5  -5    8.37    1.39   1
   4   5  -4    5.82    1.63   1
   4   5  -3    4.03    1.07   1
  -4  -5   2    8.28    1.25   1
   4   5  -1    3.53    1.38   1
   4   5   0    0.39    1.05   1
   4   5   1    1.88    0.98   1
   4   5   2   23.58    1.20   1
   4   5   3   50.95    2.63   1
   4   5   4   37.39    2.05   1
   4   5   5   38.26    1.17   1
  -4  -5  -6    6.14    1.37   1
   4   5   7    0.12    1.27   1
   4   5   8   -0.73    1.14   1
   4   5   9    0.13    1.14   1
   4   5  10   69.47    4.16   1
   4   5  11    7.50    1.16   1
   4   5  12   11.60    3.11   1
   4   5  13    6.98    1.83   1
   4   5  14    3.64    1.48   1
   4   6  -7    0.02    0.97   1
   4   6  -6   -0.55    1.30   1
   4   6  -5   11.18    2.08   1
   4   6  -4    0.65    1.43   1
   4   6  -3   61.48    2.99   1
   4   6  -2   28.98    1.91   1
   4   6  -1    0.29    1.55   1
  -4  -6   0   12.57    1.50   1
   4   6   1    0.69    1.08   1
   4   6   2    8.91    1.25   1
   4   6   3   11.88    1.21   1
   4   6   4    0.16    1.29   1
   4   6   5    1.09    0.96   1
   4   6   6    0.73    1.02   1
  -4  -6  -7   59.52    3.24   1
  -4  -6  -8    5.65    1.36   1
   4   6   9    1.79    1.85   1
   4   6  10   35.71    1.85   1
  -4  -6 -11    7.02    0.97   1
  -4  -6 -12    5.79    1.07   1
   4   6  13   10.51    1.46   1
   4   6  14   -0.60    0.95   1
   4   7  -6    2.88    0.64   1
   4   7  -5   -0.04    1.31   1
  -4  -7  -5    7.57    1.14   1
  -4  -7  -6   14.42    1.37   1
  -4  -7 -10   11.64    1.77   1
  -4  -7 -11    4.42    1.57   1
   4   7  12    7.52    0.89   1
   4   7  13    1.88    0.97   1
  -4  -9   3    0.24    0.71   1
  -4  -9   2    0.10    0.93   1
  -4  -9   1    5.67    1.24   1
  -4  -9   0    0.70    1.14   1
  -4  -9  -1   -0.56    1.41   1
  -4  -9  -5    4.60    1.32   1
  -4  -9  -6    9.30    1.39   1
  -4  -9  -7    7.51    1.60   1
  -4  -9  -8    5.63    1.09   1
  -4  -9  -9   16.73    1.66   1
  -4  -9 -10    1.69    1.12   1
  -4  -9 -11    1.43    0.82   1
  -4  -9 -12    9.63    1.12   1
  -4 -10   0   -0.68    0.89   1
  -4 -10  -1   12.69    0.97   1
  -4 -10  -2    1.17    0.78   1
  -4 -10  -3    3.02    1.88   1
  -4 -10  -4    0.68    0.88   1
  -4 -10  -5    0.66    1.21   1
  -4 -10  -6    1.99    0.88   1
  -4 -10  -7    1.23    0.75   1
  -4 -10  -8    2.00    1.40   1
  -4 -10  -9    8.58    1.09   1
  -4 -10 -10    1.28    0.68   1
  -4 -11  -5    0.12    1.17   1
   5  -5  -6    3.29    2.49   1
   5  -5  -5    4.66    2.12   1
   5  -5  -4   -0.23    1.24   1
   5  -5   1   -0.92    0.97   1
   5  -5   2    0.38    0.84   1
   5  -5   3   -0.18    0.85   1
   5  -5   4   -0.56    1.22   1
   5  -4  -8    2.74    3.14   1
   5  -4  -7    2.69    1.71   1
   5  -4  -3    0.12    1.08   1
   5  -4   1    3.04    1.48   1
   5  -4   2   -1.58    1.14   1
   5  -4   6   -0.35    0.86   1
   5  -4   7   -2.59    0.95   1
   5  -2  -9   -0.86    2.04   1
   5  -2  -8    0.22    0.96   1
   5  -2  -7    0.76    1.20   1
   5  -2  -6    1.15    0.94   1
   5  -2  -5    2.68    1.13   1
   5  -2  -4   18.65    2.62   1
   5  -2  -3    6.91    2.24   1
   5  -2  -2    0.98    1.23   1
   5  -2  -1    1.49    1.25   1
   5  -2   0    4.48    1.49   1
   5  -2   1    6.50    1.88   1
   5  -2   2   -0.01    0.95   1
   5  -2   3    0.20    0.86   1
   5  -2   4   -0.28    0.93   1
   5  -2   5   22.25    2.68   1
   5  -2   6    9.11    2.12   1
   5  -2   7    1.30    1.32   1
   5  -2   8   -0.35    0.96   1
   5  -2   9    1.25    1.25   1
   5  -2  10    7.97    2.19   1
   5  -1  -9   20.52    3.51   1
   5  -1  -8    0.71    1.81   1
   5  -1  -7    0.61    1.23   1
   5  -1  -6    0.77    1.31   1
   5  -1  -5    0.43    2.28   1
   5  -1  -4   33.98    1.52   1
   5  -1  -3    6.08    1.15   1
   5  -1  -2    7.25    1.83   1
   5  -1  -1   -0.32    1.63   1
   5  -1   0   48.25    2.02   1
   5  -1   1   31.98    3.74   1
   5  -1   2   18.22    1.51   1
   5  -1   3    0.90    1.87   1
   5  -1   4    0.08    1.39   1
   5  -1   5   -0.04    1.45   1
   5  -1   6    2.16    1.25   1
   5  -1   7   -0.23    1.24   1
   5  -1   8    1.98    1.68   1
   5  -1   9    1.14    1.37   1
   5  -1  10    0.12    1.15   1
   5  -1  11   10.85    0.91   1
   5   0 -10    2.98    1.45   1
   5   0  -9    2.48    1.22   1
   5   0  -8   13.34    2.25   1
   5   0  -7   -0.04    1.30   1
   5   0  -6    1.16    1.74   1
   5   0  -5    0.12    1.46   1
   5   0  -4    8.59    1.61   1
   5   0  -3    5.67    1.08   1
   5   0  -2    5.46    1.85   1
   5   0  -1   14.88    2.20   1
   5   0   0   10.43    1.91   1
   5   0   1   12.08    1.45   1
   5   0   2   13.42    2.36   1
   5   0   3   11.71    2.01   1
   5   0   4   12.34    1.23   1
   5   0   5    9.92    1.91   1
   5   0   6    0.11    1.17   1
   5   0   7   15.53    1.95   1
   5   0   8    0.49    1.33   1
   5   0   9    2.43    1.46   1
   5   0  10   35.59    2.83   1
   5   0  11   27.39    1.67   1
   5   0  12   -0.55    1.65   1
   5   2  -9    0.24    0.90   1
   5   2  -8    6.74    1.31   1
   5   2  -7   36.53    3.62   1
   5   2  -6    0.75    2.16   1
   5   2  -5    1.33    1.74   1
   5   2  -4   -0.62    1.19   1
   5   2  -3   18.40    1.78   1
   5   2  -2    6.13    1.09   1
   5   2  -1    4.54    0.84   1
   5   2   5    1.37    1.11   1
   5   2   6   26.55    1.85   1
   5   2   7   16.19    1.50   1
   5   2   8   10.71    1.91   1
   5   2   9    4.40    1.16   1
   5   2  10    0.97    1.82   1
   5   2  11    5.46    1.35   1
   5   2  12    1.09    1.82   1
   5   2  13    0.87    1.14   1
   5   3  -9   -0.26    1.56   1
   5   3  -8    3.92    1.70   1
   5   3  -7    3.90    2.04   1
   5   3  -6    0.48    1.42   1
   5   3  -5    0.60    1.51   1
   5   3  -4    1.03    2.20   1
   5   3  -3    3.92    1.78   1
   5   3  -2   20.89    2.24   1
   5   3  -1   27.61    2.39   1
   5   3   0    1.67    1.40   1
   5   3   1   -0.02    0.78   1
   5   3   2   16.66    1.64   1
   5   3   3    1.08    1.75   1
   5   3   4   14.98    1.77   1
   5   3   5    1.91    1.03   1
   5   3   6    2.81    1.18   1
   5   3   7   23.83    2.31   1
   5   3   8    6.93    2.19   1
   5   3   9    2.82    2.24   1
   5   3  10   22.30    2.27   1
   5   3  11    6.52    2.00   1
   5   3  12    0.33    1.25   1
   5   3  13   -0.48    1.14   1
   5   4  -8    4.53    1.27   1
   5   4  -7    9.39    2.60   1
   5   4  -6    0.95    1.64   1
   5   4  -5    0.65    1.60   1
   5   4  -4    0.74    1.29   1
   5   4  -3   -0.70    1.54   1
   5   4  -2    3.75    1.83   1
   5   4  -1    1.57    1.33   1
   5   4   0    2.06    0.98   1
   5   4   1   -0.50    1.09   1
   5   4   2    9.98    1.55   1
   5   4   3    3.11    1.38   1
   5   4   4   13.29    1.74   1
   5   4   5   15.17    1.34   1
   5   4   6   -0.44    1.48   1
   5   4   7    1.57    1.38   1
   5   4   8    0.79    1.63   1
   5   4   9    1.84    1.52   1
   5   4  10    1.57    1.31   1
   5   4  11    4.21    1.06   1
   5   4  12   11.78    1.40   1
   5   4  13   -0.36    1.03   1
   5   4  14   -0.05    0.88   1
   5   5  13   -1.55    0.94   1
   5   6  -7    0.34    1.36   1
   5   6  -6   -0.06    0.84   1
   5   6  -5    2.47    1.34   1
   5   6  13    3.08    0.69   1
   5   7  -5    1.49    0.82   1
   5   7  -4    6.73    1.02   1
   5   7  -3    3.61    1.52   1
   5   7  -2   -0.86    1.31   1
   5   7  -1   14.85    1.64   1
   5   7   0    5.70    1.67   1
   5   7   1    7.16    1.27   1
   5   7   2   74.39    2.50   1
   5   7   3    0.86    1.19   1
   5   7   4    0.73    1.33   1
   5   7   5    3.52    1.34   1
   5   7   6   -0.39    1.38   1
  -5  -7  -7    5.37    1.27   1
   5   7   8   34.13    1.94   1
   5   7   9   20.22    1.77   1
   5   7  10   -0.98    0.92   1
   5   7  11   -1.61    1.60   1
   5   7  12    1.44    1.19   1
   5   7  13   -0.36    0.97   1
   5   8  -3   -0.12    1.10   1
   5   8  -2    0.79    1.11   1
   5   8  -1    1.31    1.36   1
   5   8   0   11.85    1.35   1
   5   8   1    4.59    1.71   1
   5   8   2   43.46    1.80   1
   5   8   3    5.83    1.61   1
   5   8   4    0.72    1.44   1
  -5  -8  -5    4.15    1.69   1
  -5  -8  -6    8.51    1.29   1
  -5  -8  -7    1.60    1.49   1
  -5  -8  -8    2.62    1.53   1
   5   8   9    8.96    2.07   1
   5   8  10   20.09    2.15   1
   5   8  11   -0.74    1.16   1
   5   8  12    0.53    0.98   1
   5   9  -1    0.72    1.02   1
  -5  -9  -7    0.84    1.33   1
   6  -3  -5    4.36    2.80   1
   6  -3  -4    2.09    1.27   1
   6  -3  -3    0.51    0.73   1
   6  -3  -2    2.79    0.97   1
   6  -3   0    0.02    1.12   1
   6  -3   1   -0.06    1.92   1
   6  -3   2    0.38    1.34   1
   6  -3   3    1.66    0.92   1
   6  -3   5    1.97    3.07   1
   6  -3   6    1.82    1.53   1
   6  -2  -7    0.62    1.88   1
   6  -2  -6    1.30    2.12   1
   6  -2  -5    0.37    1.28   1
   6  -2   3   -1.64    1.48   1
   6  -2   4    0.76    1.28   1
   6  -2   6    4.10    0.97   1
   6  -2   7   -0.20    1.21   1
   6  -2   8    0.29    1.19   1
   6   0  -8    2.33    2.05   1
   6   0  -7    0.55    1.43   1
   6   0  -6    1.80    1.36   1
   6   0  -5    0.43    0.98   1
   6   0  -4   -0.28    1.17   1
   6   0  -3    0.38    1.17   1
   6   0  -2    2.81    1.72   1
   6   0  -1   -0.05    1.77   1
   6   0   0   -0.19    1.65   1
   6   0   2  169.59    6.45   1
   6   0   3   11.68    0.92   1
   6   0   4    3.80    1.38   1
   6   0   5    0.65    1.48   1
   6   0   6    0.67    1.36   1
   6   0   7    0.07    1.20   1
   6   0   8    0.32    1.25   1
   6   0   9   -0.01    0.94   1
   6   0  10    0.89    1.05   1
   6   1  -8    1.96    1.37   1
   6   1  -7   14.37    2.02   1
   6   1  -6   10.52    1.75   1
   6   1  -5    1.87    1.11   1
   6   1  -4   16.93    1.81   1
   6   1  -3    8.20    1.38   1
   6   1  -2    1.89    1.60   1
   6   1  -1    6.32    1.56   1
   6   1   0    0.44    1.17   1
   6   1   1    7.53    1.37   1
   6   1   2    2.92    1.43   1
   6   1   3   25.05    1.92   1
   6   1   4    7.91    1.58   1
   6   1   5    0.08    1.29   1
   6   1   6    1.12    1.55   1
   6   1   7    5.53    1.11   1
   6   1   8    7.92    1.29   1
   6   1   9    1.95    1.01   1
   6   1  10   -0.02    1.13   1
   6   1  11    2.41    1.73   1
   6   2  -7   21.55    4.48   1
   6   2  -6   14.85    2.49   1
   6   2  -5    4.77    1.93   1
   6   2  -4    0.91    0.98   1
   6   2  -3   12.06    2.37   1
   6   2  -2    0.48    2.08   1
   6   2  -1    0.39    1.65   1
   6   2   0    2.33    1.48   1
   6   2   1    5.97    1.22   1
   6   2   2    7.42    1.72   1
   6   2   3    2.09    1.78   1
   6   2   4    4.53    1.53   1
   6   2   5    0.85    1.49   1
   6   2   6    7.73    1.53   1
   6   2   7    8.10    2.15   1
   6   2   8    0.73    1.43   1
   6   2   9    1.46    1.55   1
   6   2  10    0.19    1.39   1
   6   2  11    1.47    1.19   1
   6   2  12    2.75    1.34   1
   6   4  -7    1.24    1.27   1
   6   4  -6    0.15    1.32   1
   6   4  -5    0.26    1.28   1
   6   4  -4   -0.59    0.80   1
   6   4  -2    1.44    1.46   1
   6   4  -1    0.10    1.38   1
   6   4   1    3.30    1.14   1
   6   4   2   40.90    1.86   1
   6   4   3   15.98    1.95   1
   6   4   4    1.52    1.34   1
   6   4   5   40.91    2.66   1
   6   4   7    3.28    1.67   1
   6   4   8    0.51    1.40   1
   6   4   9    3.32    1.32   1
   6   4  10    0.07    1.22   1
   6   4  11    1.40    1.07   1
   6   4  12    3.28    0.98   1
   6   5  -6   -0.86    1.38   1
   6   5  -5    0.87    1.07   1
   6   5  -4    1.35    1.19   1
   6   5  -3   14.12    1.84   1
   6   5  -2    1.01    1.19   1
   6   5  -1   -0.86    1.73   1
   6   5   0   -0.15    1.46   1
   6   5   1    0.35    1.68   1
   6   5   2    2.22    1.43   1
   6   5   3    6.46    1.54   1
   6   5   4    3.73    1.66   1
   6   5   5   28.64    1.74   1
   6   5   6    1.39    1.86   1
   6   5   7    2.97    1.63   1
   6   5   8   -0.51    1.20   1
   6   5   9   -0.53    1.17   1
   6   5  10    9.88    1.35   1
   6   5  11   24.97    4.16   1
   6   5  12   -0.03    1.14   1
   6   6  -5    1.01    1.17   1
   6   6  -4    0.63    1.24   1
   6   6  -3   11.88    1.63   1
   6   6  -2   42.33    2.44   1
   6   6  -1    5.25    1.63   1
   6   6   0    0.67    1.28   1
   6   6   1    1.59    1.21   1
   6   6   2    0.73    1.20   1
   6   6   3    4.11    1.84   1
   6   6   4   11.78    1.37   1
   6   6   5    0.20    1.08   1
   6   6   6    1.38    1.64   1
   6   6   7   18.03    1.71   1
   6   6   8   30.00    2.66   1
   6   6   9   -0.30    1.70   1
   6   6  10    2.21    1.58   1
   6   6  11   11.45    1.36   1
   6   6  12    0.73    1.23   1
   6   8  -2   -0.16    1.17   1
   6   8  -1    1.08    0.91   1
   6   9   2    1.30    1.08   1
   6   9   3    0.56    0.72   1
   6   9   6    1.69    1.12   1
   6   9   7    0.20    0.84   1
   6   9   8    5.62    0.77   1
   7  -2   2   -0.34    1.70   1
   7  -1  -3    6.18    2.65   1
   7  -1  -2    5.48    2.18   1
   7  -1  -1   -1.00    1.14   1
   7  -1   0    4.72    1.07   1
   7  -1   1   18.09    4.08   1
   7  -1   2    9.05    2.72   1
   7  -1   3    1.74    2.77   1
   7  -1   4    1.08    1.09   1
   7  -1   5    2.65    2.08   1
   7  -1   6    0.28    1.93   1
   7   0  -4    0.29    1.89   1
   7   0  -3    2.34    1.64   1
   7   0   4   -1.16    1.37   1
   7   0   6    4.40    1.35   1
   7   0   7    0.62    1.31   1
   7   2  -5    0.03    1.02   1
   7   2  -4    0.99    1.43   1
   7   2  -3    1.27    1.25   1
   7   2  -2    6.25    1.43   1
   7   2  -1   -0.21    1.30   1
   7   2   0    2.29    1.60   1
   7   2   1   -0.18    1.47   1
   7   2   2    6.91    1.54   1
   7   2   3    2.76    0.82   1
   7   2   4   -0.35    1.06   1
   7   2   5    1.46    1.36   1
   7   2   6    8.93    1.37   1
   7   2   7    6.26    1.11   1
   7   2   8    7.76    1.61   1
   7   2   9    0.02    1.08   1
   7   3  -4    0.95    1.78   1
   7   3  -3    0.12    1.20   1
   7   3  -2   -0.44    1.06   1
   7   3  -1   18.12    2.17   1
   7   3   0    2.55    1.32   1
   7   3   1   -0.09    1.31   1
   7   3   2    1.95    1.38   1
   7   3   3    1.26    1.14   1
   7   3   4    2.92    1.33   1
   7   3   5    1.35    1.46   1
   7   3   6    0.31    1.75   1
   7   3   7    0.23    1.41   1
   7   3   8   10.23    1.82   1
   7   3   9   -0.32    0.88   1
   7   3  10   -0.18    1.27   1
   7   4  -4   -0.63    1.14   1
   7   4  -3    1.53    1.49   1
   7   4  -2    0.33    1.23   1
   7   4  -1   -0.04    0.73   1
   7   4   1   -0.25    1.10   1
   7   4   2    4.53    1.64   1
   7   4   3    6.10    1.25   1
   7   4   4    0.75    1.75   1
   7   4   5    4.20    2.00   1
   7   4   6    7.28    1.32   1
   7   4   7   -1.00    1.09   1
   7   4   8    0.21    0.71   1
   7   4   9    0.43    0.96   1
   7   4  10    0.91    0.90   1
   7   6  -2   23.03    4.64   1
   7   6  -1    9.73    1.67   1
   7   6   7    5.13    1.23   1
   7   6   8   13.50    2.07   1
   7   6   9    2.76    1.83   1
   7   6  10    1.85    0.65   1
   7   7  -1    4.92    1.85   1
   7   7   0   -0.06    1.53   1
   7   7   1    1.28    1.16   1
   7   7   2   12.91    1.85   1
   7   7   3   23.93    2.20   1
   7   7   4    0.64    1.13   1
   7   7   5    0.65    0.97   1
   7   7   6   -0.13    1.21   1
   7   7   7   -0.96    0.97   1
   7   7   8   10.62    1.87   1
   7   7   9   15.67    2.04   1
   7   8   2   18.33    2.13   1
   7   8   4    2.48    1.38   1
   7   8   5    0.38    0.64   1
   7   8   7    6.77    1.61   1
   7   8   8    0.13    1.86   1
   8   4   1   -1.11    0.98   1
   8   4   2   -1.06    2.38   1
   8   4   3   10.26    2.10   1
   8   4   4    1.09    2.40   1
   8   4   5    2.62    2.52   1
   8   4   6   11.12    2.72   1
   8   5   2    0.40    2.01   1
   8   5   3    1.17    1.40   1
   8   5   4    0.35    0.98   1
   8   5   5    0.78    1.06   1
   8   5   6    7.13    0.79   1
   0   1 -14    1.32    1.25   2
   0   1 -13    0.61    1.56   2
   0   1 -12    7.25    1.25   2
   0   1 -11   14.28    1.41   2
   0   1 -10   16.62    1.62   2
   0   1  -9   54.25    2.76   2
   0   1  -8   10.21    1.09   2
   0  -1   7   29.78    2.50   2
   0  -1   6   74.53    4.77   2
   0  -1   5  293.61    4.09   2
   0  -1   4   29.27    1.14   2
   0   1  -3  123.95    5.70   2
   0   1  -2  149.46    3.13   2
   0  -1   1  248.66    7.16   2
   0   1   0  291.28   12.27   2
   0   1   1  361.18    8.56   2
   0   1   2   65.63    0.83   2
   0   1   3   83.39    3.12   2
   0  -1  -4   24.45    0.82   2
   0  -1  -5   32.01    1.36   2
   0   1   6  310.03   11.43   2
   0  -1  -7    3.33    1.04   2
   0   1   8   25.77    1.36   2
   0   1   9   44.15    2.63   2
   0   1  10  185.26   11.22   2
   0   1  11   36.06    2.82   2
   0   1  12    3.98    1.32   2
   0  -1 -13   -0.22    0.86   2
   0   1  14    1.64    0.88   2
   0   2 -13    0.01    1.05   2
   0   2 -12    4.50    2.09   2
   0   2 -11   34.65    2.29   2
   0   2 -10   23.49    2.04   2
   0   2  -9  119.06    6.51   2
   0   2  -8   25.57    2.71   2
   0  -2   7    2.18    0.91   2
   0   2  -6   14.43    1.21   2
   0  -2   5   62.03    4.23   2
   0  -2   4  413.93   18.40   2
   0   2  -3   27.48    1.33   2
   0  -2   2   14.16    0.73   2
   0   2  -1    0.43    0.63   2
   0   2   0  321.06   14.65   2
   0   2   1   48.95    2.05   2
   0   2   2  348.00   12.70   2
   0   2   3    6.39    0.78   2
   0  -2  -4   79.26    3.54   2
   0  -2  -5  402.44    8.80   2
   0   2   6   44.51    1.64   2
   0   2   7   -0.18    0.71   2
   0  -2  -8    0.81    0.94   2
   0   2   9   48.12    2.89   2
   0   2  10   22.01    2.57   2
   0   2  11   16.17    1.63   2
   0   2  12    9.65    1.41   2
   0   2  13    0.59    1.42   2
   0   2  14    2.28    1.41   2
   0   2  15    0.67    0.89   2
   0   3 -13   -0.30    1.43   2
   0   3 -12   10.19    1.54   2
   0   3 -11    2.08    1.07   2
   0   3 -10   16.24    1.57   2
   0   3  -9   18.35    1.98   2
   0   3  -8    1.87    1.50   2
   0   3  -7   38.00    4.29   2
   0   3  -6    1.67    1.00   2
   0   3  -5   47.43    2.46   2
   0   3  -4  101.07    4.25   2
   0   3  -3  518.99   13.14   2
   0   3  -2  169.67    3.53   2
   0   3  -1  318.85    4.16   2
   0   3   0    5.54    0.91   2
   0   3   1  115.01    2.44   2
   0   3   2  251.40    6.24   2
   0  -3  -3  139.15    6.09   2
   0   3   4   14.67    1.04   2
   0   3   5  150.18    4.05   2
   0   3   6  192.26   13.10   2
   0  -3  -7   26.64    1.87   2
   0   3   8    5.25    0.95   2
   0   3   9    1.08    0.68   2
   0   3  10    1.26    1.23   2
   0   3  11    0.67    1.27   2
   0   3  12   76.26    6.44   2
   0   3  13    0.29    0.70   2
   0   3  14    1.17    1.75   2
   0   3  15    3.28    1.10   2
   0   5 -11   -0.26    1.14   2
   0   5 -10    8.26    1.95   2
   0   5  -9    1.36    0.80   2
   0   5  -8   -0.15    1.53   2
   0   5  -7    0.22    0.87   2
   0   5  -6    6.70    1.75   2
   0   5  -5    8.38    1.18   2
   0   5  -1    3.69    1.02   2
   0   5   0   57.71    1.64   2
   0   5   1  403.69    3.29   2
   0   5   2   19.66    1.25   2
   0   5   4   88.43    1.83   2
   0   5   5   12.10    0.70   2
   0   5   6    1.10    0.96   2
   0   5   8   46.91    2.59   2
   0   5   9   92.16    4.56   2
   0   5  10    1.19    2.47   2
   0   5  11    6.85    1.56   2
   0   5  12   21.07    2.07   2
   0   5  13    7.01    1.85   2
   0   5  14    0.77    0.80   2
   0   6  -9   13.52    1.67   2
   0   6  -8    8.31    1.48   2
   0   6  -7    1.00    1.34   2
   0   6  -6   19.23    2.20   2
   0   6  -5    0.29    1.43   2
   0   6  -4   89.40    3.98   2
   0   6  -3  109.14    3.94   2
   0   6  -2    1.49    1.12   2
   0   6  -1   72.50    2.73   2
   0   6   0   17.88    1.91   2
   0   6   1    4.99    0.73   2
   0   6   2    6.34    1.00   2
   0   6   3    0.49    0.78   2
   0   6   4    2.85    0.87   2
   0   6   5    1.46    1.21   2
   0   6   6   31.04    3.53   2
   0   6   7   43.24    3.23   2
   0   6   8   38.86    3.30   2
   0   6   9   99.04    7.35   2
   0   6  10   10.72    2.54   2
   0   6  11   -0.47    1.23   2
   0   6  12   26.24    2.58   2
   0   6  13    0.32    1.15   2
   0   6  14   11.72    0.68   2
   0   7  -8    1.69    1.45   2
   0   7  -7    0.15    1.26   2
   0   7  -6    1.04    1.33   2
   0   7  -5    8.15    1.61   2
   0   7  -4   -0.20    1.17   2
   0   7  -3   84.57    4.03   2
   0   7  -2    5.01    1.72   2
   0   7  -1   42.43    2.48   2
   0   7   0  116.49    2.99   2
   0   7   1    1.82    0.71   2
   0   7   2    8.17    1.52   2
   0   7   3   11.01    1.58   2
   0   7   4   11.62    1.29   2
   0   7   5   30.26    2.20   2
   0   7   6   50.05    2.73   2
   0   7   7  120.91    5.97   2
   0   7   8    6.84    1.59   2
   0   7   9    2.58    1.47   2
   0   7  10    2.14    1.55   2
   0   7  11    0.30    0.99   2
   0   7  12    3.49    0.93   2
   0   7  13    0.64    0.79   2
   0   8  -6    0.06    1.19   2
   0   8  -5    1.59    1.01   2
   0   8  -4   -0.64    0.93   2
   0   8  12    0.47    0.72   2
   0   9  -4    0.49    0.80   2
   0   9  -3    1.76    1.33   2
   0   9   3   38.16    1.54   2
   0  10  -1    0.00    1.85   2
   0  10   0   11.41    2.75   2
   0  10   1    5.59    1.80   2
   0  10   2   14.16    2.15   2
   0  10   3    1.27    1.23   2
   0  10   4    2.45    1.37   2
   0  10   5    2.22    0.53   2
   0  10   6    7.68    1.21   2
   0  10   7   11.94    2.29   2
   0  10   8    0.26    1.24   2
  -1   9   9    6.21    0.69   2
  -1   9   8    4.16    1.42   2
  -1   9   7   -0.15    0.97   2
  -1   9   6    2.62    1.12   2
  -1   9   5    9.96    2.23   2
  -1   9   4    1.68    1.29   2
  -1   9   3    4.19    1.55   2
  -1   9   2   19.95    2.17   2
  -1   9   1    0.74    0.91   2
  -1   9   0   -0.04    0.86   2
  -1   9  -1    0.09    0.94   2
  -1   9  -2   -0.59    1.29   2
  -1   9  -3    2.24    1.38   2
  -1   8  11    0.50    0.76   2
  -1   8  10    0.06    0.99   2
  -1   8   9   10.37    1.98   2
  -1   8   8    3.28    1.70   2
  -1   8   7    8.45    1.43   2
  -1   8   6    0.70    1.09   2
  -1   8   5   26.79    1.49   2
  -1   8   4    0.68    1.19   2
  -1   8   3   -0.30    1.11   2
  -1   8   2   12.95    1.79   2
  -1   8   1    1.49    1.71   2
  -1   8   0   56.34    3.78   2
  -1   8  -1   17.28    1.97   2
  -1   8  -2    4.09    1.49   2
  -1   8  -3   10.00    2.25   2
  -1   8  -4    0.46    1.04   2
  -1   8  -5   -0.24    1.51   2
  -1   8  -6    4.64    1.77   2
  -1   7  12    2.55    0.98   2
  -1   7  -7    1.37    0.97   2
  -1   6  13    0.45    0.96   2
  -1   6  -1   31.16    1.34   2
  -1   6  -3   83.41    3.35   2
  -1   6  -4   75.08    2.08   2
  -1   6  -7   21.25    2.26   2
  -1   6  -8    0.53    1.11   2
  -1   6  -9   -0.54    1.08   2
  -1   5  14    1.96    1.23   2
  -1   5  13   -0.18    0.85   2
  -1   5  12    1.76    1.51   2
  -1   5  11   36.49    3.78   2
  -1   5  10    1.32    1.52   2
  -1   5   9   53.42    3.35   2
  -1   5   8  108.49    4.42   2
  -1   5   7    2.44    1.30   2
  -1   5   6   -0.26    1.19   2
  -1   5   5   28.35    1.89   2
  -1   5   4    1.31    0.79   2
  -1   5   3    9.21    0.83   2
  -1   5   2  178.44    7.64   2
  -1   5   1   19.35    1.60   2
  -1   5   0    4.68    1.25   2
  -1   5  -1    3.25    0.97   2
  -1   5  -2   14.90    1.37   2
  -1   5  -3    9.40    1.18   2
  -1   5  -4   35.81    2.93   2
  -1   5  -5   -0.11    1.59   2
  -1   5  -6    3.47    1.43   2
  -1   5  -7   15.93    1.35   2
  -1   5  -8    1.97    1.75   2
  -1   5  -9    5.86    1.49   2
  -1   5 -10    4.02    1.43   2
  -1   4  14    0.47    0.75   2
  -1   4  13   -0.90    1.68   2
  -1   4  12    2.56    1.27   2
  -1   4  11    0.94    1.41   2
  -1   4  10   10.45    1.86   2
  -1   4   9   10.85    1.55   2
  -1   4   8   10.23    1.40   2
  -1   4   7    0.22    1.07   2
  -1   4   6    2.22    0.79   2
  -1   4   5   26.23    0.91   2
  -1   4   4   44.17    1.80   2
  -1   4   3   55.09    1.32   2
  -1   4   2  212.62    8.12   2
  -1   4   1  306.74   14.99   2
  -1   4   0    9.68    0.92   2
  -1   4  -1    2.87    1.10   2
  -1   4  -2   36.95    2.75   2
  -1   4  -3    0.78    0.91   2
  -1   4  -4   64.54    3.47   2
  -1   4  -5   51.00    3.73   2
  -1   4  -6   14.17    1.43   2
  -1   4  -7   12.53    1.80   2
  -1   4  -8    3.10    1.45   2
  -1   4  -9   72.12    2.37   2
  -1   4 -10   -0.24    1.03   2
  -1   4 -11   -0.82    1.15   2
  -1   4 -12    2.92    1.70   2
  -1   3  14    0.22    0.86   2
  -1   3  13    0.37    0.97   2
  -1   3  12    4.03    1.74   2
  -1   3  11   -0.96    1.53   2
  -1   3  10    2.62    1.39   2
  -1   3   9    8.60    1.47   2
  -1   3   6   72.03    1.68   2
  -1   3   2  111.82    7.43   2
  -1   3   1    6.70    0.57   2
  -1   3   0   53.34    3.75   2
  -1   3  -1   20.78    0.97   2
  -1   3  -2    7.28    0.90   2
  -1   3  -7   27.11    3.26   2
  -1   3  -8   12.46    1.15   2
  -1   3  -9   30.52    1.80   2
  -1   3 -10    9.81    1.50   2
  -1   3 -12   -0.59    0.85   2
  -1   3 -13   -1.91    2.06   2
  -1   2  13   -0.10    1.25   2
  -1   2   0   56.94    0.98   2
  -1   1  14    0.92    1.61   2
  -1   1  13    0.42    1.71   2
  -1   1  12   17.18    2.35   2
   1  -1 -11   52.30    3.69   2
  -1   1  10   79.13    4.34   2
  -1   1   9   19.28    1.34   2
  -1   1   8   15.18    1.22   2
  -1   1   7    0.40    1.21   2
  -1   1   6   20.63    1.07   2
  -1   1   5  670.43   28.98   2
  -1   1   4    0.57    0.64   2
  -1   1   3  267.53    3.21   2
  -1   1   2  224.35    2.77   2
  -1   1   1  699.32   20.32   2
  -1   1   0  661.99   27.48   2
  -1   1  -1  255.72    7.13   2
  -1   1  -2  208.14    6.66   2
  -1   1  -3  326.46    5.28   2
  -1   1  -4  118.94    2.78   2
   1  -1   5   21.84    1.77   2
  -1   1  -6    1.28    0.85   2
   1  -1   7    4.56    1.16   2
  -1   1  -8   11.82    1.88   2
  -1   1  -9   22.54    1.62   2
  -1   1 -10   29.53    2.31   2
  -1   1 -11   13.73    1.87   2
  -1   1 -12    9.90    2.24   2
  -1   1 -13    4.26    1.92   2
  -1   1 -14    3.98    1.26   2
   1   0 -14    1.54    1.06   2
  -1   0  13    1.78    0.88   2
  -1   0  12    8.32    1.77   2
  -1   0  11   20.25    2.43   2
  -1   0  10   57.03    2.33   2
  -1   0   9   45.08    2.08   2
  -1   0   8   10.96    1.10   2
  -1   0   7    6.98    1.29   2
   1   0  -6   48.16    2.18   2
  -1   0   5   88.37    4.43   2
  -1   0   4   71.59    1.32   2
   1   0  -3    2.95    0.74   2
  -1   0   2  128.67    3.59   2
  -1   0   1  194.95    3.60   2
  -1   0   0    1.87    0.53   2
  -1   0  -1    0.16    0.53   2
  -1   0  -2    5.72    0.55   2
  -1   0  -3   11.27    0.82   2
   1   0   4  144.76    4.24   2
  -1   0  -5   10.31    1.20   2
  -1   0  -6   83.57    3.62   2
   1   0   7   11.09    0.96   2
  -1   0  -8    4.58    1.04   2
  -1   0  -9   61.76    3.21   2
  -1   0 -10   68.41    3.83   2
  -1   0 -11    3.05    2.30   2
  -1   0 -12    4.82    1.03   2
  -1   0 -13   10.33    1.75   2
  -1   0 -14    0.32    1.03   2
  -1  -1  13    0.72    1.06   2
  -1  -1  12   10.63    1.03   2
  -1  -1  11    0.28    1.48   2
  -1  -1  10    5.52    1.53   2
  -1  -1   9   48.53    3.16   2
   1   1  -8    7.15    1.10   2
  -1  -1   7   35.37    2.25   2
  -1  -1   6   51.35    4.40   2
   1   1  -5    8.99    0.89   2
   1   1  -4  186.35    1.63   2
  -1  -1   3    0.89    0.97   2
  -1  -1   2  248.85    2.95   2
  -1  -1   1  440.57    9.36   2
  -1  -1   0  791.91   12.71   2
  -1  -1  -1 1051.62   13.11   2
   1   1   2    4.88    0.58   2
   1   1   3  140.39    5.49   2
  -1  -1  -4  779.94   12.47   2
  -1  -1  -5  481.71    9.16   2
   1   1   6  177.93    3.63   2
   1   1   7   53.46    3.40   2
  -1  -1  -8   18.49    0.85   2
  -1  -1  -9    6.34    1.32   2
  -1  -1 -10   82.25    4.90   2
  -1  -1 -11   73.53    2.98   2
  -1  -1 -12    0.78    1.22   2
  -1  -1 -13    4.17    2.08   2
  -1  -1 -14    0.94    0.90   2
  -1  -1 -15    0.64    1.19   2
   1   3 -12    0.55    0.93   2
   1   3 -11   -1.54    1.47   2
   1   3 -10    1.41    1.22   2
   1   3  -9   42.47    2.25   2
   1   3  -8    0.69    1.07   2
   1   3  -7    1.01    0.89   2
  -1  -3   6   51.07    2.47   2
   1   3  -5    6.49    1.36   2
   1   3  -4    6.57    1.18   2
   1   3  -3  273.78    2.53   2
  -1  -3   2  158.61    4.89   2
   1   3  -1  138.66    3.44   2
   1   3   0    7.95    1.14   2
   1   3   1  128.82    2.67   2
  -1  -3  -2   58.15    2.64   2
  -1  -3  -3  545.99    5.85   2
  -1  -3  -4  152.90    3.72   2
   1   3   5   23.22    1.29   2
   1   3   6  130.81    3.30   2
  -1  -3  -7   57.04    2.58   2
   1   3   8    2.34    0.69   2
   1   3   9   18.95    2.13   2
  -1  -3 -10    6.14    1.37   2
   1   3  11    0.76    1.62   2
  -1  -3 -12    1.40    1.66   2
  -1  -3 -13   -0.52    1.36   2
  -1  -3 -14    1.13    1.08   2
  -1  -3 -15    1.24    0.69   2
   1   4 -12   -0.03    1.86   2
   1   4 -11   10.78    1.44   2
   1   4 -10    2.90    1.32   2
   1   4  -9    4.43    1.46   2
   1   4  -8   90.84    4.02   2
   1   4  -7   25.89    1.87   2
   1   4  -6    2.62    1.39   2
   1   4  -5    2.18    1.02   2
   1   4  -4   13.43    1.07   2
   1   4  -3  103.30    1.26   2
   1   4  -2    5.80    1.11   2
   1   4  -1   64.52    2.31   2
   1   4   0   49.54    1.35   2
   1   4   1  101.51    2.36   2
   1   4   2  146.36    2.39   2
   1   4   3  653.34    6.54   2
   1   4   4    4.03    1.07   2
   1   4   5    7.63    0.88   2
   1   4   6   73.18    3.20   2
   1   4   7   57.90    2.06   2
   1   4   8   54.05    1.08   2
   1   4   9    3.21    1.39   2
   1   4  10    4.41    1.56   2
   1   4  11   22.11    3.89   2
   1   4  12    4.16    1.13   2
   1   4  13   13.58    1.18   2
   1   4  14    0.72    1.14   2
   1   4  15    0.53    0.98   2
   1   5 -11    2.88    1.97   2
   1   5 -10   -0.10    1.03   2
   1   5  -9    2.21    1.38   2
   1   5  -8    2.95    1.40   2
   1   5  -7    5.38    2.48   2
   1   5  -6   13.22    2.20   2
   1   5  -5   13.27    1.19   2
   1   5  -4   38.53    2.88   2
   1   5  -3   27.20    1.64   2
   1   5  -2   43.02    2.64   2
   1   5  -1  158.08    2.05   2
   1   5   0   14.39    1.06   2
   1   5   1   12.69    1.22   2
   1   5   2  204.19    1.83   2
   1   5   3   55.09    1.95   2
   1   5   4   22.87    1.48   2
   1   5   5   25.94    1.32   2
   1   5   6   14.78    1.12   2
   1   5   7    2.78    0.75   2
  -1  -5  -8    0.17    0.87   2
   1   5   9  232.77   14.30   2
   1   5  10    6.52    1.20   2
   1   5  11    5.11    1.48   2
   1   5  12   13.85    1.86   2
   1   5  13    5.99    1.20   2
   1   5  14    2.94    1.32   2
   1   5  15    1.42    0.82   2
   1   7  -8    1.25    1.14   2
   1   7  -7    0.43    1.19   2
   1   7  -6   17.19    1.77   2
   1   7  -5   21.47    1.03   2
   1   7  -4   25.91    2.78   2
   1   7  -3    4.75    1.63   2
   1   7  -2  118.49    4.31   2
   1   7  -1   19.78    5.07   2
   1   7   0  110.41    5.07   2
   1   7   1   58.48    2.83   2
   1   7   2    3.06    1.99   2
   1   7   3    0.76    0.92   2
   1   7   4   68.04    4.37   2
   1   7   5   39.04    1.56   2
   1   7   6    3.31    2.49   2
   1   7  10    4.36    1.89   2
   1   7  11    1.22    1.76   2
   1   7  12    2.38    1.08   2
   1   7  13   -0.23    1.06   2
   1   7  14    4.96    1.87   2
   1   8  -6    0.33    1.00   2
   1   8  -5    6.40    1.45   2
   1   8  -4    0.74    1.33   2
   1   8  -3    0.91    1.11   2
   1   8  -2   15.68    2.44   2
   1   8  -1    4.29    1.26   2
   1   8   0   64.04    3.00   2
   1   8   1   51.20    2.92   2
   1   8   2    1.11    0.98   2
   1   8   3    8.55    1.37   2
   1   8   4   -0.13    1.01   2
   1   8   5    7.41    1.31   2
   1   8   6   10.95    1.66   2
   1   8   7    1.56    1.32   2
   1   8   8   13.09    1.59   2
   1   8   9    7.59    1.10   2
   1   8  10    2.03    1.72   2
   1   8  11    2.25    0.84   2
   1   8  12   -0.21    0.61   2
   1   8  13    2.70    1.12   2
   1   9  -4    0.73    1.07   2
   1   9  -3    1.08    1.13   2
   1   9  -2    0.54    1.32   2
   1   9  -1    0.22    1.41   2
   1   9   0   -0.16    1.32   2
   1   9   1    0.67    0.97   2
   1   9   2    8.86    1.52   2
   1   9   3   32.87    1.92   2
   1   9   4   -0.06    1.08   2
   1   9   5   15.30    1.34   2
   1   9   6    4.56    1.14   2
   1   9   7    7.22    1.94   2
   1   9   8   -0.01    0.77   2
   1   9   9   40.86    2.21   2
   1   9  10    1.67    0.96   2
   1   9  11   -0.05    0.64   2
   1   9  12    1.56    0.67   2
  -2   8   9    0.43    1.27   2
  -2   8   8   19.88    1.84   2
  -2   8   7    6.00    1.05   2
  -2   8   2   -0.12    1.86   2
  -2   8   1    8.39    1.27   2
  -2   8   0    6.72    1.57   2
  -2   8  -3    3.17    2.67   2
  -2   8  -4    1.87    1.49   2
  -2   7  11   -0.23    1.15   2
  -2   7  10   -0.19    1.07   2
  -2   7   9    9.94    1.10   2
  -2   7   8    2.20    1.25   2
  -2   7   7   34.38    2.59   2
  -2   7   6   65.79    4.26   2
  -2   7   5   -0.17    1.08   2
  -2   7   4    1.60    1.25   2
  -2   7   3    0.70    0.88   2
  -2   7   2    2.43    1.01   2
  -2   7   1    4.64    1.39   2
  -2   7   0   27.77    1.58   2
  -2   7  -1   38.61    3.62   2
  -2   7  -2   41.90    2.82   2
  -2   7  -3   11.59    2.33   2
  -2   7  -4   24.39    2.27   2
  -2   7  -5    0.73    0.98   2
  -2   7  -6    0.76    1.13   2
  -2   7  -7   -5.26    2.29   2
  -2   6  12    8.46    2.10   2
  -2   6  11    8.64    1.52   2
  -2   6  10    0.81    1.27   2
  -2   6   9    0.52    1.30   2
  -2   6   8  128.25    4.10   2
  -2   6   7    0.99    1.39   2
  -2   6   6   35.39    2.84   2
  -2   6   5    2.84    1.31   2
  -2   6   4    1.12    1.04   2
  -2   6   3    0.37    0.90   2
  -2   6   2    4.72    1.09   2
  -2   6   1    5.55    0.87   2
  -2   6   0   12.55    1.17   2
  -2   6  -1    3.41    1.47   2
  -2   6  -2   21.35    2.51   2
  -2   6  -3   32.68    2.45   2
  -2   6  -4   86.59    5.59   2
  -2   6  -5    3.45    1.27   2
  -2   6  -6    1.94    1.47   2
  -2   6  -7    9.20    1.43   2
  -2   6  -8    0.70    1.26   2
  -2   5  13    0.34    1.14   2
  -2   5  12    0.51    0.88   2
  -2   5  -9    2.52    1.35   2
  -2   4  13    7.66    2.09   2
  -2   4  12   15.21    2.75   2
  -2   4  11   16.63    2.40   2
  -2   4  10    1.03    1.12   2
  -2   4   9    4.48    1.09   2
  -2   4   8    0.45    1.12   2
  -2   4   7    4.44    1.04   2
  -2   4   4   22.60    1.17   2
  -2   4   0   33.00    1.33   2
  -2   4  -5    2.02    0.78   2
  -2   4  -6    3.42    1.50   2
  -2   4  -7    1.85    1.19   2
  -2   4  -8    1.02    0.87   2
  -2   4  -9    3.06    1.84   2
  -2   4 -10    1.39    1.11   2
  -2   4 -11    0.41    1.30   2
  -2   3  14    1.39    1.13   2
  -2   3  13    0.38    1.17   2
  -2   3  12    8.98    1.29   2
  -2   3  11   34.09    2.62   2
  -2   3  10    1.41    1.72   2
  -2   3   9    1.49    1.05   2
  -2   3   8    0.49    1.15   2
  -2   3   7    0.79    0.96   2
  -2   3   6   74.62    6.38   2
  -2   3   5   14.29    1.97   2
  -2   3   4   66.19    2.10   2
  -2   3   3  105.78    6.23   2
  -2   3   2   12.14    1.12   2
  -2   3   1   38.00    2.16   2
  -2   3   0  107.77    4.98   2
  -2   3  -1   67.54    5.35   2
  -2   3  -2   13.95    1.17   2
  -2   3  -3    7.73    1.33   2
  -2   3  -4  413.56   16.56   2
  -2   3  -5    4.52    0.76   2
  -2   3  -6    3.78    0.82   2
  -2   3  -7    8.51    1.44   2
  -2   3  -8    7.32    1.58   2
  -2   3  -9   10.38    1.83   2
  -2   3 -10    0.67    1.52   2
  -2   3 -11    0.10    1.49   2
  -2   3 -12    3.14    1.41   2
  -2   2  14    1.12    0.99   2
  -2   2  13    0.68    1.06   2
  -2   2  12    0.27    1.65   2
  -2   2  11   22.79    2.06   2
  -2   2  10    5.04    1.23   2
  -2   2   9   18.15    1.88   2
  -2   2   8   81.89    5.88   2
  -2   2   7   17.85    2.14   2
  -2   2   6   30.85    1.59   2
  -2   2   5   11.16    0.98   2
  -2   2   4   22.70    1.35   2
  -2   2   3   15.45    1.39   2
  -2   2   2   13.66    1.12   2
  -2   2   1   54.30    2.28   2
  -2   2   0   77.50    3.11   2
  -2   2  -1   31.91    2.02   2
  -2   2  -2    4.47    0.95   2
  -2   2  -3   12.08    0.98   2
  -2   2  -4   23.31    1.62   2
  -2   2  -5  169.62   12.50   2
  -2   2  -6   -0.70    1.00   2
  -2   2  -7   11.57    1.65   2
  -2   2  -8    2.62    1.32   2
  -2   2  -9   15.34    1.59   2
  -2   2 -10  101.06    5.01   2
  -2   2 -11    0.99    1.41   2
  -2   2 -12   21.83    2.25   2
  -2   2 -13    9.91    2.57   2
  -2   1  14    0.60    1.39   2
  -2   1  13    0.56    1.44   2
  -2   1  11    0.34    1.54   2
  -2   1   9   27.99    1.86   2
  -2   1   2   18.52    1.23   2
  -2   1   1  204.95    1.67   2
  -2   1   0  219.77    9.68   2
  -2   1  -1  742.99   25.29   2
  -2   1  -2   23.17    1.20   2
  -2   1  -3   40.29    1.33   2
  -2   1  -6  122.96    2.30   2
  -2   1  -9    1.14    1.34   2
  -2   1 -11    0.60    1.90   2
  -2   1 -12    4.66    1.18   2
  -2   1 -13    2.39    1.55   2
  -2   1 -14   -0.01    1.04   2
  -2   0  13    0.28    1.01   2
  -2   0   0 4313.23  113.22   2
  -2   0  -1 7690.51  139.36   2
  -2   0 -14    3.34    1.29   2
  -2  -1  13    0.56    0.51   2
  -2  -1  12   -0.28    1.58   2
  -2  -1  11    5.88    1.24   2
  -2  -1  10    6.95    1.68   2
   2   1  -9   34.97    2.23   2
   2   1  -8   39.51    2.40   2
   2   1  -7   23.07    1.38   2
  -2  -1   6    1.42    1.17   2
  -2  -1   5  158.04    3.35   2
  -2  -1   4  115.59    2.34   2
  -2  -1   3  102.13    1.71   2
   2   1  -2  113.44    2.21   2
  -2  -1   1    3.72    0.56   2
  -2  -1   0  193.95    7.03   2
  -2  -1  -1    1.11    0.45   2
  -2  -1  -2    0.51    0.63   2
  -2  -1  -3  109.61    1.94   2
  -2  -1  -4  167.84    3.12   2
  -2  -1  -5   14.76    1.02   2
  -2  -1  -6   38.06    1.17   2
  -2  -1  -7  176.58    2.70   2
  -2  -1  -8   20.21    1.73   2
  -2  -1  -9    5.12    1.15   2
  -2  -1 -10    1.96    1.20   2
  -2  -1 -11  152.21    4.66   2
  -2  -1 -12    0.10    1.70   2
  -2  -1 -13    1.56    1.59   2
  -2  -1 -14    0.84    1.34   2
  -2  -1 -15    1.69    1.63   2
   2   2 -12    1.62    0.97   2
   2   2 -11    1.45    1.49   2
   2   2 -10    2.81    1.58   2
  -2  -2   9   26.65    2.36   2
  -2  -2   8  142.60    6.06   2
  -2  -2   7    1.91    1.29   2
  -2  -2   6    8.82    1.44   2
  -2  -2   5    1.25    0.86   2
  -2  -2   4  272.77    7.01   2
   2   2  -3   38.31    1.29   2
   2   2  -2   30.58    1.47   2
  -2  -2   1   25.16    0.98   2
  -2  -2   0  148.97    3.62   2
  -2  -2  -1   98.27    3.77   2
  -2  -2  -2   94.39    1.94   2
   2   2   3   98.39    2.69   2
  -2  -2  -4    1.48    1.18   2
   2   2   5   18.57    1.01   2
   2   2   6  160.39    2.98   2
   2   2   7   60.40    2.06   2
  -2  -2  -8    1.26    0.87   2
  -2  -2  -9   10.75    1.25   2
   2   2  10    0.78    1.23   2
  -2  -2 -11    0.50    1.94   2
  -2  -2 -12    6.27    1.48   2
  -2  -2 -13    5.69    2.26   2
  -2  -2 -14   -0.19    1.06   2
  -2  -2 -15    3.50    1.13   2
   2   3 -12    4.84    1.18   2
   2   3 -11    1.86    1.45   2
   2   3 -10    0.30    1.07   2
  -2  -3   9   25.20    1.93   2
   2   3  -8   66.84    4.22   2
  -2  -3   7   22.50    1.24   2
  -2  -3   6   20.68    2.13   2
   2   3  -5   17.33    1.31   2
   2   3  -4    3.89    1.01   2
   2   3  -2   28.58    0.93   2
   2   3  -1    0.86    0.73   2
  -2  -3   0   77.59    0.96   2
   2   3   1   57.15    1.10   2
   2   3   2    0.49    0.87   2
  -2  -3  -3   29.19    1.16   2
   2   3   4  191.73    3.02   2
  -2  -3  -5   94.89    2.58   2
   2   3   6    4.19    0.64   2
   2   3   7   57.71    1.57   2
  -2  -3  -8   14.14    1.28   2
  -2  -3  -9   29.09    1.79   2
  -2  -3 -10    2.52    1.36   2
   2   3  11    5.70    1.87   2
   2   3  12    9.23    1.82   2
  -2  -3 -13   36.05    4.53   2
  -2  -3 -14    4.73    1.87   2
  -2  -3 -15   -0.37    1.26   2
   2   5 -10    0.13    0.69   2
   2   5  -9    5.60    2.21   2
   2   5  -8   -0.67    1.09   2
   2   5  -7   -0.16    1.67   2
   2   5  -6    2.75    0.96   2
   2   5  -5    4.09    1.41   2
   2   5  -4   52.00    3.10   2
   2   5  -3   46.57    2.79   2
   2   5  -2    8.71    1.33   2
   2   5  -1    4.62    1.25   2
  -2  -5   0   10.88    1.26   2
   2   5   1    6.60    0.99   2
   2   5   2  355.71    2.50   2
   2   5   3    5.48    1.22   2
   2   5   4  233.51    2.21   2
  -2  -5  -5    0.01    1.00   2
   2   5   6    2.92    0.92   2
  -2  -5  -7    0.36    1.23   2
   2   5   8   10.33    1.32   2
  -2  -5  -9  118.85    6.65   2
  -2  -5 -10   47.07    3.77   2
  -2  -5 -11    4.22    1.18   2
  -2  -5 -12   30.66    1.27   2
   2   5  13    1.52    1.13   2
   2   5  14    3.01    1.32   2
   2   5  15    0.18    0.83   2
   2   6  -9    8.47    2.50   2
   2   6  -8    6.93    1.10   2
   2   6  -7   20.37    1.31   2
   2   6  -6   26.23    2.57   2
   2   6  -5    0.51    1.91   2
   2   6  -4   21.09    2.02   2
   2   6  -3  163.43    4.55   2
   2   6  -2   33.41    2.51   2
   2   6  -1   23.90    1.07   2
   2   6   0    6.91    0.76   2
   2   6   1    1.52    1.20   2
   2   6   2    2.55    1.59   2
  -2  -6  -3   38.51    1.92   2
  -2  -6  -4    5.41    1.25   2
   2   6   5   26.52    2.13   2
   2   6   6   82.76    2.92   2
   2   6   7   31.69    1.57   2
   2   6   8   10.19    1.36   2
   2   6   9   92.45    2.46   2
   2   6  10   33.29    3.42   2
   2   6  11   14.01    2.29   2
   2   6  12   11.06    1.76   2
   2   6  13   19.54    2.36   2
   2   6  14    3.47    1.09   2
   2   6  15    3.49    0.97   2
   2   7  -8    2.59    1.51   2
   2   7  -7    5.90    1.25   2
   2   7  -6   -0.50    1.36   2
   2   7  -5    0.08    1.59   2
   2   7  -4   19.23    1.59   2
   2   7  -3   34.38    2.17   2
   2   7  -2   64.18    2.80   2
   2   7  -1    0.33    1.29   2
   2   7   0   92.29    3.86   2
   2   7   1  149.01    5.96   2
   2   7   2   33.55    3.11   2
   2   7   3   10.88    1.05   2
  -2  -7  -4    2.69    0.98   2
   2   7   5    0.85    0.77   2
   2   7   6   10.03    1.04   2
   2   7   7  201.77    2.90   2
   2   7   8   74.20    2.26   2
   2   7   9    9.35    1.11   2
   2   7  10    0.50    1.49   2
   2   7  11    5.67    1.19   2
   2   7  12    0.22    1.02   2
   2   7  13    8.06    1.56   2
   2   7  14    0.87    0.81   2
   2   9  -4    0.46    0.72   2
   2   9  -3   -0.40    0.94   2
   2   9  -2   12.38    2.01   2
   2   9  -1    2.17    1.16   2
   2   9   0    4.33    0.99   2
   2   9   2   11.07    3.34   2
   2   9   3   29.58    1.53   2
   2   9  10    0.89    0.78   2
   2   9  11   -0.10    0.89   2
   2   9  12   29.18    2.79   2
   2  10  -2    2.32    2.42   2
   2  10  -1    0.57    0.86   2
   2  10   0    2.11    1.00   2
   2  10   1   35.24    1.51   2
   2  10   2    3.01    1.12   2
   2  10   3   10.93    1.53   2
   2  10   4    5.78    1.34   2
   2  10   5   -0.47    1.18   2
   2  10   6    0.04    1.04   2
   2  10   7    5.40    1.06   2
   2  10   8   44.54    3.03   2
   2  10   9    5.20    1.02   2
   2  10  10    0.70    0.62   2
   2  11   2    5.07    1.61   2
   2  11   3    3.12    0.98   2
   2  11   4    1.71    0.76   2
   2  11   5    0.82    0.85   2
   2  11   6   -0.27    0.72   2
   2  11   7    0.34    0.98   2
  -3   8   7    9.28    1.83   2
  -3   8   6    1.19    1.00   2
  -3   8   5    8.42    1.84   2
  -3   8   3    0.64    1.13   2
  -3   8   2   -2.04    1.13   2
  -3   8   1    1.92    1.52   2
  -3   8  -1    6.30    2.39   2
  -3   6  10   -1.02    1.06   2
  -3   6   9    1.75    0.93   2
  -3   6   8   52.61    2.65   2
  -3   6   7   11.66    2.08   2
  -3   6   6    2.78    0.88   2
  -3   6   5    1.07    1.33   2
  -3   6   4    0.04    1.00   2
  -3   6   3   -0.57    1.28   2
  -3   6   2    3.99    1.55   2
  -3   6   1    3.22    1.97   2
  -3   6   0   -0.26    1.35   2
  -3   6  -1   -0.58    0.94   2
  -3   6  -2    3.53    0.73   2
  -3   6  -3    0.02    1.85   2
  -3   6  -4   78.86    7.46   2
  -3   6  -5    6.08    1.07   2
  -3   6  -6    0.34    0.88   2
  -3   6  -7    6.97    2.59   2
  -3   5  11    0.97    1.01   2
  -3   5  10   11.31    2.10   2
  -3   5   9    0.50    1.13   2
  -3   5   8   66.07    3.97   2
  -3   5   7   30.60    3.30   2
  -3   5   6    2.69    1.50   2
  -3   5   5   -0.14    1.12   2
  -3   5   4    8.38    1.21   2
  -3   5   3   -0.37    1.17   2
  -3   5   2   24.27    2.17   2
  -3   5   1   65.92    5.61   2
  -3   5   0   -0.45    1.42   2
  -3   5  -1    0.24    0.97   2
  -3   5  -2    3.32    1.86   2
  -3   5  -3    1.81    2.05   2
  -3   5  -4    4.94    1.03   2
  -3   5  -5    1.13    1.86   2
  -3   5  -6   -0.35    1.26   2
  -3   5  -7    0.75    1.22   2
  -3   5  -8   16.02    2.13   2
  -3   5  -9    0.94    0.90   2
  -3   4  12   -0.47    0.87   2
  -3   4  11    0.84    1.03   2
  -3   4  10    0.86    1.09   2
  -3   4   9    0.48    1.36   2
  -3   4   8    0.05    1.07   2
  -3   4   7   -0.13    1.19   2
  -3   4   6    0.60    1.22   2
  -3   4   5    0.62    1.17   2
  -3   4   4    0.25    0.93   2
  -3   4   3    7.59    0.71   2
  -3   4   2   69.50    9.05   2
  -3   4   1    0.12    1.12   2
  -3   4  -1   11.79    0.69   2
  -3   4  -2    1.23    1.05   2
  -3   4  -3    7.87    1.65   2
  -3   4  -4   10.53    1.01   2
  -3   4  -5    1.27    1.48   2
  -3   4  -6    7.27    1.40   2
  -3   4  -7    7.14    2.07   2
  -3   4  -8    9.81    1.35   2
  -3   4  -9   26.72    4.18   2
  -3   4 -10    9.32    2.62   2
  -3   3 -11    1.40    1.27   2
  -3   2  13    0.24    1.98   2
  -3   2  12    2.58    1.12   2
  -3   2  11    0.88    1.32   2
  -3   2  10   -0.34    0.95   2
  -3   2   9   -0.61    1.05   2
  -3   2   8   19.19    2.07   2
  -3   2   7    4.35    1.44   2
  -3   2   6    1.19    0.95   2
  -3   2   2   -0.81    0.81   2
  -3   2   1   57.44    1.56   2
  -3   2   0    2.34    1.06   2
  -3   2  -2    0.73    1.16   2
  -3   2  -6    4.61    1.03   2
  -3   2  -7    9.18    1.30   2
  -3   2  -8    3.10    1.43   2
  -3   2  -9   26.82    3.58   2
  -3   2 -10   57.53    1.92   2
  -3   2 -11   12.82    1.72   2
  -3   2 -12    3.61    2.56   2
  -3   1  13    3.03    1.03   2
  -3   1  12    7.01    1.40   2
  -3   1  11   -0.29    0.98   2
  -3   1  10  101.95    6.48   2
  -3   1   9   16.09    1.61   2
  -3   1   8    2.09    1.13   2
  -3   1   7    4.44    1.61   2
  -3   1   6   -1.20    1.43   2
  -3   1   5   48.38    3.03   2
  -3   1   4  267.72    9.93   2
  -3   1   3  115.70    5.19   2
  -3   1   2    6.98    0.89   2
  -3   1   1   31.09    1.07   2
  -3   1   0  271.03    4.10   2
  -3   1  -1  215.93    2.96   2
  -3   1  -2    2.11    0.85   2
  -3   1  -3    0.23    1.20   2
  -3   1  -4   12.85    1.22   2
  -3   1  -5   33.40    1.92   2
  -3   1  -6    0.76    0.91   2
  -3   1  -7    2.48    1.06   2
  -3   1  -8    1.52    1.24   2
  -3   1  -9    0.57    1.25   2
  -3   1 -10   36.09    2.51   2
  -3   1 -11    1.69    1.18   2
  -3   1 -12    0.48    1.74   2
  -3   1 -13    4.14    1.70   2
  -3   0  12    3.28    1.10   2
  -3   0  11    0.25    1.63   2
  -3   0  10    0.58    1.84   2
  -3   0   9   71.59    3.52   2
  -3   0   8    2.82    1.26   2
  -3   0   7    1.38    1.10   2
  -3   0   6    8.08    1.89   2
  -3   0   5   86.74    3.97   2
  -3   0   4    7.09    1.57   2
  -3   0   3    0.78    0.95   2
  -3   0   2    8.38    1.20   2
  -3   0   1   20.29    1.01   2
  -3   0   0  200.24    7.10   2
  -3   0  -1   16.88    0.81   2
  -3   0  -2   45.20    1.25   2
  -3   0  -3    4.51    0.99   2
  -3   0  -4    0.12    0.76   2
  -3   0  -5   96.28    2.65   2
  -3   0  -6   88.57    3.06   2
  -3   0  -7    1.62    1.24   2
  -3   0  -8   13.00    2.00   2
  -3   0  -9   22.63    2.14   2
  -3   0 -10   81.78    3.55   2
  -3   0 -11   16.72    1.90   2
  -3   0 -12   -0.12    2.03   2
  -3   0 -13    1.41    1.46   2
  -3   0 -14    0.15    1.46   2
  -3  -1  12    0.84    1.00   2
  -3  -1  11    6.08    1.61   2
  -3  -1  -1  345.88    2.86   2
  -3  -1  -2  185.01    2.24   2
  -3  -1  -3  187.49    2.30   2
  -3  -1  -5   11.65    1.05   2
  -3  -1 -12    5.45    1.97   2
  -3  -1 -13    0.54    1.28   2
  -3  -1 -14    0.04    1.28   2
  -3  -2  12    0.35    0.82   2
  -3  -2  11    6.58    1.92   2
   3   2   0  151.36    1.47   2
   3   2   1   10.42    0.77   2
  -3  -2  -2    7.98    0.78   2
  -3  -2  -4   59.72    1.53   2
  -3  -2 -14    0.38    1.40   2
  -3  -2 -15    0.03    2.11   2
  -3  -3  11   -0.52    0.88   2
   3   3 -10    0.40    1.06   2
  -3  -3   9    0.58    1.22   2
  -3  -3   8   31.12    2.77   2
   3   3  -7    5.13    1.61   2
  -3  -3   6   15.00    1.47   2
  -3  -3   5   -0.00    0.84   2
   3   3  -4    4.28    0.77   2
  -3  -3   3   11.89    1.40   2
  -3  -3   2  219.37    4.94   2
  -3  -3   1   15.97    1.17   2
   3   3   0  117.01    2.02   2
  -3  -3  -1  152.61    3.60   2
  -3  -3  -2    0.36    0.85   2
   3   3   3   20.56    1.48   2
  -3  -3  -4  111.98    1.63   2
  -3  -3  -5   74.59    3.50   2
  -3  -3  -6   52.82    1.45   2
   3   3   7  104.65    4.37   2
   3   3   8    3.22    0.80   2
  -3  -3  -9   25.37    3.46   2
  -3  -3 -10    0.99    1.43   2
  -3  -3 -11    4.74    1.47   2
  -3  -3 -12    5.85    1.68   2
  -3  -3 -13    8.53    1.89   2
  -3  -3 -14    0.05    1.59   2
  -3  -3 -15    0.17    0.94   2
  -3  -4  10    3.13    0.80   2
   3   4  -9    4.71    1.29   2
  -3  -4   8   30.48    3.40   2
  -3  -4   7   11.53    1.80   2
  -3  -4   6   12.86    2.51   2
  -3  -4   5    5.12    1.47   2
   3   4  -4   21.93    1.72   2
   3   4  -3   10.00    0.72   2
  -3  -4   2   21.22    2.08   2
  -3  -4   1   12.17    0.97   2
  -3  -4   0   10.57    1.02   2
   3   4   1    3.43    1.02   2
   3   4   2  184.14    3.59   2
   3   4   3   31.40    1.73   2
  -3  -4  -4  161.66    4.50   2
  -3  -4  -5    6.03    1.21   2
  -3  -4  -6    6.59    1.31   2
  -3  -4  -7    5.00    1.21   2
   3   4   8   12.06    1.03   2
  -3  -4  -9   56.64    4.60   2
  -3  -4 -10   38.93    2.62   2
   3   4  11   15.21    2.18   2
   3   4  12    1.60    0.91   2
  -3  -4 -13   -0.55    1.47   2
  -3  -4 -14    4.90    0.81   2
  -3  -4 -15    0.26    0.65   2
   3   5  -9   -1.85    1.25   2
  -3  -5   8    0.42    1.32   2
  -3  -5   7    1.53    1.63   2
  -3  -5   5   15.58    1.35   2
  -3  -5   4    6.04    1.09   2
  -3  -5   3  119.32    2.98   2
   3   5   0   50.94    1.66   2
  -3  -5  -1   -0.27    1.01   2
   3   5   3   62.31    2.04   2
  -3  -5  -4   19.68    0.82   2
   3   5   5    6.71    1.00   2
   3   5   6   38.02    1.76   2
  -3  -5  -7    0.60    1.24   2
   3   5   8   10.25    1.95   2
  -3  -5  -9   37.06    2.07   2
  -3  -5 -11    8.63    1.07   2
  -3  -5 -12    5.64    1.60   2
  -3  -5 -13   -0.63    1.46   2
  -3  -5 -14    2.35    0.98   2
   3   7  -7    4.37    1.21   2
   3   7  -6   -0.33    1.35   2
   3   7  -5   31.91    2.49   2
   3   7  -4   -0.97    1.36   2
   3   7  -3   23.20    2.15   2
   3   7  -2   75.76    5.33   2
   3   7  -1    3.10    1.38   2
   3   7   0   20.16    1.87   2
   3   7   1  148.46    3.51   2
   3   7   2   21.76    1.53   2
   3   7   3    0.92    1.14   2
  -3  -7  -4    3.71    1.15   2
  -3  -7  -5   13.29    2.28   2
   3   7   7   10.50    0.87   2
  -3  -7  -8  137.39    4.01   2
   3   7   9    1.31    1.22   2
   3   7  10    2.79    1.85   2
   3   7  11    1.25    1.41   2
   3   7  12   -0.14    1.20   2
   3   7  13   -0.55    1.26   2
   3   7  14   -0.33    0.82   2
   3   8  -6   10.72    1.35   2
   3   8  -5    7.95    1.67   2
   3   8  -4    0.90    1.01   2
   3   8  -3    1.14    1.42   2
   3   8  -2    1.70    1.00   2
   3   8  -1   16.56    2.01   2
   3   8   0    1.20    1.57   2
   3   8   1  121.72    3.37   2
   3   8   2   20.65    1.61   2
   3   8   3    0.81    1.06   2
   3   8   4    4.91    1.23   2
   3   8   5    0.41    1.07   2
   3   8   6   20.05    1.34   2
   3   8   7    0.36    1.15   2
   3   8   8   29.87    2.12   2
   3   8   9    5.41    1.22   2
   3   8  10    3.92    1.46   2
   3   8  11    0.34    1.09   2
   3   8  12   -0.09    0.90   2
   3   8  13    1.43    0.96   2
   3   9  -4    1.89    1.01   2
   3   9  -3    0.71    1.21   2
   3   9  -2    0.30    1.44   2
   3   9  -1   -0.07    1.07   2
   3   9   0    5.30    0.86   2
   3   9   1    0.15    1.16   2
   3   9   2   -0.18    0.99   2
   3   9   3   38.12    1.69   2
   3   9   4    6.38    1.34   2
   3   9   5   -1.05    1.15   2
   3   9   6   12.81    1.21   2
   3   9   9   -0.39    0.80   2
   3   9  10   40.04    5.75   2
   3   9  11    0.35    0.49   2
   3   9  12    0.71    0.44   2
   3  11   4   10.47    1.59   2
  -4   7   6   14.48    1.57   2
  -4   7   5    5.80    1.60   2
  -4   7   4   -0.15    1.03   2
  -4   7   3    2.37    1.61   2
  -4   7   2    4.84    1.50   2
  -4   7   1    1.72    0.89   2
  -4   7   0    0.89    1.63   2
  -4   7  -1    4.23    1.71   2
  -4   6   8    4.73    3.06   2
  -4   6   7   39.67    1.66   2
  -4   6   2   -0.37    0.65   2
  -4   6  -5    9.04    2.25   2
  -4   4  10    7.63    1.34   2
  -4   4   9    1.59    1.35   2
  -4   4   8    0.58    0.93   2
  -4   4   7    1.39    1.33   2
  -4   4   6    0.47    1.30   2
  -4   4   5    1.24    0.95   2
  -4   4   4    2.06    1.29   2
  -4   4   3   14.22    2.63   2
  -4   4   2    4.30    1.26   2
  -4   4   1   15.82    4.89   2
  -4   4   0   21.96    1.37   2
  -4   4  -1    0.39    1.73   2
  -4   4  -2    8.78    3.04   2
  -4   4  -3    4.88    1.17   2
  -4   4  -4    0.96    1.97   2
  -4   4  -5   29.57    2.97   2
  -4   4  -6    2.95    1.64   2
  -4   4  -7    4.50    1.16   2
  -4   4  -8    1.56    1.88   2
  -4   4  -9   -0.37    2.28   2
  -4   3  11   11.16    1.12   2
  -4   3  10    4.36    1.57   2
  -4   3   9    0.71    1.07   2
  -4   3   8    2.67    1.31   2
  -4   3   7   -0.37    1.04   2
  -4   3   6    0.33    1.35   2
  -4   3   5   34.34    2.37   2
  -4   3   4    2.46    0.97   2
  -4   3   3   -0.32    1.04   2
  -4   3   2    5.81    0.94   2
  -4   3   1   16.38    1.45   2
  -4   3   0   -0.82    1.23   2
  -4   3  -1   11.34    0.94   2
  -4   3  -2   28.98    1.77   2
  -4   3  -3    2.28    1.02   2
  -4   3  -4   32.42    1.72   2
  -4   3  -5   56.21   11.39   2
  -4   3  -6    7.79    1.77   2
  -4   3  -7   -0.27    1.48   2
  -4   3  -8    3.93    1.40   2
  -4   3  -9    0.58    1.31   2
  -4   3 -10    0.43    1.60   2
  -4   2  11    2.05    1.36   2
  -4   2  10   28.83    2.50   2
  -4   2   9   -0.49    1.22   2
  -4   2   8    0.35    1.20   2
  -4   2   7   20.97    2.22   2
  -4   2   6    4.03    1.66   2
  -4   2   5    6.60    1.32   2
  -4   2   4    3.20    0.86   2
  -4   2   3    0.55    0.94   2
  -4   2   2    4.04    1.35   2
  -4   2   1    6.29    1.23   2
  -4   2   0    8.97    1.76   2
  -4   2  -1   22.98    1.61   2
  -4   2  -2   -0.19    0.93   2
  -4   2  -3    2.99    1.91   2
  -4   2  -4   -0.05    0.80   2
  -4   2  -5   29.74    2.05   2
  -4   2  -6   14.14    2.05   2
  -4   2  -7    1.17    1.15   2
  -4   2  -8    2.31    1.35   2
  -4   2  -9    7.70    1.59   2
  -4   2 -10   11.34    1.80   2
  -4   2 -11   48.38    4.41   2
  -4   1 -12    2.97    1.11   2
  -4   0  11    0.54    0.90   2
  -4   0  10    0.74    1.55   2
  -4   0   9   19.17    1.30   2
  -4   0   8    0.37    1.43   2
  -4   0   7   -0.42    1.63   2
  -4   0   6    0.98    1.09   2
  -4   0   5    2.06    1.73   2
  -4   0  -1 2112.86    8.11   2
  -4   0  -2  472.75    2.87   2
  -4   0  -4    5.18    1.32   2
  -4   0  -5    0.23    1.00   2
  -4   0  -6    0.12    0.69   2
  -4   0  -7    3.33    1.41   2
  -4   0  -8    7.23    1.80   2
  -4   0  -9    3.41    1.53   2
  -4   0 -10   12.35    1.39   2
  -4   0 -11   35.34    2.31   2
  -4   0 -12   -0.25    1.22   2
  -4   0 -13    3.44    1.24   2
  -4  -1  11    1.13    1.02   2
  -4  -1  10    0.69    1.26   2
  -4  -1   9   -0.22    1.36   2
  -4  -1   8   27.48    2.35   2
  -4  -1   7   43.73    3.36   2
  -4  -1   6    0.98    1.60   2
  -4  -1   5   16.63    1.86   2
  -4  -1   4   95.25    5.70   2
  -4  -1   3    0.41    1.23   2
  -4  -1   2   36.80    2.25   2
  -4  -1   1   17.41    1.12   2
  -4  -1   0   71.54    2.35   2
  -4  -1  -1    1.99    0.85   2
  -4  -1  -2   26.13    1.63   2
  -4  -1  -3    2.26    0.86   2
  -4  -1  -4   14.10    1.54   2
  -4  -1  -5   34.52    2.84   2
  -4  -1  -6   24.12    2.56   2
  -4  -1  -7   18.10    1.26   2
  -4  -1  -8   27.27    2.70   2
  -4  -1  -9    6.48    1.35   2
  -4  -1 -10    1.21    1.65   2
  -4  -1 -11   44.44    2.83   2
  -4  -1 -12   24.45    2.28   2
  -4  -1 -13    2.04    1.54   2
  -4  -1 -14   -0.14    1.58   2
  -4  -2  11   -2.49    1.43   2
  -4  -2  10    0.70    0.89   2
  -4  -2   9   -0.16    1.28   2
  -4  -2   8   37.05    3.48   2
  -4  -2   7  110.04    3.37   2
  -4  -2   6    5.06    1.79   2
  -4  -2   5    3.51    1.15   2
  -4  -2   4   25.86    2.10   2
  -4  -2   3   76.20    5.00   2
  -4  -2   2    1.68    1.24   2
  -4  -2   1   12.83    1.33   2
  -4  -2   0   -0.11    0.97   2
  -4  -2  -1   91.51    2.72   2
  -4  -2  -2    4.48    0.98   2
  -4  -2  -3   46.04    1.43   2
  -4  -2  -4    9.54    1.82   2
  -4  -2  -5   -0.24    0.90   2
  -4  -2  -6   63.96    3.63   2
  -4  -2  -7    0.78    1.13   2
  -4  -2  -8    6.85    1.62   2
  -4  -2  -9    2.18    1.28   2
  -4  -2 -10    0.23    1.21   2
  -4  -2 -11    2.22    1.78   2
  -4  -2 -12    0.67    1.40   2
  -4  -2 -13    4.50    2.12   2
  -4  -2 -14    0.30    1.38   2
  -4  -3  10    1.34    1.02   2
  -4  -3   9   12.50    0.71   2
  -4  -3 -14    1.49    1.17   2
  -4  -4   9    0.69    0.94   2
  -4  -4   8    1.95    1.37   2
  -4  -4   7    0.33    0.82   2
  -4  -4   3   21.85    1.30   2
   4   4   2  194.41    2.42   2
   4   4   7    1.76    1.29   2
  -4  -4 -13    2.23    1.50   2
  -4  -4 -14    0.19    0.89   2
  -4  -5   8    0.05    0.90   2
  -4  -5   7    0.20    1.12   2
  -4  -5   6    0.70    0.92   2
  -4  -5   5   14.96    1.78   2
  -4  -5   4   14.43    1.76   2
  -4  -5   3    9.03    1.04   2
  -4  -5   2   15.79    1.69   2
  -4  -5   1    6.38    1.23   2
  -4  -5   0    2.12    1.11   2
   4   5   1    2.13    0.85   2
  -4  -5  -2   38.81    2.08   2
   4   5   3   84.94    2.43   2
  -4  -5  -4   59.43    1.25   2
  -4  -5  -5   56.94    1.76   2
  -4  -5  -6    9.09    1.10   2
  -4  -5  -7   -0.13    1.29   2
  -4  -5  -8   -0.07    1.11   2
  -4  -5  -9    0.87    1.53   2
  -4  -5 -10   94.31    2.57   2
  -4  -5 -11    8.50    1.53   2
  -4  -5 -12   21.64    2.10   2
  -4  -5 -13   12.63    2.65   2
  -4  -5 -14    4.09    1.24   2
   4   6  -7    0.54    0.84   2
   4   6  -6    2.57    1.83   2
  -4  -6   5   22.48    1.04   2
  -4  -6   4   -0.91    1.78   2
   4   6  -3  122.30    3.17   2
   4   6  -2   54.51    3.87   2
  -4  -6   1    1.34    1.32   2
   4   6   0   22.19    1.87   2
  -4  -6  -1    1.04    1.08   2
   4   6   2   15.61    1.39   2
  -4  -6  -3   20.99    2.26   2
  -4  -6  -4    1.18    0.95   2
  -4  -6  -5    2.63    1.63   2
  -4  -6  -6    0.36    1.07   2
  -4  -6  -7   86.06    4.07   2
  -4  -6  -8    8.43    1.71   2
  -4  -6  -9    1.51    1.40   2
  -4  -6 -10   45.44    2.66   2
  -4  -6 -11    8.79    2.02   2
  -4  -6 -12    5.74    2.37   2
  -4  -6 -13   19.93    1.31   2
  -4  -6 -14    1.50    1.11   2
  -4  -7   6    2.99    0.67   2
   4   7  -5   -0.68    1.32   2
   4   7  -4    8.31    1.23   2
   4   7  -3    0.40    1.70   2
   4   7   1  186.23    3.11   2
   4   7   2   24.71    1.73   2
  -4  -7 -12   11.56    1.83   2
  -4  -7 -13    3.29    1.44   2
   4   9  -3   -0.44    0.56   2
   4   9  -2    0.01    1.15   2
   4   9  -1    9.21    1.24   2
   4   9   0    2.59    1.33   2
   4   9   1    2.62    1.55   2
   4   9   2    3.23    1.44   2
   4   9   3    0.52    1.31   2
   4   9   4   43.76    1.66   2
   4   9   8    3.89    1.39   2
   4   9   9   16.81    1.42   2
   4   9  10    2.95    1.16   2
   4   9  11    3.01    0.93   2
   4  10   0   -0.55    1.12   2
   4  10   1   18.85    2.25   2
   4  10   2    3.81    1.22   2
   4  10   3    6.30    1.46   2
   4  10   4    1.22    0.78   2
   4  10   5    1.85    1.23   2
   4  10   6    1.75    0.55   2
   4  10   7    0.73    0.87   2
   4  10   8    1.47    1.80   2
   4  10   9   16.14    1.16   2
   4  10  10    2.88    0.82   2
   4  11   5    0.65    1.14   2
  -5   5   6    3.33    1.62   2
  -5   5   5    1.62    1.65   2
  -5   5   4    0.39    1.01   2
  -5   5   3    1.04    1.17   2
  -5   5   2    0.46    0.92   2
  -5   5  -3    0.60    1.36   2
  -5   5  -4   -2.20    2.35   2
  -5   4   8    2.26    1.08   2
  -5   4   7   -0.47    0.88   2
  -5   4   3   -0.92    1.16   2
  -5   4   2    1.98    1.10   2
  -5   4  -2    0.24    1.34   2
  -5   4  -6    0.35    1.68   2
  -5   4  -7   -0.42    1.69   2
  -5   2   9   -0.05    1.30   2
  -5   2   8    0.12    1.05   2
  -5   2   7    2.79    1.06   2
  -5   2   6    3.74    1.31   2
  -5   2   5    5.50    1.30   2
  -5   2   4   24.85    1.67   2
  -5   2   3   10.09    1.27   2
  -5   2   2    3.70    1.02   2
  -5   2   1    0.69    1.16   2
  -5   2   0   10.92    2.47   2
  -5   2  -1    8.95    4.92   2
  -5   2  -2    1.10    0.91   2
  -5   2  -3   -2.13    2.71   2
  -5   2  -4    0.84    2.16   2
  -5   2  -5   42.82    2.65   2
  -5   2  -6   13.04    2.00   2
  -5   2  -7    2.31    1.27   2
  -5   2  -8   -0.23    1.47   2
  -5   2  -9    2.53    1.40   2
  -5   2 -10   16.12    1.69   2
  -5   1  10   15.87    2.26   2
  -5   1   9   39.48    1.30   2
  -5   1   8    0.94    1.07   2
  -5   1   7    0.12    1.52   2
  -5   1   6   -0.07    1.19   2
  -5   1   5    0.25    1.37   2
  -5   1   4   58.46    5.19   2
  -5   1   3    5.91    1.56   2
  -5   1   2   10.75    1.03   2
  -5   1   1    0.55    1.40   2
  -5   1   0   62.69    4.39   2
  -5   1  -1   50.07    2.33   2
  -5   1  -2   26.70    4.06   2
  -5   1  -3    0.54    0.94   2
  -5   1  -4    0.31    1.25   2
  -5   1  -5   -0.36    1.49   2
  -5   1  -6    4.46    2.22   2
  -5   1  -7    0.83    1.20   2
  -5   1  -8    0.80    1.35   2
  -5   1  -9    3.14    1.06   2
  -5   1 -10    0.33    1.37   2
  -5   1 -11   10.79    2.36   2
  -5   0  10    0.48    1.73   2
  -5   0   9    5.96    1.20   2
  -5   0   8   24.48    2.77   2
  -5   0   7    0.35    1.55   2
  -5   0   6    2.40    1.59   2
  -5   0   5    0.99    1.62   2
  -5   0   4   15.31    2.07   2
  -5   0   3    9.98    1.36   2
  -5   0   2    8.74    1.27   2
  -5   0   1   25.66    2.14   2
  -5   0   0   13.15    1.33   2
  -5   0  -1   23.94    2.73   2
  -5   0  -2   22.10    0.81   2
  -5   0  -3   16.43    1.37   2
  -5   0  -4   13.27    1.95   2
  -5   0  -5   10.88    1.66   2
  -5   0  -6    0.69    1.42   2
  -5   0  -7   23.06    2.02   2
  -5   0  -8    1.34    1.45   2
  -5   0  -9    1.60    2.03   2
  -5   0 -10   52.65    2.69   2
  -5   0 -11   38.98    3.47   2
  -5   0 -12   -0.55    1.93   2
  -5  -2   9    0.00    1.06   2
  -5  -2   8   14.16    1.34   2
  -5  -2   7   58.61    4.47   2
  -5  -2   6    0.19    1.35   2
  -5  -2   5   -0.21    1.07   2
  -5  -2   4    0.73    1.34   2
  -5  -2   3   37.17    3.43   2
  -5  -2   2   11.49    1.72   2
  -5  -2   1    6.17    1.06   2
  -5  -2  -4    7.34    1.86   2
  -5  -2  -5    2.97    1.87   2
  -5  -2  -6   32.51    2.02   2
  -5  -2  -7   27.94    2.26   2
  -5  -2  -8   18.62    1.76   2
  -5  -2  -9    7.29    1.48   2
  -5  -2 -10    0.91    1.76   2
  -5  -2 -11    7.55    1.62   2
  -5  -2 -12    0.40    1.35   2
  -5  -2 -13    0.84    1.28   2
  -5  -3   9    0.53    0.82   2
  -5  -3   8    7.00    1.37   2
  -5  -3   7    4.95    1.76   2
  -5  -3   6    0.33    1.19   2
  -5  -3   5    0.74    1.58   2
  -5  -3   4    3.36    1.51   2
  -5  -3   3    6.56    1.78   2
  -5  -3   2   38.97    2.00   2
  -5  -3   1   48.05    2.56   2
  -5  -3   0    2.85    1.18   2
  -5  -3  -1    0.91    1.35   2
  -5  -3  -2   29.15    2.37   2
  -5  -3  -3    0.12    1.16   2
  -5  -3  -4   23.64    2.14   2
  -5  -3  -5    2.31    1.40   2
  -5  -3  -6    3.60    1.42   2
  -5  -3  -7   34.89    2.25   2
  -5  -3  -8    9.41    1.76   2
  -5  -3  -9    3.15    1.62   2
  -5  -3 -10   32.69    2.35   2
  -5  -3 -11    7.93    1.95   2
  -5  -3 -12    1.53    1.31   2
  -5  -3 -13    0.37    1.08   2
  -5  -4   8   10.15    2.26   2
  -5  -4   7   18.29    2.81   2
  -5  -4   6    1.12    1.66   2
  -5  -4   5   -0.53    1.46   2
  -5  -4   4    3.02    1.20   2
  -5  -4   3    0.38    1.24   2
  -5  -4   2    3.78    1.73   2
  -5  -4   1    1.42    1.41   2
  -5  -4   0    3.65    1.12   2
  -5  -4  -1    0.71    1.06   2
  -5  -4  -2   17.67    2.10   2
  -5  -4  -3    4.41    1.23   2
  -5  -4  -4   18.90    1.95   2
  -5  -4  -5   21.77    1.51   2
  -5  -4  -6   -0.08    1.16   2
  -5  -4  -7    3.88    1.60   2
  -5  -4  -8    1.47    1.60   2
  -5  -4  -9    1.92    1.61   2
  -5  -4 -10    1.68    1.39   2
  -5  -4 -11    8.08    1.44   2
  -5  -4 -12   17.26    2.23   2
  -5  -4 -13   -0.43    0.74   2
  -5  -4 -14    1.02    2.49   2
  -5  -5   7    2.99    1.64   2
  -5  -5 -14    1.32    1.98   2
  -5  -6   6   -0.72    1.20   2
  -5  -6 -12    0.95    1.23   2
  -5  -6 -13    5.81    0.66   2
  -5  -7   5    3.02    0.76   2
  -5  -7   4   11.03    1.58   2
  -5  -7   3    7.88    1.98   2
  -5  -7   2    1.42    0.85   2
  -5  -7   1   28.04    1.92   2
   5   7   0    8.98    1.23   2
  -5  -7  -1   12.00    1.68   2
  -5  -7  -2  124.79    2.32   2
  -5  -7  -3    1.29    1.07   2
  -5  -7  -4    0.59    1.09   2
  -5  -7  -5    3.41    0.82   2
  -5  -7  -6    0.63    0.95   2
  -5  -7  -7    7.49    1.36   2
  -5  -7  -8   51.93    2.32   2
  -5  -7  -9   27.37    2.14   2
  -5  -7 -10    0.50    1.67   2
  -5  -7 -11    0.40    1.04   2
  -5  -7 -12    0.54    0.57   2
  -5  -7 -13    0.63    0.71   2
  -5  -8   3    1.40    1.03   2
  -5  -8   2    1.39    1.04   2
   5   8  -1    0.35    1.00   2
   5   8   0   21.15    1.29   2
  -5  -8  -1   13.72    1.63   2
  -5  -8  -2   83.42    2.80   2
   5   8   3   12.07    1.79   2
  -5  -8  -4    0.70    0.92   2
  -5  -8  -5    4.92    1.23   2
  -5  -8  -6   12.50    1.81   2
  -5  -8  -7    1.38    1.69   2
  -5  -8  -8    3.36    1.34   2
  -5  -8  -9   11.28    1.72   2
  -5  -8 -10   30.92    2.38   2
  -5  -8 -11    0.92    1.83   2
  -5  -8 -12    1.38    0.72   2
   5   9   2   -0.23    0.89   2
  -5  -9 -10    4.38    0.59   2
  -6   3   6   -2.78    1.44   2
  -6   3   5    2.53    1.57   2
  -6   3   4    2.56    0.87   2
  -6   3   3   -0.32    1.34   2
  -6   3   2    1.36    1.46   2
  -6   3   1    2.01    1.17   2
  -6   3   0    1.77    1.13   2
  -6   3  -2    1.16    0.96   2
  -6   3  -3    1.45    1.04   2
  -6   3  -4   -0.24    1.22   2
  -6   3  -5   24.48    5.86   2
  -6   3  -6    4.70    2.33   2
  -6   2   7    1.42    1.29   2
  -6   2   6    1.12    1.97   2
  -6   2   5   -1.52    1.02   2
  -6   2   3    0.12    1.31   2
  -6   2   2   -1.55    1.38   2
  -6   2  -6    3.25    1.38   2
  -6   2  -7    3.14    2.25   2
  -6   2  -8    0.71    2.35   2
  -6   0   7    1.61    1.45   2
  -6   0   6    2.60    1.25   2
  -6   0   5    0.63    0.95   2
  -6   0   4    0.16    1.05   2
  -6   0   3    0.24    1.35   2
  -6   0   2   -0.49    1.19   2
  -6   0   1    0.55    1.17   2
  -6   0   0    5.25    1.33   2
  -6   0  -1  145.61    5.99   2
  -6   0  -3   24.63    4.54   2
  -6   0  -4    5.16    1.57   2
  -6   0  -5    3.67    2.59   2
  -6   0  -6    1.67    1.51   2
  -6   0  -7   -1.02    1.54   2
  -6   0  -8   -0.17    1.00   2
  -6   0  -9    0.40    1.38   2
  -6   0 -10    0.47    1.53   2
  -6  -1   8    0.62    1.27   2
  -6  -1   7   24.06    3.19   2
  -6  -1   6   17.00    2.29   2
  -6  -1   5    1.14    1.23   2
  -6  -1   4   28.61    1.29   2
  -6  -1   3   15.53    1.44   2
  -6  -1   2    2.66    1.14   2
  -6  -1   1    9.49    1.69   2
  -6  -1   0    0.55    1.34   2
  -6  -1  -1   12.05    1.52   2
  -6  -1  -2    4.80    1.77   2
  -6  -1  -3   33.80    2.60   2
  -6  -1  -4   12.00    1.48   2
  -6  -1  -5   -0.10    1.18   2
  -6  -1  -6    0.72    1.30   2
  -6  -1  -7    9.28    1.80   2
  -6  -1  -8   10.60    1.70   2
  -6  -1  -9    1.88    1.67   2
  -6  -1 -10   -0.27    1.06   2
  -6  -1 -11    3.47    1.29   2
  -6  -2   7   41.39    2.17   2
  -6  -2   6   27.37    2.02   2
  -6  -2   5    9.02    1.60   2
  -6  -2   4    1.29    1.49   2
  -6  -2   3   21.44    2.32   2
  -6  -2   2    2.84    2.03   2
  -6  -2   1    2.15    1.68   2
  -6  -2   0    5.41    0.93   2
  -6  -2  -1   10.01    1.56   2
  -6  -2  -2    9.93    1.05   2
  -6  -2  -3    2.46    1.12   2
  -6  -2  -4    7.34    0.82   2
  -6  -2  -5    0.69    1.06   2
  -6  -2  -6   12.22    2.17   2
  -6  -2  -7    9.46    2.26   2
  -6  -2  -8    1.34    1.36   2
  -6  -2  -9    1.29    1.37   2
  -6  -2 -10    0.03    1.58   2
  -6  -2 -11    0.34    1.83   2
  -6  -2 -12    2.55    2.02   2
  -6  -4   7   -0.60    1.81   2
  -6  -4   6    0.18    1.02   2
  -6  -4   5    1.19    1.03   2
  -6  -4   4    0.37    1.52   2
  -6  -4   3    2.74    1.60   2
  -6  -4   2    1.49    1.79   2
  -6  -4   1    0.64    1.08   2
  -6  -4   0   10.50    1.32   2
  -6  -4  -1    7.49    2.42   2
  -6  -4  -2   64.37    3.28   2
  -6  -4  -3   17.43    1.54   2
  -6  -4  -4    5.75    1.72   2
  -6  -4  -5   56.54    1.92   2
  -6  -4  -7    4.49    1.86   2
  -6  -4  -8    0.29    1.57   2
  -6  -4 -10    0.19    1.15   2
  -6  -4 -11    1.32    0.99   2
  -6  -4 -12    3.73    1.50   2
  -6  -5   6    1.86    1.70   2
  -6  -5   5    1.36    1.28   2
  -6  -5   4    2.03    0.93   2
  -6  -5   3   27.61    1.38   2
  -6  -5   2   -0.05    1.93   2
  -6  -5   1    1.10    1.31   2
  -6  -5   0    1.36    1.50   2
  -6  -5  -1    0.17    1.54   2
  -6  -5  -2    4.21    1.18   2
  -6  -5  -3   10.78    1.67   2
  -6  -5  -4    5.04    1.62   2
  -6  -5  -5   44.77    2.03   2
  -6  -5  -6    1.27    1.59   2
  -6  -5  -7    1.62    1.40   2
  -6  -5  -8    0.18    1.35   2
  -6  -5  -9    0.11    1.13   2
  -6  -5 -10   15.47    1.50   2
  -6  -5 -11   41.58    2.34   2
  -6  -5 -12    0.51    1.65   2
  -6  -6   5    2.78    0.71   2
  -6  -6   4    1.02    1.11   2
  -6  -6   3   20.87    2.58   2
  -6  -6   2   77.27    4.64   2
  -6  -6   1    8.24    1.38   2
  -6  -6   0    1.33    0.95   2
  -6  -6  -1    3.21    1.75   2
  -6  -6  -2    1.45    1.81   2
  -6  -6  -3    5.18    2.92   2
  -6  -6  -4   18.90    1.93   2
  -6  -6  -5   -0.10    1.57   2
  -6  -6  -6   -0.04    0.92   2
  -6  -6  -7   26.37    1.66   2
  -6  -6  -8   51.16    1.79   2
  -6  -6  -9   -0.57    1.11   2
  -6  -6 -10    5.06    1.31   2
  -6  -6 -11   17.55    2.22   2
  -6  -6 -12    0.89    1.03   2
  -6  -8 -11    0.13    1.25   2
  -6  -9  -1    2.99    1.02   2
  -6  -9  -2    2.11    1.04   2
  -6  -9  -3   -1.87    1.07   2
  -6  -9  -4    0.66    1.11   2
  -6  -9  -7    2.19    1.12   2
  -6  -9  -8    8.33    1.19   2
  -7   2   0    0.09    1.62   2
  -7   1   4   -0.16    0.88   2
  -7   1   3   16.40    1.69   2
  -7   1   2    0.81    1.22   2
  -7   1   1    1.20    1.23   2
  -7   1   0    8.83    1.36   2
  -7   1  -1   31.13    2.97   2
  -7   1  -2   17.53    1.01   2
  -7   1  -3    6.25    0.85   2
  -7   1  -4   -0.25    2.52   2
  -7   1  -5    2.58    2.44   2
  -7   1  -6    0.12    1.17   2
  -7   0   4    0.43    1.15   2
  -7   0   3    0.21    0.84   2
  -7   0   1   -0.23    0.94   2
  -7   0  -6    0.43    1.44   2
  -7   0  -7    2.09    2.18   2
  -7  -2   5    0.14    1.24   2
  -7  -2   4    1.18    1.13   2
  -7  -2   3    2.87    0.77   2
  -7  -2   2    9.09    1.37   2
  -7  -2   1    1.68    1.30   2
  -7  -2   0    7.47    1.27   2
  -7  -2  -1   -0.26    1.30   2
  -7  -2  -2   12.14    0.84   2
  -7  -2  -3    4.10    1.25   2
  -7  -2  -4    2.08    1.54   2
  -7  -2  -5    1.77    1.15   2
  -7  -2  -6   10.93    2.05   2
  -7  -2  -7   10.25    1.78   2
  -7  -2  -8   14.70    2.51   2
  -7  -2  -9   -0.45    1.35   2
  -7  -3   4    3.19    1.00   2
  -7  -3   3    0.38    1.02   2
  -7  -3   2   -0.36    1.24   2
  -7  -3   1   30.20    1.95   2
  -7  -3   0    4.25    1.75   2
  -7  -3  -1   -0.28    1.20   2
  -7  -3  -2    2.38    1.41   2
  -7  -3  -3    1.38    1.64   2
  -7  -3  -4    5.55    1.74   2
  -7  -3  -5    1.37    1.28   2
  -7  -3  -6    0.76    1.46   2
  -7  -3  -7   -0.37    1.12   2
  -7  -3  -8   16.24    1.52   2
  -7  -3  -9    0.27    1.03   2
  -7  -3 -10    0.31    1.43   2
  -7  -4   4   -0.22    1.01   2
  -7  -4   3    1.24    1.31   2
  -7  -4   2    1.53    1.37   2
  -7  -4   1    0.64    0.85   2
  -7  -4   0    0.19    1.09   2
  -7  -4  -1   -0.39    1.29   2
  -7  -4  -2    5.11    1.08   2
  -7  -4  -3    6.46    1.83   2
  -7  -4  -4    1.71    1.19   2
  -7  -4  -5    4.76    1.15   2
  -7  -4  -7    0.39    0.88   2
  -7  -4  -8    0.47    0.83   2
  -7  -4  -9   -0.36    1.32   2
  -7  -4 -10    1.64    1.58   2
  -7  -6   2   51.07    3.24   2
  -7  -6   1   25.82    1.29   2
  -7  -6   0    0.70    1.07   2
  -7  -6  -1    3.00    0.87   2
  -7  -6  -9    3.05    1.66   2
  -7  -6 -10    1.23    1.67   2
  -7  -7   1   10.58    1.60   2
  -7  -7   0   -0.16    0.67   2
  -7  -7  -1    3.09    0.94   2
  -7  -7  -2   22.45    2.39   2
  -7  -7  -3   40.05    2.45   2
  -7  -7  -4    2.04    1.23   2
  -7  -7  -5    1.36    0.79   2
  -7  -7  -6    0.73    1.00   2
  -7  -7  -7    0.37    1.06   2
  -7  -7  -8   15.13    2.42   2
  -7  -7  -9   22.05    3.02   2
  -7  -8  -2   25.03    1.83   2
  -7  -8  -4    3.05    0.67   2
  -7  -8  -5    0.29    0.97   2
  -7  -8  -7    7.43    1.85   2
  -8  -4  -1   -0.04    1.33   2
  -8  -4  -2    0.32    1.01   2
  -8  -4  -3   33.52    2.72   2
  -8  -4  -4    2.25    1.32   2
  -8  -4  -5   -1.96    2.73   2
  -8  -4  -6   15.75    1.46   2
  -8  -5  -2    0.13    2.07   2
  -8  -5  -3    3.60    1.47   2
  -8  -5  -4    0.85    1.63   2
  -8  -5  -5    0.26    1.68   2
  -8  -5  -6    8.87    2.06   2
   0   0  -2  131.16    1.63  -1
   0   0  -2  131.16    1.63   2
   0   0   3   16.60    0.87  -1
   0   0   3   16.60    0.87   2
   0   0   4   23.63    0.89  -1
   0   0   4   23.63    0.89   2
   0   0   5   65.57    1.23  -1
   0   0   5   65.57    1.23   2
   0   0  -6    3.35    0.86  -1
   0   0  -6    3.35    0.86   2
   0   0   7   33.90    1.76  -1
   0   0   7   33.90    1.76   2
   0   0   8   34.80    2.14  -1
   0   0   8   34.80    2.14   2
   0   0   9   34.46    4.43  -1
   0   0   9   34.46    4.43   2
   0   0 -10   94.69    4.17  -1
   0   0 -10   94.69    4.17   2
   0   0 -11    6.62    1.48  -1
   0   0 -11    6.62    1.48   2
   0   0  12    4.45    1.41  -1
   0   0  12    4.45    1.41   2
   0   0 -13   11.75    1.64  -1
   0   0 -13   11.75    1.64   2
   0   0 -14    7.81    1.54  -1
   0   0 -14    7.81    1.54   2
   0  -1   4   50.63    1.52  -1
   0   1   5   50.63    1.52   2
   0  -1   3  101.97    1.64  -1
   0   1   4  101.97    1.64   2
   0   1   5   47.72    1.39  -1
   0  -1   4   47.72    1.39   2
   0  -4  11   21.12    1.18  -1
   0   4  14   21.12    1.18   2
   0  -4  10    3.39    1.72  -1
   0   4  13    3.39    1.72   2
   0  -4   9    5.08    2.32  -1
   0   4  12    5.08    2.32   2
   0  -4   8   22.73    3.11  -1
   0   4  11   22.73    3.11   2
   0  -4   7    5.65    1.48  -1
   0   4  10    5.65    1.48   2
   0  -4   6    6.27    1.16  -1
   0   4   9    6.27    1.16   2
   0  -4   5   10.68    1.33  -1
   0   4   8   10.68    1.33   2
   0  -4   4   23.22    1.48  -1
   0   4   7   23.22    1.48   2
   0  -4   3    3.22    1.17  -1
   0   4   6    3.22    1.17   2
   0  -4   2   41.36    1.36  -1
   0   4   5   41.36    1.36   2
   0  -4   1  226.90    3.25  -1
   0   4   4  226.90    3.25   2
   0  -4   0  291.07    2.62  -1
   0   4   3  291.07    2.62   2
   0  -4  -1   60.25    1.45  -1
   0   4   2   60.25    1.45   2
   0  -4  -2   68.32    1.43  -1
   0   4   1   68.32    1.43   2
   0  -4  -3  366.15    8.62  -1
   0   4   0  366.15    8.62   2
   0  -4  -4  150.52    2.09  -1
   0   4  -1  150.52    2.09   2
   0  -4  -5   39.39    1.76  -1
   0   4  -2   39.39    1.76   2
   0  -4  -6    5.33    1.08  -1
   0   4  -3    5.33    1.08   2
   0  -4  -7   37.27    1.56  -1
   0   4  -4   37.27    1.56   2
   0  -4  -8    7.89    1.69  -1
   0   4  -5    7.89    1.69   2
   0  -4  -9    9.49    1.75  -1
   0   4  -6    9.49    1.75   2
   0  -4 -10    5.11    1.85  -1
   0   4  -7    5.11    1.85   2
   0  -4 -11   14.62    2.63  -1
   0   4  -8   14.62    2.63   2
   0  -4 -12    6.80    2.44  -1
   0   4  -9    6.80    2.44   2
   0  -4 -13    3.74    1.85  -1
   0   4 -10    3.74    1.85   2
   0  -4 -14   14.87    1.76  -1
   0   4 -11   14.87    1.76   2
   0  -4 -15    3.96    2.18  -1
   0   4 -12    3.96    2.18   2
   0  -5   9   10.83    2.59  -1
   0   5  13   10.83    2.59   2
   0  -5   8   25.33    3.30  -1
   0   5  12   25.33    3.30   2
   0  -5   7    8.60    1.49  -1
   0   5  11    8.60    1.49   2
   0  -5   6    9.72    1.31  -1
   0   5  10    9.72    1.31   2
   0  -5   5   97.34    3.29  -1
   0   5   9   97.34    3.29   2
   0  -5   4   61.29    2.45  -1
   0   5   8   61.29    2.45   2
   0  -5   3   30.54    2.34  -1
   0   5   7   30.54    2.34   2
   0  -5   1   13.77    1.76  -1
   0   5   5   13.77    1.76   2
   0  -5   0  112.01    2.83  -1
   0   5   4  112.01    2.83   2
   0  -5  -1  327.33    6.01  -1
   0   5   3  327.33    6.01   2
   0  -5  -2   30.68    1.28  -1
   0   5   2   30.68    1.28   2
   0  -5  -3  438.83    8.38  -1
   0   5   1  438.83    8.38   2
   0  -5  -4  101.71    3.82  -1
   0   5   0  101.71    3.82   2
   0  -5  -5   14.59    1.51  -1
   0   5  -1   14.59    1.51   2
   0  -5  -6    6.38    1.42  -1
   0   5  -2    6.38    1.42   2
   0  -5  -7   29.82    1.47  -1
   0   5  -3   29.82    1.47   2
   0  -5  -8   33.59    4.01  -1
   0   5  -4   33.59    4.01   2
   0  -5  -9   72.75    2.95  -1
   0   5  -5   72.75    2.95   2
   0  -5 -10   10.10    2.35  -1
   0   5  -6   10.10    2.35   2
   0  -5 -11    7.61    2.90  -1
   0   5  -7    7.61    2.90   2
   0  -5 -12   14.75    2.62  -1
   0   5  -8   14.75    2.62   2
   0  -5 -13   10.90    2.51  -1
   0   5  -9   10.90    2.51   2
   0  -8   6    4.07    1.88  -1
   0   8  12    4.07    1.88   2
   0  -8   5    3.00    1.70  -1
   0   8  11    3.00    1.70   2
   0  -8   4    3.76    1.68  -1
   0   8  10    3.76    1.68   2
   0  -8   3   10.59    2.05  -1
   0   8   9   10.59    2.05   2
   0  -8   2   36.91    3.24  -1
   0   8   8   36.91    3.24   2
   0  -8   1   26.75    1.81  -1
   0   8   7   26.75    1.81   2
   0  -8   0  112.49    3.88  -1
   0   8   6  112.49    3.88   2
   0  -8  -1   22.62    1.96  -1
   0   8   5   22.62    1.96   2
   0  -8  -2   30.87    2.60  -1
   0   8   4   30.87    2.60   2
   0  -8  -3    2.19    2.07  -1
   0   8   3    2.19    2.07   2
   0  -8  -4   18.00    1.89  -1
   0   8   2   18.00    1.89   2
   0  -8  -5   35.79    2.28  -1
   0   8   1   35.79    2.28   2
   0  -8  -6  157.57    4.42  -1
   0   8   0  157.57    4.42   2
   0  -8  -7   45.29    2.46  -1
   0   8  -1   45.29    2.46   2
   0  -8  -8   34.35    2.61  -1
   0   8  -2   34.35    2.61   2
   0  -8  -9   14.06    2.28  -1
   0   8  -3   14.06    2.28   2
   0  -8 -10    3.28    1.70  -1
   0   8  -4    3.28    1.70   2
   0  -8 -11    5.55    1.87  -1
   0   8  -5    5.55    1.87   2
   0  -8 -12    4.37    3.44  -1
   0   8  -6    4.37    3.44   2
   0  -9   4   31.55    4.63  -1
   0   9  11   31.55    4.63   2
   0  -9   3    6.23    1.47  -1
   0   9  10    6.23    1.47   2
   0  -9   2    3.01    1.40  -1
   0   9   9    3.01    1.40   2
   0  -9   1    8.31    1.34  -1
   0   9   8    8.31    1.34   2
   0  -9   0    1.96    1.48  -1
   0   9   7    1.96    1.48   2
   0  -9  -1   24.13    2.12  -1
   0   9   6   24.13    2.12   2
   0  -9  -2   41.08    2.32  -1
   0   9   5   41.08    2.32   2
   0  -9  -3   29.31    2.26  -1
   0   9   4   29.31    2.26   2
   0  -9  -4   42.21    2.40  -1
   0   9   3   42.21    2.40   2
   0  -9  -5   35.07    2.30  -1
   0   9   2   35.07    2.30   2
   0  -9  -6   27.66    2.34  -1
   0   9   1   27.66    2.34   2
   0  -9  -7    2.43    1.45  -1
   0   9   0    2.43    1.45   2
   0  -9  -8   10.92    1.90  -1
   0   9  -1   10.92    1.90   2
   0  -9  -9    2.03    1.39  -1
   0   9  -2    2.03    1.39   2
   0  -9 -10    6.98    2.11  -1
   0   9  -3    6.98    2.11   2
   0  -9 -11   20.43    1.52  -1
   0   9  -4   20.43    1.52   2
   0 -10  -1   25.11    2.27  -1
   0  10   7   25.11    2.27   2
   0 -10  -2   16.50    3.07  -1
   0  10   6   16.50    3.07   2
   0 -10  -3    3.89    1.48  -1
   0  10   5    3.89    1.48   2
   0 -10  -4    6.51    1.31  -1
   0  10   4    6.51    1.31   2
   0 -10  -5    5.05    1.63  -1
   0  10   3    5.05    1.63   2
   1 -10  -5    0.05    1.45  -1
  -1  10   2    0.05    1.45   2
   1 -10  -4    1.42    1.55  -1
  -1  10   3    1.42    1.55   2
   1 -10  -3    1.48    1.48  -1
  -1  10   4    1.48    1.48   2
   1 -10  -2    6.46    1.64  -1
  -1  10   5    6.46    1.64   2
   1  -8  -4   15.14    2.26  -1
  -1   8   2   15.14    2.26   2
   1  -8  -3    1.82    1.82  -1
  -1   8   3    1.82    1.82   2
   1  -8  -2    8.46    1.23  -1
  -1   8   4    8.46    1.23   2
   1  -8  -1   28.90    2.83  -1
  -1   8   5   28.90    2.83   2
   1  -8   0   36.21    1.31  -1
  -1   8   6   36.21    1.31   2
   1  -7 -12    4.21    1.65  -1
  -1   7  -7    4.21    1.65   2
   1  -7 -11   28.07    3.07  -1
  -1   7  -6   28.07    3.07   2
   1  -7 -10    5.02    1.95  -1
  -1   7  -5    5.02    1.95   2
   1  -7  -9   11.66    2.39  -1
  -1   7  -4   11.66    2.39   2
   1  -7  -8  115.24    5.05  -1
  -1   7  -3  115.24    5.05   2
   1  -7  -7  140.12    3.86  -1
  -1   7  -2  140.12    3.86   2
   1  -7  -6  126.39    5.14  -1
  -1   7  -1  126.39    5.14   2
   1  -7  -5   56.86    2.74  -1
  -1   7   0   56.86    2.74   2
   1  -7  -4    6.87    1.44  -1
  -1   7   1    6.87    1.44   2
   1  -7  -3   25.09    1.69  -1
  -1   7   2   25.09    1.69   2
   1  -7  -2   38.54    1.60  -1
  -1   7   3   38.54    1.60   2
   1  -7  -1    5.43    1.35  -1
  -1   7   4    5.43    1.35   2
   1  -7   0   33.64    2.48  -1
  -1   7   5   33.64    2.48   2
   1  -7   1   75.25    3.44  -1
  -1   7   6   75.25    3.44   2
   1  -7   2  197.86    6.01  -1
  -1   7   7  197.86    6.01   2
   1  -7   3   64.32    2.34  -1
  -1   7   8   64.32    2.34   2
   1  -7   4    8.49    1.81  -1
  -1   7   9    8.49    1.81   2
   1  -7   5    5.12    1.58  -1
  -1   7  10    5.12    1.58   2
   1  -7   6   15.22    2.38  -1
  -1   7  11   15.22    2.38   2
   1  -7   7    4.53    1.97  -1
  -1   7  12    4.53    1.97   2
   1  -6 -13    2.77    2.63  -1
  -1   6  -9    2.77    2.63   2
   1  -6 -12    1.49    1.30  -1
  -1   6  -8    1.49    1.30   2
   1  -6 -11   23.83    2.23  -1
  -1   6  -7   23.83    2.23   2
   1  -6 -10   13.50    2.13  -1
  -1   6  -6   13.50    2.13   2
   1  -6  -9   56.40    4.08  -1
  -1   6  -5   56.40    4.08   2
   1  -6  -8  132.57    3.93  -1
  -1   6  -4  132.57    3.93   2
   1  -6  -7   99.08    4.42  -1
  -1   6  -3   99.08    4.42   2
   1  -6  -6   39.99    2.61  -1
  -1   6  -2   39.99    2.61   2
   1  -6  -5   41.14    2.28  -1
  -1   6  -1   41.14    2.28   2
   1  -6  -4   11.16    1.84  -1
  -1   6   0   11.16    1.84   2
   1  -6  -3   17.22    2.18  -1
  -1   6   1   17.22    2.18   2
   1  -6  -2    2.94    1.26  -1
  -1   6   2    2.94    1.26   2
   1  -6  -1   15.30    1.15  -1
  -1   6   3   15.30    1.15   2
   1  -6   0    6.87    1.20  -1
  -1   6   4    6.87    1.20   2
   1  -6   1   24.38    2.42  -1
  -1   6   5   24.38    2.42   2
   1  -6   2   29.37    2.17  -1
  -1   6   6   29.37    2.17   2
   1  -6   3   58.10    3.21  -1
  -1   6   7   58.10    3.21   2
   1  -6   4  106.00    6.66  -1
  -1   6   8  106.00    6.66   2
   1  -6   5   81.14    5.75  -1
  -1   6   9   81.14    5.75   2
   1  -6   6    8.88    2.28  -1
  -1   6  10    8.88    2.28   2
   1  -6   7   13.19    2.31  -1
  -1   6  11   13.19    2.31   2
   1  -6   8    3.67    2.33  -1
  -1   6  12    3.67    2.33   2
   1  -3 -13    7.42    2.13  -1
  -1   3 -11    7.42    2.13   2
   1  -3 -12   17.84    2.61  -1
  -1   3 -10   17.84    2.61   2
   1  -3 -11   38.07    1.34  -1
  -1   3  -9   38.07    1.34   2
   1  -3 -10   19.04    2.28  -1
  -1   3  -8   19.04    2.28   2
   1  -3  -9   33.67    2.95  -1
  -1   3  -7   33.67    2.95   2
   1  -3  -8    8.99    1.65  -1
  -1   3  -6    8.99    1.65   2
   1  -3  -7   25.61    2.31  -1
  -1   3  -5   25.61    2.31   2
   1  -3  -6   78.36    2.16  -1
  -1   3  -4   78.36    2.16   2
   1  -3  -5  222.20    8.89  -1
  -1   3  -3  222.20    8.89   2
   1  -3  -4   14.48    1.41  -1
  -1   3  -2   14.48    1.41   2
   1  -3  -3   30.25    2.16  -1
  -1   3  -1   30.25    2.16   2
   1  -3  -2  133.24    1.77  -1
  -1   3   0  133.24    1.77   2
   1  -3  -1   11.98    0.83  -1
  -1   3   1   11.98    0.83   2
   1  -3   0  156.14    1.93  -1
  -1   3   2  156.14    1.93   2
   1  -3   1   21.14    1.02  -1
  -1   3   3   21.14    1.02   2
   1  -3   2   12.00    1.48  -1
  -1   3   4   12.00    1.48   2
   1  -3   3  174.47    2.42  -1
  -1   3   5  174.47    2.42   2
   1  -3   4   98.04    6.11  -1
  -1   3   6   98.04    6.11   2
   1  -3   5   38.44    4.80  -1
  -1   3   7   38.44    4.80   2
   1  -3   6    4.65    1.46  -1
  -1   3   8    4.65    1.46   2
   1  -3   7   24.87    3.54  -1
  -1   3   9   24.87    3.54   2
   1  -3   8   10.71    2.77  -1
  -1   3  10   10.71    2.77   2
   1  -3   9   19.47    2.95  -1
  -1   3  11   19.47    2.95   2
   1  -3  10   10.82    2.63  -1
  -1   3  12   10.82    2.63   2
   1  -3  11    5.01    1.69  -1
  -1   3  13    5.01    1.69   2
   1  -3  12    1.63    2.05  -1
  -1   3  14    1.63    2.05   2
   1  -2 -14    6.61    1.36  -1
  -1   2 -13    6.61    1.36   2
   1  -2 -13    3.42    1.84  -1
  -1   2 -12    3.42    1.84   2
   1  -2 -12   16.80    1.63  -1
  -1   2 -11   16.80    1.63   2
   1  -2 -11   41.22    2.14  -1
  -1   2 -10   41.22    2.14   2
   1  -2 -10  147.66    4.28  -1
  -1   2  -9  147.66    4.28   2
   1  -2  -9   16.18    1.92  -1
  -1   2  -8   16.18    1.92   2
   1  -2  -8    8.31    1.59  -1
  -1   2  -7    8.31    1.59   2
   1  -2  -7  121.10    5.46  -1
  -1   2  -6  121.10    5.46   2
   1  -2  -6  329.54   18.10  -1
  -1   2  -5  329.54   18.10   2
   1  -2  -5  282.49    9.47  -1
  -1   2  -4  282.49    9.47   2
   1  -2  -4  173.57    4.03  -1
  -1   2  -3  173.57    4.03   2
   1  -2  -3   11.14    1.18  -1
  -1   2  -2   11.14    1.18   2
   1  -2  -2  101.23    3.63  -1
  -1   2  -1  101.23    3.63   2
   1  -2  -1   93.68    3.12  -1
  -1   2   0   93.68    3.12   2
   1  -2   0   73.34    2.28  -1
  -1   2   1   73.34    2.28   2
   1  -2   1  138.77    5.39  -1
  -1   2   2  138.77    5.39   2
   1  -2   2    6.82    0.99  -1
  -1   2   3    6.82    0.99   2
  -1   2  -3  150.58    3.00  -1
   1  -2  -4  150.58    3.00   2
   1  -2   4  316.97    2.73  -1
  -1   2   5  316.97    2.73   2
   1  -2   5  383.81    5.94  -1
  -1   2   6  383.81    5.94   2
   1  -2   6  152.57    5.49  -1
  -1   2   7  152.57    5.49   2
   1  -2   7    9.94    1.73  -1
  -1   2   8    9.94    1.73   2
   1  -2   8   24.97    1.09  -1
  -1   2   9   24.97    1.09   2
   1  -2   9   86.13    3.54  -1
  -1   2  10   86.13    3.54   2
   1  -2  10   27.07    2.58  -1
  -1   2  11   27.07    2.58   2
   1  -2  11   19.94    2.88  -1
  -1   2  12   19.94    2.88   2
   1  -2  12    3.36    1.64  -1
  -1   2  13    3.36    1.64   2
   1  -2  13    2.65    1.66  -1
  -1   2  14    2.65    1.66   2
  -1  -1   7   45.44    2.66  -1
   1   1   8   45.44    2.66   2
   1   1  -5  179.96    2.56  -1
  -1  -1  -6  179.96    2.56   2
   1   1   4  465.90    2.54  -1
  -1  -1   3  465.90    2.54   2
  -1  -1  -5  526.43    2.98  -1
   1   1  -4  526.43    2.98   2
   1   1   6  123.74    2.26  -1
  -1  -1   5  123.74    2.26   2
  -1  -1  -7   82.40    2.12  -1
   1   1  -6   82.40    2.12   2
   1   2 -13    3.53    1.26  -1
  -1  -2 -15    3.53    1.26   2
   1   2 -12   16.51    2.56  -1
  -1  -2 -14   16.51    2.56   2
   1   2 -11   24.09    3.53  -1
  -1  -2 -13   24.09    3.53   2
   1   2 -10    6.94    1.50  -1
  -1  -2 -12    6.94    1.50   2
  -1  -2   9   60.11    3.68  -1
   1   2  11   60.11    3.68   2
  -1  -2   8   95.55    5.81  -1
   1   2  10   95.55    5.81   2
   1   2  -7   83.02    2.18  -1
  -1  -2  -9   83.02    2.18   2
  -1  -2   6  141.29    4.96  -1
   1   2   8  141.29    4.96   2
  -1  -2   5   43.74    1.30  -1
   1   2   7   43.74    1.30   2
  -1  -2   4  658.03    8.78  -1
   1   2   6  658.03    8.78   2
  -1  -2   3  106.99    2.45  -1
   1   2   5  106.99    2.45   2
   1   2  -2  332.51    6.07  -1
  -1  -2  -4  332.51    6.07   2
   1   2  -1  413.01    5.81  -1
  -1  -2  -3  413.01    5.81   2
  -1  -2   0  103.58    2.52  -1
   1   2   2  103.58    2.52   2
  -1  -2  -1   33.60    0.52  -1
   1   2   1   33.60    0.52   2
  -1  -2  -2  160.97    1.83  -1
   1   2   0  160.97    1.83   2
  -1  -2  -3  294.78    4.36  -1
   1   2  -1  294.78    4.36   2
   1   2   4  346.49    5.50  -1
  -1  -2   2  346.49    5.50   2
  -1  -2  -5   99.31    1.76  -1
   1   2  -3   99.31    1.76   2
  -1  -2  -6  639.29    5.08  -1
   1   2  -4  639.29    5.08   2
  -1  -2  -7   33.47    1.00  -1
   1   2  -5   33.47    1.00   2
  -1  -2  -8  133.32    3.63  -1
   1   2  -6  133.32    3.63   2
  -1  -2  -9  100.92    4.40  -1
   1   2  -7  100.92    4.40   2
   1   2  10  145.65    2.60  -1
  -1  -2   8  145.65    2.60   2
  -1  -2 -11  102.42    6.47  -1
   1   2  -9  102.42    6.47   2
  -1  -2 -12    4.94    1.30  -1
   1   2 -10    4.94    1.30   2
  -1  -2 -13   14.77    1.74  -1
   1   2 -11   14.77    1.74   2
  -1  -2 -14   23.04    2.06  -1
   1   2 -12   23.04    2.06   2
  -1  -3  -5  181.00    1.46  -1
   1   3  -2  181.00    1.46   2
  -1  -3  -6  363.51    6.30  -1
   1   3  -3  363.51    6.30   2
  -1  -5  -5  177.51    4.28  -1
   1   5  -1  177.51    4.28   2
  -1  -5  -6   56.48    1.52  -1
   1   5  -2   56.48    1.52   2
  -1  -5  -7   32.20    2.25  -1
   1   5  -3   32.20    2.25   2
  -1  -6   9    3.17    0.95  -1
   1   6  14    3.17    0.95   2
  -1  -6   8    4.48    1.48  -1
   1   6  13    4.48    1.48   2
  -1  -6   7    2.92    1.24  -1
   1   6  12    2.92    1.24   2
  -1  -6   6   39.60    1.79  -1
   1   6  11   39.60    1.79   2
  -1  -6   5   59.25    4.99  -1
   1   6  10   59.25    4.99   2
  -1  -6   4  162.88    6.60  -1
   1   6   9  162.88    6.60   2
  -1  -6   3  150.88    6.00  -1
   1   6   8  150.88    6.00   2
  -1  -6   2   14.06    0.86  -1
   1   6   7   14.06    0.86   2
  -1  -6   1   32.36    1.48  -1
   1   6   6   32.36    1.48   2
  -1  -6   0   21.12    1.33  -1
   1   6   5   21.12    1.33   2
  -1  -6  -1   15.09    1.77  -1
   1   6   4   15.09    1.77   2
  -1  -6  -2   19.83    1.53  -1
   1   6   3   19.83    1.53   2
  -1  -6  -3   31.47    1.97  -1
   1   6   2   31.47    1.97   2
  -1  -6  -4   13.46    0.93  -1
   1   6   1   13.46    0.93   2
  -1  -6  -5   35.13    1.72  -1
   1   6   0   35.13    1.72   2
  -1  -6  -6   25.91    1.87  -1
   1   6  -1   25.91    1.87   2
  -1  -6  -7   10.06    1.46  -1
   1   6  -2   10.06    1.46   2
  -1  -6  -8  279.65    6.15  -1
   1   6  -3  279.65    6.15   2
  -1  -6  -9  124.89    3.47  -1
   1   6  -4  124.89    3.47   2
  -1  -6 -10   47.43    1.96  -1
   1   6  -5   47.43    1.96   2
  -1  -6 -11   58.82    3.49  -1
   1   6  -6   58.82    3.49   2
  -1  -6 -12    3.21    1.78  -1
   1   6  -7    3.21    1.78   2
  -1  -6 -13    3.76    1.67  -1
   1   6  -8    3.76    1.67   2
  -1  -6 -14    3.02    1.30  -1
   1   6  -9    3.02    1.30   2
  -1  -7   7    2.74    1.83  -1
   1   7  13    2.74    1.83   2
  -1  -7   6   12.16    2.07  -1
   1   7  12   12.16    2.07   2
  -1  -7   5   14.18    2.05  -1
   1   7  11   14.18    2.05   2
  -1  -7   4   16.62    2.20  -1
   1   7  10   16.62    2.20   2
  -1  -7   3   20.39    1.34  -1
   1   7   9   20.39    1.34   2
  -1  -7   2  134.62    4.20  -1
   1   7   8  134.62    4.20   2
  -1  -7   1  133.40    5.08  -1
   1   7   7  133.40    5.08   2
  -1  -7   0   66.60    3.13  -1
   1   7   6   66.60    3.13   2
  -1  -7  -1   67.50    3.24  -1
   1   7   5   67.50    3.24   2
  -1  -7  -2   65.94    3.56  -1
   1   7   4   65.94    3.56   2
  -1  -7  -3    3.01    1.75  -1
   1   7   3    3.01    1.75   2
  -1  -7  -4   42.94    1.98  -1
   1   7   2   42.94    1.98   2
  -1  -7  -5   86.03    2.62  -1
   1   7   1   86.03    2.62   2
  -1  -7  -6  122.60    4.25  -1
   1   7   0  122.60    4.25   2
  -1  -7  -7  100.11    2.58  -1
   1   7  -1  100.11    2.58   2
  -1  -7  -8  166.36    3.27  -1
   1   7  -2  166.36    3.27   2
  -1  -7  -9   21.18    1.37  -1
   1   7  -3   21.18    1.37   2
  -1  -7 -10   28.88    1.85  -1
   1   7  -4   28.88    1.85   2
  -1  -7 -11   27.83    2.61  -1
   1   7  -5   27.83    2.61   2
  -1  -7 -12   25.04    2.07  -1
   1   7  -6   25.04    2.07   2
  -1  -7 -13    1.93    1.53  -1
   1   7  -7    1.93    1.53   2
  -1  -9   1    2.33    1.19  -1
   1   9   8    2.33    1.19   2
  -1  -9   0   10.66    0.96  -1
   1   9   7   10.66    0.96   2
  -1  -9  -1    5.54    1.92  -1
   1   9   6    5.54    1.92   2
  -1  -9  -2   24.31    1.33  -1
   1   9   5   24.31    1.33   2
  -1  -9  -3   21.90    1.67  -1
   1   9   4   21.90    1.67   2
  -1 -10   2   14.58    1.68  -1
   1  10  10   14.58    1.68   2
  -1 -10   1    8.66    1.59  -1
   1  10   9    8.66    1.59   2
  -1 -10   0    3.53    1.19  -1
   1  10   8    3.53    1.19   2
  -1 -10  -1    3.03    1.47  -1
   1  10   7    3.03    1.47   2
  -1 -10  -2    4.60    1.44  -1
   1  10   6    4.60    1.44   2
  -1 -10  -3    2.73    1.53  -1
   1  10   5    2.73    1.53   2
  -1 -10  -4    2.23    1.45  -1
   1  10   4    2.23    1.45   2
  -1 -10  -5    2.54    1.42  -1
   1  10   3    2.54    1.42   2
  -1 -10  -6    5.61    1.48  -1
   1  10   2    5.61    1.48   2
  -1 -10  -7    2.65    1.42  -1
   1  10   1    2.65    1.42   2
  -1 -10  -8    3.12    1.38  -1
   1  10   0    3.12    1.38   2
  -1 -10  -9    6.54    1.85  -1
   1  10  -1    6.54    1.85   2
  -1 -10 -10   36.93    2.30  -1
   1  10  -2   36.93    2.30   2
   2  -9  -7    1.45    1.14  -1
  -2   9  -1    1.45    1.14   2
   2  -9  -6    6.67    2.62  -1
  -2   9   0    6.67    2.62   2
   2  -9  -5   15.44    2.14  -1
  -2   9   1   15.44    2.14   2
   2  -9  -4   17.57    1.20  -1
  -2   9   2   17.57    1.20   2
   2  -9  -3   29.97    5.64  -1
  -2   9   3   29.97    5.64   2
   2  -9  -2   12.30    1.81  -1
  -2   9   4   12.30    1.81   2
   2  -9  -1   24.00    2.40  -1
  -2   9   5   24.00    2.40   2
   2  -9   0    4.71    0.63  -1
  -2   9   6    4.71    0.63   2
   2  -9   1    3.65    1.60  -1
  -2   9   7    3.65    1.60   2
   2  -8  -8   17.54    2.12  -1
  -2   8  -3   17.54    2.12   2
   2  -8  -7    9.17    2.09  -1
  -2   8  -2    9.17    2.09   2
   2  -8  -6   67.73    4.13  -1
  -2   8  -1   67.73    4.13   2
   2  -8  -5   20.85    4.11  -1
  -2   8   0   20.85    4.11   2
   2  -8  -4   12.88    2.05  -1
  -2   8   1   12.88    2.05   2
   2  -8  -3    3.41    1.52  -1
  -2   8   2    3.41    1.52   2
   2  -8  -2    5.96    1.99  -1
  -2   8   3    5.96    1.99   2
   2  -8  -1    8.99    2.01  -1
  -2   8   4    8.99    2.01   2
   2  -8   0   31.95    2.11  -1
  -2   8   5   31.95    2.11   2
   2  -8   1   46.06    4.61  -1
  -2   8   6   46.06    4.61   2
   2  -8   2    8.27    2.01  -1
  -2   8   7    8.27    2.01   2
   2  -8   3   24.50    2.47  -1
  -2   8   8   24.50    2.47   2
   2  -6  -1    6.18    1.86  -1
  -2   6   3    6.18    1.86   2
   2  -5 -13    2.78    2.46  -1
  -2   5 -10    2.78    2.46   2
   2  -5 -12    5.86    1.39  -1
  -2   5  -9    5.86    1.39   2
   2  -5 -11   18.32    2.36  -1
  -2   5  -8   18.32    2.36   2
   2  -5 -10    2.57    1.79  -1
  -2   5  -7    2.57    1.79   2
   2  -5  -9    5.27    2.15  -1
  -2   5  -6    5.27    2.15   2
   2  -5  -8   53.89    2.84  -1
  -2   5  -5   53.89    2.84   2
   2  -5  -7   17.84    1.98  -1
  -2   5  -4   17.84    1.98   2
   2  -5  -6   16.33    2.17  -1
  -2   5  -3   16.33    2.17   2
   2  -5  -5   18.97    2.15  -1
  -2   5  -2   18.97    2.15   2
   2  -5  -4   29.53    2.66  -1
  -2   5  -1   29.53    2.66   2
   2  -5  -3   92.24    1.95  -1
  -2   5   0   92.24    1.95   2
   2  -5  -2   75.58    2.03  -1
  -2   5   1   75.58    2.03   2
   2  -5  -1   46.82    3.61  -1
  -2   5   2   46.82    3.61   2
   2  -5   0   81.98    2.32  -1
  -2   5   3   81.98    2.32   2
   2  -5   1   17.61    1.79  -1
  -2   5   4   17.61    1.79   2
   2  -5   2   17.59    2.43  -1
  -2   5   5   17.59    2.43   2
   2  -5   3   28.61    2.28  -1
  -2   5   6   28.61    2.28   2
   2  -5   4   16.72    1.92  -1
  -2   5   7   16.72    1.92   2
   2  -5   5   83.90    3.10  -1
  -2   5   8   83.90    3.10   2
   2  -5   6    6.44    1.91  -1
  -2   5   9    6.44    1.91   2
   2  -5   7    3.45    1.46  -1
  -2   5  10    3.45    1.46   2
   2  -5   8   25.60    2.67  -1
  -2   5  11   25.60    2.67   2
   2  -5   9    4.36    1.66  -1
  -2   5  12    4.36    1.66   2
   2  -5  10    6.42    2.90  -1
  -2   5  13    6.42    2.90   2
   2  -4 -12   13.67    1.90  -1
  -2   4 -10   13.67    1.90   2
   2  -4 -11   13.88    2.62  -1
  -2   4  -9   13.88    2.62   2
   2  -4 -10    5.46    2.69  -1
  -2   4  -8    5.46    2.69   2
   2  -4  -9    6.39    1.71  -1
  -2   4  -7    6.39    1.71   2
   2  -4  -8    4.77    1.49  -1
  -2   4  -6    4.77    1.49   2
   2  -4  -7    6.26    1.68  -1
  -2   4  -5    6.26    1.68   2
   2  -4  -6   48.88    2.84  -1
  -2   4  -4   48.88    2.84   2
   2  -4  -5   16.42    2.53  -1
  -2   4  -3   16.42    2.53   2
   2  -4  -4   29.68    1.92  -1
  -2   4  -2   29.68    1.92   2
   2  -4  -3   57.46    1.61  -1
  -2   4  -1   57.46    1.61   2
   2  -4  -2   50.02    4.72  -1
  -2   4   0   50.02    4.72   2
   2  -4  -1   67.98    5.23  -1
  -2   4   1   67.98    5.23   2
   2  -4   0   50.22    3.58  -1
  -2   4   2   50.22    3.58   2
   2  -4   1   66.78    1.71  -1
  -2   4   3   66.78    1.71   2
   2  -4   2   33.01    3.53  -1
  -2   4   4   33.01    3.53   2
   2  -4   3   26.96    1.37  -1
  -2   4   5   26.96    1.37   2
   2  -4   4   42.90    1.45  -1
  -2   4   6   42.90    1.45   2
   2  -4   5    7.70    1.75  -1
  -2   4   7    7.70    1.75   2
   2  -4   6    3.17    1.40  -1
  -2   4   8    3.17    1.40   2
   2  -4   7    6.15    2.60  -1
  -2   4   9    6.15    2.60   2
   2  -4   8    4.03    1.80  -1
  -2   4  10    4.03    1.80   2
   2  -4   9   19.48    1.96  -1
  -2   4  11   19.48    1.96   2
   2  -1 -13    2.41    1.83  -1
  -2   1 -13    2.41    1.83   2
   2  -1 -12    7.33    2.31  -1
  -2   1 -12    7.33    2.31   2
   2  -1 -11    2.14    3.43  -1
  -2   1 -11    2.14    3.43   2
   2  -1 -10  122.86    6.22  -1
  -2   1 -10  122.86    6.22   2
   2  -1  -9   19.28    2.21  -1
  -2   1  -9   19.28    2.21   2
   2  -1  -8   37.26    2.82  -1
  -2   1  -8   37.26    2.82   2
   2  -1  -7   19.15    2.87  -1
  -2   1  -7   19.15    2.87   2
   2  -1  -6  158.86    8.73  -1
  -2   1  -6  158.86    8.73   2
   2  -1  -5   88.91    3.06  -1
  -2   1  -5   88.91    3.06   2
   2  -1  -4   75.17    1.16  -1
  -2   1  -4   75.17    1.16   2
   2  -1  -3   72.47    1.90  -1
  -2   1  -3   72.47    1.90   2
   2  -1  -2   37.31    1.77  -1
  -2   1  -2   37.31    1.77   2
   2  -1  -1  914.55   17.75  -1
  -2   1  -1  914.55   17.75   2
   2  -1   0  377.59    7.87  -1
  -2   1   0  377.59    7.87   2
   2  -1   1  655.67    9.06  -1
  -2   1   1  655.67    9.06   2
   2  -1   2   35.37    1.38  -1
  -2   1   2   35.37    1.38   2
   2  -1   3   72.16    2.31  -1
  -2   1   3   72.16    2.31   2
   2  -1   4   45.56    1.82  -1
  -2   1   4   45.56    1.82   2
   2  -1   5  144.03    2.92  -1
  -2   1   5  144.03    2.92   2
   2  -1   6  143.14    5.75  -1
  -2   1   6  143.14    5.75   2
   2  -1   7   29.52    2.50  -1
  -2   1   7   29.52    2.50   2
   2  -1   8   39.04    3.87  -1
  -2   1   8   39.04    3.87   2
   2  -1   9   28.36    2.25  -1
  -2   1   9   28.36    2.25   2
   2  -1  10  138.34    8.22  -1
  -2   1  10  138.34    8.22   2
   2  -1  11    2.57    1.50  -1
  -2   1  11    2.57    1.50   2
   2  -1  12    4.57    2.30  -1
  -2   1  12    4.57    2.30   2
   2   0 -13    4.37    1.26  -1
  -2   0 -14    4.37    1.26   2
   2   0 -12    5.46    2.37  -1
  -2   0 -13    5.46    2.37   2
   2   0 -11   16.35    2.66  -1
  -2   0 -12   16.35    2.66   2
   2   0 -10   15.22    2.86  -1
  -2   0 -11   15.22    2.86   2
   2   0  -9  108.49    4.76  -1
  -2   0 -10  108.49    4.76   2
   2   0  -8    8.58    1.43  -1
  -2   0  -9    8.58    1.43   2
   2   0  -7    5.21    1.67  -1
  -2   0  -8    5.21    1.67   2
   2   0  -6   11.82    1.60  -1
  -2   0  -7   11.82    1.60   2
   2   0  -5   29.10    1.91  -1
  -2   0  -6   29.10    1.91   2
   2   0  -4   23.84    1.07  -1
  -2   0  -5   23.84    1.07   2
  -2   0   3   15.09    0.95  -1
   2   0   4   15.09    0.95   2
   2   0  -2   18.67    0.76  -1
  -2   0  -3   18.67    0.76   2
   2   0  -1  360.90    8.62  -1
  -2   0  -2  360.90    8.62   2
   2   0   0 9988.18  102.43  -1
  -2   0  -1 9988.18  102.43   2
   2   0   1 9103.77   58.89  -1
  -2   0   0 9103.77   58.89   2
   2   0   2  378.50   10.50  -1
  -2   0   1  378.50   10.50   2
   2   0   3   29.09    1.04  -1
  -2   0   2   29.09    1.04   2
   2   0   4   23.76    1.06  -1
  -2   0   3   23.76    1.06   2
   2   0   5   38.50    1.48  -1
  -2   0   4   38.50    1.48   2
   2   0   6   24.41    1.79  -1
  -2   0   5   24.41    1.79   2
   2   0   7    9.23    1.88  -1
  -2   0   6    9.23    1.88   2
   2   0   8    7.29    1.44  -1
  -2   0   7    7.29    1.44   2
   2   0   9    9.83    2.01  -1
  -2   0   8    9.83    2.01   2
   2   0  10   92.80    5.30  -1
  -2   0   9   92.80    5.30   2
   2   0  11   11.34    2.35  -1
  -2   0  10   11.34    2.35   2
   2   0  12   14.57    2.22  -1
  -2   0  11   14.57    2.22   2
   2   0  13    5.40    1.87  -1
  -2   0  12    5.40    1.87   2
   2   0  14    3.63    1.85  -1
  -2   0  13    3.63    1.85   2
  -2  -3   6   42.65    1.63  -1
   2   3   9   42.65    1.63   2
   2   3  -5   29.37    2.14  -1
  -2  -3  -8   29.37    2.14   2
  -2  -3  -4  111.16    2.03  -1
   2   3  -1  111.16    2.03   2
  -2  -3  -5   93.43    4.04  -1
   2   3  -2   93.43    4.04   2
  -2  -3  -6  298.99    5.52  -1
   2   3  -3  298.99    5.52   2
   2   3   7   42.45    2.92  -1
  -2  -3   4   42.45    2.92   2
   2   3   8   28.11    1.88  -1
  -2  -3   5   28.11    1.88   2
   2   4 -11    3.69    1.53  -1
  -2  -4 -15    3.69    1.53   2
   2   4 -10   11.69    1.68  -1
  -2  -4 -14   11.69    1.68   2
   2   4  -9   11.09    2.03  -1
  -2  -4 -13   11.09    2.03   2
   2   4  -8   11.84    2.32  -1
  -2  -4 -12   11.84    2.32   2
   2   4  -7    3.84    1.29  -1
  -2  -4 -11    3.84    1.29   2
  -2  -4   6    3.34    1.39  -1
   2   4  10    3.34    1.39   2
   2   4  -5    1.80    1.29  -1
  -2  -4  -9    1.80    1.29   2
  -2  -4   4   48.13    1.27  -1
   2   4   8   48.13    1.27   2
  -2  -4   3   10.31    1.03  -1
   2   4   7   10.31    1.03   2
   2   4  -2   54.38    1.01  -1
  -2  -4  -6   54.38    1.01   2
   2   4  -1   20.44    1.75  -1
  -2  -4  -5   20.44    1.75   2
  -2  -4   0  341.39    2.63  -1
   2   4   4  341.39    2.63   2
  -2  -4  -1  494.11    7.98  -1
   2   4   3  494.11    7.98   2
  -2  -4  -2    9.75    0.91  -1
   2   4   2    9.75    0.91   2
  -2  -4  -3  741.21   21.10  -1
   2   4   1  741.21   21.10   2
  -2  -4  -4  203.99    5.09  -1
   2   4   0  203.99    5.09   2
  -2  -4  -5   16.38    0.73  -1
   2   4  -1   16.38    0.73   2
  -2  -4  -6   54.10    2.07  -1
   2   4  -2   54.10    2.07   2
   2   4   7    6.46    0.84  -1
  -2  -4   3    6.46    0.84   2
  -2  -4  -8   53.37    1.22  -1
   2   4  -4   53.37    1.22   2
  -2  -4  -9    3.20    1.16  -1
   2   4  -5    3.20    1.16   2
  -2  -4 -10    3.87    1.29  -1
   2   4  -6    3.87    1.29   2
   2   4  11    3.81    1.17  -1
  -2  -4   7    3.81    1.17   2
   2   4  12    6.93    1.51  -1
  -2  -4   8    6.93    1.51   2
  -2  -4 -13   10.92    1.94  -1
   2   4  -9   10.92    1.94   2
  -2  -4 -14    8.96    1.86  -1
   2   4 -10    8.96    1.86   2
  -2  -4 -15    8.75    1.46  -1
   2   4 -11    8.75    1.46   2
  -2  -5  -6    9.01    1.08  -1
   2   5  -1    9.01    1.08   2
  -2  -5  -7   10.71    1.26  -1
   2   5  -2   10.71    1.26   2
  -2  -7   2  108.13    2.37  -1
   2   7   8  108.13    2.37   2
  -2  -7   1  192.73    2.57  -1
   2   7   7  192.73    2.57   2
  -2  -7   0   59.28    2.30  -1
   2   7   6   59.28    2.30   2
  -2  -7  -1   79.48    2.41  -1
   2   7   5   79.48    2.41   2
  -2  -7  -2   21.56    1.98  -1
   2   7   4   21.56    1.98   2
  -2  -7  -4   35.09    2.05  -1
   2   7   2   35.09    2.05   2
  -2  -7  -5  165.73    2.93  -1
   2   7   1  165.73    2.93   2
  -2  -7  -6  107.37    2.55  -1
   2   7   0  107.37    2.55   2
  -2  -8   6    1.97    0.97  -1
   2   8  13    1.97    0.97   2
  -2  -8   5    4.42    1.25  -1
   2   8  12    4.42    1.25   2
  -2  -8   4    7.59    1.47  -1
   2   8  11    7.59    1.47   2
  -2  -8   3    6.62    1.16  -1
   2   8  10    6.62    1.16   2
  -2  -8   2   38.33    1.61  -1
   2   8   9   38.33    1.61   2
  -2  -8   1    7.01    1.19  -1
   2   8   8    7.01    1.19   2
  -2  -8   0   87.47    2.78  -1
   2   8   7   87.47    2.78   2
  -2  -8  -1   71.17    1.86  -1
   2   8   6   71.17    1.86   2
  -2  -8  -2   74.15    2.08  -1
   2   8   5   74.15    2.08   2
  -2  -8  -3    4.22    1.35  -1
   2   8   4    4.22    1.35   2
  -2  -8  -4    4.22    1.53  -1
   2   8   3    4.22    1.53   2
  -2  -8  -5   88.28    2.39  -1
   2   8   2   88.28    2.39   2
  -2  -8  -6   65.66    3.01  -1
   2   8   1   65.66    3.01   2
  -2  -8  -7  147.83    3.08  -1
   2   8   0  147.83    3.08   2
  -2  -8  -8    9.66    1.25  -1
   2   8  -1    9.66    1.25   2
  -2  -8  -9   30.85    1.58  -1
   2   8  -2   30.85    1.58   2
  -2  -8 -10    6.34    1.70  -1
   2   8  -3    6.34    1.70   2
  -2  -8 -11    7.65    1.63  -1
   2   8  -4    7.65    1.63   2
  -2  -8 -12    2.22    1.52  -1
   2   8  -5    2.22    1.52   2
  -2  -8 -13    2.83    0.97  -1
   2   8  -6    2.83    0.97   2
  -2  -9   2    7.82    1.30  -1
   2   9  10    7.82    1.30   2
  -2  -9   1    2.66    1.55  -1
   2   9   9    2.66    1.55   2
  -2  -9   0   17.81    1.27  -1
   2   9   8   17.81    1.27   2
  -2  -9  -1   14.21    2.61  -1
   2   9   7   14.21    2.61   2
  -2  -9  -2   28.77    2.44  -1
   2   9   6   28.77    2.44   2
  -2  -9  -3   22.51    1.72  -1
   2   9   5   22.51    1.72   2
  -2  -9  -4   56.98    2.31  -1
   2   9   4   56.98    2.31   2
  -2  -9  -5   36.10    2.23  -1
   2   9   3   36.10    2.23   2
  -2  -9  -6   24.87    1.65  -1
   2   9   2   24.87    1.65   2
  -2  -9  -7   12.00    2.18  -1
   2   9   1   12.00    2.18   2
  -2  -9  -8   14.51    2.14  -1
   2   9   0   14.51    2.14   2
  -2  -9  -9    0.72    1.23  -1
   2   9  -1    0.72    1.23   2
  -2  -9 -10   14.40    2.05  -1
   2   9  -2   14.40    2.05   2
  -2  -9 -11    2.86    1.71  -1
   2   9  -3    2.86    1.71   2
  -2 -10  -2    8.75    1.98  -1
   2  10   7    8.75    1.98   2
  -2 -10  -3    9.15    1.31  -1
   2  10   6    9.15    1.31   2
  -2 -10  -4    4.54    2.03  -1
   2  10   5    4.54    2.03   2
  -2 -11  -2    6.27    2.36  -1
   2  11   7    6.27    2.36   2
  -2 -11  -3    2.97    1.56  -1
   2  11   6    2.97    1.56   2
  -2 -11  -4    2.90    0.90  -1
   2  11   5    2.90    0.90   2
  -2 -11  -5    3.52    1.69  -1
   2  11   4    3.52    1.69   2
  -2 -11  -6    1.90    1.91  -1
   2  11   3    1.90    1.91   2
   3  -8  -7   11.93    2.57  -1
  -3   8  -2   11.93    2.57   2
   3  -8  -6   30.13    2.87  -1
  -3   8  -1   30.13    2.87   2
   3  -8  -5   11.88    2.54  -1
  -3   8   0   11.88    2.54   2
   3  -8  -3    2.11    1.65  -1
  -3   8   2    2.11    1.65   2
   3  -8  -2    3.61    1.72  -1
  -3   8   3    3.61    1.72   2
   3  -8  -1   10.43    2.28  -1
  -3   8   4   10.43    2.28   2
   3  -8   1    8.65    2.63  -1
  -3   8   6    8.65    2.63   2
   3  -7  -9   10.56    2.24  -1
  -3   7  -5   10.56    2.24   2
   3  -7  -8   13.95    2.76  -1
  -3   7  -4   13.95    2.76   2
   3  -7  -7   70.76    2.27  -1
  -3   7  -3   70.76    2.27   2
   3  -7  -6   91.12    1.56  -1
  -3   7  -2   91.12    1.56   2
   3  -7  -5   38.14    2.38  -1
  -3   7  -1   38.14    2.38   2
   3  -7  -4    8.45    0.75  -1
  -3   7   0    8.45    0.75   2
   3  -7  -3    5.55    1.67  -1
  -3   7   1    5.55    1.67   2
   3  -7  -2    9.85    2.00  -1
  -3   7   2    9.85    2.00   2
   3  -7  -1    8.51    1.84  -1
  -3   7   3    8.51    1.84   2
   3  -7   0    9.56    1.45  -1
  -3   7   4    9.56    1.45   2
   3  -7   1   21.67    1.40  -1
  -3   7   5   21.67    1.40   2
   3  -7   2   88.97    3.79  -1
  -3   7   6   88.97    3.79   2
   3  -7   3   41.68    7.04  -1
  -3   7   7   41.68    7.04   2
   3  -7   4    8.90    1.62  -1
  -3   7   8    8.90    1.62   2
   3  -7   5    3.10    2.23  -1
  -3   7   9    3.10    2.23   2
   3  -6  -9    3.05    1.73  -1
  -3   6  -6    3.05    1.73   2
   3  -6  -8   28.16    2.14  -1
  -3   6  -5   28.16    2.14   2
   3  -6  -6    2.92    2.86  -1
  -3   6  -3    2.92    2.86   2
   3  -6  -5    3.99    2.25  -1
  -3   6  -2    3.99    2.25   2
   3  -6  -3    5.39    2.21  -1
  -3   6   0    5.39    2.21   2
   3  -6  -2   11.30    2.81  -1
  -3   6   1   11.30    2.81   2
   3  -6  -1   11.62    2.15  -1
  -3   6   2   11.62    2.15   2
   3  -6   0    3.31    1.96  -1
  -3   6   3    3.31    1.96   2
   3  -6   1    2.34    2.08  -1
  -3   6   4    2.34    2.08   2
   3  -6   2    7.79    1.52  -1
  -3   6   5    7.79    1.52   2
   3  -6   3    4.78    3.27  -1
  -3   6   6    4.78    3.27   2
   3  -6   4   60.63    2.79  -1
  -3   6   7   60.63    2.79   2
   3  -6   5   52.46    2.60  -1
  -3   6   8   52.46    2.60   2
   3  -3 -12    3.43    2.36  -1
  -3   3 -11    3.43    2.36   2
   3  -3 -11   23.83    2.08  -1
  -3   3 -10   23.83    2.08   2
   3  -3 -10    3.58    2.09  -1
  -3   3  -9    3.58    2.09   2
   3  -3  -9    4.72    2.11  -1
  -3   3  -8    4.72    2.11   2
   3  -3  -8   40.27    2.36  -1
  -3   3  -7   40.27    2.36   2
   3  -3  -7    6.43    2.25  -1
  -3   3  -6    6.43    2.25   2
   3  -3  -6   46.22    2.65  -1
  -3   3  -5   46.22    2.65   2
   3  -3  -5   58.42    2.29  -1
  -3   3  -4   58.42    2.29   2
   3  -3  -4    9.69    1.68  -1
  -3   3  -3    9.69    1.68   2
   3  -3  -3    6.97    0.97  -1
  -3   3  -2    6.97    0.97   2
   3  -3  -2    4.42    1.24  -1
  -3   3  -1    4.42    1.24   2
   3  -3  -1   10.48    0.92  -1
  -3   3   0   10.48    0.92   2
   3  -3   0   14.60    1.09  -1
  -3   3   1   14.60    1.09   2
   3  -3   1    2.27    1.31  -1
  -3   3   2    2.27    1.31   2
   3  -3   2    5.37    1.33  -1
  -3   3   3    5.37    1.33   2
   3  -3   3   13.10    1.15  -1
  -3   3   4   13.10    1.15   2
   3  -3   4   37.27    3.45  -1
  -3   3   5   37.27    3.45   2
   3  -3   5   79.73    3.07  -1
  -3   3   6   79.73    3.07   2
   3  -3   6    7.57    1.71  -1
  -3   3   7    7.57    1.71   2
   3  -3   7   30.58    2.64  -1
  -3   3   8   30.58    2.64   2
   3  -3   8    3.35    1.86  -1
  -3   3   9    3.35    1.86   2
   3  -3   9    4.47    1.63  -1
  -3   3  10    4.47    1.63   2
   3  -3  10   15.48    2.84  -1
  -3   3  11   15.48    2.84   2
   3  -3  11    3.48    1.24  -1
  -3   3  12    3.48    1.24   2
   3  -2 -10   65.76    2.59  -1
  -3   2 -10   65.76    2.59   2
   3  -2  -9   32.12    3.93  -1
  -3   2  -9   32.12    3.93   2
   3  -2  -8   16.00    3.30  -1
  -3   2  -8   16.00    3.30   2
   3  -2  -7   18.76    2.08  -1
  -3   2  -7   18.76    2.08   2
   3  -2  -6    7.08    1.53  -1
  -3   2  -6    7.08    1.53   2
   3  -2  -5  158.19    8.37  -1
  -3   2  -5  158.19    8.37   2
   3  -2  -4  121.73    2.52  -1
  -3   2  -4  121.73    2.52   2
   3  -2  -3    8.75    1.63  -1
  -3   2  -3    8.75    1.63   2
   3  -2  -2    2.83    0.87  -1
  -3   2  -2    2.83    0.87   2
   3  -2  -1   82.21    3.42  -1
  -3   2  -1   82.21    3.42   2
   3  -2   0    3.75    1.21  -1
  -3   2   0    3.75    1.21   2
   3  -2   1   78.52    3.65  -1
  -3   2   1   78.52    3.65   2
   3  -2   2    1.93    1.53  -1
  -3   2   2    1.93    1.53   2
   3  -2   3    5.66    1.00  -1
  -3   2   3    5.66    1.00   2
   3  -2   4  119.45    5.48  -1
  -3   2   4  119.45    5.48   2
   3  -2   5  169.59   10.05  -1
  -3   2   5  169.59   10.05   2
   3  -2   6    4.25    2.22  -1
  -3   2   6    4.25    2.22   2
   3  -2   7   11.09    1.67  -1
  -3   2   7   11.09    1.67   2
   3  -2   8   22.71    1.54  -1
  -3   2   8   22.71    1.54   2
   3  -2   9   17.13    2.82  -1
  -3   2   9   17.13    2.82   2
   3  -2  10   39.72    2.37  -1
  -3   2  10   39.72    2.37   2
   3  -2  11   10.91    2.27  -1
  -3   2  11   10.91    2.27   2
   3  -2  12    4.04    1.99  -1
  -3   2  12    4.04    1.99   2
   3   1 -11    7.34    2.01  -1
  -3  -1 -13    7.34    2.01   2
   3   1 -10    9.93    1.79  -1
  -3  -1 -12    9.93    1.79   2
   3   1  -9  106.50    4.95  -1
  -3  -1 -11  106.50    4.95   2
   3   1  -8   31.22    2.46  -1
  -3  -1 -10   31.22    2.46   2
   3   1  -7   31.53    2.28  -1
  -3  -1  -9   31.53    2.28   2
   3   1  -6   24.54    2.18  -1
  -3  -1  -8   24.54    2.18   2
   3   1  -5   80.69    4.92  -1
  -3  -1  -7   80.69    4.92   2
   3   1  -4  150.69    8.01  -1
  -3  -1  -6  150.69    8.01   2
   3   1  -3  113.59    2.22  -1
  -3  -1  -5  113.59    2.22   2
   3   1  -2  211.30    3.28  -1
  -3  -1  -4  211.30    3.28   2
   3   1  -1  202.81    2.95  -1
  -3  -1  -3  202.81    2.95   2
   3   1   0  207.98    3.47  -1
  -3  -1  -2  207.98    3.47   2
   3   1   1  563.18   11.86  -1
  -3  -1  -1  563.18   11.86   2
   3   1   2  142.47    6.94  -1
  -3  -1   0  142.47    6.94   2
   3   1   3  127.73    2.30  -1
  -3  -1   1  127.73    2.30   2
   3   1   4  218.55    6.00  -1
  -3  -1   2  218.55    6.00   2
   3   1   5  174.71    3.91  -1
  -3  -1   3  174.71    3.91   2
   3   1   6  104.01    3.73  -1
  -3  -1   4  104.01    3.73   2
   3   1   7   89.20    4.68  -1
  -3  -1   5   89.20    4.68   2
   3   1   8   22.12    1.95  -1
  -3  -1   6   22.12    1.95   2
   3   1   9   22.11    3.22  -1
  -3  -1   7   22.11    3.22   2
   3   1  10   42.65    3.59  -1
  -3  -1   8   42.65    3.59   2
   3   1  11   74.10    2.59  -1
  -3  -1   9   74.10    2.59   2
   3   1  12    9.50    2.53  -1
  -3  -1  10    9.50    2.53   2
   3   1  13   11.31    2.38  -1
  -3  -1  11   11.31    2.38   2
   3   2 -11    7.65    1.80  -1
  -3  -2 -14    7.65    1.80   2
   3   2 -10   30.66    2.27  -1
  -3  -2 -13   30.66    2.27   2
   3   2  -9    7.65    1.73  -1
  -3  -2 -12    7.65    1.73   2
   3   2  -8   74.78    3.78  -1
  -3  -2 -11   74.78    3.78   2
   3   2  -7   30.10    1.97  -1
  -3  -2 -10   30.10    1.97   2
   3   2  -6   16.47    1.34  -1
  -3  -2  -9   16.47    1.34   2
   3   2  -5   39.71    2.97  -1
  -3  -2  -8   39.71    2.97   2
   3   2  -4  260.29   13.87  -1
  -3  -2  -7  260.29   13.87   2
   3   2  -3   98.55    3.10  -1
  -3  -2  -6   98.55    3.10   2
   3   2  -2  204.47    2.92  -1
  -3  -2  -5  204.47    2.92   2
   3   2  -1  123.55    1.81  -1
  -3  -2  -4  123.55    1.81   2
   3   2   0   96.07    2.44  -1
  -3  -2  -3   96.07    2.44   2
   3   2   1   15.04    1.10  -1
  -3  -2  -2   15.04    1.10   2
   3   2   2   16.87    1.61  -1
  -3  -2  -1   16.87    1.61   2
   3   2   3  149.27    5.40  -1
  -3  -2   0  149.27    5.40   2
   3   2   4  150.97    4.54  -1
  -3  -2   1  150.97    4.54   2
   3   2   5  133.79    2.11  -1
  -3  -2   2  133.79    2.11   2
   3   2   6  125.67    3.46  -1
  -3  -2   3  125.67    3.46   2
   3   2   7  235.06    7.13  -1
  -3  -2   4  235.06    7.13   2
   3   2   8   51.85    2.96  -1
  -3  -2   5   51.85    2.96   2
   3   2   9   26.51    2.81  -1
  -3  -2   6   26.51    2.81   2
   3   2  10   27.85    1.72  -1
  -3  -2   7   27.85    1.72   2
   3   2  11  142.26    4.84  -1
  -3  -2   8  142.26    4.84   2
   3   2  12    7.29    1.88  -1
  -3  -2   9    7.29    1.88   2
   3   2  13   20.10    2.81  -1
  -3  -2  10   20.10    2.81   2
   3   2  14   10.82    1.53  -1
  -3  -2  11   10.82    1.53   2
  -3  -5   8    2.62    1.97  -1
   3   5  13    2.62    1.97   2
   3   5  -7   15.70    2.57  -1
  -3  -5 -12   15.70    2.57   2
   3   5  -6   10.04    2.84  -1
  -3  -5 -11   10.04    2.84   2
  -3  -5   5  131.75    3.53  -1
   3   5  10  131.75    3.53   2
  -3  -5   4   42.39    5.35  -1
   3   5   9   42.39    5.35   2
   3   5  -3   81.20    2.70  -1
  -3  -5  -8   81.20    2.70   2
   3   5  -2    9.59    1.76  -1
  -3  -5  -7    9.59    1.76   2
  -3  -5   1   40.99    1.94  -1
   3   5   6   40.99    1.94   2
   3   5   1   18.89    1.98  -1
  -3  -5  -4   18.89    1.98   2
  -3  -5  -3   56.66    1.03  -1
   3   5   2   56.66    1.03   2
  -3  -5  -4   15.39    1.91  -1
   3   5   1   15.39    1.91   2
   3   5   5   53.04    1.58  -1
  -3  -5   0   53.04    1.58   2
  -3  -5  -6   28.34    1.43  -1
   3   5  -1   28.34    1.43   2
  -3  -5  -7   13.23    1.78  -1
   3   5  -2   13.23    1.78   2
   3   5   9   30.17    2.40  -1
  -3  -5   4   30.17    2.40   2
   3   5  11    8.20    1.84  -1
  -3  -5   6    8.20    1.84   2
  -3  -5 -12    9.26    2.49  -1
   3   5  -7    9.26    2.49   2
  -3  -5 -13    3.09    2.19  -1
   3   5  -8    3.09    2.19   2
  -3  -6   8    1.69    1.91  -1
   3   6  14    1.69    1.91   2
  -3  -6   7    7.48    1.98  -1
   3   6  13    7.48    1.98   2
   3   6  -6   34.14    2.95  -1
  -3  -6 -12   34.14    2.95   2
   3   6  -5   42.42    1.92  -1
  -3  -6 -11   42.42    1.92   2
  -3  -6   4  135.75    3.78  -1
   3   6  10  135.75    3.78   2
  -3  -6   3   93.80    3.63  -1
   3   6   9   93.80    3.63   2
   3   6  -2   62.88    3.56  -1
  -3  -6  -8   62.88    3.56   2
  -3  -6   1   84.91    5.36  -1
   3   6   7   84.91    5.36   2
  -3  -6   0    7.89    1.66  -1
   3   6   6    7.89    1.66   2
   3   6   1   15.08    1.47  -1
  -3  -6  -5   15.08    1.47   2
   3   6   2    6.86    1.35  -1
  -3  -6  -4    6.86    1.35   2
  -3  -6  -3    5.44    0.76  -1
   3   6   3    5.44    0.76   2
  -3  -6  -4   10.89    1.18  -1
   3   6   2   10.89    1.18   2
  -3  -6  -5   10.44    1.20  -1
   3   6   1   10.44    1.20   2
  -3  -6  -6   10.88    1.81  -1
   3   6   0   10.88    1.81   2
  -3  -6  -7   65.28    3.43  -1
   3   6  -1   65.28    3.43   2
  -3  -6  -8  107.47    3.93  -1
   3   6  -2  107.47    3.93   2
  -3  -6  -9  151.11    5.51  -1
   3   6  -3  151.11    5.51   2
  -3  -6 -10   90.69    3.90  -1
   3   6  -4   90.69    3.90   2
  -3  -6 -11   63.48    5.93  -1
   3   6  -5   63.48    5.93   2
  -3  -6 -12   25.11    1.82  -1
   3   6  -6   25.11    1.82   2
  -3  -6 -13    9.30    1.73  -1
   3   6  -7    9.30    1.73   2
  -3  -6 -14    3.25    1.83  -1
   3   6  -8    3.25    1.83   2
  -3  -7   3   10.99    2.05  -1
   3   7  10   10.99    2.05   2
  -3  -7   1  155.47    3.02  -1
   3   7   8  155.47    3.02   2
   3   7   0   21.55    1.69  -1
  -3  -7  -7   21.55    1.69   2
  -3  -7  -1   97.16    3.06  -1
   3   7   6   97.16    3.06   2
  -3  -7  -2   26.38    1.12  -1
   3   7   5   26.38    1.12   2
  -3  -7  -3    5.81    1.52  -1
   3   7   4    5.81    1.52   2
  -3  -7  -4    4.40    2.09  -1
   3   7   3    4.40    2.09   2
  -3  -7  -5   31.46    1.96  -1
   3   7   2   31.46    1.96   2
  -3  -7  -6  159.47    2.98  -1
   3   7   1  159.47    2.98   2
  -3  -9   1    1.53    1.85  -1
   3   9   9    1.53    1.85   2
  -3  -9   0    7.97    1.28  -1
   3   9   8    7.97    1.28   2
  -3  -9  -1    6.68    1.58  -1
   3   9   7    6.68    1.58   2
  -3  -9  -2   15.58    1.89  -1
   3   9   6   15.58    1.89   2
  -3  -9  -3   23.02    1.85  -1
   3   9   5   23.02    1.85   2
  -3  -9  -4    9.12    2.08  -1
   3   9   4    9.12    2.08   2
  -3  -9  -5   41.23    2.95  -1
   3   9   3   41.23    2.95   2
  -3  -9  -6    8.63    1.16  -1
   3   9   2    8.63    1.16   2
  -3  -9  -7    5.00    1.81  -1
   3   9   1    5.00    1.81   2
  -3  -9  -8    9.35    1.87  -1
   3   9   0    9.35    1.87   2
  -3  -9  -9    2.22    1.96  -1
   3   9  -1    2.22    1.96   2
  -3 -10   1    5.02    1.25  -1
   3  10  10    5.02    1.25   2
  -3 -10   0    5.30    2.18  -1
   3  10   9    5.30    2.18   2
  -3 -10  -1    2.93    0.88  -1
   3  10   8    2.93    0.88   2
  -3 -10  -2    2.41    0.86  -1
   3  10   7    2.41    0.86   2
  -3 -10  -3    5.28    1.54  -1
   3  10   6    5.28    1.54   2
  -3 -10  -4    4.60    1.03  -1
   3  10   5    4.60    1.03   2
  -3 -10  -5    4.07    0.95  -1
   3  10   4    4.07    0.95   2
  -3 -10  -6    4.45    1.31  -1
   3  10   3    4.45    1.31   2
  -3 -10  -7    2.60    1.09  -1
   3  10   2    2.60    1.09   2
  -3 -10  -8    2.88    0.74  -1
   3  10   1    2.88    0.74   2
  -3 -10  -9    7.42    1.06  -1
   3  10   0    7.42    1.06   2
  -3 -10 -10    7.25    1.94  -1
   3  10  -1    7.25    1.94   2
  -3 -10 -11   53.05    2.50  -1
   3  10  -2   53.05    2.50   2
  -3 -11  -3    9.49    1.35  -1
   3  11   7    9.49    1.35   2
  -3 -11  -4   29.59    1.77  -1
   3  11   6   29.59    1.77   2
  -3 -11  -5    0.87    1.53  -1
   3  11   5    0.87    1.53   2
  -3 -11  -6   18.09    3.05  -1
   3  11   4   18.09    3.05   2
  -3 -11  -7   10.20    3.73  -1
   3  11   3   10.20    3.73   2
   4  -6  -7   55.36    2.46  -1
  -4   6  -4   55.36    2.46   2
   4  -6  -6    3.31    1.23  -1
  -4   6  -3    3.31    1.23   2
   4  -6  -5   23.93    1.73  -1
  -4   6  -2   23.93    1.73   2
   4  -6  -4   10.21    1.06  -1
  -4   6  -1   10.21    1.06   2
   4  -6  -3    1.09    1.01  -1
  -4   6   0    1.09    1.01   2
   4  -6  -2    3.30    1.34  -1
  -4   6   1    3.30    1.34   2
   4  -6  -1    1.70    1.76  -1
  -4   6   2    1.70    1.76   2
   4  -6   0    1.17    1.82  -1
  -4   6   3    1.17    1.82   2
   4  -6   1    6.57    3.15  -1
  -4   6   4    6.57    3.15   2
   4  -6   2   28.10    1.95  -1
  -4   6   5   28.10    1.95   2
   4  -6   3    3.16    1.13  -1
  -4   6   6    3.16    1.13   2
   4  -5  -9    5.25    2.23  -1
  -4   5  -7    5.25    2.23   2
   4  -5  -8    5.66    2.15  -1
  -4   5  -6    5.66    2.15   2
   4  -5  -7   20.30    3.42  -1
  -4   5  -5   20.30    3.42   2
   4  -5  -6    3.72    1.31  -1
  -4   5  -4    3.72    1.31   2
   4  -5  -5    8.42    1.58  -1
  -4   5  -3    8.42    1.58   2
   4  -5  -4    7.46    2.22  -1
  -4   5  -2    7.46    2.22   2
   4  -5  -3   12.26    1.86  -1
  -4   5  -1   12.26    1.86   2
   4  -5  -2   29.27    2.41  -1
  -4   5   0   29.27    2.41   2
   4  -5  -1    2.96    1.22  -1
  -4   5   1    2.96    1.22   2
   4  -5   0   17.49    2.09  -1
  -4   5   2   17.49    2.09   2
   4  -5   1   13.12    3.73  -1
  -4   5   3   13.12    3.73   2
   4  -5   2    7.47    2.31  -1
  -4   5   4    7.47    2.31   2
   4  -5   3   11.43    1.84  -1
  -4   5   5   11.43    1.84   2
   4  -5   4    3.37    1.12  -1
  -4   5   6    3.37    1.12   2
   4  -5   5   32.49    2.91  -1
  -4   5   7   32.49    2.91   2
   4  -5   6    5.74    1.94  -1
  -4   5   8    5.74    1.94   2
   4  -5   7    2.79    1.61  -1
  -4   5   9    2.79    1.61   2
   4  -4  -7    6.80    2.51  -1
  -4   4  -6    6.80    2.51   2
   4  -4  -5    2.89    2.11  -1
  -4   4  -4    2.89    2.11   2
   4  -4  -4    3.81    2.00  -1
  -4   4  -3    3.81    2.00   2
   4  -4  -3   24.92    2.29  -1
  -4   4  -2   24.92    2.29   2
   4  -4  -2    5.24    1.93  -1
  -4   4  -1    5.24    1.93   2
   4  -4   2   24.99    2.01  -1
  -4   4   3   24.99    2.01   2
   4  -4   3    4.39    2.22  -1
  -4   4   4    4.39    2.22   2
   4  -4   4    3.92    1.98  -1
  -4   4   5    3.92    1.98   2
   4  -4   5   13.52    2.90  -1
  -4   4   6   13.52    2.90   2
   4  -4   6    7.42    2.12  -1
  -4   4   7    7.42    2.12   2
   4  -4   7    4.41    1.93  -1
  -4   4   8    4.41    1.93   2
   4  -2  -1   36.16    2.06  -1
  -4   2  -1   36.16    2.06   2
   4  -2   1   27.92    1.96  -1
  -4   2   1   27.92    1.96   2
   4  -2   2    7.48    1.84  -1
  -4   2   2    7.48    1.84   2
   4  -2   3    1.74    1.92  -1
  -4   2   3    1.74    1.92   2
   4  -1 -11    3.49    1.92  -1
  -4   1 -12    3.49    1.92   2
   4  -1 -10   44.16    3.06  -1
  -4   1 -11   44.16    3.06   2
   4  -1  -9   40.01    2.92  -1
  -4   1 -10   40.01    2.92   2
   4  -1  -8    4.46    2.35  -1
  -4   1  -9    4.46    2.35   2
   4  -1  -7    6.42    2.23  -1
  -4   1  -8    6.42    2.23   2
   4  -1  -6   17.56    2.03  -1
  -4   1  -7   17.56    2.03   2
   4  -1  -5   26.28    3.30  -1
  -4   1  -6   26.28    3.30   2
   4  -1  -4   33.53    3.74  -1
  -4   1  -5   33.53    3.74   2
   4  -1  -3   20.77    1.26  -1
  -4   1  -4   20.77    1.26   2
   4  -1  -2   48.84    1.93  -1
  -4   1  -3   48.84    1.93   2
   4  -1  -1  160.10    2.70  -1
  -4   1  -2  160.10    2.70   2
   4  -1   0  119.06    4.81  -1
  -4   1  -1  119.06    4.81   2
   4  -1   1  199.20    5.99  -1
  -4   1   0  199.20    5.99   2
   4  -1   2   91.60    4.58  -1
  -4   1   1   91.60    4.58   2
   4  -1   3   35.96    1.85  -1
  -4   1   2   35.96    1.85   2
   4  -1   4   25.79    1.81  -1
  -4   1   3   25.79    1.81   2
   4  -1   5   56.38    1.82  -1
  -4   1   4   56.38    1.82   2
   4  -1   6   28.60    2.97  -1
  -4   1   5   28.60    2.97   2
   4  -1   7   10.79    1.68  -1
  -4   1   6   10.79    1.68   2
   4  -1   8    4.80    1.62  -1
  -4   1   7    4.80    1.62   2
   4  -1   9    4.91    2.08  -1
  -4   1   8    4.91    2.08   2
   4  -1  10   65.19    3.20  -1
  -4   1   9   65.19    3.20   2
   4  -1  11   46.39    2.16  -1
  -4   1  10   46.39    2.16   2
   4  -1  12    4.14    1.71  -1
  -4   1  11    4.14    1.71   2
   4   0 -10    7.46    2.51  -1
  -4   0 -12    7.46    2.51   2
   4   0  -9   50.94    2.89  -1
  -4   0 -11   50.94    2.89   2
   4   0  -8   12.59    1.87  -1
  -4   0 -10   12.59    1.87   2
   4   0  -7    4.74    1.69  -1
  -4   0  -9    4.74    1.69   2
   4   0  -6   11.37    2.67  -1
  -4   0  -8   11.37    2.67   2
   4   0  -4    5.83    1.40  -1
  -4   0  -6    5.83    1.40   2
   4   0  -3    7.77    1.70  -1
  -4   0  -5    7.77    1.70   2
   4   0  -2    9.00    1.23  -1
  -4   0  -4    9.00    1.23   2
   4   0  -1   46.46    3.05  -1
  -4   0  -3   46.46    3.05   2
   4   0   0  443.76    3.38  -1
  -4   0  -2  443.76    3.38   2
   4   0   1 2966.90    9.54  -1
  -4   0  -1 2966.90    9.54   2
   4   0   2  311.61    6.87  -1
  -4   0   0  311.61    6.87   2
   4   0   3   35.14    1.90  -1
  -4   0   1   35.14    1.90   2
   4   0   4    7.11    1.84  -1
  -4   0   2    7.11    1.84   2
   4   0   5   14.26    1.83  -1
  -4   0   3   14.26    1.83   2
   4   0   6    5.97    1.50  -1
  -4   0   4    5.97    1.50   2
   4   0   7    5.40    2.52  -1
  -4   0   5    5.40    2.52   2
   4   0   8    9.52    1.46  -1
  -4   0   6    9.52    1.46   2
   4   0   9    3.36    2.01  -1
  -4   0   7    3.36    2.01   2
   4   0  10   13.12    2.32  -1
  -4   0   8   13.12    2.32   2
   4   0  11   44.40    3.45  -1
  -4   0   9   44.40    3.45   2
   4   0  13    5.70    1.90  -1
  -4   0  11    5.70    1.90   2
   4   3 -10    7.19    1.50  -1
  -4  -3 -14    7.19    1.50   2
   4   3  -9   37.11    3.19  -1
  -4  -3 -13   37.11    3.19   2
   4   3  -8    7.26    2.38  -1
  -4  -3 -12    7.26    2.38   2
   4   3  -7   20.42    2.60  -1
  -4  -3 -11   20.42    2.60   2
   4   3  -6   45.34    2.65  -1
  -4  -3 -10   45.34    2.65   2
   4   3  -5    5.55    2.08  -1
  -4  -3  -9    5.55    2.08   2
   4   3  -4   15.06    1.99  -1
  -4  -3  -8   15.06    1.99   2
   4   3  -3   32.29    2.57  -1
  -4  -3  -7   32.29    2.57   2
   4   3  -2   29.93    2.05  -1
  -4  -3  -6   29.93    2.05   2
   4   3  -1   12.27    1.56  -1
  -4  -3  -5   12.27    1.56   2
   4   3   0   13.82    0.90  -1
  -4  -3  -4   13.82    0.90   2
   4   3   1    4.45    1.96  -1
  -4  -3  -3    4.45    1.96   2
   4   3   2    8.66    1.57  -1
  -4  -3  -2    8.66    1.57   2
   4   3   3    5.63    0.96  -1
  -4  -3  -1    5.63    0.96   2
   4   3   4    8.92    1.05  -1
  -4  -3   0    8.92    1.05   2
   4   3   5   18.94    1.37  -1
  -4  -3   1   18.94    1.37   2
   4   3   6   40.56    2.33  -1
  -4  -3   2   40.56    2.33   2
   4   3   7   39.62    1.79  -1
  -4  -3   3   39.62    1.79   2
   4   3   8   21.53    2.47  -1
  -4  -3   4   21.53    2.47   2
   4   3   9    3.02    1.83  -1
  -4  -3   5    3.02    1.83   2
   4   3  10   60.94    3.15  -1
  -4  -3   6   60.94    3.15   2
   4   3  11   26.83    2.64  -1
  -4  -3   7   26.83    2.64   2
   4   3  12    4.39    1.84  -1
  -4  -3   8    4.39    1.84   2
   4   3  13   38.26    2.82  -1
  -4  -3   9   38.26    2.82   2
   4   3  14    8.57    1.84  -1
  -4  -3  10    8.57    1.84   2
   4   4  -9    4.62    2.38  -1
  -4  -4 -14    4.62    2.38   2
   4   4  -8    5.44    2.23  -1
  -4  -4 -13    5.44    2.23   2
   4   4  -7   14.05    1.78  -1
  -4  -4 -12   14.05    1.78   2
   4   4  -6    5.48    2.19  -1
  -4  -4 -11    5.48    2.19   2
   4   4  -5    4.65    1.62  -1
  -4  -4 -10    4.65    1.62   2
   4   4  -4    7.37    1.67  -1
  -4  -4  -9    7.37    1.67   2
   4   4  -3   17.47    1.87  -1
  -4  -4  -8   17.47    1.87   2
   4   4  -2   10.01    1.39  -1
  -4  -4  -7   10.01    1.39   2
   4   4  -1   64.03    1.97  -1
  -4  -4  -6   64.03    1.97   2
   4   4   0  129.55    2.39  -1
  -4  -4  -5  129.55    2.39   2
   4   4   1  128.78    1.84  -1
  -4  -4  -4  128.78    1.84   2
  -4  -4  -2  149.87    3.47  -1
   4   4   3  149.87    3.47   2
   4   4   3  216.50    4.63  -1
  -4  -4  -2  216.50    4.63   2
   4   4   4  130.34    2.43  -1
  -4  -4  -1  130.34    2.43   2
   4   4   5  101.94    2.15  -1
  -4  -4   0  101.94    2.15   2
   4   4   6   88.41    2.59  -1
  -4  -4   1   88.41    2.59   2
   4   4   7   12.84    2.94  -1
  -4  -4   2   12.84    2.94   2
   4   4   8   25.93    3.16  -1
  -4  -4   3   25.93    3.16   2
   4   4   9    3.15    1.71  -1
  -4  -4   4    3.15    1.71   2
   4   4  10    4.22    1.69  -1
  -4  -4   5    4.22    1.69   2
   4   4  11    2.32    1.70  -1
  -4  -4   6    2.32    1.70   2
   4   4  12    9.76    2.15  -1
  -4  -4   7    9.76    2.15   2
   4   4  13    5.91    2.78  -1
  -4  -4   8    5.91    2.78   2
   4   7  -4   11.55    2.03  -1
  -4  -7 -11   11.55    2.03   2
   4   7  -3   21.77    2.45  -1
  -4  -7 -10   21.77    2.45   2
  -4  -7   2   39.33    2.24  -1
   4   7   9   39.33    2.24   2
   4   7  -1  166.06    6.34  -1
  -4  -7  -8  166.06    6.34   2
   4   7   0   26.53    2.07  -1
  -4  -7  -7   26.53    2.07   2
  -4  -7  -1  120.11    2.86  -1
   4   7   6  120.11    2.86   2
  -4  -7  -2   26.69    2.04  -1
   4   7   5   26.69    2.04   2
  -4  -7  -3   15.58    2.65  -1
   4   7   4   15.58    2.65   2
  -4  -7  -4   20.24    1.87  -1
   4   7   3   20.24    1.87   2
   4   7   5   32.95    1.30  -1
  -4  -7  -2   32.95    1.30   2
  -4  -7  -6  191.18    5.57  -1
   4   7   1  191.18    5.57   2
  -4  -7  -7   18.77    1.68  -1
   4   7   0   18.77    1.68   2
  -4  -7  -8  123.72    5.01  -1
   4   7  -1  123.72    5.01   2
  -4  -7  -9   64.32    2.73  -1
   4   7  -2   64.32    2.73   2
  -4  -7 -10   14.75    1.68  -1
   4   7  -3   14.75    1.68   2
   4   7  11   12.20    2.21  -1
  -4  -7   4   12.20    2.21   2
   4   8  -4    5.26    0.86  -1
  -4  -8 -12    5.26    0.86   2
   4   8  -3    2.53    1.31  -1
  -4  -8 -11    2.53    1.31   2
   4   8  -2    5.61    1.68  -1
  -4  -8 -10    5.61    1.68   2
  -4  -8   1   15.11    1.44  -1
   4   8   9   15.11    1.44   2
   4   8   0    7.93    1.53  -1
  -4  -8  -8    7.93    1.53   2
  -4  -8  -1  126.28    3.03  -1
   4   8   7  126.28    3.03   2
   4   8   2    5.87    1.43  -1
  -4  -8  -6    5.87    1.43   2
   4   8   3   44.57    2.88  -1
  -4  -8  -5   44.57    2.88   2
   4   8   4    2.83    1.88  -1
  -4  -8  -4    2.83    1.88   2
  -4  -8  -5   44.26    1.85  -1
   4   8   3   44.26    1.85   2
   4   8   6    8.15    1.58  -1
  -4  -8  -2    8.15    1.58   2
   4   8   7  163.94    4.97  -1
  -4  -8  -1  163.94    4.97   2
  -4  -8  -8    6.08    1.43  -1
   4   8   0    6.08    1.43   2
  -4  -8  -9   11.91    1.98  -1
   4   8  -1   11.91    1.98   2
  -4  -8 -10    6.04    1.18  -1
   4   8  -2    6.04    1.18   2
  -4  -8 -11    3.67    1.27  -1
   4   8  -3    3.67    1.27   2
  -4  -8 -12    4.37    1.30  -1
   4   8  -4    4.37    1.30   2
  -4  -8 -13    2.45    1.15  -1
   4   8  -5    2.45    1.15   2
  -4  -9  -1    7.44    1.57  -1
   4   9   8    7.44    1.57   2
  -4  -9  -2   14.31    1.68  -1
   4   9   7   14.31    1.68   2
  -4  -9  -3   16.05    1.69  -1
   4   9   6   16.05    1.69   2
   4   9   4   36.66    2.16  -1
  -4  -9  -5   36.66    2.16   2
  -4  -9  -5   49.24    1.15  -1
   4   9   4   49.24    1.15   2
  -4  -9  -6   10.55    0.99  -1
   4   9   3   10.55    0.99   2
  -4  -9  -7   13.86    2.06  -1
   4   9   2   13.86    2.06   2
  -4  -9  -8    6.94    1.67  -1
   4   9   1    6.94    1.67   2
   5  -4  -7    6.62    1.87  -1
  -5   4  -6    6.62    1.87   2
   5  -4  -6    9.41    3.02  -1
  -5   4  -5    9.41    3.02   2
   5  -4  -5    5.16    2.63  -1
  -5   4  -4    5.16    2.63   2
   5  -4  -4    3.21    2.85  -1
  -5   4  -3    3.21    2.85   2
   5  -4   1    4.85    1.27  -1
  -5   4   2    4.85    1.27   2
   5  -4   2    2.94    2.22  -1
  -5   4   3    2.94    2.22   2
   5  -4   3    1.48    1.58  -1
  -5   4   4    1.48    1.58   2
   5  -4   4    4.23    1.32  -1
  -5   4   5    4.23    1.32   2
   5  -4   5    7.08    2.44  -1
  -5   4   6    7.08    2.44   2
   5  -4   7    5.43    2.77  -1
  -5   4   8    5.43    2.77   2
   5  -3  -9    7.87    2.40  -1
  -5   3  -9    7.87    2.40   2
   5  -3  -8    8.30    1.56  -1
  -5   3  -8    8.30    1.56   2
   5  -3  -7    4.70    2.02  -1
  -5   3  -7    4.70    2.02   2
   5  -3  -6    4.37    1.72  -1
  -5   3  -6    4.37    1.72   2
   5  -3  -5   25.02    2.39  -1
  -5   3  -5   25.02    2.39   2
   5  -3  -4    4.66    1.48  -1
  -5   3  -4    4.66    1.48   2
   5  -3  -3    2.81    1.85  -1
  -5   3  -3    2.81    1.85   2
   5  -3  -2    5.64    2.02  -1
  -5   3  -2    5.64    2.02   2
   5  -3  -1    4.86    1.55  -1
  -5   3  -1    4.86    1.55   2
   5  -3   0   12.63    2.06  -1
  -5   3   0   12.63    2.06   2
   5  -3   1    3.09    1.11  -1
  -5   3   1    3.09    1.11   2
   5  -3   2    3.83    1.14  -1
  -5   3   2    3.83    1.14   2
   5  -3   3    3.52    1.24  -1
  -5   3   3    3.52    1.24   2
   5  -3   4    2.94    1.19  -1
  -5   3   4    2.94    1.19   2
   5  -3   5   35.70    2.60  -1
  -5   3   5   35.70    2.60   2
   5  -3   6    3.21    1.16  -1
  -5   3   6    3.21    1.16   2
   5  -3   7    3.02    1.52  -1
  -5   3   7    3.02    1.52   2
   5  -3   8    7.16    2.24  -1
  -5   3   8    7.16    2.24   2
   5  -3   9    6.08    2.21  -1
  -5   3   9    6.08    2.21   2
   5  -2  -5   25.11    2.70  -1
  -5   2  -6   25.11    2.70   2
   5  -2  -4   67.18    3.03  -1
  -5   2  -5   67.18    3.03   2
   5  -2  -3   11.17    2.38  -1
  -5   2  -4   11.17    2.38   2
   5  -2  -2    4.21    1.57  -1
  -5   2  -3    4.21    1.57   2
   5  -2  -1    5.36    2.19  -1
  -5   2  -2    5.36    2.19   2
   5  -2   0   21.83    2.40  -1
  -5   2  -1   21.83    2.40   2
   5  -2   1   16.80    2.50  -1
  -5   2   0   16.80    2.50   2
   5  -2   4   13.90    2.40  -1
  -5   2   3   13.90    2.40   2
   5  -2   5   59.97    3.41  -1
  -5   2   4   59.97    3.41   2
   5  -2   8    8.28    1.78  -1
  -5   2   7    8.28    1.78   2
   5   0  -4   12.20    2.42  -1
  -5   0  -6   12.20    2.42   2
   5   0  -3   20.76    2.50  -1
  -5   0  -5   20.76    2.50   2
   5   0  -1   39.35    2.88  -1
  -5   0  -3   39.35    2.88   2
   5   0   0   31.72    4.43  -1
  -5   0  -2   31.72    4.43   2
   5   0   1   42.89    3.99  -1
  -5   0  -1   42.89    3.99   2
   5   0   2   32.40    2.29  -1
  -5   0   0   32.40    2.29   2
   5   0   3   40.05    2.04  -1
  -5   0   1   40.05    2.04   2
   5   0   4   22.05    1.35  -1
  -5   0   2   22.05    1.35   2
   5   0   7   18.29    2.34  -1
  -5   0   5   18.29    2.34   2
   5   0   8    5.47    2.41  -1
  -5   0   6    5.47    2.41   2
   5   1 -10    6.85    1.51  -1
  -5  -1 -13    6.85    1.51   2
   5   1  -9   40.81    3.44  -1
  -5  -1 -12   40.81    3.44   2
   5   1  -8   29.16    3.04  -1
  -5  -1 -11   29.16    3.04   2
   5   1  -7   18.21    2.15  -1
  -5  -1 -10   18.21    2.15   2
   5   1  -6    5.20    2.14  -1
  -5  -1  -9    5.20    2.14   2
   5   1  -5   30.53    2.45  -1
  -5  -1  -8   30.53    2.45   2
   5   1  -4   22.37    2.49  -1
  -5  -1  -7   22.37    2.49   2
   5   1  -3   14.36    1.56  -1
  -5  -1  -6   14.36    1.56   2
   5   1  -2   58.05    3.93  -1
  -5  -1  -5   58.05    3.93   2
   5   1  -1   25.90    2.14  -1
  -5  -1  -4   25.90    2.14   2
   5   1   0    6.57    1.69  -1
  -5  -1  -3    6.57    1.69   2
   5   1   1  105.17    2.38  -1
  -5  -1  -2  105.17    2.38   2
   5   1   2   55.35    1.87  -1
  -5  -1  -1   55.35    1.87   2
   5   1   3    9.70    1.40  -1
  -5  -1   0    9.70    1.40   2
   5   1   4   25.07    1.99  -1
  -5  -1   1   25.07    1.99   2
   5   1   5   40.77    2.35  -1
  -5  -1   2   40.77    2.35   2
   5   1   6   11.50    1.61  -1
  -5  -1   3   11.50    1.61   2
   5   1   7   23.19    2.38  -1
  -5  -1   4   23.19    2.38   2
   5   1   8   19.79    2.39  -1
  -5  -1   5   19.79    2.39   2
   5   1   9    4.56    1.47  -1
  -5  -1   6    4.56    1.47   2
   5   1  10   22.49    3.34  -1
  -5  -1   7   22.49    3.34   2
   5   1  11   24.47    1.72  -1
  -5  -1   8   24.47    1.72   2
   5   1  12   30.81    2.18  -1
  -5  -1   9   30.81    2.18   2
   5   1  13    4.72    2.20  -1
  -5  -1  10    4.72    2.20   2
   5   2  -7   42.13    3.60  -1
  -5  -2 -11   42.13    3.60   2
   5   2  -6    5.22    2.06  -1
  -5  -2 -10    5.22    2.06   2
   5   2  -5   10.65    1.85  -1
  -5  -2  -9   10.65    1.85   2
   5   2  -4   20.56    3.21  -1
  -5  -2  -8   20.56    3.21   2
   5   2  -3   51.28    4.13  -1
  -5  -2  -7   51.28    4.13   2
   5   2  -2   43.19    2.31  -1
  -5  -2  -6   43.19    2.31   2
   5   2  -1    7.76    1.38  -1
  -5  -2  -5    7.76    1.38   2
   5   2   0   21.34    1.82  -1
  -5  -2  -4   21.34    1.82   2
   5   2   1   52.21    2.23  -1
  -5  -2  -3   52.21    2.23   2
   5   2   2   10.35    2.09  -1
  -5  -2  -2   10.35    2.09   2
   5   2   3   81.83    3.69  -1
  -5  -2  -1   81.83    3.69   2
   5   2   4   30.94    2.29  -1
  -5  -2   0   30.94    2.29   2
   5   2   5   10.41    1.80  -1
  -5  -2   1   10.41    1.80   2
   5   2   6   39.15    2.16  -1
  -5  -2   2   39.15    2.16   2
   5   2   7   62.36    3.13  -1
  -5  -2   3   62.36    3.13   2
   5   2   8   14.00    2.16  -1
  -5  -2   4   14.00    2.16   2
   5   2   9    4.85    4.62  -1
  -5  -2   5    4.85    4.62   2
   5   2  10    3.17    2.04  -1
  -5  -2   6    3.17    2.04   2
   5   2  11   72.91    3.53  -1
  -5  -2   7   72.91    3.53   2
   5   2  12   14.42    1.50  -1
  -5  -2   8   14.42    1.50   2
   5   4   0   26.55    2.52  -1
  -5  -4  -5   26.55    2.52   2
   5   5  -7    3.39    1.49  -1
  -5  -5 -13    3.39    1.49   2
   5   5  -6   21.94    2.81  -1
  -5  -5 -12   21.94    2.81   2
   5   5  -5   35.81    2.85  -1
  -5  -5 -11   35.81    2.85   2
   5   5  -4   54.38    3.66  -1
  -5  -5 -10   54.38    3.66   2
   5   5  -3    5.67    2.10  -1
  -5  -5  -9    5.67    2.10   2
   5   5  -2   30.32    2.99  -1
  -5  -5  -8   30.32    2.99   2
   5   5  -1   22.04    2.41  -1
  -5  -5  -7   22.04    2.41   2
   5   5   0   13.83    2.25  -1
  -5  -5  -6   13.83    2.25   2
   5   5   1   18.25    1.64  -1
  -5  -5  -5   18.25    1.64   2
   5   5   2    4.28    1.53  -1
  -5  -5  -4    4.28    1.53   2
   5   5   3   30.50    3.02  -1
  -5  -5  -3   30.50    3.02   2
   5   5   4    4.98    1.64  -1
  -5  -5  -2    4.98    1.64   2
   5   5   5   16.27    1.47  -1
  -5  -5  -1   16.27    1.47   2
   5   5   6   19.38    2.02  -1
  -5  -5   0   19.38    2.02   2
   5   5   7   20.74    2.43  -1
  -5  -5   1   20.74    2.43   2
   5   5   8   47.64    4.17  -1
  -5  -5   2   47.64    4.17   2
   5   5   9    4.26    2.26  -1
  -5  -5   3    4.26    2.26   2
   5   5  10   47.64    2.83  -1
  -5  -5   4   47.64    2.83   2
   5   5  11   25.88    2.74  -1
  -5  -5   5   25.88    2.74   2
   5   5  12   16.34    2.16  -1
  -5  -5   6   16.34    2.16   2
   5   5  13    0.01    1.89  -1
  -5  -5   7    0.01    1.89   2
   5   6  -6   11.57    1.45  -1
  -5  -6 -13   11.57    1.45   2
   5   6  -5    6.11    2.11  -1
  -5  -6 -12    6.11    2.11   2
   5   6  -4   75.74    4.23  -1
  -5  -6 -11   75.74    4.23   2
   5   6  -3   51.50    4.02  -1
  -5  -6 -10   51.50    4.02   2
   5   6  -2   86.46    5.03  -1
  -5  -6  -9   86.46    5.03   2
   5   6  -1   29.75    2.17  -1
  -5  -6  -8   29.75    2.17   2
   5   6   0   21.83    1.83  -1
  -5  -6  -7   21.83    1.83   2
   5   6   1    6.27    2.18  -1
  -5  -6  -6    6.27    2.18   2
   5   6   2    7.42    1.83  -1
  -5  -6  -5    7.42    1.83   2
   5   6   3    4.00    1.60  -1
  -5  -6  -4    4.00    1.60   2
   5   6   4    3.60    1.88  -1
  -5  -6  -3    3.60    1.88   2
   5   6   5    9.96    1.73  -1
  -5  -6  -2    9.96    1.73   2
   5   6   6    5.12    1.97  -1
  -5  -6  -1    5.12    1.97   2
   5   6   7   16.16    2.15  -1
  -5  -6   0   16.16    2.15   2
   5   6   8   19.36    1.57  -1
  -5  -6   1   19.36    1.57   2
   5   6   9  144.56    7.29  -1
  -5  -6   2  144.56    7.29   2
   5   6  10   52.34    4.36  -1
  -5  -6   3   52.34    4.36   2
   5   6  11   71.37    3.49  -1
  -5  -6   4   71.37    3.49   2
   5   6  12   10.42    2.02  -1
  -5  -6   5   10.42    2.02   2
   5   6  13    6.11    1.78  -1
  -5  -6   6    6.11    1.78   2
   5   7   2   75.09    3.07  -1
  -5  -7  -6   75.09    3.07   2
   5   8   1    9.08    2.45  -1
  -5  -8  -7    9.08    2.45   2
  -5  -8  -2   61.94    2.11  -1
   5   8   6   61.94    2.11   2
   5   9   0    4.36    2.59  -1
  -5  -9  -9    4.36    2.59   2
   5   9   1   12.96    1.72  -1
  -5  -9  -8   12.96    1.72   2
   5   9   2    4.59    2.07  -1
  -5  -9  -7    4.59    2.07   2
   5   9   3   12.64    2.40  -1
  -5  -9  -6   12.64    2.40   2
  -5  -9  -4   23.33    1.85  -1
   5   9   5   23.33    1.85   2
  -5  -9  -5   35.49    2.28  -1
   5   9   4   35.49    2.28   2
  -5  -9  -6   12.54    1.32  -1
   5   9   3   12.54    1.32   2
   5   9   7    2.73    1.73  -1
  -5  -9  -2    2.73    1.73   2
  -5  -9  -8   10.72    1.91  -1
   5   9   1   10.72    1.91   2
   5   9   9    4.03    0.98  -1
  -5  -9   0    4.03    0.98   2
  -5  -9 -10    8.73    1.42  -1
   5   9  -1    8.73    1.42   2
  -5 -10  -2    3.02    1.21  -1
   5  10   8    3.02    1.21   2
  -5 -10  -3    5.37    1.11  -1
   5  10   7    5.37    1.11   2
  -5 -10  -4    3.42    0.75  -1
   5  10   6    3.42    0.75   2
  -5 -10  -5    7.25    0.88  -1
   5  10   5    7.25    0.88   2
  -5 -10  -6    3.72    1.09  -1
   5  10   4    3.72    1.09   2
  -5 -10  -7    4.50    0.92  -1
   5  10   3    4.50    0.92   2
  -5 -10  -8    2.00    1.04  -1
   5  10   2    2.00    1.04   2
   6  -2  -5   10.56    2.39  -1
  -6   2  -6   10.56    2.39   2
   6  -2  -4    7.06    2.39  -1
  -6   2  -5    7.06    2.39   2
   6  -2  -3    4.05    1.95  -1
  -6   2  -4    4.05    1.95   2
   6  -2  -2    3.68    1.64  -1
  -6   2  -3    3.68    1.64   2
   6  -2  -1    5.54    1.43  -1
  -6   2  -2    5.54    1.43   2
   6  -2   0    7.33    1.79  -1
  -6   2  -1    7.33    1.79   2
   6  -2   1    4.23    2.64  -1
  -6   2   0    4.23    2.64   2
   6  -2   2    3.42    2.05  -1
  -6   2   1    3.42    2.05   2
   6  -2   4    2.26    3.54  -1
  -6   2   3    2.26    3.54   2
   6  -2   5    4.74    1.38  -1
  -6   2   4    4.74    1.38   2
   6  -2   6    3.66    1.95  -1
  -6   2   5    3.66    1.95   2
   6  -2   7    5.64    2.59  -1
  -6   2   6    5.64    2.59   2
   6  -1  -7    7.04    2.16  -1
  -6   1  -9    7.04    2.16   2
   6  -1  -6    5.62    1.32  -1
  -6   1  -8    5.62    1.32   2
   6  -1  -5    6.79    2.00  -1
  -6   1  -7    6.79    2.00   2
   6  -1  -4    8.98    1.81  -1
  -6   1  -6    8.98    1.81   2
   6  -1  -3   12.69    1.75  -1
  -6   1  -5   12.69    1.75   2
   6  -1  -2   20.27    1.87  -1
  -6   1  -4   20.27    1.87   2
   6  -1  -1   10.68    2.02  -1
  -6   1  -3   10.68    2.02   2
   6  -1   0   37.13    1.22  -1
  -6   1  -2   37.13    1.22   2
   6  -1   1   72.01    3.15  -1
  -6   1  -1   72.01    3.15   2
   6  -1   2   34.11    3.14  -1
  -6   1   0   34.11    3.14   2
   6  -1   3    5.46    2.75  -1
  -6   1   1    5.46    2.75   2
   6  -1   4   24.80    2.19  -1
  -6   1   2   24.80    2.19   2
   6  -1   5   14.23    1.74  -1
  -6   1   3   14.23    1.74   2
   6  -1   6    8.25    1.26  -1
  -6   1   4    8.25    1.26   2
   6  -1   7    5.08    1.53  -1
  -6   1   5    5.08    1.53   2
   6  -1   8    2.90    1.41  -1
  -6   1   6    2.90    1.41   2
   6  -1   9    4.05    1.88  -1
  -6   1   7    4.05    1.88   2
   6   0  -3    5.70    2.44  -1
  -6   0  -6    5.70    2.44   2
   6   0  -2    4.72    1.47  -1
  -6   0  -5    4.72    1.47   2
   6   0  -1   14.55    2.52  -1
  -6   0  -4   14.55    2.52   2
   6   0   1  387.53    5.56  -1
  -6   0  -2  387.53    5.56   2
   6   0   2  356.47    3.05  -1
  -6   0  -1  356.47    3.05   2
   6   0   3   20.44    2.01  -1
  -6   0   0   20.44    2.01   2
   6   0   4    8.58    2.22  -1
  -6   0   1    8.58    2.22   2
   6   0   5    3.59    2.21  -1
  -6   0   2    3.59    2.21   2
   6   0   8    5.73    1.80  -1
  -6   0   5    5.73    1.80   2
   6   2  -4    4.20    1.66  -1
  -6  -2  -8    4.20    1.66   2
   6   2  -3   28.27    2.69  -1
  -6  -2  -7   28.27    2.69   2
   6   2  -2   16.16    2.36  -1
  -6  -2  -6   16.16    2.36   2
   6   2  -1    3.66    2.01  -1
  -6  -2  -5    3.66    2.01   2
   6   2   0   14.27    2.40  -1
  -6  -2  -4   14.27    2.40   2
   6   2   1   13.11    2.29  -1
  -6  -2  -3   13.11    2.29   2
   6   2   2   20.46    2.21  -1
  -6  -2  -2   20.46    2.21   2
   6   2   3   16.23    2.12  -1
  -6  -2  -1   16.23    2.12   2
   6   2   4   14.74    2.31  -1
  -6  -2   0   14.74    2.31   2
   6   2   5    4.83    1.19  -1
  -6  -2   1    4.83    1.19   2
   6   2   6   14.76    2.75  -1
  -6  -2   2   14.76    2.75   2
   6   2   7   37.63    2.27  -1
  -6  -2   3   37.63    2.27   2
   6   3  -7    5.50    1.44  -1
  -6  -3 -12    5.50    1.44   2
   6   3  -6    4.33    1.52  -1
  -6  -3 -11    4.33    1.52   2
   6   3  -5   11.46    1.74  -1
  -6  -3 -10   11.46    1.74   2
   6   3  -4    9.20    2.00  -1
  -6  -3  -9    9.20    2.00   2
   6   3  -3    3.04    1.79  -1
  -6  -3  -8    3.04    1.79   2
   6   3  -2   17.98    2.58  -1
  -6  -3  -7   17.98    2.58   2
   6   3  -1   12.24    1.59  -1
  -6  -3  -6   12.24    1.59   2
   6   3   0   16.35    2.02  -1
  -6  -3  -5   16.35    2.02   2
   6   3   1    5.50    2.01  -1
  -6  -3  -4    5.50    2.01   2
   6   3   2    3.75    1.61  -1
  -6  -3  -3    3.75    1.61   2
   6   3   3    3.76    1.39  -1
  -6  -3  -2    3.76    1.39   2
   6   3   4    6.28    1.59  -1
  -6  -3  -1    6.28    1.59   2
   6   3   5   20.98    2.12  -1
  -6  -3   0   20.98    2.12   2
   6   3   6   10.51    1.85  -1
  -6  -3   1   10.51    1.85   2
   6   3   7   22.49    2.39  -1
  -6  -3   2   22.49    2.39   2
   6   3   8    2.13    1.47  -1
  -6  -3   3    2.13    1.47   2
   6   3   9   10.49    1.67  -1
  -6  -3   4   10.49    1.67   2
   6   3  10   15.91    1.69  -1
  -6  -3   5   15.91    1.69   2
   6   3  11    4.68    1.18  -1
  -6  -3   6    4.68    1.18   2
   6   3  12    5.59    1.19  -1
  -6  -3   7    5.59    1.19   2
   6   4  -5    7.98    2.42  -1
  -6  -4 -11    7.98    2.42   2
   6   4  -4    3.59    1.93  -1
  -6  -4 -10    3.59    1.93   2
   6   4  -3   11.90    2.61  -1
  -6  -4  -9   11.90    2.61   2
   6   4  -2    5.53    2.03  -1
  -6  -4  -8    5.53    2.03   2
   6   4  -1    6.86    2.38  -1
  -6  -4  -7    6.86    2.38   2
   6   4   0   10.22    2.22  -1
  -6  -4  -6   10.22    2.22   2
   6   4   1   68.38    3.69  -1
  -6  -4  -5   68.38    3.69   2
   6   4   2   51.98    3.61  -1
  -6  -4  -4   51.98    3.61   2
   6   4   3   30.11    2.58  -1
  -6  -4  -3   30.11    2.58   2
   6   4   4   78.45    3.80  -1
  -6  -4  -2   78.45    3.80   2
   6   4   5   50.29    2.47  -1
  -6  -4  -1   50.29    2.47   2
   6   4   6   14.38    2.70  -1
  -6  -4   0   14.38    2.70   2
   6   4   7    4.17    2.52  -1
  -6  -4   1    4.17    2.52   2
   6   4   8    4.82    2.00  -1
  -6  -4   2    4.82    2.00   2
   6   4   9    8.90    2.52  -1
  -6  -4   3    8.90    2.52   2
   6   4  10    1.79    1.60  -1
  -6  -4   4    1.79    1.60   2
   6   6  -1   57.62    2.93  -1
  -6  -6  -8   57.62    2.93   2
   6   6   0   30.84    2.50  -1
  -6  -6  -7   30.84    2.50   2
   6   6   1    5.06    2.51  -1
  -6  -6  -6    5.06    2.51   2
   6   6   2    2.91    2.43  -1
  -6  -6  -5    2.91    2.43   2
   6   6   3   21.79    1.87  -1
  -6  -6  -4   21.79    1.87   2
   6   7  -3    7.75    2.01  -1
  -6  -7 -11    7.75    2.01   2
   6   7  -2   11.82    2.78  -1
  -6  -7 -10   11.82    2.78   2
   6   7  -1   60.17    2.69  -1
  -6  -7  -9   60.17    2.69   2
   6   7   0   73.48    3.95  -1
  -6  -7  -8   73.48    3.95   2
   6   7   1    7.44    1.61  -1
  -6  -7  -7    7.44    1.61   2
   6   7   2   83.38    3.31  -1
  -6  -7  -6   83.38    3.31   2
   6   7   3    5.69    1.58  -1
  -6  -7  -5    5.69    1.58   2
   6   7   4    2.68    1.57  -1
  -6  -7  -4    2.68    1.57   2
   6   7   5    3.99    1.57  -1
  -6  -7  -3    3.99    1.57   2
   6   7   6  131.97    3.62  -1
  -6  -7  -2  131.97    3.62   2
   6   7   7   10.19    1.57  -1
  -6  -7  -1   10.19    1.57   2
   6   7   8   50.62    2.64  -1
  -6  -7   0   50.62    2.64   2
   6   7   9   52.87    3.35  -1
  -6  -7   1   52.87    3.35   2
   6   7  10   14.86    1.16  -1
  -6  -7   2   14.86    1.16   2
   6   7  11   15.01    1.88  -1
  -6  -7   3   15.01    1.88   2
   6   8  -1    7.51    2.79  -1
  -6  -8 -10    7.51    2.79   2
   6   8   0    4.80    2.38  -1
  -6  -8  -9    4.80    2.38   2
   6   8   1   28.27    2.18  -1
  -6  -8  -8   28.27    2.18   2
   6   8   2   35.54    2.32  -1
  -6  -8  -7   35.54    2.32   2
   6   8   3   24.41    2.83  -1
  -6  -8  -6   24.41    2.83   2
   6   8   4    9.96    2.07  -1
  -6  -8  -5    9.96    2.07   2
   6   8   5   10.25    1.22  -1
  -6  -8  -4   10.25    1.22   2
   6   8   6   18.55    1.33  -1
  -6  -8  -3   18.55    1.33   2
   6   8   7   26.11    1.75  -1
  -6  -8  -2   26.11    1.75   2
   6   8   8   20.69    1.68  -1
  -6  -8  -1   20.69    1.68   2
   6   8   9    5.16    1.80  -1
  -6  -8   0    5.16    1.80   2
   6   9   4    5.21    1.26  -1
  -6  -9  -6    5.21    1.26   2
   6   9   5   45.67    2.12  -1
  -6  -9  -5   45.67    2.12   2
   7  -2   3    2.40    2.50  -1
  -7   2   1    2.40    2.50   2
   7   0  -4   10.69    3.32  -1
  -7   0  -7   10.69    3.32   2
   7   0  -3   10.65    2.36  -1
  -7   0  -6   10.65    2.36   2
   7   0  -2    5.23    2.38  -1
  -7   0  -5    5.23    2.38   2
   7   0  -1    4.14    1.62  -1
  -7   0  -4    4.14    1.62   2
   7   0   0   25.03    2.17  -1
  -7   0  -3   25.03    2.17   2
   7   0   1   14.63    2.19  -1
  -7   0  -2   14.63    2.19   2
   7   0   2   25.64    3.43  -1
  -7   0  -1   25.64    3.43   2
   7   0   3   14.68    2.00  -1
  -7   0   0   14.68    2.00   2
   7   0   4    2.80    1.58  -1
  -7   0   1    2.80    1.58   2
   7   0   5    3.81    1.74  -1
  -7   0   2    3.81    1.74   2
   7   0   6    4.56    1.96  -1
  -7   0   3    4.56    1.96   2
   7   1  -5   10.97    2.65  -1
  -7  -1  -9   10.97    2.65   2
   7   1  -4   12.03    3.42  -1
  -7  -1  -8   12.03    3.42   2
   7   1  -3    8.13    2.64  -1
  -7  -1  -7    8.13    2.64   2
   7   1  -2    6.76    1.79  -1
  -7  -1  -6    6.76    1.79   2
   7   1  -1    5.05    1.42  -1
  -7  -1  -5    5.05    1.42   2
   7   1   0   10.53    1.69  -1
  -7  -1  -4   10.53    1.69   2
   7   1   1   26.96    1.90  -1
  -7  -1  -3   26.96    1.90   2
   7   1   2    5.51    1.64  -1
  -7  -1  -2    5.51    1.64   2
   7   1   3   17.70    2.40  -1
  -7  -1  -1   17.70    2.40   2
   7   1   4    8.90    1.94  -1
  -7  -1   0    8.90    1.94   2
   7   1   5    4.82    1.18  -1
  -7  -1   1    4.82    1.18   2
   7   1   6    5.30    1.36  -1
  -7  -1   2    5.30    1.36   2
   7   1   7    7.43    1.96  -1
  -7  -1   3    7.43    1.96   2
   7   1   8    9.45    1.91  -1
  -7  -1   4    9.45    1.91   2
   7   1   9    6.00    1.19  -1
  -7  -1   5    6.00    1.19   2
   7   2  -2   12.93    2.08  -1
  -7  -2  -7   12.93    2.08   2
   7   2  -1   13.58    1.20  -1
  -7  -2  -6   13.58    1.20   2
   7   2   0    7.97    1.79  -1
  -7  -2  -5    7.97    1.79   2
   7   2   1    2.80    2.17  -1
  -7  -2  -4    2.80    2.17   2
   7   2   2   16.00    3.04  -1
  -7  -2  -3   16.00    3.04   2
   7   2   3   17.76    2.27  -1
  -7  -2  -2   17.76    2.27   2
   7   2   4    1.85    2.09  -1
  -7  -2  -1    1.85    2.09   2
   7   2   5    9.44    2.26  -1
  -7  -2   0    9.44    2.26   2
   7   2   6   14.12    2.05  -1
  -7  -2   1   14.12    2.05   2
   7   2   7   10.78    1.79  -1
  -7  -2   2   10.78    1.79   2
   7   2   8    8.48    1.97  -1
  -7  -2   3    8.48    1.97   2
   7   4  -3    5.56    2.15  -1
  -7  -4  -9    5.56    2.15   2
   7   4  -2    4.09    2.05  -1
  -7  -4  -8    4.09    2.05   2
   7   4  -1    1.67    1.65  -1
  -7  -4  -7    1.67    1.65   2
   7   4   0   15.14    2.38  -1
  -7  -4  -6   15.14    2.38   2
   7   4   1    7.49    2.14  -1
  -7  -4  -5    7.49    2.14   2
   7   4   2    9.48    1.74  -1
  -7  -4  -4    9.48    1.74   2
   7   4   3   16.15    1.92  -1
  -7  -4  -3   16.15    1.92   2
   7   4   4   10.00    1.92  -1
  -7  -4  -2   10.00    1.92   2
   7   4   5    5.90    1.80  -1
  -7  -4  -1    5.90    1.80   2
   7   4   6    9.45    1.87  -1
  -7  -4   0    9.45    1.87   2
   7   4   7    1.71    2.09  -1
  -7  -4   1    1.71    2.09   2
   7   4   8    3.31    1.45  -1
  -7  -4   2    3.31    1.45   2
   7   4   9    5.81    4.33  -1
  -7  -4   3    5.81    4.33   2
   7   5  -3   14.65    2.28  -1
  -7  -5 -10   14.65    2.28   2
   7   5  -2   11.56    1.85  -1
  -7  -5  -9   11.56    1.85   2
   7   5  -1    5.55    1.26  -1
  -7  -5  -8    5.55    1.26   2
   7   5   0    2.93    1.15  -1
  -7  -5  -7    2.93    1.15   2
   7   5   1   13.26    1.70  -1
  -7  -5  -6   13.26    1.70   2
   7   5   2    4.84    1.33  -1
  -7  -5  -5    4.84    1.33   2
   7   5   3    8.41    1.93  -1
  -7  -5  -4    8.41    1.93   2
   7   5   4    9.19    1.27  -1
  -7  -5  -3    9.19    1.27   2
   7   5   5    3.49    1.18  -1
  -7  -5  -2    3.49    1.18   2
   7   5   6   13.35    1.77  -1
  -7  -5  -1   13.35    1.77   2
   7   5   7    2.80    1.15  -1
  -7  -5   0    2.80    1.15   2
   7   5   8    6.89    1.47  -1
  -7  -5   1    6.89    1.47   2
   7   5   9   16.21    1.82  -1
  -7  -5   2   16.21    1.82   2
   7   5  10   17.24    1.00  -1
  -7  -5   3   17.24    1.00   2
   7   6  -1   18.03    1.28  -1
  -7  -6  -9   18.03    1.28   2
   7   6   0   28.71    2.34  -1
  -7  -6  -8   28.71    2.34   2
   7   6   1   12.87    1.96  -1
  -7  -6  -7   12.87    1.96   2
   7   6   2    3.17    1.76  -1
  -7  -6  -6    3.17    1.76   2
   7   6   3   13.12    2.24  -1
  -7  -6  -5   13.12    2.24   2
   7   6   4    2.91    1.58  -1
  -7  -6  -4    2.91    1.58   2
   7   6   5   19.11    2.48  -1
  -7  -6  -3   19.11    2.48   2
   7   6   6    1.84    1.76  -1
  -7  -6  -2    1.84    1.76   2
   7   6   9   33.17    2.71  -1
  -7  -6   1   33.17    2.71   2
   7   7   3   26.88    2.29  -1
  -7  -7  -6   26.88    2.29   2
   7   8   2   20.53    3.08  -1
  -7  -8  -7   20.53    3.08   2
   7   8   3   22.21    3.61  -1
  -7  -8  -6   22.21    3.61   2
   7   8   4    3.00    1.46  -1
  -7  -8  -5    3.00    1.46   2
   7   8   7   38.99    3.39  -1
  -7  -8  -2   38.99    3.39   2
   8   2   1    2.65    0.88  -1
  -8  -2  -4    2.65    0.88   2
   8   2   2    8.93    3.11  -1
  -8  -2  -3    8.93    3.11   2
   8   2   3    9.64    1.80  -1
  -8  -2  -2    9.64    1.80   2
   8   2   4    4.47    1.45  -1
  -8  -2  -1    4.47    1.45   2
   8   3   1    7.30    2.54  -1
  -8  -3  -5    7.30    2.54   2
   8   3   2    5.55    1.74  -1
  -8  -3  -4    5.55    1.74   2
   8   3   3    3.80    1.35  -1
  -8  -3  -3    3.80    1.35   2
   8   3   4    6.62    2.32  -1
  -8  -3  -2    6.62    2.32   2
   8   3   5    5.08    2.06  -1
  -8  -3  -1    5.08    2.06   2
   8   3   6    4.43    1.88  -1
  -8  -3   0    4.43    1.88   2
   8   4   1   24.32    2.82  -1
  -8  -4  -6   24.32    2.82   2
   8   4   2    2.47    3.53  -1
  -8  -4  -5    2.47    3.53   2
   8   4   3   21.46    2.65  -1
  -8  -4  -4   21.46    2.65   2
   8   4   4   25.65    3.09  -1
  -8  -4  -3   25.65    3.09   2
   8   4   5    4.43    2.63  -1
  -8  -4  -2    4.43    2.63   2
   8   5   4    8.44    3.17  -1
  -8  -5  -3    8.44    3.17   2
;
_shelx_hkl_checksum              89653
loop_
_space_group_symop_operation_xyz
'x, y, z'
'-x, -y, -z'
loop_
_atom_site_label
_atom_site_type_symbol
_atom_site_fract_x
_atom_site_fract_y
_atom_site_fract_z
_atom_site_U_iso_or_equiv
_atom_site_adp_type
_atom_site_occupancy
_atom_site_site_symmetry_order
_atom_site_calc_flag
_atom_site_refinement_flags_posn
_atom_site_refinement_flags_adp
_atom_site_refinement_flags_occupancy
_atom_site_disorder_assembly
_atom_site_disorder_group
O1 O 0.9314(4) 0.2632(3) 0.7281(2) 0.0394(7) Uani 1 1 d . . . . .
O2 O 0.8237(4) 0.0229(3) 0.8836(2) 0.0393(7) Uani 1 1 d . . . . .
O3 O 0.8853(5) -0.2474(3) 0.8325(2) 0.0482(8) Uani 1 1 d . . . . .
N1 N 0.8898(5) 0.0123(3) 0.7773(2) 0.0331(7) Uani 1 1 d . . . . .
C1 C 0.9085(6) -0.1334(4) 0.7571(3) 0.0348(8) Uani 1 1 d . . . . .
C2 C 0.9360(6) 0.1458(4) 0.7004(3) 0.0335(8) Uani 1 1 d . . . . .
C3 C 0.9787(5) 0.1399(4) 0.5835(3) 0.0291(8) Uani 1 1 d . . . . .
C4 C 1.0040(6) 0.2732(4) 0.5003(3) 0.0331(8) Uani 1 1 d . . . . .
H4 H 0.9980 0.3675 0.5185 0.040 Uiso 1 1 calc R U . . .
C5 C 1.0387(6) 0.2712(4) 0.3887(3) 0.0325(8) Uani 1 1 d . . . . .
H5A H 1.0562 0.3641 0.3324 0.039 Uiso 1 1 calc R U . . .
C6 C 1.0473(6) 0.1368(4) 0.3607(3) 0.0318(8) Uani 1 1 d . . . . .
C7 C 1.0174(5) -0.0011(4) 0.4441(3) 0.0288(8) Uani 1 1 d . . . . .
O4 O 0.4227(4) 0.4280(3) 0.8444(2) 0.0432(7) Uani 1 1 d . . . . .
O5 O 0.4207(5) 0.1314(3) 0.8655(2) 0.0433(7) Uani 1 1 d . . . . .
H5 H 0.576(9) 0.084(6) 0.881(4) 0.086(17) Uiso 1 1 d . . . . .
O6 O 0.4408(4) 0.0436(3) 0.6835(2) 0.0404(7) Uani 1 1 d . . . . .
N2 N 0.4386(5) 0.2370(3) 0.7618(2) 0.0346(7) Uani 1 1 d . . . . .
C8 C 0.4478(6) 0.1790(4) 0.6713(3) 0.0347(9) Uani 1 1 d . . . . .
C9 C 0.4412(6) 0.3899(4) 0.7593(3) 0.0339(8) Uani 1 1 d . . . . .
C10 C 0.4688(5) 0.4990(4) 0.6483(3) 0.0326(8) Uani 1 1 d . . . . .
C11 C 0.4845(6) 0.4479(4) 0.5530(3) 0.0317(8) Uani 1 1 d . . . . .
C12 C 0.4801(6) 0.6514(4) 0.6376(3) 0.0347(9) Uani 1 1 d . . . . .
H12 H 0.4693 0.6856 0.7019 0.042 Uiso 1 1 calc R U . . .
C13 C 0.5072(6) 0.7550(4) 0.5334(3) 0.0339(9) Uani 1 1 d . . . . .
H13 H 0.5130 0.8597 0.5275 0.041 Uiso 1 1 calc R U . . .
C14 C 0.5258(6) 0.7086(4) 0.4388(3) 0.0316(8) Uani 1 1 d . . . . .
N3 N 0.8852(5) 0.2340(3) 0.9819(3) 0.0384(8) Uani 1 1 d . . . . .
H3A H 1.0039 0.1826 1.0167 0.046 Uiso 1 1 calc R U . . .
H3B H 0.8906 0.1861 0.9285 0.046 Uiso 1 1 calc R U . . .
C15 C 0.6952(7) 0.2169(5) 1.0632(3) 0.0467(10) Uani 1 1 d . . . . .
H15A H 0.5680 0.2603 1.0246 0.070 Uiso 1 1 calc R U . . .
H15B H 0.6820 0.2756 1.1177 0.070 Uiso 1 1 calc R U . . .
H15C H 0.7102 0.1037 1.1011 0.070 Uiso 1 1 calc R U . . .
C16 C 0.8844(7) 0.4012(4) 0.9298(3) 0.0420(10) Uani 1 1 d . . . . .
H16A H 1.0204 0.4059 0.8842 0.063 Uiso 1 1 calc R U . . .
H16B H 0.8635 0.4564 0.9872 0.063 Uiso 1 1 calc R U . . .
H16C H 0.7688 0.4531 0.8830 0.063 Uiso 1 1 calc R U . . .
loop_
_atom_site_aniso_label
_atom_site_aniso_U_11
_atom_site_aniso_U_22
_atom_site_aniso_U_33
_atom_site_aniso_U_23
_atom_site_aniso_U_13
_atom_site_aniso_U_12
O1 0.0464(16) 0.0329(14) 0.0462(16) -0.0194(12) -0.0072(13) -0.0110(12)
O2 0.0523(17) 0.0370(14) 0.0322(14) -0.0135(12) -0.0052(12) -0.0127(13)
O3 0.078(2) 0.0335(15) 0.0347(15) -0.0054(12) -0.0081(15) -0.0203(14)
N1 0.0380(17) 0.0301(16) 0.0326(17) -0.0096(13) -0.0058(14) -0.0088(13)
C1 0.036(2) 0.0308(19) 0.038(2) -0.0084(17) -0.0066(17) -0.0097(16)
C2 0.030(2) 0.032(2) 0.041(2) -0.0105(17) -0.0079(17) -0.0078(16)
C3 0.0255(18) 0.0297(18) 0.038(2) -0.0141(16) -0.0049(15) -0.0095(15)
C4 0.0322(19) 0.0290(19) 0.043(2) -0.0134(16) -0.0042(16) -0.0119(16)
C5 0.0287(19) 0.0264(18) 0.042(2) -0.0071(16) -0.0059(16) -0.0071(15)
C6 0.0269(19) 0.0314(19) 0.038(2) -0.0113(16) -0.0080(16) -0.0054(15)
C7 0.0280(18) 0.0275(18) 0.0331(18) -0.0077(15) -0.0060(16) -0.0092(15)
O4 0.0525(17) 0.0442(16) 0.0379(15) -0.0137(13) -0.0023(13) -0.0190(14)
O5 0.0530(18) 0.0406(16) 0.0368(16) -0.0027(12) -0.0047(13) -0.0212(14)
O6 0.0479(16) 0.0268(14) 0.0497(16) -0.0060(12) -0.0098(13) -0.0160(12)
N2 0.0388(17) 0.0314(16) 0.0349(17) -0.0065(14) -0.0035(15) -0.0140(14)
C8 0.0265(19) 0.032(2) 0.046(2) -0.0094(17) -0.0069(17) -0.0079(16)
C9 0.0257(19) 0.0329(19) 0.044(2) -0.0111(17) -0.0046(17) -0.0074(16)
C10 0.028(2) 0.0326(19) 0.038(2) -0.0107(17) -0.0027(16) -0.0083(16)
C11 0.0265(18) 0.033(2) 0.041(2) -0.0126(15) -0.0044(16) -0.0130(15)
C12 0.035(2) 0.0313(19) 0.040(2) -0.0124(17) -0.0064(17) -0.0077(16)
C13 0.036(2) 0.0265(18) 0.044(2) -0.0100(17) -0.0112(18) -0.0105(16)
C14 0.0268(19) 0.0284(19) 0.042(2) -0.0078(16) -0.0056(16) -0.0116(15)
N3 0.052(2) 0.0329(17) 0.0353(17) -0.0110(13) -0.0107(15) -0.0133(15)
C15 0.059(3) 0.044(2) 0.043(2) -0.0126(19) -0.001(2) -0.024(2)
C16 0.050(2) 0.035(2) 0.047(2) -0.0095(18) -0.009(2) -0.0181(19)
loop_
_atom_type_symbol
_atom_type_description
_atom_type_scat_dispersion_real
_atom_type_scat_dispersion_imag
_atom_type_scat_source
C C 0.0181 0.0091 'International Tables Vol C Tables 4.2.6.8 and 6.1.1.4'
H H 0.0000 0.0000 'International Tables Vol C Tables 4.2.6.8 and 6.1.1.4'
N N 0.0311 0.0180 'International Tables Vol C Tables 4.2.6.8 and 6.1.1.4'
O O 0.0492 0.0322 'International Tables Vol C Tables 4.2.6.8 and 6.1.1.4'
loop_
_geom_angle_atom_site_label_1
_geom_angle_atom_site_label_2
_geom_angle_atom_site_label_3
_geom_angle
_geom_angle_site_symmetry_1
_geom_angle_site_symmetry_3
_geom_angle_publ_flag
O2 N1 C2 116.9(3) . . ?
O2 N1 C1 116.8(3) . . ?
C2 N1 C1 126.3(3) . . ?
O3 C1 N1 120.7(3) . . ?
O3 C1 C6 123.1(3) . 2_756 ?
N1 C1 C6 116.2(3) . 2_756 ?
O1 C2 N1 121.3(3) . . ?
O1 C2 C3 122.7(3) . . ?
N1 C2 C3 115.9(3) . . ?
C4 C3 C7 119.4(3) . 2_756 ?
C4 C3 C2 120.1(3) . . ?
C7 C3 C2 120.5(3) 2_756 . ?
C3 C4 C5 120.9(3) . . ?
C3 C4 H4 119.6 . . ?
C5 C4 H4 119.6 . . ?
C6 C5 C4 120.5(3) . . ?
C6 C5 H5A 119.8 . . ?
C4 C5 H5A 119.8 . . ?
C5 C6 C7 120.1(3) . . ?
C5 C6 C1 120.3(3) . 2_756 ?
C7 C6 C1 119.6(3) . 2_756 ?
C7 C7 C3 119.8(4) 2_756 2_756 ?
C7 C7 C6 119.4(4) 2_756 . ?
C3 C7 C6 120.8(3) 2_756 . ?
N2 O5 H5 102(3) . . ?
O5 N2 C9 116.4(3) . . ?
O5 N2 C8 116.3(3) . . ?
C9 N2 C8 127.3(3) . . ?
O6 C8 N2 121.6(3) . . ?
O6 C8 C14 122.8(3) . 2_666 ?
N2 C8 C14 115.5(3) . 2_666 ?
O4 C9 N2 121.0(3) . . ?
O4 C9 C10 123.1(3) . . ?
N2 C9 C10 115.9(3) . . ?
C12 C10 C11 119.9(3) . . ?
C12 C10 C9 120.0(3) . . ?
C11 C10 C9 120.1(3) . . ?
C10 C11 C11 119.7(4) . 2_666 ?
C10 C11 C14 121.3(3) . 2_666 ?
C11 C11 C14 119.0(4) 2_666 2_666 ?
C10 C12 C13 120.5(3) . . ?
C10 C12 H12 119.8 . . ?
C13 C12 H12 119.8 . . ?
C14 C13 C12 121.2(3) . . ?
C14 C13 H13 119.4 . . ?
C12 C13 H13 119.4 . . ?
C13 C14 C11 119.7(3) . 2_666 ?
C13 C14 C8 120.4(3) . 2_666 ?
C11 C14 C8 119.8(3) 2_666 2_666 ?
C16 N3 C15 112.7(3) . . ?
C16 N3 H3A 109.1 . . ?
C15 N3 H3A 109.1 . . ?
C16 N3 H3B 109.1 . . ?
C15 N3 H3B 109.1 . . ?
H3A N3 H3B 107.8 . . ?
N3 C15 H15A 109.5 . . ?
N3 C15 H15B 109.5 . . ?
H15A C15 H15B 109.5 . . ?
N3 C15 H15C 109.5 . . ?
H15A C15 H15C 109.5 . . ?
H15B C15 H15C 109.5 . . ?
N3 C16 H16A 109.5 . . ?
N3 C16 H16B 109.5 . . ?
H16A C16 H16B 109.5 . . ?
N3 C16 H16C 109.5 . . ?
H16A C16 H16C 109.5 . . ?
H16B C16 H16C 109.5 . . ?
loop_
_geom_bond_atom_site_label_1
_geom_bond_atom_site_label_2
_geom_bond_distance
_geom_bond_site_symmetry_2
_geom_bond_publ_flag
O1 C2 1.222(4) . ?
O2 N1 1.368(4) . ?
O3 C1 1.207(4) . ?
N1 C2 1.386(5) . ?
N1 C1 1.399(4) . ?
C1 C6 1.485(5) 2_756 ?
C2 C3 1.480(5) . ?
C3 C4 1.378(5) . ?
C3 C7 1.414(5) 2_756 ?
C4 C5 1.405(5) . ?
C4 H4 0.9500 . ?
C5 C6 1.367(5) . ?
C5 H5A 0.9500 . ?
C6 C7 1.416(5) . ?
C6 C1 1.485(5) 2_756 ?
C7 C7 1.407(7) 2_756 ?
C7 C3 1.414(5) 2_756 ?
O4 C9 1.216(4) . ?
O5 N2 1.385(4) . ?
O5 H5 1.02(5) . ?
O6 C8 1.215(4) . ?
N2 C9 1.395(4) . ?
N2 C8 1.401(5) . ?
C8 C14 1.478(5) 2_666 ?
C9 C10 1.475(5) . ?
C10 C12 1.383(5) . ?
C10 C11 1.412(5) . ?
C11 C11 1.413(7) 2_666 ?
C11 C14 1.426(5) 2_666 ?
C12 C13 1.390(5) . ?
C12 H12 0.9500 . ?
C13 C14 1.375(5) . ?
C13 H13 0.9500 . ?
C14 C11 1.426(5) 2_666 ?
C14 C8 1.478(5) 2_666 ?
N3 C16 1.465(4) . ?
N3 C15 1.485(5) . ?
N3 H3A 0.9100 . ?
N3 H3B 0.9100 . ?
C15 H15A 0.9800 . ?
C15 H15B 0.9800 . ?
C15 H15C 0.9800 . ?
C16 H16A 0.9800 . ?
C16 H16B 0.9800 . ?
C16 H16C 0.9800 . ?
loop_
_geom_torsion_atom_site_label_1
_geom_torsion_atom_site_label_2
_geom_torsion_atom_site_label_3
_geom_torsion_atom_site_label_4
_geom_torsion
_geom_torsion_site_symmetry_1
_geom_torsion_site_symmetry_2
_geom_torsion_site_symmetry_3
_geom_torsion_site_symmetry_4
_geom_torsion_publ_flag
O2 N1 C1 O3 -6.4(5) . . . . ?
C2 N1 C1 O3 172.1(4) . . . . ?
O2 N1 C1 C6 172.3(3) . . . 2_756 ?
C2 N1 C1 C6 -9.2(5) . . . 2_756 ?
O2 N1 C2 O1 4.7(5) . . . . ?
C1 N1 C2 O1 -173.8(3) . . . . ?
O2 N1 C2 C3 -172.0(3) . . . . ?
C1 N1 C2 C3 9.5(5) . . . . ?
O1 C2 C3 C4 -3.5(5) . . . . ?
N1 C2 C3 C4 173.2(3) . . . . ?
O1 C2 C3 C7 179.9(3) . . . 2_756 ?
N1 C2 C3 C7 -3.4(5) . . . 2_756 ?
C7 C3 C4 C5 -1.5(5) 2_756 . . . ?
C2 C3 C4 C5 -178.2(3) . . . . ?
C3 C4 C5 C6 0.2(6) . . . . ?
C4 C5 C6 C7 1.1(5) . . . . ?
C4 C5 C6 C1 -177.8(3) . . . 2_756 ?
C5 C6 C7 C7 -1.1(6) . . . 2_756 ?
C1 C6 C7 C7 177.9(4) 2_756 . . 2_756 ?
C5 C6 C7 C3 178.7(3) . . . 2_756 ?
C1 C6 C7 C3 -2.4(5) 2_756 . . 2_756 ?
O5 N2 C8 O6 -0.1(5) . . . . ?
C9 N2 C8 O6 -178.7(3) . . . . ?
O5 N2 C8 C14 -178.0(3) . . . 2_666 ?
C9 N2 C8 C14 3.4(5) . . . 2_666 ?
O5 N2 C9 O4 -1.9(5) . . . . ?
C8 N2 C9 O4 176.7(3) . . . . ?
O5 N2 C9 C10 177.7(3) . . . . ?
C8 N2 C9 C10 -3.7(5) . . . . ?
O4 C9 C10 C12 1.7(5) . . . . ?
N2 C9 C10 C12 -177.9(3) . . . . ?
O4 C9 C10 C11 -178.6(4) . . . . ?
N2 C9 C10 C11 1.8(5) . . . . ?
C12 C10 C11 C11 1.1(6) . . . 2_666 ?
C9 C10 C11 C11 -178.6(4) . . . 2_666 ?
C12 C10 C11 C14 179.8(3) . . . 2_666 ?
C9 C10 C11 C14 0.0(5) . . . 2_666 ?
C11 C10 C12 C13 -0.1(5) . . . . ?
C9 C10 C12 C13 179.7(3) . . . . ?
C10 C12 C13 C14 -0.7(6) . . . . ?
C12 C13 C14 C11 0.5(5) . . . 2_666 ?
C12 C13 C14 C8 179.3(3) . . . 2_666 ?
