#------------------------------------------------------------------------------
#$Date: 2021-09-06 12:40:45 +0300 (Mon, 06 Sep 2021) $
#$Revision: 268608 $
#$URL: file:///home/coder/svn-repositories/cod/cif/7/12/87/7128716.cif $
#------------------------------------------------------------------------------
#
# This file is available in the Crystallography Open Database (COD),
# http://www.crystallography.net/
#
# All data on this site have been placed in the public domain by the
# contributors.
#
data_7128716
loop_
_publ_author_name
'Kubo, Haruka'
'Oketani, Ryusei'
'Hisaki, Ichiro'
_publ_section_title
;
 Quasi single-crystalline transformation of porous frameworks accompanied
 by interlayer rearrangements of hydrogen bonds.
;
_journal_issue                   69
_journal_name_full
'Chemical communications (Cambridge, England)'
_journal_page_first              8568
_journal_page_last               8571
_journal_paper_doi               10.1039/d1cc03287a
_journal_volume                  57
_journal_year                    2021
_chemical_formula_moiety         'C38 H20.28 Br1.72 N4 O8'
_chemical_formula_sum            'C38 H20.28 Br1.72 N4 O8'
_chemical_formula_weight         798.32
_chemical_name_common            BrPQ-2a
_chemical_name_systematic
'4,4',4'',4'''-(5,10-dibromopyrazino[2,3-g]quinoxaline-2,3,7,8-tetrayl)tetrabenzoic acid'
_space_group_crystal_system      triclinic
_space_group_IT_number           2
_space_group_name_Hall           '-P 1'
_space_group_name_H-M_alt        'P -1'
_atom_sites_solution_hydrogens   geom
_atom_sites_solution_primary     direct
_atom_sites_solution_secondary   difmap
_audit_update_record
;
2021-07-28 deposited with the CCDC.	2021-08-02 downloaded from the CCDC.
;
_cell_angle_alpha                102.618(8)
_cell_angle_beta                 92.409(6)
_cell_angle_gamma                92.015(7)
_cell_formula_units_Z            1
_cell_length_a                   5.4836(4)
_cell_length_b                   11.8374(12)
_cell_length_c                   15.4284(12)
_cell_measurement_reflns_used    1475
_cell_measurement_temperature    113
_cell_measurement_theta_max      21.09
_cell_measurement_theta_min      1.98
_cell_volume                     975.42(15)
_computing_cell_refinement       'CrysAlisPro 1.171.38.41 (Rigaku OD, 2015)'
_computing_data_collection       'CrysAlisPro 1.171.38.41 (Rigaku OD, 2015)'
_computing_data_reduction        'CrysAlisPro 1.171.38.41 (Rigaku OD, 2015)'
_computing_molecular_graphics    'CrystalStructure 4.3'
_computing_publication_material  'CrystalStructure 4.3 (Rigaku, 2019)'
_computing_structure_refinement  'SHELXL Version 2018/3 (Sheldrick, 2008)'
_computing_structure_solution    'SHELXT Version 2018/2 (Sheldrick, 2014)'
_diffrn_ambient_temperature      113
_diffrn_measured_fraction_theta_full 0.986
_diffrn_measured_fraction_theta_max 0.907
_diffrn_measurement_device_type  PILATUS200K
_diffrn_radiation_type           'Mo K\a'
_diffrn_radiation_wavelength     0.71073
_diffrn_reflns_av_R_equivalents  0.1160
_diffrn_reflns_av_unetI/netI     0.1996
_diffrn_reflns_Laue_measured_fraction_full 0.986
_diffrn_reflns_Laue_measured_fraction_max 0.907
_diffrn_reflns_limit_h_max       7
_diffrn_reflns_limit_h_min       -7
_diffrn_reflns_limit_k_max       15
_diffrn_reflns_limit_k_min       -15
_diffrn_reflns_limit_l_max       19
_diffrn_reflns_limit_l_min       -20
_diffrn_reflns_number            13446
_diffrn_reflns_point_group_measured_fraction_full 0.986
_diffrn_reflns_point_group_measured_fraction_max 0.907
_diffrn_reflns_theta_full        25.242
_diffrn_reflns_theta_max         28.805
_diffrn_reflns_theta_min         1.765
_diffrn_standards_number         0
_exptl_absorpt_coefficient_mu    1.849
_exptl_absorpt_correction_T_max  0.982
_exptl_absorpt_correction_T_min  0.646
_exptl_absorpt_correction_type   multi-scan
_exptl_absorpt_process_details
;
CrysAlisPro 1.171.38.41 (Rigaku Oxford Diffraction, 2015)
Empirical absorption correction using spherical harmonics,
 implemented in SCALE3 ABSPACK scaling algorithm.
;
_exptl_crystal_colour            orange
_exptl_crystal_density_diffrn    1.359
_exptl_crystal_density_method    'not measured'
_exptl_crystal_description       prism
_exptl_crystal_F_000             400.48
_exptl_crystal_recrystallization_method
'guest-release-induced structural change from BrPQ-2a'
_exptl_crystal_size_max          0.020
_exptl_crystal_size_mid          0.020
_exptl_crystal_size_min          0.010
_refine_diff_density_max         0.58
_refine_diff_density_min         -0.52
_refine_ls_extinction_method     none
_refine_ls_goodness_of_fit_ref   0.953
_refine_ls_hydrogen_treatment    constr
_refine_ls_number_parameters     235
_refine_ls_number_reflns         4617
_refine_ls_number_restraints     0
_refine_ls_R_factor_all          0.1991
_refine_ls_R_factor_gt           0.0796
_refine_ls_shift/su_max          0.000
_refine_ls_structure_factor_coef Fsqd
_refine_ls_weighting_details
'w = 1/[\s^2^(Fo^2^)+(0.1003P)^2^] where P=(Fo^2^+2Fc^2^)/3'
_refine_ls_weighting_scheme      calc
_refine_ls_wR_factor_gt          0.1760
_refine_ls_wR_factor_ref         0.2222
_reflns_Friedel_coverage         0.000
_reflns_number_gt                1934
_reflns_number_total             4617
_reflns_threshold_expression     F^2^>2.0\s(F^2^)
_cod_data_source_file            d1cc03287a2.cif
_cod_data_source_block           BrPQ-2a
_cod_depositor_comments
'Adding full bibliography for 7128714--7128717.cif.'
_cod_database_code               7128716
_shelx_res_file
;
TITL BPQ-2a
    shelxl.res
    created by SHELXL-2018/3 at 15:18:34 on 13-Jul-2021
CELL  0.71073 5.48360 11.83740 15.42840 102.618 92.409 92.015
ZERR  1 0.00040 0.00120 0.00120 0.008 0.006 0.007
LATT 1
SFAC C H N O BR
UNIT 38 20.280000 4 8 1.720000
OMIT      0  -1   1
OMIT      0  -2   2
OMIT     -1   1   0
OMIT     -1  -1   1
L.S. 30
FMAP 2
PLAN -25
WPDB -2
BOND $H
CONF
LIST 4
TEMP -160.0
ACTA
SIZE 0.020 0.020 0.010
ABIN
REM HTAB
HTAB
WGHT    0.100300
FVAR       0.59306
PART 1
BR1   5    0.325385    0.269808    0.487630    10.86000    0.05079    0.05838 =
         0.05781   -0.02103   -0.01865    0.02527
PART 0
O1    4    1.272439    0.585007    0.995145    11.00000    0.03645    0.04113 =
         0.03534   -0.01217   -0.01227    0.01089
O2    4    1.341862    0.424008    0.895056    11.00000    0.03942    0.05113 =
         0.04846   -0.01384   -0.02264    0.02273
AFIX  83
H2O   2    1.448224    0.416105    0.933822    11.00000   -1.20000
AFIX   0
O3    4   -0.386763   -0.176836    0.016936    11.00000    0.05229    0.05911 =
         0.05927   -0.02884   -0.01366    0.01928
O4    4   -0.743177   -0.181833    0.081033    11.00000    0.04550    0.05332 =
         0.07626   -0.03407   -0.01360    0.00705
AFIX  83
H4O   2   -0.753141   -0.250723    0.051792    11.00000   -1.20000
AFIX   0
N1    3    0.386013    0.497108    0.620015    11.00000    0.02718    0.04777 =
         0.03433   -0.01355   -0.01344    0.01535
N2    3   -0.114206    0.304777    0.366173    11.00000    0.03283    0.04596 =
         0.03474   -0.02004   -0.01372    0.01311
C1    1    0.438858    0.589143    0.683710    11.00000    0.02667    0.03860 =
         0.04007   -0.00959   -0.00947    0.00854
C2    1    0.198524    0.499515    0.559127    11.00000    0.03246    0.03657 =
         0.03865   -0.00866   -0.00509    0.01014
C3    1    0.141892    0.401859    0.493063    11.00000    0.03066    0.04034 =
         0.04175   -0.01369   -0.01517    0.01437
PART 2
AFIX  43
H3    2    0.236397    0.335353    0.489137    10.14000   -1.20000
AFIX   0
PART 0
C4    1   -0.055528    0.400590    0.431509    11.00000    0.03710    0.04960 =
         0.02443   -0.01416   -0.00646    0.01406
C5    1   -0.303789    0.306250    0.311442    11.00000    0.03292    0.05272 =
         0.03217   -0.00767   -0.00569    0.01308
C6    1    0.640041    0.574910    0.747531    11.00000    0.02705    0.04014 =
         0.04955   -0.01158   -0.00896    0.00395
C7    1    0.668013    0.641643    0.833589    11.00000    0.03463    0.03997 =
         0.04129   -0.01550   -0.00645    0.01006
AFIX  43
H7    2    0.559398    0.701653    0.853312    11.00000   -1.20000
AFIX   0
C8    1    0.855598    0.620600    0.891118    11.00000    0.03381    0.04562 =
         0.03207   -0.00837   -0.00653    0.00555
AFIX  43
H8    2    0.870482    0.664941    0.950514    11.00000   -1.20000
AFIX   0
C9    1    1.020010    0.536144    0.862873    11.00000    0.03153    0.05042 =
         0.03713   -0.00508   -0.01733    0.01355
C10   1    0.988054    0.465871    0.776192    11.00000    0.03996    0.04199 =
         0.03628   -0.01765   -0.00091    0.01064
AFIX  43
H10   2    1.095830    0.405551    0.756300    11.00000   -1.20000
AFIX   0
C11   1    0.798181    0.486054    0.720833    11.00000    0.03490    0.05205 =
         0.02935   -0.01578   -0.01590    0.01017
AFIX  43
H11   2    0.774837    0.437941    0.662900    11.00000   -1.20000
AFIX   0
C12   1    1.222225    0.518897    0.924768    11.00000    0.03375    0.04165 =
         0.04391   -0.00797   -0.00530    0.00710
C13   1   -0.367153    0.195034    0.247877    11.00000    0.03615    0.04935 =
         0.03271   -0.00497   -0.00822    0.01737
C14   1   -0.201255    0.147566    0.184882    11.00000    0.03044    0.05197 =
         0.04285   -0.01353   -0.01384    0.00576
AFIX  43
H14   2   -0.049934    0.187574    0.181477    11.00000   -1.20000
AFIX   0
C15   1   -0.259132    0.042877    0.128183    11.00000    0.03798    0.04839 =
         0.05064   -0.01763   -0.00901    0.01373
AFIX  43
H15   2   -0.147883    0.011416    0.084681    11.00000   -1.20000
AFIX   0
C16   1   -0.477497   -0.018216    0.133067    11.00000    0.03971    0.04664 =
         0.05814   -0.01896   -0.01485    0.01785
C17   1   -0.640654    0.028698    0.195594    11.00000    0.02831    0.05320 =
         0.05395   -0.02350   -0.00660    0.00459
AFIX  43
H17   2   -0.790322   -0.012377    0.199499    11.00000   -1.20000
AFIX   0
C18   1   -0.587412    0.134219    0.251981    11.00000    0.02992    0.04624 =
         0.04985   -0.01560   -0.00216    0.00792
AFIX  43
H18   2   -0.701526    0.166190    0.294211    11.00000   -1.20000
AFIX   0
C19   1   -0.526792   -0.133283    0.070059    11.00000    0.04288    0.04359 =
         0.05561   -0.01522   -0.01705    0.01538
HKLF 4




REM  BPQ-2a
REM wR2 = 0.2222, GooF = S = 0.953, Restrained GooF = 0.953 for all data
REM R1 = 0.0796 for 1934 Fo > 4sig(Fo) and 0.1991 for all 4617 data
REM 235 parameters refined using 0 restraints

END

WGHT      0.1002      0.0000

REM Instructions for potential hydrogen bonds
EQIV $2 -x+3, -y+1, -z+2
HTAB O2 O1_$2
EQIV $3 x-2, y-1, z-1
HTAB O4 O1_$3

REM Highest difference peak  0.582,  deepest hole -0.520,  1-sigma level  0.096
Q1    1   0.4335  0.3353  0.4620  11.00000  0.05    0.58
Q2    1   0.2416  0.2777  0.4272  11.00000  0.05    0.52
Q3    1  -0.7794 -0.0202  0.2200  11.00000  0.05    0.37
Q4    1   0.0868  0.2195  0.4447  11.00000  0.05    0.37
Q5    1   0.2347  0.3347  0.4508  11.00000  0.05    0.36
Q6    1   0.4421  0.2346  0.5340  11.00000  0.05    0.36
Q7    1   0.0898  0.3176  0.5236  11.00000  0.05    0.35
Q8    1   1.0852  0.5796  0.8537  11.00000  0.05    0.35
Q9    1   0.0723  0.4067  0.4445  11.00000  0.05    0.35
Q10   1   1.1214  0.5191  0.8788  11.00000  0.05    0.33
Q11   1   1.2141  0.3608  0.9302  11.00000  0.05    0.33
Q12   1   0.2574  0.1868  0.4958  11.00000  0.05    0.33
Q13   1   0.9822  0.5076  0.8213  11.00000  0.05    0.32
Q14   1   0.1280  0.1656  0.4710  11.00000  0.05    0.31
Q15   1   1.0782  0.3196  0.8753  11.00000  0.05    0.30
Q16   1   1.1952  0.5116  1.0105  11.00000  0.05    0.30
Q17   1   0.9184  0.6430  0.8595  11.00000  0.05    0.30
Q18   1   1.3167  0.6655  0.9743  11.00000  0.05    0.29
Q19   1   0.0454  0.3743  0.5044  11.00000  0.05    0.29
Q20   1  -0.1073  0.0778  0.2018  11.00000  0.05    0.29
Q21   1   1.4085  0.5962  0.9620  11.00000  0.05    0.28
Q22   1  -0.3969  0.0191  0.1253  11.00000  0.05    0.28
Q23   1  -0.2031  0.3283  0.3012  11.00000  0.05    0.28
Q24   1  -0.2951 -0.2526  0.0601  11.00000  0.05    0.28
Q25   1  -0.9731 -0.2364  0.1031  11.00000  0.05    0.28
;
_shelx_res_checksum              90654
_shelx_fab_file
;
    1    0    0     12.49      0.00
    2    0    0     -0.19      0.00
    3    0    0     -0.39      0.00
    4    0    0     -1.01      0.00
    5    0    0     -1.05      0.00
    6    0    0     -0.21      0.00
    7    0    0     -1.71      0.00
   -7    1    0     -2.52      0.00
   -6    1    0     -1.65      0.00
   -5    1    0      0.31      0.00
   -4    1    0     -0.04      0.00
   -3    1    0      0.82      0.00
   -2    1    0     -0.50      0.00
   -1    1    0      4.61      0.00
    0    1    0     62.13      0.00
    1    1    0     12.20      0.00
    2    1    0     -1.32      0.00
    3    1    0     -0.66      0.00
    4    1    0     -0.93      0.00
    5    1    0     -1.44      0.00
    6    1    0     -0.17      0.00
    7    1    0      1.25      0.00
   -7    2    0      0.22      0.00
   -6    2    0     -0.53      0.00
   -5    2    0     -0.06      0.00
   -4    2    0      0.20      0.00
   -3    2    0      0.75      0.00
   -2    2    0      0.30      0.00
   -1    2    0     -2.79      0.00
    0    2    0      5.12      0.00
    1    2    0      2.22      0.00
    2    2    0     -2.67      0.00
    3    2    0     -0.16      0.00
    4    2    0     -0.33      0.00
    5    2    0      0.47      0.00
    6    2    0     -2.23      0.00
    7    2    0      1.12      0.00
   -7    3    0      1.30      0.00
   -6    3    0      0.70      0.00
   -5    3    0     -0.50      0.00
   -4    3    0     -0.69      0.00
   -3    3    0     -0.12      0.00
   -2    3    0     -0.32      0.00
   -1    3    0     -3.40      0.00
    0    3    0     -5.79      0.00
    1    3    0     -3.31      0.00
    2    3    0     -1.78      0.00
    3    3    0     -0.38      0.00
    4    3    0      0.10      0.00
    5    3    0      0.92      0.00
    6    3    0     -1.24      0.00
    7    3    0     -0.29      0.00
   -7    4    0     -0.29      0.00
   -6    4    0      0.38      0.00
   -5    4    0     -0.44      0.00
   -4    4    0     -0.21      0.00
   -3    4    0     -0.74      0.00
   -2    4    0     -2.15      0.00
   -1    4    0      0.51      0.00
    0    4    0     -1.28      0.00
    1    4    0     -0.69      0.00
    2    4    0     -0.83      0.00
    3    4    0     -0.15      0.00
    4    4    0     -0.06      0.00
    5    4    0      0.43      0.00
    6    4    0     -0.07      0.00
    7    4    0      0.38      0.00
   -7    5    0     -1.21      0.00
   -6    5    0     -0.16      0.00
   -5    5    0     -0.23      0.00
   -4    5    0      0.19      0.00
   -3    5    0     -0.30      0.00
   -2    5    0     -1.55      0.00
   -1    5    0      1.34      0.00
    0    5    0     -3.59      0.00
    1    5    0     -0.62      0.00
    2    5    0     -0.06      0.00
    3    5    0      0.09      0.00
    4    5    0      0.00      0.00
    5    5    0      0.47      0.00
    6    5    0     -2.46      0.00
   -6    6    0     -0.84      0.00
   -5    6    0      0.11      0.00
   -4    6    0     -0.35      0.00
   -3    6    0      0.94      0.00
   -2    6    0     -0.66      0.00
   -1    6    0      1.23      0.00
    0    6    0     -1.44      0.00
    1    6    0     -0.65      0.00
    2    6    0      1.02      0.00
    3    6    0     -0.27      0.00
    4    6    0     -0.33      0.00
    5    6    0     -0.05      0.00
    6    6    0     -3.02      0.00
   -6    7    0     -1.01      0.00
   -5    7    0      0.00      0.00
   -4    7    0      0.40      0.00
   -3    7    0      0.73      0.00
   -2    7    0      0.17      0.00
   -1    7    0      2.10      0.00
    0    7    0      1.31      0.00
    1    7    0      1.14      0.00
    2    7    0      1.50      0.00
    3    7    0     -0.75      0.00
    4    7    0     -1.99      0.00
    5    7    0      1.06      0.00
    6    7    0     -0.54      0.00
   -6    8    0      0.05      0.00
   -5    8    0     -0.74      0.00
   -4    8    0      0.78      0.00
   -3    8    0     -0.52      0.00
   -2    8    0      1.33      0.00
   -1    8    0      0.47      0.00
    0    8    0     -0.47      0.00
    1    8    0      0.02      0.00
    2    8    0      0.90      0.00
    3    8    0     -2.03      0.00
    4    8    0     -1.55      0.00
    5    8    0      2.81      0.00
   -6    9    0      0.57      0.00
   -5    9    0     -2.11      0.00
   -4    9    0     -0.36      0.00
   -3    9    0     -1.22      0.00
   -2    9    0      0.01      0.00
   -1    9    0     -1.12      0.00
    0    9    0     -1.03      0.00
    1    9    0     -0.19      0.00
    2    9    0     -0.06      0.00
    3    9    0     -2.34      0.00
    4    9    0      0.76      0.00
    5    9    0      0.90      0.00
   -5   10    0     -2.39      0.00
   -4   10    0     -0.89      0.00
   -3   10    0     -1.00      0.00
   -2   10    0     -1.46      0.00
   -1   10    0     -0.57      0.00
    0   10    0      0.06      0.00
    1   10    0     -0.26      0.00
    2   10    0      0.11      0.00
    3   10    0     -0.52      0.00
    4   10    0      0.33      0.00
    5   10    0     -2.01      0.00
   -5   11    0     -0.60      0.00
   -4   11    0     -0.50      0.00
   -3   11    0      0.81      0.00
   -2   11    0     -0.70      0.00
   -1   11    0     -0.48      0.00
    0   11    0     -1.40      0.00
    1   11    0     -2.32      0.00
    2   11    0     -0.13      0.00
    3   11    0      0.00      0.00
    4   11    0     -0.52      0.00
   -4   12    0      0.16      0.00
   -3   12    0      2.66      0.00
   -2   12    0     -0.17      0.00
   -1   12    0     -1.56      0.00
    0   12    0     -2.72      0.00
    1   12    0     -0.76      0.00
    2   12    0     -0.61      0.00
    3   12    0     -1.20      0.00
    4   12    0      0.94      0.00
   -4   13    0      0.37      0.00
   -3   13    0      2.56      0.00
   -2   13    0      0.15      0.00
   -1   13    0     -1.82      0.00
    0   13    0      0.20      0.00
    1   13    0      1.58      0.00
    2   13    0      1.17      0.00
    3   13    0     -0.47      0.00
   -3   14    0      1.36      0.00
   -2   14    0      0.77      0.00
   -1   14    0      0.53      0.00
    0   14    0      3.03      0.00
    1   14    0      0.36      0.00
    2   14    0      1.69      0.00
   -2   15    0      0.09      0.00
   -1   15    0      2.53      0.00
    0   15    0      2.07      0.00
    1   15    0      0.37      0.00
   -1  -15    1     -0.72      0.00
    0  -15    1     -2.99      0.00
    1  -15    1     -1.22      0.00
    2  -15    1     -1.31      0.00
   -2  -14    1     -1.61      0.00
   -1  -14    1     -1.89      0.00
    0  -14    1     -0.74      0.00
    1  -14    1      1.14      0.00
    2  -14    1     -1.26      0.00
    3  -14    1     -1.83      0.00
   -3  -13    1      1.60      0.00
   -2  -13    1     -0.11      0.00
   -1  -13    1     -0.74      0.00
    0  -13    1      2.56      0.00
    1  -13    1      1.70      0.00
    2  -13    1     -0.54      0.00
    3  -13    1     -2.63      0.00
    4  -13    1     -0.27      0.00
   -4  -12    1      0.29      0.00
   -3  -12    1      0.46      0.00
   -2  -12    1      0.21      0.00
   -1  -12    1      1.95      0.00
    0  -12    1      1.65      0.00
    1  -12    1      0.75      0.00
    2  -12    1     -0.01      0.00
    3  -12    1     -1.05      0.00
    4  -12    1      0.38      0.00
   -4  -11    1     -0.96      0.00
   -3  -11    1     -0.16      0.00
   -2  -11    1      0.07      0.00
   -1  -11    1      1.13      0.00
    0  -11    1     -0.30      0.00
    1  -11    1      0.39      0.00
    2  -11    1      1.30      0.00
    3  -11    1      0.89      0.00
    4  -11    1      0.59      0.00
    5  -11    1      2.62      0.00
   -5  -10    1     -0.22      0.00
   -4  -10    1     -2.10      0.00
   -3  -10    1      1.32      0.00
   -2  -10    1      0.35      0.00
   -1  -10    1      0.91      0.00
    0  -10    1      1.11      0.00
    1  -10    1      0.82      0.00
    2  -10    1      1.33      0.00
    3  -10    1      0.75      0.00
    4  -10    1     -0.06      0.00
    5  -10    1      2.48      0.00
   -5   -9    1     -2.04      0.00
   -4   -9    1     -0.07      0.00
   -3   -9    1      1.92      0.00
   -2   -9    1     -0.48      0.00
   -1   -9    1      1.56      0.00
    0   -9    1      2.48      0.00
    1   -9    1      0.54      0.00
    2   -9    1     -0.28      0.00
    3   -9    1      0.26      0.00
    4   -9    1     -1.14      0.00
    5   -9    1      1.09      0.00
    6   -9    1     -0.66      0.00
   -5   -8    1     -1.81      0.00
   -4   -8    1      1.34      0.00
   -3   -8    1      0.53      0.00
   -2   -8    1     -1.18      0.00
   -1   -8    1     -0.97      0.00
    0   -8    1      0.63      0.00
    1   -8    1     -0.54      0.00
    2   -8    1     -0.18      0.00
    3   -8    1      0.27      0.00
    4   -8    1     -0.86      0.00
    5   -8    1      0.99      0.00
    6   -8    1      0.11      0.00
   -6   -7    1      1.52      0.00
   -4   -7    1     -0.06      0.00
   -3   -7    1     -0.01      0.00
   -2   -7    1     -1.16      0.00
   -1   -7    1     -1.28      0.00
    0   -7    1      0.30      0.00
    1   -7    1     -0.08      0.00
    2   -7    1      0.37      0.00
    3   -7    1      0.21      0.00
    4   -7    1      0.28      0.00
    5   -7    1      1.08      0.00
    6   -7    1      0.40      0.00
   -6   -6    1      3.99      0.00
   -5   -6    1     -0.21      0.00
   -4   -6    1     -0.45      0.00
   -3   -6    1      0.14      0.00
   -2   -6    1     -0.62      0.00
   -1   -6    1     -0.05      0.00
    0   -6    1      3.13      0.00
    1   -6    1      0.89      0.00
    2   -6    1      0.72      0.00
    3   -6    1      0.58      0.00
    4   -6    1     -0.08      0.00
    5   -6    1      0.73      0.00
    6   -6    1      0.35      0.00
   -6   -5    1      2.48      0.00
   -5   -5    1     -0.05      0.00
   -4   -5    1      0.35      0.00
   -3   -5    1     -0.02      0.00
   -2   -5    1      0.30      0.00
   -1   -5    1     -0.47      0.00
    0   -5    1      2.33      0.00
    1   -5    1      1.35      0.00
    2   -5    1      2.39      0.00
    3   -5    1      0.41      0.00
    4   -5    1     -0.01      0.00
    5   -5    1      0.51      0.00
    6   -5    1      0.33      0.00
   -7   -4    1     -1.38      0.00
   -6   -4    1      1.71      0.00
   -5   -4    1     -0.12      0.00
   -4   -4    1      0.68      0.00
   -3   -4    1      0.34      0.00
   -2   -4    1      1.23      0.00
   -1   -4    1      1.87      0.00
    0   -4    1      2.04      0.00
    1   -4    1      2.60      0.00
    2   -4    1      1.56      0.00
    3   -4    1     -0.45      0.00
    4   -4    1      0.92      0.00
    5   -4    1      0.38      0.00
    6   -4    1     -0.25      0.00
    7   -4    1     -1.00      0.00
   -7   -3    1     -0.96      0.00
   -6   -3    1      2.41      0.00
   -5   -3    1     -0.18      0.00
   -4   -3    1      1.05      0.00
   -3   -3    1      0.64      0.00
   -2   -3    1      2.32      0.00
   -1   -3    1      0.20      0.00
    0   -3    1     -2.52      0.00
    1   -3    1      2.74      0.00
    2   -3    1     -1.00      0.00
    3   -3    1     -1.05      0.00
    4   -3    1      0.10      0.00
    5   -3    1      0.10      0.00
    6   -3    1      0.11      0.00
    7   -3    1     -2.07      0.00
   -7   -2    1     -0.09      0.00
   -6   -2    1      0.03      0.00
   -5   -2    1      1.12      0.00
   -4   -2    1      1.05      0.00
   -3   -2    1      0.63      0.00
   -2   -2    1      0.88      0.00
   -1   -2    1     -9.93      0.00
    0   -2    1    -39.89      0.00
    1   -2    1      1.77      0.00
    2   -2    1      0.01      0.00
    3   -2    1     -1.13      0.00
    4   -2    1     -0.27      0.00
    5   -2    1     -0.25      0.00
    6   -2    1      1.97      0.00
    7   -2    1      0.37      0.00
   -7   -1    1      2.48      0.00
   -6   -1    1     -1.56      0.00
   -5   -1    1      1.01      0.00
   -4   -1    1      0.79      0.00
   -3   -1    1      0.23      0.00
   -2   -1    1     -1.55      0.00
   -1   -1    1    -15.41      0.00
    0   -1    1    -81.33      0.00
    1   -1    1     -0.36      0.00
    2   -1    1      2.15      0.00
    3   -1    1      0.03      0.00
    4   -1    1      0.89      0.00
    5   -1    1      0.49      0.00
    6   -1    1      1.75      0.00
    7   -1    1      0.95      0.00
   -7    0    1      3.65      0.00
   -6    0    1      0.35      0.00
   -5    0    1     -0.49      0.00
   -4    0    1      0.46      0.00
   -3    0    1     -0.62      0.00
   -2    0    1      0.02      0.00
   -1    0    1     -9.50      0.00
    1    0    1     -4.00      0.00
    2    0    1      2.54      0.00
    3    0    1      0.62      0.00
    4    0    1      0.73      0.00
    5    0    1      0.87      0.00
    6    0    1      0.43      0.00
    7    0    1     -1.92      0.00
   -7    1    1      1.39      0.00
   -6    1    1      0.60      0.00
   -5    1    1     -0.43      0.00
   -4    1    1      0.11      0.00
   -3    1    1     -0.39      0.00
   -2    1    1      1.13      0.00
   -1    1    1      0.96      0.00
    0    1    1     -3.42      0.00
    1    1    1     -2.17      0.00
    2    1    1      1.98      0.00
    3    1    1     -0.45      0.00
    4    1    1     -0.45      0.00
    5    1    1     -0.84      0.00
    6    1    1      1.81      0.00
    7    1    1     -2.02      0.00
   -7    2    1     -1.02      0.00
   -6    2    1     -0.94      0.00
   -5    2    1     -0.20      0.00
   -4    2    1      0.35      0.00
   -3    2    1      0.60      0.00
   -2    2    1     -0.46      0.00
   -1    2    1      4.68      0.00
    0    2    1     10.96      0.00
    1    2    1      2.59      0.00
    2    2    1      0.64      0.00
    3    2    1     -0.47      0.00
    4    2    1     -0.82      0.00
    5    2    1     -1.45      0.00
    6    2    1      1.99      0.00
    7    2    1      1.32      0.00
   -7    3    1     -1.02      0.00
   -6    3    1     -1.01      0.00
   -5    3    1     -0.27      0.00
   -4    3    1     -0.03      0.00
   -3    3    1      1.00      0.00
   -2    3    1      0.04      0.00
   -1    3    1     -0.60      0.00
    0    3    1      0.73      0.00
    1    3    1      1.35      0.00
    2    3    1      0.07      0.00
    3    3    1     -0.13      0.00
    4    3    1     -0.08      0.00
    5    3    1     -0.64      0.00
    6    3    1     -0.53      0.00
    7    3    1      2.22      0.00
   -7    4    1      0.11      0.00
   -6    4    1     -0.43      0.00
   -5    4    1      0.14      0.00
   -4    4    1     -0.47      0.00
   -3    4    1      0.46      0.00
   -2    4    1      1.09      0.00
   -1    4    1     -3.22      0.00
    0    4    1      1.59      0.00
    1    4    1      0.65      0.00
    2    4    1      0.36      0.00
    3    4    1     -0.62      0.00
    4    4    1      0.39      0.00
    5    4    1     -0.72      0.00
    6    4    1      0.14      0.00
   -7    5    1      1.14      0.00
   -6    5    1     -0.07      0.00
   -5    5    1     -0.09      0.00
   -4    5    1      0.38      0.00
   -3    5    1     -1.08      0.00
   -2    5    1      0.83      0.00
   -1    5    1     -1.52      0.00
    0    5    1      2.63      0.00
    1    5    1      2.65      0.00
    2    5    1     -0.04      0.00
    3    5    1     -0.18      0.00
    4    5    1      0.05      0.00
    5    5    1      0.00      0.00
    6    5    1      3.10      0.00
   -6    6    1      0.25      0.00
   -5    6    1     -0.25      0.00
   -4    6    1      0.33      0.00
   -3    6    1     -1.40      0.00
   -2    6    1      0.15      0.00
   -1    6    1     -2.24      0.00
    0    6    1     -0.99      0.00
    1    6    1      1.27      0.00
    2    6    1     -0.72      0.00
    3    6    1      0.49      0.00
    4    6    1      0.90      0.00
    5    6    1     -0.21      0.00
    6    6    1      3.40      0.00
   -6    7    1     -0.08      0.00
   -5    7    1      0.51      0.00
   -4    7    1     -0.06      0.00
   -3    7    1      0.13      0.00
   -2    7    1     -1.29      0.00
   -1    7    1     -1.77      0.00
    0    7    1     -0.73      0.00
    1    7    1      0.28      0.00
    2    7    1     -0.85      0.00
    3    7    1      1.05      0.00
    4    7    1      1.48      0.00
    5    7    1     -3.15      0.00
    6    7    1      2.29      0.00
   -6    8    1     -0.51      0.00
   -5    8    1      1.32      0.00
   -4    8    1      0.89      0.00
   -3    8    1      1.06      0.00
   -2    8    1     -0.90      0.00
   -1    8    1      0.47      0.00
    0    8    1      0.58      0.00
    1    8    1      0.22      0.00
    2    8    1     -0.39      0.00
    3    8    1      1.86      0.00
    4    8    1      0.26      0.00
    5    8    1     -2.81      0.00
   -6    9    1      0.21      0.00
   -5    9    1      1.07      0.00
   -4    9    1      0.96      0.00
   -3    9    1      0.72      0.00
   -2    9    1      1.03      0.00
   -1    9    1      0.19      0.00
    0    9    1     -0.26      0.00
    1    9    1     -0.59      0.00
    2    9    1     -0.48      0.00
    3    9    1      0.92      0.00
    4    9    1      0.94      0.00
    5    9    1      1.70      0.00
   -5   10    1     -0.22      0.00
   -4   10    1     -0.10      0.00
   -3   10    1     -0.68      0.00
   -2   10    1      0.66      0.00
   -1   10    1     -0.58      0.00
    0   10    1      0.18      0.00
    1   10    1      0.91      0.00
    2   10    1     -0.48      0.00
    3   10    1     -0.52      0.00
    4   10    1      2.06      0.00
   -5   11    1     -0.42      0.00
   -4   11    1     -0.51      0.00
   -3   11    1     -2.15      0.00
   -2   11    1     -0.33      0.00
   -1   11    1      0.12      0.00
    0   11    1      1.42      0.00
    1   11    1      1.02      0.00
    2   11    1      0.57      0.00
    3   11    1      0.03      0.00
    4   11    1     -0.44      0.00
   -4   12    1      0.08      0.00
   -3   12    1     -2.03      0.00
   -2   12    1      0.18      0.00
   -1   12    1      1.07      0.00
    0   12    1     -0.32      0.00
    1   12    1     -0.96      0.00
    2   12    1     -0.30      0.00
    3   12    1      0.05      0.00
    4   12    1     -2.37      0.00
   -4   13    1      1.12      0.00
   -3   13    1     -1.01      0.00
   -2   13    1      0.59      0.00
   -1   13    1      0.36      0.00
    0   13    1     -2.12      0.00
    1   13    1      0.40      0.00
    2   13    1     -1.97      0.00
    3   13    1     -1.70      0.00
   -3   14    1     -0.09      0.00
   -2   14    1      0.78      0.00
   -1   14    1     -1.64      0.00
    0   14    1     -0.70      0.00
    1   14    1      1.88      0.00
    2   14    1     -0.62      0.00
   -2   15    1      1.22      0.00
   -1   15    1     -1.51      0.00
    0   15    1      0.54      0.00
    1   15    1      0.29      0.00
   -1  -15    2      1.09      0.00
    0  -15    2      1.16      0.00
    1  -15    2     -0.10      0.00
    2  -15    2      1.22      0.00
   -2  -14    2     -0.12      0.00
   -1  -14    2      1.43      0.00
    0  -14    2     -2.08      0.00
    1  -14    2     -0.84      0.00
    2  -14    2      0.98      0.00
    3  -14    2      1.89      0.00
   -3  -13    2      0.01      0.00
   -2  -13    2     -0.89      0.00
   -1  -13    2     -0.57      0.00
    0  -13    2     -1.89      0.00
    1  -13    2     -0.24      0.00
    2  -13    2      0.76      0.00
    3  -13    2      1.48      0.00
    4  -13    2      0.48      0.00
   -4  -12    2     -0.72      0.00
   -3  -12    2      0.86      0.00
   -2  -12    2     -0.74      0.00
   -1  -12    2     -0.88      0.00
    0  -12    2      0.90      0.00
    1  -12    2      0.44      0.00
    2  -12    2     -0.31      0.00
    3  -12    2     -0.38      0.00
    4  -12    2      0.30      0.00
   -4  -11    2      1.27      0.00
   -3  -11    2      0.47      0.00
   -2  -11    2     -0.64      0.00
   -1  -11    2     -0.46      0.00
    0  -11    2      1.02      0.00
    1  -11    2      0.63      0.00
    2  -11    2     -1.57      0.00
    3  -11    2     -0.16      0.00
    4  -11    2      0.09      0.00
    5  -11    2     -1.66      0.00
   -5  -10    2      1.84      0.00
   -4  -10    2      1.53      0.00
   -3  -10    2     -0.47      0.00
   -2  -10    2      0.34      0.00
   -1  -10    2     -2.00      0.00
    0  -10    2     -1.16      0.00
    1  -10    2      0.28      0.00
    2  -10    2     -0.60      0.00
    3  -10    2      0.61      0.00
    4  -10    2      0.32      0.00
    5  -10    2     -0.72      0.00
   -5   -9    2      2.82      0.00
   -4   -9    2      0.82      0.00
   -3   -9    2      0.01      0.00
   -2   -9    2      0.50      0.00
   -1   -9    2     -0.91      0.00
    0   -9    2     -1.55      0.00
    1   -9    2     -0.25      0.00
    2   -9    2      0.28      0.00
    3   -9    2     -0.47      0.00
    4   -9    2      0.28      0.00
    5   -9    2     -1.21      0.00
    6   -9    2      1.47      0.00
   -5   -8    2      1.05      0.00
   -4   -8    2      1.62      0.00
   -3   -8    2      0.39      0.00
   -2   -8    2     -0.12      0.00
   -1   -8    2      0.65      0.00
    0   -8    2     -0.30      0.00
    1   -8    2     -1.13      0.00
    2   -8    2     -0.19      0.00
    3   -8    2     -1.44      0.00
    4   -8    2     -0.58      0.00
    5   -8    2     -1.94      0.00
    6   -8    2      1.76      0.00
   -6   -7    2     -3.58      0.00
   -4   -7    2      1.38      0.00
   -3   -7    2     -0.32      0.00
   -2   -7    2      0.02      0.00
   -1   -7    2     -0.50      0.00
    0   -7    2     -1.60      0.00
    1   -7    2     -2.25      0.00
    2   -7    2      0.03      0.00
    3   -7    2     -1.39      0.00
    4   -7    2     -0.13      0.00
    5   -7    2     -1.30      0.00
    6   -7    2      0.95      0.00
   -6   -6    2     -4.57      0.00
   -5   -6    2      0.01      0.00
   -4   -6    2     -0.45      0.00
   -3   -6    2     -0.11      0.00
   -2   -6    2     -0.23      0.00
   -1   -6    2      0.36      0.00
    0   -6    2     -2.54      0.00
    1   -6    2     -2.75      0.00
    2   -6    2     -0.71      0.00
    3   -6    2     -0.52      0.00
    4   -6    2      0.72      0.00
    5   -6    2     -0.19      0.00
    6   -6    2     -0.25      0.00
   -6   -5    2     -3.29      0.00
   -5   -5    2      0.58      0.00
   -4   -5    2     -1.21      0.00
   -3   -5    2      0.12      0.00
   -2   -5    2     -0.31      0.00
   -1   -5    2      0.86      0.00
    0   -5    2      0.23      0.00
    1   -5    2     -2.45      0.00
    2   -5    2     -1.28      0.00
    3   -5    2      0.78      0.00
    4   -5    2     -0.26      0.00
    5   -5    2      0.61      0.00
    6   -5    2     -0.07      0.00
   -7   -4    2      0.93      0.00
   -6   -4    2     -2.78      0.00
   -5   -4    2      1.15      0.00
   -4   -4    2     -1.32      0.00
   -3   -4    2     -0.55      0.00
   -2   -4    2     -0.63      0.00
   -1   -4    2      0.18      0.00
    0   -4    2      2.95      0.00
    1   -4    2     -0.89      0.00
    2   -4    2      0.82      0.00
    3   -4    2      1.12      0.00
    4   -4    2     -0.52      0.00
    5   -4    2      0.69      0.00
    6   -4    2      0.46      0.00
    7   -4    2      2.87      0.00
   -7   -3    2     -0.48      0.00
   -6   -3    2     -0.03      0.00
   -5   -3    2      0.58      0.00
   -4   -3    2     -1.03      0.00
   -3   -3    2     -0.73      0.00
   -2   -3    2     -0.75      0.00
   -1   -3    2      3.70      0.00
    0   -3    2     16.62      0.00
    1   -3    2     -1.60      0.00
    2   -3    2      1.00      0.00
    3   -3    2      1.01      0.00
    4   -3    2     -0.03      0.00
    5   -3    2      0.41      0.00
    6   -3    2     -1.19      0.00
    7   -3    2      1.36      0.00
   -7   -2    2     -2.50      0.00
   -6   -2    2      2.89      0.00
   -5   -2    2      0.09      0.00
   -4   -2    2     -0.22      0.00
   -3   -2    2     -0.03      0.00
   -2   -2    2      0.97      0.00
   -1   -2    2      7.36      0.00
    0   -2    2     39.85      0.00
    1   -2    2     -6.03      0.00
    2   -2    2     -1.73      0.00
    3   -2    2      0.50      0.00
    4   -2    2     -0.89      0.00
    5   -2    2     -0.07      0.00
    6   -2    2     -2.37      0.00
    7   -2    2     -0.57      0.00
   -7   -1    2     -2.78      0.00
   -6   -1    2      1.17      0.00
   -5   -1    2      0.78      0.00
   -4   -1    2     -0.03      0.00
   -3   -1    2      0.89      0.00
   -2   -1    2      0.25      0.00
   -1   -1    2      5.95      0.00
    0   -1    2     31.59      0.00
    1   -1    2     -5.75      0.00
    2   -1    2     -2.58      0.00
    3   -1    2     -0.36      0.00
    4   -1    2     -0.87      0.00
    5   -1    2     -0.48      0.00
    6   -1    2     -0.78      0.00
    7   -1    2      1.38      0.00
   -7    0    2     -0.96      0.00
   -6    0    2     -0.45      0.00
   -5    0    2      0.65      0.00
   -4    0    2     -0.14      0.00
   -3    0    2      0.60      0.00
   -2    0    2     -1.95      0.00
   -1    0    2     -0.32      0.00
    0    0    2     -5.75      0.00
    1    0    2     -1.66      0.00
    2    0    2     -1.10      0.00
    3    0    2      0.34      0.00
    4    0    2      0.49      0.00
    5    0    2      0.18      0.00
    6    0    2     -0.65      0.00
    7    0    2      2.95      0.00
   -7    1    2      0.83      0.00
   -6    1    2      0.89      0.00
   -5    1    2      0.58      0.00
   -4    1    2     -0.26      0.00
   -3    1    2     -0.64      0.00
   -2    1    2     -0.16      0.00
   -1    1    2     -5.73      0.00
    0    1    2    -17.38      0.00
    1    1    2     -1.78      0.00
    2    1    2      0.97      0.00
    3    1    2      1.04      0.00
    4    1    2      0.90      0.00
    5    1    2      0.45      0.00
    6    1    2     -1.88      0.00
    7    1    2      0.14      0.00
   -7    2    2      1.35      0.00
   -6    2    2      1.13      0.00
   -5    2    2      0.95      0.00
   -4    2    2     -0.04      0.00
   -3    2    2     -0.95      0.00
   -2    2    2      1.22      0.00
   -1    2    2     -2.16      0.00
    0    2    2     -3.39      0.00
    1    2    2     -1.30      0.00
    2    2    2      1.96      0.00
    3    2    2      0.71      0.00
    4    2    2      0.02      0.00
    5    2    2      0.01      0.00
    6    2    2     -0.01      0.00
    7    2    2     -2.72      0.00
   -7    3    2      0.68      0.00
   -6    3    2      0.17      0.00
   -5    3    2     -0.02      0.00
   -4    3    2      0.55      0.00
   -3    3    2     -0.32      0.00
   -2    3    2     -0.11      0.00
   -1    3    2      3.15      0.00
    0    3    2      0.88      0.00
    1    3    2      0.50      0.00
    2    3    2      1.07      0.00
    3    3    2      1.20      0.00
    4    3    2     -0.73      0.00
    5    3    2      0.93      0.00
    6    3    2      1.39      0.00
    7    3    2     -2.03      0.00
   -7    4    2     -0.96      0.00
   -6    4    2      0.18      0.00
   -5    4    2     -0.60      0.00
   -4    4    2      0.12      0.00
   -3    4    2      0.94      0.00
   -2    4    2     -0.45      0.00
   -1    4    2      1.82      0.00
    0    4    2     -1.19      0.00
    1    4    2     -1.39      0.00
    2    4    2      0.00      0.00
    3    4    2      0.91      0.00
    4    4    2     -0.14      0.00
    5    4    2      0.70      0.00
    6    4    2     -1.60      0.00
   -6    5    2      0.50      0.00
   -5    5    2     -0.35      0.00
   -4    5    2     -0.15      0.00
   -3    5    2      1.56      0.00
   -2    5    2     -0.15      0.00
   -1    5    2      1.00      0.00
    0    5    2      0.37      0.00
    1    5    2     -2.24      0.00
    2    5    2     -0.34      0.00
    3    5    2     -0.39      0.00
    4    5    2     -0.10      0.00
    5    5    2     -0.79      0.00
    6    5    2     -4.74      0.00
   -6    6    2      0.43      0.00
   -5    6    2     -0.81      0.00
   -4    6    2      0.21      0.00
   -3    6    2      0.28      0.00
   -2    6    2      0.36      0.00
   -1    6    2      1.52      0.00
    0    6    2     -0.17      0.00
    1    6    2     -1.37      0.00
    2    6    2     -0.14      0.00
    3    6    2     -0.67      0.00
    4    6    2     -1.05      0.00
    5    6    2      1.33      0.00
    6    6    2     -4.93      0.00
   -6    7    2      0.56      0.00
   -5    7    2     -0.97      0.00
   -4    7    2     -0.74      0.00
   -3    7    2     -0.80      0.00
   -2    7    2      0.23      0.00
   -1    7    2     -0.27      0.00
    0    7    2     -1.65      0.00
    1    7    2     -1.32      0.00
    2    7    2      0.18      0.00
    3    7    2     -0.94      0.00
    4    7    2     -0.36      0.00
    5    7    2      3.48      0.00
   -6    8    2      0.45      0.00
   -5    8    2     -0.02      0.00
   -4    8    2     -1.20      0.00
   -3    8    2     -0.61      0.00
   -2    8    2     -1.26      0.00
   -1    8    2     -0.37      0.00
    0    8    2     -0.42      0.00
    1    8    2     -0.04      0.00
    2    8    2      0.57      0.00
    3    8    2     -0.74      0.00
    4    8    2     -0.45      0.00
    5    8    2      0.33      0.00
   -6    9    2     -0.42      0.00
   -5    9    2      1.06      0.00
   -4    9    2      0.07      0.00
   -3    9    2      0.24      0.00
   -2    9    2     -0.71      0.00
   -1    9    2      1.08      0.00
    0    9    2      0.94      0.00
    1    9    2      0.33      0.00
    2    9    2      1.04      0.00
    3    9    2      0.72      0.00
    4    9    2     -2.21      0.00
    5    9    2     -2.70      0.00
   -5   10    2      0.57      0.00
   -4   10    2      0.68      0.00
   -3   10    2      1.37      0.00
   -2   10    2      1.45      0.00
   -1   10    2      1.23      0.00
    0   10    2      0.85      0.00
    1   10    2     -0.14      0.00
    2   10    2      0.39      0.00
    3   10    2      0.97      0.00
    4   10    2     -0.67      0.00
   -5   11    2     -1.21      0.00
   -4   11    2     -0.42      0.00
   -3   11    2      1.22      0.00
   -2   11    2      1.25      0.00
   -1   11    2      0.52      0.00
    0   11    2      1.51      0.00
    1   11    2      0.89      0.00
    2   11    2      0.02      0.00
    3   11    2      0.31      0.00
    4   11    2      2.17      0.00
   -4   12    2     -2.25      0.00
   -3   12    2     -0.03      0.00
   -2   12    2     -0.66      0.00
   -1   12    2     -0.24      0.00
    0   12    2      1.62      0.00
    1   12    2     -0.15      0.00
    2   12    2      1.35      0.00
    3   12    2      0.78      0.00
    4   12    2      1.35      0.00
   -4   13    2     -2.68      0.00
   -3   13    2     -0.73      0.00
   -2   13    2     -1.71      0.00
   -1   13    2      0.16      0.00
    0   13    2     -1.23      0.00
    1   13    2     -2.65      0.00
    2   13    2      1.37      0.00
    3   13    2      0.99      0.00
   -2   14    2     -1.77      0.00
   -1   14    2      0.59      0.00
    0   14    2     -2.94      0.00
    1   14    2     -2.43      0.00
    2   14    2     -0.07      0.00
   -2  -15    3      1.27      0.00
   -1  -15    3     -0.96      0.00
    0  -15    3      1.50      0.00
    1  -15    3     -0.09      0.00
   -2  -14    3      2.56      0.00
   -1  -14    3     -0.17      0.00
    0  -14    3      2.74      0.00
    1  -14    3     -0.29      0.00
    2  -14    3     -0.85      0.00
    3  -14    3     -1.82      0.00
   -3  -13    3     -1.90      0.00
   -2  -13    3      2.23      0.00
   -1  -13    3      0.28      0.00
    0  -13    3     -0.18      0.00
    1  -13    3     -0.77      0.00
    2  -13    3     -0.62      0.00
    3  -13    3     -0.22      0.00
    4  -13    3     -0.96      0.00
   -4  -12    3      1.20      0.00
   -3  -12    3     -2.16      0.00
   -2  -12    3      1.61      0.00
   -1  -12    3     -0.85      0.00
    0  -12    3     -2.94      0.00
    1  -12    3     -1.29      0.00
    2  -12    3      0.83      0.00
    3  -12    3      0.48      0.00
    4  -12    3      0.01      0.00
   -4  -11    3     -0.68      0.00
   -3  -11    3     -1.22      0.00
   -2  -11    3      0.05      0.00
   -1  -11    3     -0.06      0.00
    0  -11    3     -2.52      0.00
    1  -11    3     -1.26      0.00
    2  -11    3      0.80      0.00
    3  -11    3     -0.50      0.00
    4  -11    3      1.22      0.00
    5  -11    3     -0.37      0.00
   -5  -10    3     -2.99      0.00
   -4  -10    3     -1.40      0.00
   -3  -10    3      0.00      0.00
   -2  -10    3     -0.30      0.00
   -1  -10    3      0.92      0.00
    0  -10    3     -0.59      0.00
    1  -10    3     -0.24      0.00
    2  -10    3     -0.85      0.00
    3  -10    3      0.08      0.00
    4  -10    3      1.18      0.00
    5  -10    3      0.26      0.00
   -5   -9    3     -1.20      0.00
   -4   -9    3     -2.10      0.00
   -3   -9    3      0.37      0.00
   -2   -9    3      1.24      0.00
   -1   -9    3      0.46      0.00
    0   -9    3     -0.20      0.00
    1   -9    3      0.98      0.00
    2   -9    3     -0.75      0.00
    3   -9    3      1.36      0.00
    4   -9    3      1.00      0.00
    5   -9    3      1.22      0.00
    6   -9    3     -3.12      0.00
   -5   -8    3      1.26      0.00
   -4   -8    3     -1.88      0.00
   -3   -8    3      0.89      0.00
   -2   -8    3      1.01      0.00
   -1   -8    3      1.48      0.00
    0   -8    3      0.00      0.00
    1   -8    3      1.84      0.00
    2   -8    3     -0.30      0.00
    3   -8    3      1.43      0.00
    4   -8    3      0.42      0.00
    5   -8    3      0.98      0.00
    6   -8    3     -2.37      0.00
   -5   -7    3     -0.05      0.00
   -4   -7    3      0.22      0.00
   -3   -7    3      0.64      0.00
   -2   -7    3      0.39      0.00
   -1   -7    3      0.94      0.00
    0   -7    3      1.74      0.00
    1   -7    3      2.31      0.00
    2   -7    3     -0.78      0.00
    3   -7    3      0.65      0.00
    4   -7    3     -1.14      0.00
    5   -7    3     -0.06      0.00
    6   -7    3     -0.15      0.00
   -6   -6    3      3.84      0.00
   -5   -6    3     -2.35      0.00
   -4   -6    3      1.34      0.00
   -3   -6    3     -0.20      0.00
   -2   -6    3      0.11      0.00
   -1   -6    3     -1.80      0.00
    0   -6    3      0.05      0.00
    1   -6    3      2.37      0.00
    2   -6    3     -0.55      0.00
    3   -6    3     -0.72      0.00
    4   -6    3     -1.04      0.00
    5   -6    3     -1.30      0.00
    6   -6    3      0.43      0.00
   -6   -5    3      2.75      0.00
   -5   -5    3     -3.08      0.00
   -4   -5    3      1.19      0.00
   -3   -5    3      0.18      0.00
   -2   -5    3     -1.05      0.00
   -1   -5    3     -2.58      0.00
    0   -5    3     -4.20      0.00
    1   -5    3      0.72      0.00
    2   -5    3     -0.85      0.00
    3   -5    3     -1.09      0.00
    4   -5    3      0.12      0.00
    5   -5    3     -1.62      0.00
    6   -5    3     -0.79      0.00
   -6   -4    3      0.22      0.00
   -5   -4    3     -2.33      0.00
   -4   -4    3      1.08      0.00
   -3   -4    3      0.69      0.00
   -2   -4    3     -0.63      0.00
   -1   -4    3     -2.14      0.00
    0   -4    3     -7.18      0.00
    1   -4    3     -0.84      0.00
    2   -4    3     -1.06      0.00
    3   -4    3     -0.49      0.00
    4   -4    3      0.28      0.00
    5   -4    3     -0.83      0.00
    6   -4    3     -0.36      0.00
    7   -4    3     -2.18      0.00
   -7   -3    3      1.75      0.00
   -6   -3    3     -3.14      0.00
   -5   -3    3     -1.10      0.00
   -4   -3    3      0.15      0.00
   -3   -3    3      0.11      0.00
   -2   -3    3      0.03      0.00
   -1   -3    3     -0.68      0.00
    0   -3    3    -11.88      0.00
    1   -3    3      2.81      0.00
    2   -3    3      0.38      0.00
    3   -3    3     -0.44      0.00
    4   -3    3      0.79      0.00
    5   -3    3     -0.33      0.00
    6   -3    3      1.51      0.00
    7   -3    3      0.04      0.00
   -7   -2    3      1.01      0.00
   -6   -2    3     -1.82      0.00
   -5   -2    3     -0.76      0.00
   -4   -2    3     -0.79      0.00
   -3   -2    3     -1.06      0.00
   -2   -2    3      0.09      0.00
   -1   -2    3      0.28      0.00
    0   -2    3     -7.18      0.00
    1   -2    3      6.66      0.00
    2   -2    3      0.96      0.00
    3   -2    3     -0.02      0.00
    4   -2    3      0.99      0.00
    5   -2    3      0.12      0.00
    6   -2    3      0.77      0.00
   -7   -1    3     -1.04      0.00
   -6   -1    3      0.94      0.00
   -5   -1    3     -0.30      0.00
   -4   -1    3     -0.84      0.00
   -3   -1    3     -1.35      0.00
   -2   -1    3      1.20      0.00
   -1   -1    3      0.55      0.00
    0   -1    3     12.33      0.00
    1   -1    3      4.10      0.00
    2   -1    3      0.12      0.00
    3   -1    3      0.19      0.00
    4   -1    3      0.04      0.00
    5   -1    3      0.79      0.00
    6   -1    3     -0.87      0.00
    7   -1    3     -2.96      0.00
   -7    0    3     -1.37      0.00
   -6    0    3     -0.17      0.00
   -5    0    3     -0.01      0.00
   -4    0    3     -0.31      0.00
   -3    0    3     -0.09      0.00
   -2    0    3      0.46      0.00
   -1    0    3      4.30      0.00
    0    0    3     19.73      0.00
    1    0    3      1.51      0.00
    2    0    3     -1.20      0.00
    3    0    3     -0.44      0.00
    4    0    3     -0.29      0.00
    5    0    3      1.29      0.00
    6    0    3     -0.22      0.00
    7    0    3     -2.64      0.00
   -7    1    3     -0.97      0.00
   -6    1    3     -1.05      0.00
   -5    1    3     -0.59      0.00
   -4    1    3      0.45      0.00
   -3    1    3      0.56      0.00
   -2    1    3     -0.78      0.00
   -1    1    3      4.88      0.00
    0    1    3      7.79      0.00
    1    1    3      0.90      0.00
    2    1    3     -2.77      0.00
    3    1    3     -0.60      0.00
    4    1    3      0.27      0.00
    5    1    3      1.18      0.00
    6    1    3     -0.45      0.00
    7    1    3      0.14      0.00
   -7    2    3     -0.83      0.00
   -6    2    3      0.24      0.00
   -5    2    3     -0.03      0.00
   -4    2    3      0.26      0.00
   -3    2    3     -0.07      0.00
   -2    2    3      0.28      0.00
   -1    2    3     -1.03      0.00
    0    2    3     -0.34      0.00
    1    2    3     -1.26      0.00
    2    2    3     -2.59      0.00
    3    2    3     -1.12      0.00
    4    2    3      0.76      0.00
    5    2    3     -0.71      0.00
    6    2    3     -1.93      0.00
    7    2    3      1.57      0.00
   -7    3    3      0.57      0.00
   -6    3    3      0.51      0.00
   -5    3    3      0.64      0.00
   -4    3    3     -0.41      0.00
   -3    3    3     -0.98      0.00
   -2    3    3      0.35      0.00
   -1    3    3     -2.64      0.00
    0    3    3     -1.32      0.00
    1    3    3     -1.25      0.00
    2    3    3     -0.64      0.00
    3    3    3     -1.14      0.00
    4    3    3      0.30      0.00
    5    3    3     -1.60      0.00
    6    3    3     -0.26      0.00
   -6    4    3     -0.21      0.00
   -5    4    3      0.31      0.00
   -4    4    3     -0.87      0.00
   -3    4    3     -1.59      0.00
   -2    4    3     -0.22      0.00
   -1    4    3     -0.45      0.00
    0    4    3     -1.85      0.00
    1    4    3      0.47      0.00
    2    4    3      0.96      0.00
    3    4    3      0.53      0.00
    4    4    3     -0.05      0.00
    5    4    3      0.88      0.00
    6    4    3      3.25      0.00
   -6    5    3     -0.14      0.00
   -5    5    3      0.79      0.00
   -4    5    3     -1.31      0.00
   -3    5    3     -0.66      0.00
   -2    5    3      0.27      0.00
   -1    5    3     -0.21      0.00
    0    5    3      0.38      0.00
    1    5    3      0.87      0.00
    2    5    3      1.34      0.00
    3    5    3      1.23      0.00
    4    5    3      1.05      0.00
    5    5    3      1.26      0.00
    6    5    3      4.37      0.00
   -6    6    3     -0.07      0.00
   -5    6    3      1.00      0.00
   -4    6    3     -0.28      0.00
   -3    6    3      0.70      0.00
   -2    6    3      0.86      0.00
   -1    6    3      0.57      0.00
    0    6    3      2.49      0.00
    1    6    3      1.48      0.00
    2    6    3      0.69      0.00
    3    6    3      0.80      0.00
    4    6    3      0.69      0.00
    5    6    3     -1.68      0.00
    6    6    3      2.85      0.00
   -6    7    3     -0.94      0.00
   -5    7    3     -0.10      0.00
   -4    7    3      1.16      0.00
   -3    7    3      0.84      0.00
   -2    7    3      1.82      0.00
   -1    7    3      0.71      0.00
    0    7    3      1.07      0.00
    1    7    3      1.04      0.00
    2    7    3     -0.03      0.00
    3    7    3      0.44      0.00
    4    7    3     -0.83      0.00
    5    7    3     -1.60      0.00
   -6    8    3     -0.82      0.00
   -5    8    3     -1.04      0.00
   -4    8    3      0.73      0.00
   -3    8    3      0.38      0.00
   -2    8    3      1.29      0.00
   -1    8    3     -0.76      0.00
    0    8    3     -1.12      0.00
    1    8    3     -0.05      0.00
    2    8    3     -0.51      0.00
    3    8    3     -0.65      0.00
    4    8    3      0.17      0.00
    5    8    3      0.63      0.00
   -5    9    3     -0.78      0.00
   -4    9    3     -0.03      0.00
   -3    9    3     -0.55      0.00
   -2    9    3     -1.42      0.00
   -1    9    3     -1.25      0.00
    0    9    3     -1.98      0.00
    1    9    3      0.21      0.00
    2    9    3     -0.56      0.00
    3    9    3     -1.29      0.00
    4    9    3      0.61      0.00
    5    9    3     -0.04      0.00
   -5   10    3      0.87      0.00
   -4   10    3      0.53      0.00
   -3   10    3     -0.81      0.00
   -2   10    3     -2.36      0.00
   -1   10    3     -1.13      0.00
    0   10    3     -2.18      0.00
    1   10    3     -0.13      0.00
    2   10    3      0.03      0.00
    3   10    3     -0.93      0.00
    4   10    3     -1.41      0.00
   -5   11    3      1.89      0.00
   -4   11    3      2.27      0.00
   -3   11    3      0.50      0.00
   -2   11    3     -0.40      0.00
   -1   11    3     -0.50      0.00
    0   11    3     -1.55      0.00
    1   11    3     -0.24      0.00
    2   11    3     -0.16      0.00
    3   11    3     -0.67      0.00
    4   11    3     -1.40      0.00
   -4   12    3      3.12      0.00
   -3   12    3      1.34      0.00
   -2   12    3      1.43      0.00
   -1   12    3      0.22      0.00
    0   12    3      1.31      0.00
    1   12    3      1.08      0.00
    2   12    3     -0.94      0.00
    3   12    3      0.08      0.00
    4   12    3      0.26      0.00
   -3   13    3      0.99      0.00
   -2   13    3      1.53      0.00
   -1   13    3      0.14      0.00
    0   13    3      3.52      0.00
    1   13    3      1.46      0.00
    2   13    3     -0.87      0.00
    3   13    3      0.67      0.00
   -2   14    3      1.21      0.00
   -1   14    3      0.36      0.00
    0   14    3      2.33      0.00
    1   14    3      1.16      0.00
   -2  -15    4     -3.65      0.00
   -1  -15    4      0.18      0.00
    0  -15    4     -3.04      0.00
    1  -15    4      0.60      0.00
   -3  -14    4      2.69      0.00
   -2  -14    4     -3.29      0.00
   -1  -14    4     -0.14      0.00
    0  -14    4     -1.61      0.00
    1  -14    4      0.60      0.00
    2  -14    4      1.36      0.00
    3  -14    4      0.77      0.00
   -3  -13    4      3.35      0.00
   -2  -13    4     -2.52      0.00
   -1  -13    4      1.27      0.00
    0  -13    4      2.17      0.00
    1  -13    4      0.56      0.00
    2  -13    4      0.47      0.00
    3  -13    4     -1.05      0.00
    4  -13    4      0.00      0.00
   -4  -12    4     -0.87      0.00
   -3  -12    4      2.55      0.00
   -2  -12    4     -1.19      0.00
   -1  -12    4      1.98      0.00
    0  -12    4      3.84      0.00
    1  -12    4      0.67      0.00
    2  -12    4     -0.59      0.00
    3  -12    4     -0.89      0.00
    4  -12    4     -1.95      0.00
   -4  -11    4     -0.28      0.00
   -3  -11    4     -0.23      0.00
   -2  -11    4      0.02      0.00
   -1  -11    4      0.56      0.00
    0  -11    4      2.33      0.00
    1  -11    4      0.46      0.00
    2  -11    4      1.02      0.00
    3  -11    4     -0.42      0.00
    4  -11    4     -2.45      0.00
    5  -11    4      0.85      0.00
   -5  -10    4      0.37      0.00
   -4  -10    4     -0.13      0.00
   -3  -10    4     -1.97      0.00
   -2  -10    4     -1.24      0.00
   -1  -10    4     -0.45      0.00
    0  -10    4      0.65      0.00
    1  -10    4      0.16      0.00
    2  -10    4      2.20      0.00
    3  -10    4     -0.75      0.00
    4  -10    4     -1.31      0.00
    5  -10    4      0.25      0.00
   -5   -9    4     -2.51      0.00
   -4   -9    4      0.38      0.00
   -3   -9    4     -1.90      0.00
   -2   -9    4     -1.16      0.00
   -1   -9    4     -1.42      0.00
    0   -9    4      0.81      0.00
    1   -9    4     -0.06      0.00
    2   -9    4      1.04      0.00
    3   -9    4     -0.56      0.00
    4   -9    4     -0.56      0.00
    5   -9    4      0.31      0.00
   -5   -8    4     -0.40      0.00
   -4   -8    4     -0.40      0.00
   -3   -8    4     -1.10      0.00
   -2   -8    4      0.39      0.00
   -1   -8    4     -1.37      0.00
    0   -8    4     -0.13      0.00
    1   -8    4     -0.52      0.00
    2   -8    4      1.14      0.00
    3   -8    4     -0.18      0.00
    4   -8    4      0.74      0.00
    5   -8    4      0.37      0.00
    6   -8    4     -0.09      0.00
   -6   -7    4     -2.61      0.00
   -5   -7    4      3.84      0.00
   -4   -7    4     -1.30      0.00
   -3   -7    4     -0.04      0.00
   -2   -7    4      0.35      0.00
   -1   -7    4      0.97      0.00
    0   -7    4     -0.93      0.00
    1   -7    4     -1.38      0.00
    2   -7    4      2.31      0.00
    3   -7    4      0.55      0.00
    4   -7    4      1.74      0.00
    5   -7    4      0.87      0.00
    6   -7    4     -1.32      0.00
   -6   -6    4     -1.86      0.00
   -5   -6    4      4.36      0.00
   -4   -6    4     -0.90      0.00
   -3   -6    4      0.09      0.00
   -2   -6    4      1.53      0.00
   -1   -6    4      2.77      0.00
    0   -6    4      2.34      0.00
    1   -6    4     -1.87      0.00
    2   -6    4      2.10      0.00
    3   -6    4      1.06      0.00
    4   -6    4      0.93      0.00
    5   -6    4      1.39      0.00
    6   -6    4      0.08      0.00
   -6   -5    4     -0.74      0.00
   -5   -5    4      2.27      0.00
   -4   -5    4     -0.88      0.00
   -3   -5    4     -0.12      0.00
   -2   -5    4      2.47      0.00
   -1   -5    4      3.04      0.00
    0   -5    4      4.68      0.00
    1   -5    4     -0.59      0.00
    2   -5    4      0.79      0.00
    3   -5    4      0.16      0.00
    4   -5    4      0.13      0.00
    5   -5    4      0.86      0.00
    6   -5    4      1.33      0.00
   -6   -4    4      2.07      0.00
   -5   -4    4      0.34      0.00
   -4   -4    4     -0.62      0.00
   -3   -4    4      0.19      0.00
   -2   -4    4      0.62      0.00
   -1   -4    4      0.68      0.00
    0   -4    4      3.20      0.00
    1   -4    4     -0.11      0.00
    2   -4    4     -0.35      0.00
    3   -4    4     -0.26      0.00
    4   -4    4     -0.26      0.00
    5   -4    4      0.68      0.00
    6   -4    4      0.15      0.00
    7   -4    4      0.59      0.00
   -6   -3    4      1.48      0.00
   -5   -3    4     -0.25      0.00
   -4   -3    4      0.77      0.00
   -3   -3    4      0.75      0.00
   -2   -3    4     -0.47      0.00
   -1   -3    4     -2.01      0.00
    0   -3    4     -0.93      0.00
    1   -3    4     -2.46      0.00
    2   -3    4      0.14      0.00
    3   -3    4      0.01      0.00
    4   -3    4     -0.55      0.00
    5   -3    4      0.66      0.00
    6   -3    4     -0.33      0.00
    7   -3    4      0.42      0.00
   -7   -2    4      2.28      0.00
   -6   -2    4     -2.01      0.00
   -5   -2    4     -0.37      0.00
   -4   -2    4      1.75      0.00
   -3   -2    4      1.29      0.00
   -2   -2    4     -0.30      0.00
   -1   -2    4     -0.23      0.00
    0   -2    4     -9.42      0.00
    1   -2    4     -3.06      0.00
    2   -2    4      0.91      0.00
    3   -2    4     -0.28      0.00
    4   -2    4     -0.14      0.00
    5   -2    4     -0.69      0.00
    6   -2    4      1.71      0.00
   -7   -1    4      1.75      0.00
   -6   -1    4     -1.41      0.00
   -5   -1    4     -0.74      0.00
   -4   -1    4      1.37      0.00
   -3   -1    4      0.68      0.00
   -2   -1    4      0.23      0.00
   -1   -1    4     -0.47      0.00
    0   -1    4    -14.15      0.00
    1   -1    4     -1.22      0.00
    2   -1    4      0.58      0.00
    3   -1    4     -0.16      0.00
    4   -1    4      0.00      0.00
    5   -1    4     -1.85      0.00
    6   -1    4      2.78      0.00
   -7    0    4      0.43      0.00
   -6    0    4      0.73      0.00
   -5    0    4     -0.44      0.00
   -4    0    4     -0.36      0.00
   -3    0    4     -0.05      0.00
   -2    0    4      0.38      0.00
   -1    0    4     -3.74      0.00
    0    0    4     -8.60      0.00
    1    0    4      0.03      0.00
    2    0    4      1.37      0.00
    3    0    4      0.17      0.00
    4    0    4     -0.32      0.00
    5    0    4     -1.43      0.00
    6    0    4      2.23      0.00
    7    0    4      2.72      0.00
   -7    1    4      1.04      0.00
   -6    1    4      0.07      0.00
   -5    1    4     -0.45      0.00
   -4    1    4     -1.39      0.00
   -3    1    4      0.52      0.00
   -2    1    4     -0.89      0.00
   -1    1    4     -0.43      0.00
    0    1    4     -1.88      0.00
    1    1    4      1.63      0.00
    2    1    4      2.19      0.00
    3    1    4      0.48      0.00
    4    1    4     -0.49      0.00
    5    1    4      0.37      0.00
    6    1    4      2.03      0.00
    7    1    4      0.48      0.00
   -7    2    4      0.74      0.00
   -6    2    4     -0.50      0.00
   -5    2    4     -0.35      0.00
   -4    2    4     -0.27      0.00
   -3    2    4      1.08      0.00
   -2    2    4     -0.70      0.00
   -1    2    4      3.78      0.00
    0    2    4      1.85      0.00
    1    2    4      2.14      0.00
    2    2    4      0.52      0.00
    3    2    4      0.60      0.00
    4    2    4     -0.21      0.00
    5    2    4      1.68      0.00
    6    2    4      1.07      0.00
    7    2    4     -0.53      0.00
   -7    3    4     -2.09      0.00
   -6    3    4      0.17      0.00
   -5    3    4      0.73      0.00
   -4    3    4      1.29      0.00
   -3    3    4      1.36      0.00
   -2    3    4      0.34      0.00
   -1    3    4      1.57      0.00
    0    3    4      3.35      0.00
    1    3    4      0.65      0.00
    2    3    4     -1.44      0.00
    3    3    4     -0.59      0.00
    4    3    4      0.35      0.00
    5    3    4     -0.10      0.00
    6    3    4     -0.65      0.00
   -7    4    4     -3.86      0.00
   -6    4    4     -0.11      0.00
   -5    4    4      0.26      0.00
   -4    4    4      1.97      0.00
   -3    4    4      0.98      0.00
   -2    4    4     -0.56      0.00
   -1    4    4     -0.81      0.00
    0    4    4      0.41      0.00
    1    4    4     -0.07      0.00
    2    4    4     -1.84      0.00
    3    4    4     -1.35      0.00
    4    4    4     -0.37      0.00
    5    4    4     -1.95      0.00
    6    4    4     -0.91      0.00
   -6    5    4     -0.86      0.00
   -5    5    4     -0.80      0.00
   -4    5    4      1.03      0.00
   -3    5    4     -0.43      0.00
   -2    5    4     -1.29      0.00
   -1    5    4     -1.02      0.00
    0    5    4     -2.06      0.00
    1    5    4     -0.58      0.00
    2    5    4     -1.11      0.00
    3    5    4     -0.73      0.00
    4    5    4     -0.72      0.00
    5    5    4     -0.20      0.00
    6    5    4      0.03      0.00
   -6    6    4      0.22      0.00
   -5    6    4     -0.15      0.00
   -4    6    4     -0.81      0.00
   -3    6    4     -1.11      0.00
   -2    6    4     -1.45      0.00
   -1    6    4     -0.33      0.00
    0    6    4     -0.51      0.00
    1    6    4     -0.92      0.00
    2    6    4     -0.33      0.00
    3    6    4     -0.20      0.00
    4    6    4      1.27      0.00
    5    6    4      1.40      0.00
    6    6    4      0.87      0.00
   -6    7    4      1.57      0.00
   -5    7    4      0.49      0.00
   -4    7    4     -1.23      0.00
   -3    7    4     -0.74      0.00
   -2    7    4     -1.31      0.00
   -1    7    4      0.89      0.00
    0    7    4      1.19      0.00
    1    7    4     -0.47      0.00
    2    7    4     -0.35      0.00
    3    7    4      0.47      0.00
    4    7    4      1.83      0.00
    5    7    4      0.75      0.00
   -6    8    4      0.23      0.00
   -5    8    4      0.80      0.00
   -4    8    4     -0.69      0.00
   -3    8    4      0.17      0.00
   -2    8    4      0.39      0.00
   -1    8    4      0.81      0.00
    0    8    4      1.49      0.00
    1    8    4     -1.15      0.00
    2    8    4     -0.39      0.00
    3    8    4      1.00      0.00
    4    8    4      0.38      0.00
    5    8    4      1.31      0.00
   -5    9    4      0.62      0.00
   -4    9    4     -0.52      0.00
   -3    9    4      0.77      0.00
   -2    9    4      1.59      0.00
   -1    9    4      0.49      0.00
    0    9    4      1.13      0.00
    1    9    4     -1.66      0.00
    2    9    4     -0.32      0.00
    3    9    4      1.46      0.00
    4    9    4      0.65      0.00
   -5   10    4     -0.67      0.00
   -4   10    4     -1.19      0.00
   -3   10    4     -0.22      0.00
   -2   10    4      0.64      0.00
   -1   10    4      0.68      0.00
    0   10    4      0.54      0.00
    1   10    4     -0.71      0.00
    2   10    4     -0.54      0.00
    3   10    4      2.39      0.00
    4   10    4      1.23      0.00
   -4   11    4     -2.16      0.00
   -3   11    4     -1.15      0.00
   -2   11    4     -0.68      0.00
   -1   11    4      0.38      0.00
    0   11    4     -0.46      0.00
    1   11    4      0.07      0.00
    2   11    4     -0.17      0.00
    3   11    4      1.43      0.00
   -4   12    4     -1.03      0.00
   -3   12    4     -0.72      0.00
   -2   12    4     -0.71      0.00
   -1   12    4      0.22      0.00
    0   12    4     -1.27      0.00
    1   12    4      0.83      0.00
    2   12    4      0.91      0.00
    3   12    4     -0.53      0.00
   -3   13    4     -0.25      0.00
   -2   13    4     -0.24      0.00
   -1   13    4      0.19      0.00
    0   13    4     -0.36      0.00
    1   13    4      1.41      0.00
    2   13    4      1.55      0.00
   -2   14    4     -0.61      0.00
   -1   14    4      0.05      0.00
    0   14    4      0.75      0.00
    1   14    4      0.83      0.00
   -2  -15    5      2.77      0.00
   -1  -15    5      0.46      0.00
    0  -15    5      2.53      0.00
    1  -15    5     -0.43      0.00
   -2  -14    5      2.07      0.00
   -1  -14    5     -0.35      0.00
    0  -14    5      0.04      0.00
    1  -14    5      0.11      0.00
    2  -14    5     -2.09      0.00
    3  -14    5      0.80      0.00
   -3  -13    5     -3.13      0.00
   -2  -13    5      2.07      0.00
   -1  -13    5     -1.55      0.00
    0  -13    5     -2.01      0.00
    1  -13    5      0.26      0.00
    2  -13    5     -0.38      0.00
    3  -13    5      1.48      0.00
    4  -13    5      1.06      0.00
   -4  -12    5      1.59      0.00
   -3  -12    5     -0.16      0.00
   -2  -12    5      0.82      0.00
   -1  -12    5     -0.86      0.00
    0  -12    5     -1.30      0.00
    1  -12    5     -0.43      0.00
    2  -12    5     -0.46      0.00
    3  -12    5      0.80      0.00
    4  -12    5      2.15      0.00
    5  -12    5     -1.20      0.00
   -5  -11    5      0.57      0.00
   -4  -11    5      2.81      0.00
   -3  -11    5      2.48      0.00
   -2  -11    5      0.65      0.00
   -1  -11    5      0.45      0.00
    0  -11    5      0.37      0.00
    1  -11    5     -1.46      0.00
    2  -11    5     -2.55      0.00
    3  -11    5      0.59      0.00
    4  -11    5      1.11      0.00
    5  -11    5     -0.94      0.00
   -5  -10    5      2.81      0.00
   -4  -10    5      2.06      0.00
   -3  -10    5      2.27      0.00
   -2  -10    5      0.67      0.00
   -1  -10    5      1.09      0.00
    0  -10    5      0.14      0.00
    1  -10    5     -1.85      0.00
    2  -10    5     -2.10      0.00
    3  -10    5      0.30      0.00
    4  -10    5      0.32      0.00
    5  -10    5     -1.38      0.00
   -5   -9    5      0.83      0.00
   -4   -9    5      0.97      0.00
   -3   -9    5      1.06      0.00
   -2   -9    5     -1.21      0.00
   -1   -9    5      0.89      0.00
    0   -9    5     -0.50      0.00
    1   -9    5     -0.85      0.00
    2   -9    5     -1.00      0.00
    3   -9    5     -0.04      0.00
    4   -9    5      0.08      0.00
    5   -9    5     -1.02      0.00
   -5   -8    5     -3.85      0.00
   -4   -8    5      1.28      0.00
   -3   -8    5      0.20      0.00
   -2   -8    5     -1.29      0.00
   -1   -8    5     -0.40      0.00
    0   -8    5      0.57      0.00
    1   -8    5      0.53      0.00
    2   -8    5     -2.52      0.00
    3   -8    5     -0.18      0.00
    4   -8    5     -1.04      0.00
    5   -8    5     -0.12      0.00
    6   -8    5      2.01      0.00
   -6   -7    5      0.73      0.00
   -5   -7    5     -3.81      0.00
   -4   -7    5      0.87      0.00
   -3   -7    5     -0.06      0.00
   -2   -7    5     -1.05      0.00
   -1   -7    5     -1.09      0.00
    0   -7    5     -0.04      0.00
    1   -7    5      1.86      0.00
    2   -7    5     -3.41      0.00
    3   -7    5     -0.66      0.00
    4   -7    5     -1.29      0.00
    5   -7    5      0.05      0.00
    6   -7    5      1.43      0.00
   -6   -6    5      1.69      0.00
   -5   -6    5     -0.17      0.00
   -4   -6    5      0.30      0.00
   -3   -6    5     -0.51      0.00
   -2   -6    5     -2.59      0.00
   -1   -6    5     -1.71      0.00
    0   -6    5     -1.99      0.00
    1   -6    5      2.84      0.00
    2   -6    5     -1.48      0.00
    3   -6    5     -0.18      0.00
    4   -6    5     -0.59      0.00
    5   -6    5      0.13      0.00
    6   -6    5     -0.59      0.00
   -6   -5    5      0.31      0.00
   -5   -5    5      2.22      0.00
   -4   -5    5      0.58      0.00
   -3   -5    5     -1.14      0.00
   -2   -5    5     -1.70      0.00
   -1   -5    5     -1.67      0.00
    0   -5    5     -0.98      0.00
    1   -5    5      1.95      0.00
    2   -5    5      0.77      0.00
    3   -5    5      0.76      0.00
    4   -5    5     -0.25      0.00
    5   -5    5     -0.45      0.00
    6   -5    5     -0.87      0.00
   -6   -4    5     -0.62      0.00
   -5   -4    5      2.27      0.00
   -4   -4    5     -0.10      0.00
   -3   -4    5     -0.62      0.00
   -2   -4    5      0.66      0.00
   -1   -4    5      0.95      0.00
    0   -4    5      1.31      0.00
    1   -4    5      0.84      0.00
    2   -4    5      0.30      0.00
    3   -4    5      0.54      0.00
    4   -4    5     -0.09      0.00
    5   -4    5     -1.29      0.00
    6   -4    5      0.25      0.00
   -6   -3    5      2.19      0.00
   -5   -3    5      1.19      0.00
   -4   -3    5     -1.39      0.00
   -3   -3    5      0.01      0.00
   -2   -3    5      1.05      0.00
   -1   -3    5      0.89      0.00
    0   -3    5      3.67      0.00
    1   -3    5      1.16      0.00
    2   -3    5     -1.43      0.00
    3   -3    5      0.25      0.00
    4   -3    5     -0.23      0.00
    5   -3    5     -0.16      0.00
    6   -3    5     -0.93      0.00
   -7   -2    5     -1.13      0.00
   -6   -2    5      2.47      0.00
   -5   -2    5      0.68      0.00
   -4   -2    5     -1.60      0.00
   -3   -2    5      0.22      0.00
   -2   -2    5      0.17      0.00
   -1   -2    5     -1.21      0.00
    0   -2    5      6.03      0.00
    1   -2    5      0.83      0.00
    2   -2    5     -0.80      0.00
    3   -2    5     -0.02      0.00
    4   -2    5     -0.34      0.00
    5   -2    5      1.05      0.00
    6   -2    5     -3.39      0.00
   -7   -1    5      0.34      0.00
   -6   -1    5     -0.48      0.00
   -5   -1    5      0.58      0.00
   -4   -1    5     -0.07      0.00
   -3   -1    5      0.25      0.00
   -2   -1    5     -0.24      0.00
   -1   -1    5      0.51      0.00
    0   -1    5      5.29      0.00
    1   -1    5     -0.86      0.00
    2   -1    5      0.14      0.00
    3   -1    5     -0.45      0.00
    4   -1    5     -0.15      0.00
    5   -1    5      0.24      0.00
    6   -1    5     -3.45      0.00
   -7    0    5     -1.28      0.00
   -6    0    5     -0.90      0.00
   -5    0    5      0.69      0.00
   -4    0    5      1.62      0.00
   -3    0    5     -0.77      0.00
   -2    0    5      0.68      0.00
   -1    0    5     -0.26      0.00
    0    0    5      2.19      0.00
    1    0    5     -2.41      0.00
    2    0    5     -0.43      0.00
    3    0    5     -0.35      0.00
    4    0    5      0.06      0.00
    5    0    5     -0.75      0.00
    6    0    5     -1.72      0.00
   -7    1    5     -2.57      0.00
   -6    1    5     -0.21      0.00
   -5    1    5      0.50      0.00
   -4    1    5      1.02      0.00
   -3    1    5     -1.24      0.00
   -2    1    5      0.58      0.00
   -1    1    5     -4.54      0.00
    0    1    5     -1.15      0.00
    1    1    5     -1.98      0.00
    2    1    5      0.37      0.00
    3    1    5     -0.01      0.00
    4    1    5      0.14      0.00
    5    1    5     -1.00      0.00
    6    1    5     -0.47      0.00
   -7    2    5     -0.09      0.00
   -6    2    5     -0.87      0.00
   -5    2    5     -1.14      0.00
   -4    2    5     -0.67      0.00
   -3    2    5     -0.83      0.00
   -2    2    5     -0.33      0.00
   -1    2    5     -3.32      0.00
    0    2    5     -2.78      0.00
    1    2    5      0.03      0.00
    2    2    5      1.72      0.00
    3    2    5      0.57      0.00
    4    2    5     -0.57      0.00
    5    2    5     -0.34      0.00
    6    2    5     -0.59      0.00
   -6    3    5     -0.77      0.00
   -5    3    5     -1.32      0.00
   -4    3    5     -1.34      0.00
   -3    3    5     -0.97      0.00
   -2    3    5      0.85      0.00
   -1    3    5      0.78      0.00
    0    3    5     -0.19      0.00
    1    3    5      0.62      0.00
    2    3    5      1.32      0.00
    3    3    5      0.60      0.00
    4    3    5     -0.93      0.00
    5    3    5      0.84      0.00
    6    3    5     -1.76      0.00
   -6    4    5      0.79      0.00
   -5    4    5      0.32      0.00
   -4    4    5     -0.67      0.00
   -3    4    5     -0.26      0.00
   -2    4    5      1.42      0.00
   -1    4    5      1.55      0.00
    0    4    5      1.93      0.00
    1    4    5      0.19      0.00
    2    4    5      0.29      0.00
    3    4    5     -0.15      0.00
    4    4    5     -0.32      0.00
    5    4    5      0.38      0.00
    6    4    5     -2.25      0.00
   -6    5    5      1.06      0.00
   -5    5    5      0.12      0.00
   -4    5    5      0.78      0.00
   -3    5    5      1.05      0.00
   -2    5    5      0.32      0.00
   -1    5    5     -0.01      0.00
    0    5    5      0.12      0.00
    1    5    5      0.26      0.00
    2    5    5     -0.28      0.00
    3    5    5     -0.25      0.00
    4    5    5     -1.13      0.00
    5    5    5     -0.98      0.00
    6    5    5     -1.33      0.00
   -6    6    5     -0.71      0.00
   -5    6    5     -0.56      0.00
   -4    6    5      1.16      0.00
   -3    6    5      1.01      0.00
   -2    6    5      0.22      0.00
   -1    6    5     -1.40      0.00
    0    6    5     -1.12      0.00
    1    6    5      0.20      0.00
    2    6    5      0.18      0.00
    3    6    5     -0.30      0.00
    4    6    5     -2.19      0.00
    5    6    5     -1.01      0.00
    6    6    5     -0.26      0.00
   -6    7    5     -0.75      0.00
   -5    7    5     -0.81      0.00
   -4    7    5      0.62      0.00
   -3    7    5     -0.08      0.00
   -2    7    5      0.14      0.00
   -1    7    5     -0.81      0.00
    0    7    5     -0.50      0.00
    1    7    5      1.18      0.00
    2    7    5      0.86      0.00
    3    7    5     -0.59      0.00
    4    7    5     -0.97      0.00
    5    7    5     -1.11      0.00
   -5    8    5     -1.83      0.00
   -4    8    5      0.34      0.00
   -3    8    5     -0.83      0.00
   -2    8    5     -0.22      0.00
   -1    8    5      0.17      0.00
    0    8    5      0.34      0.00
    1    8    5      2.44      0.00
    2    8    5      0.39      0.00
    3    8    5     -1.33      0.00
    4    8    5      0.12      0.00
    5    8    5     -2.29      0.00
   -5    9    5     -1.32      0.00
   -4    9    5      0.12      0.00
   -3    9    5     -0.12      0.00
   -2    9    5      0.18      0.00
   -1    9    5     -0.30      0.00
    0    9    5      1.02      0.00
    1    9    5      1.61      0.00
    2    9    5      0.03      0.00
    3    9    5     -3.84      0.00
    4    9    5     -0.26      0.00
   -5   10    5      0.55      0.00
   -4   10    5      0.60      0.00
   -3   10    5      0.55      0.00
   -2   10    5      0.54      0.00
   -1   10    5     -0.83      0.00
    0   10    5      0.55      0.00
    1   10    5      0.19      0.00
    2   10    5      0.31      0.00
    3   10    5     -4.42      0.00
    4   10    5     -0.23      0.00
   -4   11    5      0.53      0.00
   -3   11    5     -0.02      0.00
   -2   11    5      0.31      0.00
   -1   11    5     -0.86      0.00
    0   11    5     -0.78      0.00
    1   11    5     -0.96      0.00
    2   11    5     -0.32      0.00
    3   11    5     -1.31      0.00
    4   11    5      0.36      0.00
   -3   12    5      0.02      0.00
   -2   12    5     -0.18      0.00
   -1   12    5     -0.68      0.00
    0   12    5     -2.14      0.00
    1   12    5     -2.60      0.00
    2   12    5     -1.70      0.00
    3   12    5     -0.33      0.00
   -2   13    5      0.10      0.00
   -1   13    5     -0.75      0.00
    0   13    5     -2.76      0.00
    1   13    5     -3.13      0.00
   -2  -15    6     -0.61      0.00
   -1  -15    6     -0.98      0.00
    0  -15    6     -1.30      0.00
    1  -15    6     -0.22      0.00
   -3  -14    6      2.46      0.00
   -2  -14    6     -1.81      0.00
   -1  -14    6     -0.44      0.00
    0  -14    6     -0.04      0.00
    1  -14    6     -0.32      0.00
    2  -14    6      1.57      0.00
    3  -14    6     -0.62      0.00
   -3  -13    6      0.66      0.00
   -2  -13    6     -1.63      0.00
   -1  -13    6     -0.43      0.00
    0  -13    6     -0.24      0.00
    1  -13    6      0.91      0.00
    2  -13    6     -0.20      0.00
    3  -13    6      0.16      0.00
    4  -13    6     -0.49      0.00
   -4  -12    6     -3.38      0.00
   -3  -12    6     -1.37      0.00
   -2  -12    6     -0.02      0.00
   -1  -12    6     -0.95      0.00
    0  -12    6     -1.35      0.00
    1  -12    6      2.62      0.00
    2  -12    6      1.17      0.00
    3  -12    6      0.08      0.00
    4  -12    6     -0.15      0.00
   -5  -11    6     -1.56      0.00
   -4  -11    6     -2.95      0.00
   -3  -11    6     -1.23      0.00
   -2  -11    6      0.15      0.00
   -1  -11    6     -1.13      0.00
    0  -11    6     -1.43      0.00
    1  -11    6      3.25      0.00
    2  -11    6      2.26      0.00
    3  -11    6     -0.72      0.00
    4  -11    6      0.53      0.00
    5  -11    6      1.26      0.00
   -5  -10    6     -0.15      0.00
   -4  -10    6     -0.69      0.00
   -3  -10    6     -0.47      0.00
   -2  -10    6      0.89      0.00
   -1  -10    6     -0.90      0.00
    0  -10    6     -0.48      0.00
    1  -10    6      1.52      0.00
    2  -10    6      1.08      0.00
    3  -10    6     -0.69      0.00
    4  -10    6     -0.14      0.00
    5  -10    6      1.60      0.00
   -5   -9    6      3.00      0.00
   -4   -9    6     -0.54      0.00
   -3   -9    6     -0.18      0.00
   -2   -9    6      1.24      0.00
   -1   -9    6      0.03      0.00
    0   -9    6     -0.33      0.00
    1   -9    6     -0.91      0.00
    2   -9    6      1.53      0.00
    3   -9    6     -0.56      0.00
    4   -9    6     -0.13      0.00
    5   -9    6      0.37      0.00
   -5   -8    6      2.06      0.00
   -4   -8    6     -0.83      0.00
   -3   -8    6     -0.07      0.00
   -2   -8    6      0.22      0.00
   -1   -8    6      0.21      0.00
    0   -8    6     -0.21      0.00
    1   -8    6     -1.56      0.00
    2   -8    6      2.89      0.00
    3   -8    6     -0.38      0.00
    4   -8    6      0.37      0.00
    5   -8    6     -1.00      0.00
   -6   -7    6     -2.41      0.00
   -5   -7    6     -2.08      0.00
   -4   -7    6      0.20      0.00
   -3   -7    6      0.48      0.00
   -2   -7    6      0.81      0.00
   -1   -7    6     -0.15      0.00
    0   -7    6      0.65      0.00
    1   -7    6     -2.13      0.00
    2   -7    6      1.78      0.00
    3   -7    6     -0.21      0.00
    4   -7    6      0.03      0.00
    5   -7    6     -1.44      0.00
    6   -7    6     -0.92      0.00
   -6   -6    6     -3.10      0.00
   -5   -6    6     -4.23      0.00
   -4   -6    6      0.29      0.00
   -3   -6    6      1.56      0.00
   -2   -6    6      1.12      0.00
   -1   -6    6      0.61      0.00
    0   -6    6     -0.34      0.00
    1   -6    6     -2.71      0.00
    2   -6    6     -0.64      0.00
    3   -6    6     -0.66      0.00
    4   -6    6     -0.08      0.00
    5   -6    6     -0.30      0.00
   -6   -5    6     -0.82      0.00
   -5   -5    6     -3.83      0.00
   -4   -5    6      0.04      0.00
   -3   -5    6      0.89      0.00
   -2   -5    6     -0.86      0.00
   -1   -5    6     -0.65      0.00
    0   -5    6     -2.00      0.00
    1   -5    6     -0.96      0.00
    2   -5    6     -1.10      0.00
    3   -5    6     -0.88      0.00
    4   -5    6      0.22      0.00
    5   -5    6      1.44      0.00
    6   -5    6     -0.79      0.00
   -6   -4    6     -1.07      0.00
   -5   -4    6     -2.04      0.00
   -4   -4    6      0.63      0.00
   -3   -4    6     -1.04      0.00
   -2   -4    6     -2.38      0.00
   -1   -4    6     -2.71      0.00
    0   -4    6     -1.69      0.00
    1   -4    6      0.80      0.00
    2   -4    6      0.87      0.00
    3   -4    6     -0.71      0.00
    4   -4    6      0.40      0.00
    5   -4    6      0.79      0.00
    6   -4    6     -1.02      0.00
   -6   -3    6     -1.63      0.00
   -5   -3    6     -0.33      0.00
   -4   -3    6      0.76      0.00
   -3   -3    6     -1.68      0.00
   -2   -3    6     -1.95      0.00
   -1   -3    6     -1.05      0.00
    0   -3    6     -1.63      0.00
    1   -3    6      0.71      0.00
    2   -3    6      1.55      0.00
    3   -3    6     -0.15      0.00
    4   -3    6      0.46      0.00
    5   -3    6     -0.46      0.00
    6   -3    6      1.56      0.00
   -7   -2    6     -0.97      0.00
   -6   -2    6      1.10      0.00
   -5   -2    6      0.40      0.00
   -4   -2    6     -0.15      0.00
   -3   -2    6     -1.12      0.00
   -2   -2    6     -0.63      0.00
   -1   -2    6      0.51      0.00
    0   -2    6     -2.06      0.00
    1   -2    6      1.25      0.00
    2   -2    6     -0.03      0.00
    3   -2    6      0.76      0.00
    4   -2    6      0.31      0.00
    5   -2    6      0.80      0.00
    6   -2    6      2.79      0.00
   -7   -1    6      1.19      0.00
   -6   -1    6      2.17      0.00
   -5   -1    6      0.37      0.00
   -4   -1    6     -1.16      0.00
   -3   -1    6      0.49      0.00
   -2   -1    6     -0.34      0.00
   -1   -1    6      1.13      0.00
    0   -1    6     -0.86      0.00
    1   -1    6      2.64      0.00
    2   -1    6     -0.80      0.00
    3   -1    6      0.76      0.00
    4   -1    6      0.01      0.00
    5   -1    6      1.53      0.00
    6   -1    6      0.70      0.00
   -7    0    6      3.42      0.00
   -6    0    6      0.86      0.00
   -5    0    6     -0.17      0.00
   -4    0    6     -0.74      0.00
   -3    0    6      1.37      0.00
   -2    0    6     -0.29      0.00
   -1    0    6      3.63      0.00
    0    0    6      1.04      0.00
    1    0    6      2.08      0.00
    2    0    6     -1.11      0.00
    3    0    6     -0.03      0.00
    4    0    6     -0.31      0.00
    5    0    6      0.48      0.00
    6    0    6     -0.95      0.00
   -7    1    6      1.81      0.00
   -6    1    6      0.95      0.00
   -5    1    6      0.42      0.00
   -4    1    6      0.25      0.00
   -3    1    6      0.39      0.00
   -2    1    6      0.31      0.00
   -1    1    6      3.46      0.00
    0    1    6      1.29      0.00
    1    1    6     -0.33      0.00
    2    1    6     -1.43      0.00
    3    1    6     -0.55      0.00
    4    1    6      0.27      0.00
    5    1    6      0.32      0.00
    6    1    6      0.16      0.00
   -6    2    6      1.68      0.00
   -5    2    6      1.02      0.00
   -4    2    6      0.22      0.00
   -3    2    6      0.57      0.00
   -2    2    6     -0.86      0.00
   -1    2    6      0.04      0.00
    0    2    6     -0.98      0.00
    1    2    6     -1.14      0.00
    2    2    6     -0.26      0.00
    3    2    6     -0.09      0.00
    4    2    6      1.34      0.00
    5    2    6      0.45      0.00
    6    2    6      1.70      0.00
   -6    3    6      0.66      0.00
   -5    3    6     -0.25      0.00
   -4    3    6     -0.16      0.00
   -3    3    6      1.09      0.00
   -2    3    6     -1.46      0.00
   -1    3    6     -1.33      0.00
    0    3    6     -2.31      0.00
    1    3    6     -0.10      0.00
    2    3    6      1.04      0.00
    3    3    6      0.92      0.00
    4    3    6      1.13      0.00
    5    3    6      0.06      0.00
    6    3    6      0.97      0.00
   -6    4    6     -1.09      0.00
   -5    4    6     -0.01      0.00
   -4    4    6     -0.78      0.00
   -3    4    6     -0.42      0.00
   -2    4    6      0.55      0.00
   -1    4    6     -0.08      0.00
    0    4    6     -0.61      0.00
    1    4    6      0.36      0.00
    2    4    6      1.29      0.00
    3    4    6      0.60      0.00
    4    4    6      0.88      0.00
    5    4    6      0.42      0.00
    6    4    6     -1.07      0.00
   -6    5    6     -0.65      0.00
   -5    5    6      1.49      0.00
   -4    5    6     -0.95      0.00
   -3    5    6     -1.38      0.00
   -2    5    6      1.13      0.00
   -1    5    6      1.23      0.00
    0    5    6      0.34      0.00
    1    5    6      0.40      0.00
    2    5    6      0.72      0.00
    3    5    6     -0.10      0.00
    4    5    6      1.46      0.00
    5    5    6      0.68      0.00
    6    5    6     -1.99      0.00
   -6    6    6      0.32      0.00
   -5    6    6      1.43      0.00
   -4    6    6     -0.17      0.00
   -3    6    6     -0.37      0.00
   -2    6    6      0.15      0.00
   -1    6    6      0.67      0.00
    0    6    6     -0.39      0.00
    1    6    6     -0.24      0.00
    2    6    6     -0.24      0.00
    3    6    6      0.16      0.00
    4    6    6      0.79      0.00
    5    6    6     -0.09      0.00
   -6    7    6     -0.74      0.00
   -5    7    6      1.81      0.00
   -4    7    6      0.01      0.00
   -3    7    6      0.59      0.00
   -2    7    6     -0.26      0.00
   -1    7    6     -0.58      0.00
    0    7    6     -0.88      0.00
    1    7    6     -1.54      0.00
    2    7    6     -0.04      0.00
    3    7    6      0.64      0.00
    4    7    6     -0.68      0.00
    5    7    6     -0.22      0.00
   -5    8    6      1.93      0.00
   -4    8    6      0.07      0.00
   -3    8    6      0.05      0.00
   -2    8    6     -0.67      0.00
   -1    8    6     -0.25      0.00
    0    8    6     -1.40      0.00
    1    8    6     -0.99      0.00
    2    8    6      0.78      0.00
    3    8    6      3.06      0.00
    4    8    6     -1.02      0.00
    5    8    6      0.63      0.00
   -5    9    6      0.10      0.00
   -4    9    6      0.20      0.00
   -3    9    6     -0.33      0.00
   -2    9    6     -0.77      0.00
   -1    9    6      0.58      0.00
    0    9    6     -1.00      0.00
    1    9    6      0.09      0.00
    2    9    6      0.47      0.00
    3    9    6      5.23      0.00
    4    9    6     -0.61      0.00
   -4   10    6     -0.24      0.00
   -3   10    6      0.73      0.00
   -2   10    6     -0.49      0.00
   -1   10    6      0.78      0.00
    0   10    6      0.78      0.00
    1   10    6     -0.28      0.00
    2   10    6      0.12      0.00
    3   10    6      2.46      0.00
    4   10    6     -0.61      0.00
   -4   11    6      0.14      0.00
   -3   11    6      0.59      0.00
   -2   11    6     -0.19      0.00
   -1   11    6      0.45      0.00
    0   11    6      2.30      0.00
    1   11    6      0.77      0.00
    2   11    6      0.88      0.00
    3   11    6     -0.22      0.00
   -3   12    6     -1.04      0.00
   -2   12    6     -0.17      0.00
   -1   12    6      0.45      0.00
    0   12    6      2.76      0.00
    1   12    6      3.04      0.00
    2   12    6      1.95      0.00
   -2   13    6     -0.74      0.00
   -1   13    6      1.31      0.00
    0   13    6      2.12      0.00
    1   13    6      2.56      0.00
   -2  -15    7      0.99      0.00
   -1  -15    7      1.83      0.00
    0  -15    7      0.57      0.00
    1  -15    7      0.24      0.00
   -2  -14    7      1.87      0.00
   -1  -14    7      1.70      0.00
    0  -14    7      0.20      0.00
    1  -14    7     -1.06      0.00
    2  -14    7      0.89      0.00
    3  -14    7     -1.22      0.00
   -3  -13    7      0.23      0.00
   -2  -13    7     -0.40      0.00
   -1  -13    7      1.19      0.00
    0  -13    7      0.62      0.00
    1  -13    7     -2.58      0.00
    2  -13    7      1.12      0.00
    3  -13    7     -1.38      0.00
   -4  -12    7      2.21      0.00
   -3  -12    7     -0.22      0.00
   -2  -12    7     -1.49      0.00
   -1  -12    7      0.82      0.00
    0  -12    7      1.07      0.00
    1  -12    7     -3.10      0.00
    2  -12    7     -0.77      0.00
    3  -12    7      0.61      0.00
    4  -12    7     -1.29      0.00
   -5  -11    7     -1.10      0.00
   -4  -11    7     -0.40      0.00
   -3  -11    7     -0.17      0.00
   -2  -11    7     -0.63      0.00
   -1  -11    7      1.15      0.00
    0  -11    7      1.01      0.00
    1  -11    7     -1.98      0.00
    2  -11    7     -0.92      0.00
    3  -11    7      1.48      0.00
    5  -11    7     -1.29      0.00
   -5  -10    7     -2.23      0.00
   -4  -10    7     -1.05      0.00
   -3  -10    7      0.26      0.00
   -2  -10    7     -0.25      0.00
   -1  -10    7      0.82      0.00
    0  -10    7      0.71      0.00
    1  -10    7      0.77      0.00
    2  -10    7     -0.72      0.00
    3  -10    7      0.91      0.00
    4  -10    7      0.24      0.00
    5  -10    7     -1.28      0.00
   -5   -9    7     -0.45      0.00
   -4   -9    7      0.20      0.00
   -3   -9    7      0.02      0.00
   -2   -9    7      0.47      0.00
   -1   -9    7     -0.25      0.00
    0   -9    7     -0.05      0.00
    1   -9    7      1.84      0.00
    2   -9    7     -1.26      0.00
    3   -9    7      0.95      0.00
    4   -9    7      0.52      0.00
    5   -9    7      0.23      0.00
   -5   -8    7      2.79      0.00
   -4   -8    7     -0.31      0.00
   -3   -8    7     -0.18      0.00
   -2   -8    7      0.90      0.00
   -1   -8    7     -0.23      0.00
    0   -8    7     -1.22      0.00
    1   -8    7      0.71      0.00
    2   -8    7     -0.55      0.00
    3   -8    7      0.95      0.00
    4   -8    7      1.15      0.00
    5   -8    7      1.61      0.00
   -6   -7    7      4.27      0.00
   -5   -7    7      3.57      0.00
   -4   -7    7     -0.95      0.00
   -3   -7    7     -0.63      0.00
   -2   -7    7      0.66      0.00
   -1   -7    7     -0.23      0.00
    0   -7    7     -0.43      0.00
    1   -7    7      0.58      0.00
    2   -7    7      0.82      0.00
    3   -7    7      0.43      0.00
    4   -7    7      1.25      0.00
    5   -7    7      0.71      0.00
   -6   -6    7      2.37      0.00
   -5   -6    7      2.97      0.00
   -4   -6    7     -0.58      0.00
   -3   -6    7     -0.46      0.00
   -2   -6    7      1.16      0.00
   -1   -6    7      0.34      0.00
    0   -6    7      1.88      0.00
    1   -6    7     -0.16      0.00
    2   -6    7      1.41      0.00
    3   -6    7      0.30      0.00
    4   -6    7      0.21      0.00
    5   -6    7     -1.76      0.00
    6   -6    7      0.92      0.00
   -6   -5    7      0.06      0.00
   -5   -5    7      2.11      0.00
   -4   -5    7     -0.82      0.00
   -3   -5    7      1.07      0.00
   -2   -5    7      2.05      0.00
   -1   -5    7      2.73      0.00
    0   -5    7      1.63      0.00
    1   -5    7     -2.73      0.00
    2   -5    7      0.54      0.00
    3   -5    7      0.90      0.00
    4   -5    7     -0.55      0.00
    5   -5    7     -1.63      0.00
    6   -5    7      2.24      0.00
   -6   -4    7     -0.15      0.00
   -5   -4    7      0.52      0.00
   -4   -4    7     -0.63      0.00
   -3   -4    7      1.71      0.00
   -2   -4    7      2.14      0.00
   -1   -4    7      2.66      0.00
    0   -4    7      0.02      0.00
    1   -4    7     -3.33      0.00
    2   -4    7     -0.92      0.00
    3   -4    7      1.06      0.00
    4   -4    7     -0.44      0.00
    5   -4    7      0.21      0.00
    6   -4    7      0.66      0.00
   -6   -3    7     -2.11      0.00
   -5   -3    7     -0.80      0.00
   -4   -3    7      0.54      0.00
   -3   -3    7      1.10      0.00
   -2   -3    7      0.98      0.00
   -1   -3    7     -0.19      0.00
    0   -3    7      0.08      0.00
    1   -3    7     -1.89      0.00
    2   -3    7     -0.55      0.00
    3   -3    7      0.00      0.00
    4   -3    7      0.12      0.00
    5   -3    7     -0.68      0.00
    6   -3    7     -1.33      0.00
   -6   -2    7     -3.58      0.00
   -5   -2    7     -1.62      0.00
   -4   -2    7      1.09      0.00
   -3   -2    7     -0.24      0.00
   -2   -2    7      0.19      0.00
   -1   -2    7     -1.39      0.00
    0   -2    7     -0.20      0.00
    1   -2    7     -1.51      0.00
    2   -2    7      0.83      0.00
    3   -2    7     -0.60      0.00
    4   -2    7      0.54      0.00
    5   -2    7     -1.67      0.00
    6   -2    7      0.25      0.00
   -6   -1    7     -1.71      0.00
   -5   -1    7     -1.30      0.00
   -4   -1    7      0.12      0.00
   -3   -1    7     -1.34      0.00
   -2   -1    7      0.48      0.00
   -1   -1    7     -1.46      0.00
    0   -1    7     -1.12      0.00
    1   -1    7     -1.57      0.00
    2   -1    7      1.35      0.00
    3   -1    7     -0.09      0.00
    4   -1    7      0.63      0.00
    5   -1    7     -0.24      0.00
    6   -1    7      2.17      0.00
   -7    0    7     -1.67      0.00
   -6    0    7     -0.16      0.00
   -5    0    7     -0.30      0.00
   -4    0    7     -0.60      0.00
   -3    0    7     -0.37      0.00
   -2    0    7      0.12      0.00
   -1    0    7     -1.23      0.00
    0    0    7     -0.17      0.00
    1    0    7     -0.31      0.00
    2    0    7      0.99      0.00
    3    0    7      0.42      0.00
    4    0    7      0.07      0.00
    5    0    7     -0.34      0.00
    6    0    7      0.68      0.00
   -6    1    7     -0.86      0.00
   -5    1    7     -0.01      0.00
   -4    1    7      0.35      0.00
   -3    1    7     -0.07      0.00
   -2    1    7      0.46      0.00
   -1    1    7     -0.30      0.00
    0    1    7      1.88      0.00
    1    1    7      0.58      0.00
    2    1    7     -0.31      0.00
    3    1    7      0.27      0.00
    4    1    7     -0.81      0.00
    5    1    7     -1.51      0.00
    6    1    7     -0.71      0.00
   -6    2    7     -1.53      0.00
   -5    2    7      0.73      0.00
   -4    2    7      0.66      0.00
   -3    2    7     -1.26      0.00
   -2    2    7      1.02      0.00
   -1    2    7      0.05      0.00
    0    2    7      2.07      0.00
    1    2    7     -0.31      0.00
    2    2    7     -1.41      0.00
    3    2    7     -0.56      0.00
    4    2    7     -0.64      0.00
    5    2    7     -0.26      0.00
    6    2    7      1.82      0.00
   -6    3    7     -0.17      0.00
   -5    3    7      0.38      0.00
   -4    3    7      0.07      0.00
   -3    3    7     -0.26      0.00
   -2    3    7     -0.90      0.00
   -1    3    7     -0.30      0.00
    0    3    7      0.52      0.00
    1    3    7     -1.05      0.00
    2    3    7     -1.40      0.00
    3    3    7     -0.43      0.00
    4    3    7     -0.30      0.00
    5    3    7      0.86      0.00
    6    3    7      5.01      0.00
   -6    4    7      0.84      0.00
   -5    4    7     -2.00      0.00
   -4    4    7      0.33      0.00
   -3    4    7      1.47      0.00
   -2    4    7     -1.98      0.00
   -1    4    7     -0.74      0.00
    0    4    7      0.12      0.00
    1    4    7     -0.92      0.00
    2    4    7     -0.94      0.00
    3    4    7      0.57      0.00
    4    4    7     -0.87      0.00
    5    4    7      0.14      0.00
   -6    5    7     -0.07      0.00
   -5    5    7     -2.37      0.00
   -4    5    7      0.08      0.00
   -3    5    7      0.96      0.00
   -2    5    7     -0.70      0.00
   -1    5    7     -0.25      0.00
    0    5    7      0.72      0.00
    1    5    7     -0.41      0.00
    2    5    7     -0.17      0.00
    3    5    7      0.45      0.00
    4    5    7     -0.59      0.00
    5    5    7      0.96      0.00
    6    5    7      2.45      0.00
   -6    6    7      0.44      0.00
   -5    6    7     -1.26      0.00
   -4    6    7     -0.24      0.00
   -3    6    7     -0.05      0.00
   -2    6    7      0.03      0.00
   -1    6    7      0.96      0.00
    0    6    7      0.61      0.00
    1    6    7      0.73      0.00
    2    6    7      0.00      0.00
    3    6    7      0.23      0.00
    4    6    7      0.76      0.00
    5    6    7      2.80      0.00
   -5    7    7     -0.87      0.00
   -4    7    7      0.32      0.00
   -3    7    7      0.33      0.00
   -2    7    7      0.39      0.00
   -1    7    7      0.91      0.00
    0    7    7      0.59      0.00
    1    7    7      0.45      0.00
    2    7    7     -0.47      0.00
    3    7    7     -0.78      0.00
    4    7    7      1.45      0.00
    5    7    7      1.86      0.00
   -5    8    7      0.13      0.00
   -4    8    7      0.35      0.00
   -3    8    7      0.73      0.00
   -2    8    7      0.73      0.00
   -1    8    7      0.15      0.00
    0    8    7      0.59      0.00
    1    8    7     -0.92      0.00
    2    8    7     -0.29      0.00
    3    8    7     -3.02      0.00
    4    8    7      1.10      0.00
   -5    9    7      0.71      0.00
   -4    9    7      0.41      0.00
   -3    9    7     -0.67      0.00
   -2    9    7      0.65      0.00
   -1    9    7     -0.05      0.00
    0    9    7     -0.11      0.00
    1    9    7      0.33      0.00
    2    9    7      0.01      0.00
    3    9    7     -1.57      0.00
    4    9    7      0.59      0.00
   -4   10    7      0.51      0.00
   -3   10    7     -1.30      0.00
   -2   10    7      0.42      0.00
   -1   10    7      0.24      0.00
    0   10    7     -0.64      0.00
    1   10    7      1.44      0.00
    2   10    7     -0.10      0.00
    3   10    7      1.96      0.00
   -4   11    7      0.10      0.00
   -3   11    7      0.49      0.00
   -2   11    7      0.09      0.00
   -1   11    7      0.39      0.00
    0   11    7     -0.87      0.00
    1   11    7     -1.05      0.00
    2   11    7     -0.87      0.00
    3   11    7      1.24      0.00
   -3   12    7      1.24      0.00
   -2   12    7      0.52      0.00
   -1   12    7     -0.58      0.00
    0   12    7     -0.68      0.00
    1   12    7     -2.28      0.00
    2   12    7     -2.11      0.00
    1   13    7     -0.01      0.00
   -1  -15    8     -1.61      0.00
    0  -15    8      0.74      0.00
    1  -15    8      0.27      0.00
   -2  -14    8      0.34      0.00
   -1  -14    8     -0.78      0.00
    0  -14    8      0.86      0.00
    1  -14    8      0.92      0.00
    2  -14    8     -2.90      0.00
    3  -14    8      1.66      0.00
   -3  -13    8      0.87      0.00
   -2  -13    8      2.58      0.00
   -1  -13    8     -0.15      0.00
    0  -13    8      0.06      0.00
    1  -13    8      0.59      0.00
    2  -13    8     -1.66      0.00
    3  -13    8     -0.24      0.00
   -4  -12    8      0.81      0.00
   -3  -12    8      0.48      0.00
   -2  -12    8      1.67      0.00
   -1  -12    8     -1.15      0.00
    0  -12    8     -0.45      0.00
    1  -12    8      0.92      0.00
    2  -12    8     -0.63      0.00
    3  -12    8     -1.90      0.00
    4  -12    8      1.07      0.00
   -4  -11    8      2.07      0.00
   -3  -11    8     -0.49      0.00
   -2  -11    8      0.31      0.00
   -1  -11    8     -1.86      0.00
    0  -11    8     -0.41      0.00
    1  -11    8      0.61      0.00
    2  -11    8     -0.30      0.00
    3  -11    8     -0.70      0.00
    4  -11    8      0.28      0.00
   -5  -10    8     -0.70      0.00
   -4  -10    8      0.55      0.00
   -3  -10    8      0.10      0.00
   -2  -10    8     -0.22      0.00
   -1  -10    8     -0.13      0.00
    0  -10    8      0.06      0.00
    1  -10    8     -0.92      0.00
    2  -10    8      0.25      0.00
    3  -10    8      0.01      0.00
    4  -10    8     -0.34      0.00
    5  -10    8      1.19      0.00
   -5   -9    8     -2.53      0.00
   -4   -9    8     -0.07      0.00
   -3   -9    8      0.29      0.00
   -2   -9    8     -0.98      0.00
   -1   -9    8      1.58      0.00
    0   -9    8      1.28      0.00
    1   -9    8     -0.45      0.00
    2   -9    8     -0.39      0.00
    3   -9    8     -0.65      0.00
    4   -9    8     -1.38      0.00
    5   -9    8     -0.49      0.00
   -6   -8    8     -2.97      0.00
   -5   -8    8     -1.37      0.00
   -4   -8    8      0.44      0.00
   -3   -8    8     -0.58      0.00
   -2   -8    8     -1.61      0.00
   -1   -8    8      1.53      0.00
    0   -8    8      1.65      0.00
    1   -8    8      0.91      0.00
    2   -8    8     -1.03      0.00
    3   -8    8     -0.19      0.00
    4   -8    8     -2.03      0.00
    5   -8    8     -0.55      0.00
   -6   -7    8     -2.72      0.00
   -5   -7    8     -0.11      0.00
   -4   -7    8      0.36      0.00
   -3   -7    8     -0.93      0.00
   -2   -7    8     -1.35      0.00
   -1   -7    8      0.91      0.00
    0   -7    8     -0.27      0.00
    1   -7    8      1.26      0.00
    2   -7    8     -0.82      0.00
    3   -7    8      0.74      0.00
    4   -7    8     -0.67      0.00
    5   -7    8      2.17      0.00
   -6   -6    8      0.14      0.00
   -5   -6    8     -0.75      0.00
   -4   -6    8      1.20      0.00
   -3   -6    8     -1.12      0.00
   -2   -6    8     -0.44      0.00
   -1   -6    8     -0.50      0.00
    0   -6    8     -1.00      0.00
    1   -6    8      2.70      0.00
    2   -6    8     -1.19      0.00
    3   -6    8     -0.01      0.00
    4   -6    8      1.12      0.00
    5   -6    8      3.10      0.00
    6   -6    8     -1.72      0.00
   -6   -5    8      1.11      0.00
   -5   -5    8     -0.72      0.00
   -4   -5    8      1.82      0.00
   -3   -5    8     -0.74      0.00
   -2   -5    8      0.01      0.00
   -1   -5    8     -0.95      0.00
    0   -5    8      0.93      0.00
    1   -5    8      3.88      0.00
    2   -5    8     -0.98      0.00
    3   -5    8     -1.26      0.00
    4   -5    8      1.23      0.00
    5   -5    8      0.79      0.00
    6   -5    8     -1.37      0.00
   -6   -4    8      1.95      0.00
   -5   -4    8      0.04      0.00
   -4   -4    8      0.29      0.00
   -3   -4    8      0.09      0.00
   -2   -4    8      0.30      0.00
   -1   -4    8      1.29      0.00
    0   -4    8      1.57      0.00
    1   -4    8      2.06      0.00
    2   -4    8     -0.09      0.00
    3   -4    8     -0.79      0.00
    4   -4    8      0.04      0.00
    5   -4    8      0.36      0.00
    6   -4    8      0.75      0.00
   -6   -3    8      3.59      0.00
   -5   -3    8      1.10      0.00
   -4   -3    8     -1.21      0.00
   -3   -3    8      0.60      0.00
   -2   -3    8      0.47      0.00
   -1   -3    8      2.44      0.00
    0   -3    8      0.78      0.00
    1   -3    8     -0.12      0.00
    2   -3    8     -0.36      0.00
    3   -3    8      0.10      0.00
    4   -3    8     -0.81      0.00
    5   -3    8      1.31      0.00
    6   -3    8      0.13      0.00
   -6   -2    8      2.55      0.00
   -5   -2    8      2.13      0.00
   -4   -2    8     -0.52      0.00
   -3   -2    8      1.27      0.00
   -2   -2    8     -0.39      0.00
   -1   -2    8      0.64      0.00
    0   -2    8      0.63      0.00
    1   -2    8      0.03      0.00
    2   -2    8     -0.97      0.00
    3   -2    8      0.11      0.00
    4   -2    8     -0.60      0.00
    5   -2    8      0.04      0.00
    6   -2    8     -2.05      0.00
   -6   -1    8     -0.09      0.00
   -5   -1    8      1.29      0.00
   -4   -1    8      0.55      0.00
   -3   -1    8      0.82      0.00
   -2   -1    8     -0.44      0.00
   -1   -1    8     -0.93      0.00
    0   -1    8     -0.60      0.00
    1   -1    8      0.55      0.00
    2   -1    8     -0.66      0.00
    3   -1    8      0.11      0.00
    4   -1    8      0.17      0.00
    5   -1    8      0.11      0.00
    6   -1    8     -1.04      0.00
   -6    0    8     -0.87      0.00
   -5    0    8     -0.11      0.00
   -4    0    8     -0.65      0.00
   -3    0    8      0.05      0.00
   -2    0    8      0.24      0.00
   -1    0    8     -0.37      0.00
    0    0    8     -2.31      0.00
    1    0    8     -0.08      0.00
    2    0    8      0.21      0.00
    3    0    8     -0.07      0.00
    4    0    8      0.56      0.00
    5    0    8      2.12      0.00
    6    0    8      0.67      0.00
   -6    1    8      0.42      0.00
   -5    1    8     -0.95      0.00
   -4    1    8     -1.30      0.00
   -3    1    8      0.68      0.00
   -2    1    8      0.01      0.00
   -1    1    8      0.88      0.00
    0    1    8     -1.58      0.00
    1    1    8      0.11      0.00
    2    1    8      0.65      0.00
    3    1    8     -0.04      0.00
    4    1    8     -0.13      0.00
    5    1    8      0.71      0.00
    6    1    8     -2.33      0.00
   -6    2    8      0.74      0.00
   -5    2    8     -1.07      0.00
   -4    2    8      0.64      0.00
   -3    2    8      0.08      0.00
   -2    2    8      1.00      0.00
   -1    2    8      0.94      0.00
    0    2    8      0.25      0.00
    1    2    8      1.14      0.00
    2    2    8      0.51      0.00
    3    2    8      0.31      0.00
    4    2    8     -0.39      0.00
    5    2    8     -1.99      0.00
    6    2    8     -6.59      0.00
   -6    3    8     -0.30      0.00
   -5    3    8      0.96      0.00
   -4    3    8      1.01      0.00
   -3    3    8     -1.34      0.00
   -2    3    8      2.18      0.00
   -1    3    8      0.49      0.00
    0    3    8      0.40      0.00
    1    3    8      1.07      0.00
    2    3    8      0.21      0.00
    3    3    8     -0.11      0.00
    4    3    8      0.90      0.00
    6    3    8     -5.76      0.00
   -6    4    8      0.49      0.00
   -5    4    8      2.17      0.00
   -4    4    8     -0.04      0.00
   -3    4    8     -0.85      0.00
   -2    4    8      1.12      0.00
   -1    4    8      0.11      0.00
    0    4    8     -0.26      0.00
    1    4    8      0.25      0.00
    2    4    8     -0.48      0.00
    3    4    8     -0.47      0.00
    4    4    8      1.18      0.00
    5    4    8     -0.90      0.00
    6    4    8     -2.07      0.00
   -6    5    8      0.89      0.00
   -5    5    8      0.73      0.00
   -4    5    8      0.07      0.00
   -3    5    8     -0.13      0.00
   -2    5    8      0.14      0.00
   -1    5    8     -0.83      0.00
    0    5    8     -0.17      0.00
    1    5    8     -0.93      0.00
    2    5    8     -0.79      0.00
    3    5    8     -0.84      0.00
    4    5    8     -0.18      0.00
    5    5    8     -3.45      0.00
   -6    6    8     -1.14      0.00
   -5    6    8     -0.27      0.00
   -4    6    8     -0.51      0.00
   -3    6    8     -0.62      0.00
   -2    6    8     -0.08      0.00
   -1    6    8     -1.13      0.00
    0    6    8      0.04      0.00
    1    6    8     -1.27      0.00
    2    6    8     -0.64      0.00
    3    6    8     -1.14      0.00
    4    6    8     -0.84      0.00
    5    6    8     -3.15      0.00
   -5    7    8     -0.48      0.00
   -4    7    8     -1.38      0.00
   -3    7    8     -1.09      0.00
   -2    7    8     -0.38      0.00
   -1    7    8     -0.57      0.00
    0    7    8      0.23      0.00
    1    7    8      0.48      0.00
    2    7    8     -1.09      0.00
    3    7    8      0.28      0.00
    4    7    8     -0.46      0.00
    5    7    8      0.57      0.00
   -5    8    8     -0.34      0.00
   -4    8    8     -1.20      0.00
   -3    8    8     -0.12      0.00
   -2    8    8     -0.24      0.00
   -1    8    8     -0.41      0.00
    0    8    8      0.29      0.00
    1    8    8      0.54      0.00
    2    8    8     -0.72      0.00
    3    8    8      0.15      0.00
    4    8    8      0.11      0.00
   -4    9    8     -0.76      0.00
   -3    9    8      1.09      0.00
   -2    9    8      0.13      0.00
   -1    9    8     -0.61      0.00
    0    9    8     -0.53      0.00
    1    9    8     -1.74      0.00
    2    9    8      0.10      0.00
    3    9    8     -3.05      0.00
    4    9    8      0.07      0.00
   -4   10    8     -0.05      0.00
   -3   10    8      0.38      0.00
   -2   10    8      0.65      0.00
   -1   10    8     -0.80      0.00
    0   10    8     -0.98      0.00
    1   10    8     -0.94      0.00
    2   10    8     -0.07      0.00
    3   10    8     -3.65      0.00
   -3   11    8     -0.33      0.00
   -2   11    8      0.27      0.00
   -1   11    8     -0.16      0.00
    0   11    8     -0.49      0.00
    1   11    8      1.29      0.00
    2   11    8      1.23      0.00
    3   11    8     -1.08      0.00
   -2   12    8     -1.11      0.00
   -1   12    8      0.51      0.00
    0   12    8     -0.70      0.00
    1   12    8      0.10      0.00
    0  -15    9     -1.67      0.00
   -2  -14    9     -2.25      0.00
   -1  -14    9     -0.44      0.00
    0  -14    9     -0.42      0.00
    1  -14    9      2.17      0.00
    2  -14    9      2.87      0.00
   -3  -13    9     -0.68      0.00
   -2  -13    9     -2.55      0.00
   -1  -13    9      1.28      0.00
    0  -13    9      0.34      0.00
    1  -13    9      2.07      0.00
    2  -13    9      2.84      0.00
    3  -13    9      2.18      0.00
   -3  -12    9      0.31      0.00
   -2  -12    9     -1.59      0.00
   -1  -12    9      3.08      0.00
    0  -12    9     -0.33      0.00
    1  -12    9     -0.61      0.00
    2  -12    9      2.60      0.00
    3  -12    9      0.99      0.00
    4  -12    9      0.01      0.00
   -4  -11    9     -0.60      0.00
   -3  -11    9     -0.21      0.00
   -2  -11    9     -1.03      0.00
   -1  -11    9      1.46      0.00
    0  -11    9     -0.63      0.00
    1  -11    9     -0.88      0.00
    2  -11    9      0.83      0.00
    3  -11    9     -1.15      0.00
    4  -11    9      0.12      0.00
   -5  -10    9      2.46      0.00
   -4  -10    9      0.86      0.00
   -3  -10    9     -0.48      0.00
   -2  -10    9     -0.12      0.00
   -1  -10    9     -1.59      0.00
    0  -10    9     -0.64      0.00
    1  -10    9      0.36      0.00
    2  -10    9     -0.02      0.00
    3  -10    9     -0.73      0.00
    4  -10    9      0.56      0.00
   -5   -9    9      0.44      0.00
   -4   -9    9      0.84      0.00
   -3   -9    9      1.09      0.00
   -2   -9    9      1.15      0.00
   -1   -9    9     -2.28      0.00
    0   -9    9     -1.23      0.00
    1   -9    9     -0.42      0.00
    2   -9    9      0.25      0.00
    3   -9    9     -0.13      0.00
    4   -9    9      1.54      0.00
    5   -9    9      0.43      0.00
   -5   -8    9     -1.69      0.00
   -4   -8    9      0.84      0.00
   -3   -8    9      1.82      0.00
   -2   -8    9      1.13      0.00
   -1   -8    9     -1.66      0.00
    0   -8    9     -0.64      0.00
    1   -8    9     -1.07      0.00
    2   -8    9     -0.49      0.00
    3   -8    9     -1.01      0.00
    4   -8    9      0.79      0.00
    5   -8    9     -1.58      0.00
   -5   -7    9     -0.68      0.00
   -4   -7    9     -0.32      0.00
   -3   -7    9      1.29      0.00
   -2   -7    9     -0.65      0.00
   -1   -7    9     -1.18      0.00
    0   -7    9      0.58      0.00
    1   -7    9     -0.93      0.00
    2   -7    9     -0.06      0.00
    3   -7    9     -0.93      0.00
    4   -7    9     -1.58      0.00
    5   -7    9     -3.76      0.00
   -6   -6    9     -1.17      0.00
   -5   -6    9      0.45      0.00
   -4   -6    9     -2.27      0.00
   -3   -6    9      0.44      0.00
   -2   -6    9     -1.72      0.00
   -1   -6    9     -1.02      0.00
    0   -6    9     -0.54      0.00
    1   -6    9     -1.39      0.00
    2   -6    9      1.57      0.00
    3   -6    9      0.35      0.00
    4   -6    9     -2.55      0.00
    5   -6    9     -2.09      0.00
   -6   -5    9     -0.59      0.00
   -5   -5    9      0.48      0.00
   -4   -5    9     -1.71      0.00
   -3   -5    9     -0.48      0.00
   -2   -5    9     -1.14      0.00
   -1   -5    9     -2.29      0.00
    0   -5    9     -1.80      0.00
    1   -5    9     -0.71      0.00
    2   -5    9      1.20      0.00
    3   -5    9      0.28      0.00
    4   -5    9     -1.18      0.00
    5   -5    9     -0.35      0.00
    6   -5    9     -0.73      0.00
   -6   -4    9     -1.43      0.00
   -5   -4    9      0.43      0.00
   -4   -4    9      0.63      0.00
   -3   -4    9     -0.63      0.00
   -2   -4    9     -0.71      0.00
   -1   -4    9     -3.32      0.00
    0   -4    9     -0.78      0.00
    1   -4    9      1.21      0.00
    2   -4    9      0.03      0.00
    3   -4    9     -0.47      0.00
    4   -4    9      0.18      0.00
    5   -4    9     -0.92      0.00
    6   -4    9     -1.34      0.00
   -6   -3    9     -1.94      0.00
   -5   -3    9     -0.87      0.00
   -4   -3    9      1.48      0.00
   -3   -3    9     -0.95      0.00
   -2   -3    9     -0.26      0.00
   -1   -3    9     -1.54      0.00
    0   -3    9      0.29      0.00
    1   -3    9      1.24      0.00
    2   -3    9     -0.04      0.00
    3   -3    9     -0.44      0.00
    4   -3    9     -0.04      0.00
    5   -3    9     -0.09      0.00
    6   -3    9      0.45      0.00
   -6   -2    9     -0.33      0.00
   -5   -2    9     -1.53      0.00
   -4   -2    9      0.71      0.00
   -3   -2    9     -1.24      0.00
   -2   -2    9     -0.17      0.00
   -1   -2    9      0.75      0.00
    0   -2    9      1.20      0.00
    1   -2    9     -0.23      0.00
    2   -2    9     -0.06      0.00
    3   -2    9     -0.94      0.00
    4   -2    9     -0.73      0.00
    5   -2    9      0.52      0.00
    6   -2    9      0.64      0.00
   -6   -1    9      1.39      0.00
   -5   -1    9     -0.44      0.00
   -4   -1    9      1.40      0.00
   -3   -1    9     -0.55      0.00
   -2   -1    9     -1.06      0.00
   -1   -1    9      0.61      0.00
    0   -1    9      2.32      0.00
    1   -1    9      0.11      0.00
    2   -1    9     -0.40      0.00
    3   -1    9     -1.22      0.00
    4   -1    9     -0.71      0.00
    5   -1    9     -1.46      0.00
    6   -1    9     -1.09      0.00
   -6    0    9      1.10      0.00
   -5    0    9      0.46      0.00
   -4    0    9      2.52      0.00
   -3    0    9     -0.15      0.00
   -2    0    9     -1.04      0.00
   -1    0    9     -0.75      0.00
    0    0    9      1.45      0.00
    1    0    9      0.85      0.00
    2    0    9     -0.27      0.00
    3    0    9     -0.48      0.00
    4    0    9      0.23      0.00
    5    0    9     -1.08      0.00
    6    0    9      0.45      0.00
   -6    1    9      0.05      0.00
   -5    1    9      1.24      0.00
   -4    1    9      0.04      0.00
   -3    1    9      0.69      0.00
   -2    1    9     -1.03      0.00
   -1    1    9     -0.74      0.00
    0    1    9     -0.43      0.00
    1    1    9     -0.40      0.00
    2    1    9     -0.01      0.00
    3    1    9     -0.75      0.00
    4    1    9      0.59      0.00
    5    1    9      1.94      0.00
    6    1    9      4.51      0.00
   -6    2    9      0.51      0.00
   -5    2    9      0.87      0.00
   -4    2    9     -2.10      0.00
   -3    2    9      1.43      0.00
   -2    2    9     -1.86      0.00
   -1    2    9      0.08      0.00
    0    2    9     -0.68      0.00
    1    2    9     -0.96      0.00
    2    2    9      0.20      0.00
    3    2    9     -1.45      0.00
    4    2    9     -1.05      0.00
    5    2    9      1.81      0.00
    6    2    9      4.32      0.00
   -6    3    9     -0.21      0.00
   -5    3    9     -0.31      0.00
   -4    3    9     -0.50      0.00
   -3    3    9      0.11      0.00
   -2    3    9     -1.16      0.00
   -1    3    9      0.22      0.00
    0    3    9     -0.06      0.00
    1    3    9      0.13      0.00
    2    3    9      1.27      0.00
    3    3    9     -0.91      0.00
    4    3    9     -2.05      0.00
    5    3    9      0.39      0.00
    6    3    9      0.59      0.00
   -6    4    9     -2.20      0.00
   -5    4    9      0.28      0.00
   -4    4    9      0.40      0.00
   -3    4    9     -0.43      0.00
   -2    4    9      0.05      0.00
   -1    4    9      0.42      0.00
    0    4    9      0.26      0.00
    1    4    9      1.13      0.00
    2    4    9      1.78      0.00
    3    4    9      0.52      0.00
    4    4    9     -0.90      0.00
   -6    5    9     -0.81      0.00
   -5    5    9      0.83      0.00
   -4    5    9      0.49      0.00
   -3    5    9      0.78      0.00
   -2    5    9      0.27      0.00
   -1    5    9      0.61      0.00
    0    5    9      0.31      0.00
    1    5    9      1.81      0.00
    2    5    9      1.07      0.00
    3    5    9      1.74      0.00
    4    5    9     -0.31      0.00
   -5    6    9      0.15      0.00
   -4    6    9      1.69      0.00
   -3    6    9      1.03      0.00
   -2    6    9      0.13      0.00
   -1    6    9      0.24      0.00
    0    6    9     -0.43      0.00
    1    6    9      0.72      0.00
    2    6    9      1.63      0.00
    3    6    9      1.10      0.00
    4    6    9     -0.59      0.00
   -5    7    9     -0.28      0.00
   -4    7    9      1.93      0.00
   -3    7    9      0.36      0.00
   -2    7    9     -0.62      0.00
   -1    7    9      0.18      0.00
    0    7    9     -1.10      0.00
    1    7    9     -0.92      0.00
    2    7    9      1.47      0.00
    3    7    9      0.50      0.00
    4    7    9     -0.52      0.00
    5    7    9     -3.08      0.00
   -4    8    9      1.08      0.00
   -3    8    9     -0.13      0.00
   -2    8    9     -1.36      0.00
   -1    8    9      0.44      0.00
    0    8    9      0.17      0.00
    1    8    9      0.53      0.00
    2    8    9     -0.72      0.00
    3    8    9      2.61      0.00
    4    8    9     -0.40      0.00
   -4    9    9     -0.02      0.00
   -3    9    9     -0.01      0.00
   -2    9    9     -1.54      0.00
   -1    9    9      0.65      0.00
    0    9    9      1.61      0.00
    1    9    9      1.93      0.00
    2    9    9     -0.44      0.00
    3    9    9      3.93      0.00
   -4   10    9     -0.71      0.00
   -3   10    9     -0.11      0.00
   -2   10    9     -0.84      0.00
   -1   10    9      0.36      0.00
    0   10    9      1.02      0.00
    1   10    9      0.51      0.00
    2   10    9      0.20      0.00
    3   10    9      2.14      0.00
   -3   11    9     -0.91      0.00
   -2   11    9      1.06      0.00
   -1   11    9     -0.25      0.00
    0   11    9      0.42      0.00
    1   11    9      0.09      0.00
    2   11    9     -2.10      0.00
    1   12    9      0.99      0.00
    0  -15   10      0.29      0.00
   -2  -14   10      1.65      0.00
   -1  -14   10     -1.13      0.00
    0  -14   10     -0.86      0.00
    1  -14   10     -4.04      0.00
    2  -14   10     -3.18      0.00
   -3  -13   10      0.33      0.00
   -2  -13   10      1.89      0.00
   -1  -13   10     -4.18      0.00
    0  -13   10      0.40      0.00
    1  -13   10     -1.49      0.00
    2  -13   10     -4.41      0.00
    3  -13   10     -1.56      0.00
   -3  -12   10      0.50      0.00
   -2  -12   10      1.76      0.00
   -1  -12   10     -3.30      0.00
    0  -12   10      1.38      0.00
    1  -12   10      0.89      0.00
    2  -12   10     -2.45      0.00
    3  -12   10      0.86      0.00
    4  -12   10     -0.60      0.00
   -4  -11   10     -1.46      0.00
   -3  -11   10      0.22      0.00
   -2  -11   10      0.79      0.00
   -1  -11   10      0.30      0.00
    0  -11   10      0.52      0.00
    1  -11   10     -0.54      0.00
    2  -11   10      0.28      0.00
    3  -11   10      1.35      0.00
    4  -11   10     -0.10      0.00
   -5  -10   10     -0.97      0.00
   -4  -10   10     -1.59      0.00
   -3  -10   10     -1.44      0.00
   -2  -10   10     -0.53      0.00
   -1  -10   10      1.57      0.00
    0  -10   10      0.25      0.00
    1  -10   10     -1.10      0.00
    2  -10   10      0.45      0.00
    3  -10   10     -0.03      0.00
    4  -10   10     -0.53      0.00
   -5   -9   10      1.03      0.00
   -4   -9   10     -1.32      0.00
   -3   -9   10     -1.59      0.00
   -2   -9   10     -0.76      0.00
   -1   -9   10      1.00      0.00
    0   -9   10      0.44      0.00
    1   -9   10      0.21      0.00
    2   -9   10      0.65      0.00
    3   -9   10     -0.22      0.00
    4   -9   10     -0.70      0.00
    5   -9   10      0.05      0.00
   -5   -8   10      0.50      0.00
   -4   -8   10     -0.87      0.00
   -3   -8   10     -0.29      0.00
   -2   -8   10      0.74      0.00
   -1   -8   10      1.17      0.00
    0   -8   10     -0.55      0.00
    1   -8   10      0.15      0.00
    2   -8   10      1.03      0.00
    3   -8   10      0.26      0.00
    4   -8   10      1.13      0.00
    5   -8   10      2.41      0.00
   -5   -7   10     -0.54      0.00
   -4   -7   10      0.79      0.00
   -3   -7   10     -0.15      0.00
   -2   -7   10      1.58      0.00
   -1   -7   10      1.32      0.00
    0   -7   10     -0.60      0.00
    1   -7   10     -0.46      0.00
    2   -7   10     -0.53      0.00
    3   -7   10      0.09      0.00
    4   -7   10      2.96      0.00
    5   -7   10      2.13      0.00
   -5   -6   10     -0.18      0.00
   -4   -6   10      1.49      0.00
   -3   -6   10     -0.53      0.00
   -2   -6   10      0.01      0.00
   -1   -6   10      1.53      0.00
    0   -6   10      0.57      0.00
    1   -6   10     -0.49      0.00
    2   -6   10     -1.35      0.00
    3   -6   10      0.65      0.00
    4   -6   10      2.18      0.00
    5   -6   10     -0.11      0.00
   -6   -5   10     -1.11      0.00
   -5   -5   10     -0.65      0.00
   -4   -5   10      0.12      0.00
   -3   -5   10     -0.59      0.00
   -2   -5   10     -0.98      0.00
   -1   -5   10      2.17      0.00
    0   -5   10      0.18      0.00
    1   -5   10     -1.09      0.00
    2   -5   10      0.03      0.00
    3   -5   10      1.42      0.00
    4   -5   10      0.41      0.00
    5   -5   10     -0.07      0.00
   -6   -4   10     -0.20      0.00
   -5   -4   10     -0.71      0.00
   -4   -4   10     -1.54      0.00
   -3   -4   10      0.07      0.00
   -2   -4   10      0.02      0.00
   -1   -4   10      1.59      0.00
    0   -4   10     -0.90      0.00
    1   -4   10     -1.21      0.00
    2   -4   10      1.06      0.00
    3   -4   10      0.81      0.00
    4   -4   10      0.42      0.00
    5   -4   10      0.20      0.00
    6   -4   10      1.03      0.00
   -6   -3   10     -0.01      0.00
   -5   -3   10      0.35      0.00
   -4   -3   10     -1.94      0.00
   -3   -3   10      1.07      0.00
   -2   -3   10      0.97      0.00
   -1   -3   10      0.22      0.00
    0   -3   10     -1.37      0.00
    1   -3   10      0.14      0.00
    2   -3   10      1.09      0.00
    3   -3   10      1.09      0.00
    4   -3   10      0.87      0.00
    5   -3   10     -0.70      0.00
    6   -3   10      0.26      0.00
   -6   -2   10     -0.72      0.00
   -5   -2   10      0.32      0.00
   -4   -2   10     -2.22      0.00
   -3   -2   10      0.67      0.00
   -2   -2   10      1.39      0.00
   -1   -2   10      0.00      0.00
    0   -2   10     -1.80      0.00
    1   -2   10      0.08      0.00
    2   -2   10      1.04      0.00
    3   -2   10      2.32      0.00
    4   -2   10      0.23      0.00
    5   -2   10     -0.03      0.00
    6   -2   10      1.14      0.00
   -6   -1   10     -0.91      0.00
   -5   -1   10      0.07      0.00
   -4   -1   10     -3.31      0.00
   -3   -1   10     -0.19      0.00
   -2   -1   10      1.12      0.00
   -1   -1   10      0.47      0.00
    0   -1   10     -1.16      0.00
    1   -1   10     -1.23      0.00
    2   -1   10      0.73      0.00
    3   -1   10      1.60      0.00
    4   -1   10     -0.53      0.00
    5   -1   10      0.42      0.00
    6   -1   10      1.16      0.00
   -6    0   10     -0.37      0.00
   -5    0   10     -0.50      0.00
   -4    0   10     -1.56      0.00
   -3    0   10     -0.97      0.00
   -2    0   10      0.87      0.00
   -1    0   10      0.20      0.00
    0    0   10      0.18      0.00
    1    0   10     -0.05      0.00
    2    0   10      0.39      0.00
    3    0   10      1.03      0.00
    4    0   10     -0.57      0.00
    5    0   10     -1.24      0.00
    6    0   10     -1.46      0.00
   -6    1   10     -1.00      0.00
   -5    1   10     -1.60      0.00
   -4    1   10      1.95      0.00
   -3    1   10     -1.40      0.00
   -2    1   10      1.48      0.00
   -1    1   10     -0.66      0.00
    0    1   10      0.37      0.00
    1    1   10      1.35      0.00
    2    1   10      0.17      0.00
    3    1   10      2.31      0.00
    4    1   10      0.59      0.00
    5    1   10     -1.49      0.00
    6    1   10     -2.20      0.00
   -6    2   10     -1.23      0.00
   -5    2   10     -1.53      0.00
   -4    2   10      1.30      0.00
   -3    2   10      0.41      0.00
   -2    2   10      0.88      0.00
   -1    2   10     -1.02      0.00
    0    2   10     -0.15      0.00
    1    2   10      0.22      0.00
    2    2   10     -1.23      0.00
    3    2   10      2.45      0.00
    4    2   10      1.74      0.00
    5    2   10     -0.06      0.00
    6    2   10      0.53      0.00
   -6    3   10      1.48      0.00
   -5    3   10     -1.61      0.00
   -4    3   10     -0.80      0.00
   -3    3   10      1.20      0.00
   -2    3   10     -0.55      0.00
   -1    3   10     -0.78      0.00
    0    3   10     -0.80      0.00
    1    3   10     -0.39      0.00
    2    3   10     -2.09      0.00
    3    3   10      0.57      0.00
    5    3   10     -0.57      0.00
   -6    4   10      2.41      0.00
   -5    4   10     -1.56      0.00
   -4    4   10     -0.90      0.00
   -3    4   10     -0.97      0.00
   -2    4   10     -0.68      0.00
   -1    4   10     -0.30      0.00
    0    4   10     -1.25      0.00
    1    4   10     -0.35      0.00
    2    4   10     -0.29      0.00
    3    4   10     -1.18      0.00
   -5    5   10      0.08      0.00
   -4    5   10     -1.33      0.00
   -3    5   10     -1.26      0.00
   -2    5   10     -0.13      0.00
   -1    5   10      0.09      0.00
    0    5   10     -0.12      0.00
    1    5   10     -0.47      0.00
    2    5   10     -0.17      0.00
    3    5   10     -1.17      0.00
    4    5   10      1.33      0.00
   -5    6   10      0.83      0.00
   -4    6   10     -1.53      0.00
   -3    6   10      0.31      0.00
   -2    6   10      1.04      0.00
   -1    6   10     -0.17      0.00
    0    6   10      1.59      0.00
    1    6   10      0.79      0.00
    2    6   10     -1.56      0.00
    3    6   10     -0.78      0.00
    4    6   10      0.07      0.00
   -4    7   10     -0.90      0.00
   -3    7   10      0.08      0.00
   -2    7   10      2.25      0.00
   -1    7   10     -0.55      0.00
    0    7   10      1.05      0.00
    1    7   10      0.71      0.00
    2    7   10      0.67      0.00
    3    7   10     -2.20      0.00
    4    7   10     -0.72      0.00
   -4    8   10     -0.50      0.00
   -3    8   10     -1.19      0.00
   -2    8   10      1.97      0.00
   -1    8   10     -0.58      0.00
    0    8   10     -0.87      0.00
    1    8   10     -1.62      0.00
    2    8   10      1.78      0.00
    3    8   10     -3.12      0.00
    4    8   10     -0.19      0.00
   -4    9   10      0.19      0.00
   -3    9   10     -1.13      0.00
   -2    9   10      0.45      0.00
   -1    9   10     -0.42      0.00
    0    9   10     -1.15      0.00
    1    9   10     -2.13      0.00
    2    9   10     -0.71      0.00
    3    9   10     -1.64      0.00
   -3   10   10      0.32      0.00
   -2   10   10     -1.65      0.00
   -1   10   10      0.17      0.00
    0   10   10     -0.43      0.00
    1   10   10     -1.01      0.00
    2   10   10      0.05      0.00
    3   10   10      0.11      0.00
   -1   11   10      0.15      0.00
    0   11   10     -0.64      0.00
    1   11   10     -0.50      0.00
   -2  -14   11     -0.62      0.00
   -1  -14   11      3.75      0.00
    0  -14   11     -0.14      0.00
    1  -14   11      2.83      0.00
   -2  -13   11     -0.90      0.00
   -1  -13   11      4.42      0.00
    0  -13   11     -1.48      0.00
    1  -13   11      0.63      0.00
    2  -13   11      2.60      0.00
    3  -13   11     -0.08      0.00
   -3  -12   11      0.24      0.00
   -2  -12   11     -0.23      0.00
   -1  -12   11      0.80      0.00
    0  -12   11     -0.68      0.00
    1  -12   11      1.54      0.00
    2  -12   11     -0.07      0.00
    3  -12   11     -0.79      0.00
   -4  -11   11      1.31      0.00
   -3  -11   11      2.22      0.00
   -2  -11   11      0.63      0.00
   -1  -11   11     -1.02      0.00
    0  -11   11     -0.03      0.00
    1  -11   11      3.05      0.00
    2  -11   11      0.10      0.00
    3  -11   11      0.63      0.00
    4  -11   11     -0.04      0.00
   -4  -10   11      0.15      0.00
   -3  -10   11      1.53      0.00
   -2  -10   11      0.78      0.00
   -1  -10   11     -0.11      0.00
    0  -10   11     -0.45      0.00
    1  -10   11      1.23      0.00
    2  -10   11      1.60      0.00
    3  -10   11      1.86      0.00
    4  -10   11      0.57      0.00
   -5   -9   11      0.36      0.00
   -4   -9   11      0.28      0.00
   -3   -9   11     -1.47      0.00
   -2   -9   11     -0.20      0.00
   -1   -9   11     -0.50      0.00
    0   -9   11      0.14      0.00
    1   -9   11     -0.67      0.00
    2   -9   11      1.15      0.00
    3   -9   11      1.47      0.00
    4   -9   11      0.08      0.00
   -5   -8   11      1.20      0.00
   -4   -8   11      0.63      0.00
   -3   -8   11     -1.59      0.00
   -2   -8   11     -0.88      0.00
   -1   -8   11     -1.51      0.00
    0   -8   11      0.72      0.00
    1   -8   11     -0.40      0.00
    2   -8   11      0.88      0.00
    3   -8   11      0.57      0.00
    4   -8   11     -1.96      0.00
    5   -8   11     -0.93      0.00
   -5   -7   11      0.09      0.00
   -4   -7   11      0.43      0.00
   -3   -7   11      0.86      0.00
   -2   -7   11      1.07      0.00
   -1   -7   11     -1.37      0.00
    0   -7   11     -0.05      0.00
    1   -7   11     -0.14      0.00
    2   -7   11      1.34      0.00
    3   -7   11     -0.72      0.00
    4   -7   11     -2.43      0.00
    5   -7   11      0.91      0.00
   -5   -6   11     -0.50      0.00
   -4   -6   11      0.23      0.00
   -3   -6   11      2.04      0.00
   -2   -6   11      3.00      0.00
   -1   -6   11     -1.10      0.00
    0   -6   11     -0.21      0.00
    1   -6   11     -0.07      0.00
    2   -6   11      0.34      0.00
    3   -6   11     -1.69      0.00
    4   -6   11     -0.54      0.00
    5   -6   11      1.52      0.00
   -5   -5   11      0.37      0.00
   -4   -5   11      0.61      0.00
   -3   -5   11      0.89      0.00
   -2   -5   11      1.38      0.00
   -1   -5   11     -0.64      0.00
    0   -5   11      0.28      0.00
    1   -5   11      0.43      0.00
    2   -5   11     -1.30      0.00
    3   -5   11     -0.53      0.00
    4   -5   11      0.08      0.00
    5   -5   11      0.07      0.00
   -6   -4   11      1.13      0.00
   -5   -4   11      0.33      0.00
   -4   -4   11      1.60      0.00
   -3   -4   11     -0.78      0.00
   -2   -4   11     -0.88      0.00
   -1   -4   11     -0.05      0.00
    0   -4   11      0.39      0.00
    1   -4   11     -0.13      0.00
    2   -4   11     -1.68      0.00
    3   -4   11      0.08      0.00
    4   -4   11     -0.50      0.00
    5   -4   11     -0.26      0.00
   -6   -3   11      0.52      0.00
   -5   -3   11      0.25      0.00
   -4   -3   11      2.16      0.00
   -3   -3   11     -0.25      0.00
   -2   -3   11     -0.89      0.00
   -1   -3   11     -0.26      0.00
    0   -3   11      0.74      0.00
    1   -3   11     -0.52      0.00
    2   -3   11     -1.16      0.00
    3   -3   11     -1.78      0.00
    4   -3   11      0.55      0.00
    5   -3   11      0.21      0.00
   -6   -2   11     -0.39      0.00
   -5   -2   11      0.05      0.00
   -4   -2   11      2.65      0.00
   -3   -2   11      1.01      0.00
   -2   -2   11     -0.07      0.00
   -1   -2   11     -0.48      0.00
    0   -2   11      0.62      0.00
    1   -2   11      0.68      0.00
    2   -2   11     -0.64      0.00
    3   -2   11     -1.85      0.00
    4   -2   11      1.63      0.00
    5   -2   11      0.38      0.00
    6   -2   11     -1.35      0.00
   -6   -1   11     -0.93      0.00
   -5   -1   11     -0.44      0.00
   -4   -1   11      1.81      0.00
   -3   -1   11      0.85      0.00
   -2   -1   11     -0.34      0.00
   -1   -1   11     -0.30      0.00
    0   -1   11     -0.08      0.00
    1   -1   11     -0.04      0.00
    2   -1   11     -0.24      0.00
    3   -1   11     -0.21      0.00
    4   -1   11      1.09      0.00
    5   -1   11      0.69      0.00
    6   -1   11     -0.17      0.00
   -6    0   11      0.13      0.00
   -5    0   11      0.58      0.00
   -4    0   11     -1.30      0.00
   -3    0   11      0.72      0.00
   -2    0   11     -1.43      0.00
   -1    0   11      0.05      0.00
    0    0   11     -0.18      0.00
    1    0   11     -2.00      0.00
    2    0   11      0.03      0.00
    3    0   11     -0.92      0.00
    4    0   11      0.27      0.00
    5    0   11      0.36      0.00
    6    0   11      1.11      0.00
   -6    1   11      1.91      0.00
   -5    1   11      1.52      0.00
   -4    1   11     -1.74      0.00
   -3    1   11     -0.34      0.00
   -2    1   11     -0.74      0.00
   -1    1   11      0.86      0.00
    0    1   11     -0.07      0.00
    1    1   11     -1.11      0.00
    2    1   11      1.10      0.00
    3    1   11     -2.09      0.00
    4    1   11     -0.25      0.00
    5    1   11     -0.46      0.00
   -6    2   11      0.56      0.00
   -5    2   11      1.91      0.00
   -4    2   11      0.87      0.00
   -3    2   11     -1.32      0.00
   -2    2   11      1.10      0.00
   -1    2   11      1.35      0.00
    0    2   11      0.54      0.00
    1    2   11     -0.59      0.00
    2    2   11      1.80      0.00
   -5    3   11      2.35      0.00
   -4    3   11      1.72      0.00
   -3    3   11      0.99      0.00
   -2    3   11      0.85      0.00
   -1    3   11      0.73      0.00
    0    3   11      1.58      0.00
    1    3   11     -1.88      0.00
    2    3   11     -0.83      0.00
   -5    4   11      0.79      0.00
   -4    4   11      1.28      0.00
   -3    4   11      2.13      0.00
   -2    4   11     -0.18      0.00
   -1    4   11      0.33      0.00
    0    4   11      0.82      0.00
    1    4   11     -1.26      0.00
    2    4   11     -2.20      0.00
    3    4   11      0.56      0.00
   -5    5   11     -0.74      0.00
   -4    5   11      0.29      0.00
   -3    5   11     -0.46      0.00
   -2    5   11     -0.69      0.00
   -1    5   11      1.19      0.00
    0    5   11     -1.22      0.00
    1    5   11     -0.47      0.00
    2    5   11      0.98      0.00
   -4    6   11     -0.74      0.00
   -3    6   11     -1.22      0.00
   -2    6   11     -1.64      0.00
   -1    6   11      1.71      0.00
    0    6   11     -1.73      0.00
    1    6   11     -0.71      0.00
    2    6   11      0.99      0.00
   -4    7   11      0.44      0.00
   -3    7   11      1.20      0.00
   -2    7   11     -1.54      0.00
   -1    7   11      1.01      0.00
    0    7   11     -0.68      0.00
    1    7   11      0.66      0.00
    2    7   11     -1.69      0.00
   -4    8   11      1.46      0.00
   -3    8   11      2.76      0.00
   -2    8   11      0.46      0.00
   -1    8   11      0.45      0.00
    0    8   11      0.19      0.00
    1    8   11      1.94      0.00
    2    8   11      0.45      0.00
   -3    9   11      1.59      0.00
   -2    9   11      2.79      0.00
   -1    9   11      0.06      0.00
    0    9   11      0.43      0.00
    1    9   11      1.17      0.00
    2    9   11      2.12      0.00
   -2   10   11      3.35      0.00
   -1   10   11     -0.42      0.00
    0   10   11      0.69      0.00
    1   10   11     -0.14      0.00
   -1  -14   12     -3.77      0.00
    0  -14   12      1.10      0.00
   -2  -13   12     -0.76      0.00
   -1  -13   12     -1.05      0.00
    0  -13   12      0.19      0.00
    1  -13   12     -2.08      0.00
    2  -13   12      0.61      0.00
   -3  -12   12     -2.54      0.00
   -2  -12   12     -0.82      0.00
   -1  -12   12      1.63      0.00
    0  -12   12     -0.17      0.00
    1  -12   12     -4.50      0.00
    2  -12   12     -0.75      0.00
    3  -12   12     -0.63      0.00
   -4  -11   12      1.07      0.00
   -3  -11   12     -2.31      0.00
   -2  -11   12     -0.83      0.00
   -1  -11   12      0.38      0.00
    0  -11   12      0.92      0.00
    1  -11   12     -3.18      0.00
    2  -11   12     -3.99      0.00
    3  -11   12     -1.90      0.00
   -4  -10   12      1.40      0.00
   -3  -10   12      1.69      0.00
   -2  -10   12     -0.85      0.00
   -1  -10   12     -0.16      0.00
    0  -10   12      0.62      0.00
    1  -10   12      0.68      0.00
    2  -10   12     -4.60      0.00
    3  -10   12     -1.75      0.00
    4  -10   12     -0.99      0.00
   -4   -9   12     -0.25      0.00
   -3   -9   12      3.39      0.00
   -2   -9   12     -0.07      0.00
   -1   -9   12      1.72      0.00
    0   -9   12     -0.33      0.00
    1   -9   12      1.89      0.00
    2   -9   12     -3.13      0.00
    3   -9   12     -0.59      0.00
    4   -9   12      0.36      0.00
   -5   -8   12     -0.43      0.00
   -4   -8   12     -1.70      0.00
   -3   -8   12      0.41      0.00
   -2   -8   12     -0.52      0.00
   -1   -8   12      2.86      0.00
    0   -8   12      0.22      0.00
    1   -8   12      1.13      0.00
    2   -8   12     -2.19      0.00
    3   -8   12      0.64      0.00
    4   -8   12      2.36      0.00
    5   -8   12     -1.00      0.00
   -5   -7   12      1.18      0.00
   -4   -7   12     -1.43      0.00
   -3   -7   12     -2.31      0.00
   -2   -7   12     -2.51      0.00
   -1   -7   12      2.62      0.00
    0   -7   12      0.76      0.00
    1   -7   12      0.72      0.00
    2   -7   12     -0.98      0.00
    3   -7   12      1.29      0.00
    4   -7   12      1.27      0.00
    5   -7   12     -1.92      0.00
   -5   -6   12      1.12      0.00
   -4   -6   12      0.00      0.00
   -3   -6   12     -1.42      0.00
   -2   -6   12     -1.98      0.00
   -1   -6   12      1.34      0.00
    0   -6   12      1.02      0.00
    1   -6   12     -0.16      0.00
    2   -6   12      1.06      0.00
    3   -6   12     -0.18      0.00
    4   -6   12     -0.48      0.00
    5   -6   12     -0.25      0.00
   -5   -5   12      0.72      0.00
   -4   -5   12     -0.04      0.00
   -3   -5   12      1.06      0.00
   -2   -5   12      0.37      0.00
   -1   -5   12     -0.04      0.00
    0   -5   12      1.56      0.00
    1   -5   12     -0.51      0.00
    2   -5   12      1.92      0.00
    3   -5   12     -1.58      0.00
    4   -5   12      0.29      0.00
    5   -5   12      1.79      0.00
   -5   -4   12      0.17      0.00
   -4   -4   12     -1.17      0.00
   -3   -4   12      0.64      0.00
   -2   -4   12      0.42      0.00
   -1   -4   12      0.12      0.00
    0   -4   12      0.85      0.00
    1   -4   12      0.38      0.00
    2   -4   12      0.76      0.00
    3   -4   12      0.44      0.00
    4   -4   12      0.12      0.00
    5   -4   12      1.72      0.00
   -6   -3   12      0.79      0.00
   -5   -3   12     -0.38      0.00
   -4   -3   12     -1.34      0.00
   -3   -3   12     -1.74      0.00
   -2   -3   12     -0.75      0.00
   -1   -3   12      0.50      0.00
    0   -3   12     -0.25      0.00
    1   -3   12     -0.06      0.00
    2   -3   12     -0.52      0.00
    3   -3   12      1.52      0.00
    4   -3   12     -1.74      0.00
    5   -3   12      0.50      0.00
   -6   -2   12      2.17      0.00
   -5   -2   12      0.54      0.00
   -4   -2   12     -0.55      0.00
   -3   -2   12     -1.25      0.00
   -2   -2   12     -0.16      0.00
   -1   -2   12      0.37      0.00
    0   -2   12     -0.35      0.00
    1   -2   12     -0.21      0.00
    2   -2   12     -1.04      0.00
    3   -2   12     -1.01      0.00
    4   -2   12     -1.78      0.00
    5   -2   12      0.08      0.00
   -6   -1   12      1.52      0.00
   -5   -1   12      0.72      0.00
   -4   -1   12      1.25      0.00
   -3   -1   12      0.08      0.00
   -2   -1   12      1.48      0.00
   -1   -1   12      0.85      0.00
    0   -1   12     -0.21      0.00
    1   -1   12      1.57      0.00
    2   -1   12     -1.27      0.00
    3   -1   12     -1.76      0.00
    4   -1   12     -0.77      0.00
    5   -1   12      1.09      0.00
   -5    0   12     -0.31      0.00
   -4    0   12      1.67      0.00
   -3    0   12      0.03      0.00
   -2    0   12      0.92      0.00
   -1    0   12      0.64      0.00
    0    0   12      0.58      0.00
    1    0   12      1.24      0.00
    2    0   12     -1.56      0.00
    3    0   12      0.10      0.00
   -5    1   12     -0.97      0.00
   -4    1   12     -0.63      0.00
   -3    1   12      0.54      0.00
   -2    1   12     -1.35      0.00
   -1    1   12     -0.62      0.00
    0    1   12      0.92      0.00
    1    1   12      0.33      0.00
    2    1   12     -1.40      0.00
   -5    2   12     -2.18      0.00
   -4    2   12     -1.96      0.00
   -3    2   12     -0.50      0.00
   -2    2   12     -0.86      0.00
   -1    2   12     -0.79      0.00
    0    2   12     -0.56      0.00
    1    2   12      2.17      0.00
    2    2   12      1.43      0.00
   -5    3   12     -2.01      0.00
   -4    3   12     -1.46      0.00
   -3    3   12     -2.33      0.00
   -2    3   12      1.17      0.00
   -1    3   12     -0.74      0.00
    0    3   12     -1.06      0.00
    1    3   12      2.22      0.00
    2    3   12      3.78      0.00
   -5    4   12     -0.06      0.00
   -4    4   12      0.33      0.00
   -3    4   12     -0.51      0.00
   -2    4   12      0.85      0.00
   -1    4   12     -2.22      0.00
    0    4   12      0.24      0.00
    1    4   12     -0.12      0.00
    2    4   12      0.18      0.00
   -4    5   12      2.70      0.00
   -3    5   12      1.84      0.00
   -2    5   12      0.24      0.00
   -1    5   12     -3.02      0.00
    0    5   12      1.09      0.00
    1    5   12     -0.68      0.00
    2    5   12     -2.70      0.00
   -4    6   12      1.07      0.00
   -3    6   12      0.35      0.00
   -2    6   12      0.50      0.00
   -1    6   12     -1.48      0.00
    0    6   12      1.62      0.00
    1    6   12     -0.43      0.00
    2    6   12     -0.01      0.00
   -4    7   12     -2.64      0.00
   -3    7   12     -2.62      0.00
   -2    7   12     -0.75      0.00
   -1    7   12     -0.04      0.00
    0    7   12      1.77      0.00
    1    7   12     -0.44      0.00
    2    7   12     -0.39      0.00
   -3    8   12     -3.13      0.00
   -2    8   12     -3.23      0.00
   -1    8   12      0.06      0.00
    0    8   12      0.76      0.00
    1    8   12      0.20      0.00
    2    8   12     -3.65      0.00
   -2    9   12     -4.17      0.00
   -1    9   12      0.31      0.00
    0    9   12     -0.18      0.00
    1    9   12      1.04      0.00
    2    9   12     -2.32      0.00
    0   10   12     -0.23      0.00
    1   10   12      1.48      0.00
    0  -14   13      0.59      0.00
    1  -14   13      1.15      0.00
   -2  -13   13      0.54      0.00
   -1  -13   13     -2.17      0.00
    0  -13   13      1.21      0.00
    1  -13   13      4.22      0.00
    2  -13   13      0.57      0.00
   -3  -12   13      2.42      0.00
   -2  -12   13      0.16      0.00
   -1  -12   13     -1.53      0.00
    0  -12   13     -0.83      0.00
    1  -12   13      4.47      0.00
    2  -12   13      4.00      0.00
    3  -12   13      0.34      0.00
   -3  -11   13     -0.15      0.00
   -2  -11   13      1.64      0.00
   -1  -11   13      0.57      0.00
    0  -11   13     -1.35      0.00
    1  -11   13      0.11      0.00
    2  -11   13      5.04      0.00
    3  -11   13     -0.14      0.00
   -4  -10   13     -0.50      0.00
   -3  -10   13     -2.90      0.00
   -2  -10   13      1.97      0.00
   -1  -10   13     -0.46      0.00
    0  -10   13      0.43      0.00
    1  -10   13     -2.46      0.00
    2  -10   13      3.72      0.00
    3  -10   13     -1.23      0.00
    4  -10   13      0.78      0.00
   -4   -9   13      1.34      0.00
   -3   -9   13     -1.37      0.00
   -2   -9   13      0.26      0.00
   -1   -9   13     -2.89      0.00
    0   -9   13      0.75      0.00
    1   -9   13     -1.05      0.00
    2   -9   13      2.39      0.00
    3   -9   13     -1.75      0.00
    4   -9   13     -2.08      0.00
   -4   -8   13      2.08      0.00
   -3   -8   13      1.89      0.00
   -2   -8   13      0.18      0.00
   -1   -8   13     -4.21      0.00
    0   -8   13      0.05      0.00
    1   -8   13      0.05      0.00
    2   -8   13      0.91      0.00
    3   -8   13     -1.34      0.00
    4   -8   13     -2.95      0.00
   -5   -7   13     -1.52      0.00
   -4   -7   13      0.45      0.00
   -3   -7   13      2.11      0.00
   -2   -7   13      0.80      0.00
   -1   -7   13     -3.28      0.00
    0   -7   13     -0.89      0.00
    1   -7   13      0.54      0.00
    2   -7   13     -1.36      0.00
    3   -7   13      0.61      0.00
    4   -7   13     -0.34      0.00
    5   -7   13     -0.24      0.00
   -5   -6   13     -1.85      0.00
   -4   -6   13     -0.94      0.00
   -3   -6   13     -0.97      0.00
   -2   -6   13     -0.22      0.00
   -1   -6   13     -0.98      0.00
    0   -6   13     -2.53      0.00
    1   -6   13      1.38      0.00
    2   -6   13     -2.61      0.00
    3   -6   13      2.39      0.00
    4   -6   13     -0.18      0.00
    5   -6   13     -2.61      0.00
   -5   -5   13     -1.50      0.00
   -4   -5   13      0.19      0.00
   -3   -5   13     -2.19      0.00
   -2   -5   13     -0.66      0.00
   -1   -5   13     -0.49      0.00
    0   -5   13     -2.18      0.00
    1   -5   13      0.50      0.00
    2   -5   13     -1.00      0.00
    3   -5   13      0.25      0.00
    4   -5   13     -1.86      0.00
    5   -5   13     -3.53      0.00
   -5   -4   13      0.17      0.00
   -4   -4   13      0.95      0.00
   -3   -4   13      0.73      0.00
   -2   -4   13     -0.08      0.00
   -1   -4   13     -0.74      0.00
    0   -4   13     -0.05      0.00
    1   -4   13     -0.13      0.00
    2   -4   13      1.29      0.00
    3   -4   13     -1.98      0.00
    4   -4   13     -0.45      0.00
    5   -4   13     -2.41      0.00
   -5   -3   13      0.28      0.00
   -4   -3   13     -0.07      0.00
   -3   -3   13      1.85      0.00
   -2   -3   13     -0.36      0.00
   -1   -3   13      0.32      0.00
    0   -3   13      0.85      0.00
    1   -3   13      0.68      0.00
    2   -3   13      1.92      0.00
    3   -3   13      1.03      0.00
    4   -3   13      1.39      0.00
   -5   -2   13     -0.77      0.00
   -4   -2   13     -1.25      0.00
   -3   -2   13     -0.02      0.00
   -2   -2   13     -1.17      0.00
   -1   -2   13      0.10      0.00
    0   -2   13      0.88      0.00
    1   -2   13     -0.19      0.00
    2   -2   13      1.87      0.00
    3   -2   13      3.62      0.00
    4   -2   13      0.74      0.00
   -5   -1   13     -0.19      0.00
   -4   -1   13     -1.14      0.00
   -3   -1   13      0.04      0.00
   -2   -1   13     -0.70      0.00
   -1   -1   13     -1.16      0.00
    0   -1   13     -0.37      0.00
    1   -1   13     -0.56      0.00
    2   -1   13      1.55      0.00
    3   -1   13      1.54      0.00
    4   -1   13     -0.28      0.00
   -5    0   13      0.61      0.00
   -4    0   13      0.43      0.00
   -3    0   13      0.36      0.00
   -2    0   13      1.20      0.00
   -1    0   13     -0.80      0.00
    0    0   13     -2.10      0.00
    1    0   13      0.85      0.00
    2    0   13      0.53      0.00
    3    0   13     -0.35      0.00
   -5    1   13      1.47      0.00
   -4    1   13      1.11      0.00
   -3    1   13     -0.23      0.00
   -2    1   13      0.96      0.00
   -1    1   13     -0.23      0.00
    0    1   13     -0.92      0.00
    1    1   13     -0.12      0.00
    2    1   13     -1.73      0.00
   -5    2   13      2.16      0.00
   -4    2   13      0.70      0.00
   -3    2   13      0.85      0.00
   -2    2   13     -1.87      0.00
   -1    2   13      0.12      0.00
    0    2   13      0.92      0.00
    2    2   13     -3.86      0.00
   -5    3   13      0.71      0.00
   -4    3   13     -0.21      0.00
   -3    3   13      0.89      0.00
   -2    3   13     -2.18      0.00
   -1    3   13      1.77      0.00
    0    3   13      0.67      0.00
    1    3   13      0.71      0.00
    2    3   13     -1.43      0.00
   -4    4   13     -2.82      0.00
   -3    4   13     -1.44      0.00
   -2    4   13     -0.17      0.00
   -1    4   13      2.70      0.00
    0    4   13      0.15      0.00
    1    4   13      1.81      0.00
    2    4   13      2.31      0.00
   -4    5   13     -2.48      0.00
   -3    5   13     -1.96      0.00
   -2    5   13      0.13      0.00
   -1    5   13      0.99      0.00
    0    5   13     -1.14      0.00
    1    5   13      0.81      0.00
    2    5   13      0.71      0.00
   -4    6   13      2.46      0.00
   -3    6   13      0.60      0.00
   -2    6   13      0.10      0.00
   -1    6   13     -0.82      0.00
    0    6   13     -2.93      0.00
    1    6   13     -0.67      0.00
    2    6   13     -0.13      0.00
   -3    7   13      2.80      0.00
   -2    7   13      1.98      0.00
   -1    7   13     -0.69      0.00
    0    7   13     -2.24      0.00
    1    7   13     -1.57      0.00
    2    7   13      3.68      0.00
   -2    8   13      3.80      0.00
   -1    8   13     -0.34      0.00
    0    8   13     -0.56      0.00
    1    8   13     -1.15      0.00
    2    8   13      4.19      0.00
   -1    9   13     -0.73      0.00
    0    9   13     -0.56      0.00
    1    9   13     -0.89      0.00
   -2  -13   14      0.67      0.00
   -1  -13   14      1.97      0.00
    0  -13   14     -0.20      0.00
    1  -13   14     -4.28      0.00
   -2  -12   14     -1.19      0.00
   -1  -12   14     -0.45      0.00
    0  -12   14      1.65      0.00
    1  -12   14     -0.96      0.00
    2  -12   14     -2.45      0.00
   -3  -11   14      0.96      0.00
   -2  -11   14     -3.63      0.00
   -1  -11   14     -1.43      0.00
    0  -11   14     -0.36      0.00
    1  -11   14      2.47      0.00
    2  -11   14     -1.22      0.00
    3  -11   14      3.07      0.00
   -3  -10   14      0.86      0.00
   -2  -10   14     -1.82      0.00
   -1  -10   14      0.13      0.00
    0  -10   14     -2.41      0.00
    1  -10   14      0.76      0.00
    2  -10   14     -0.69      0.00
    3  -10   14      3.30      0.00
   -4   -9   14     -1.58      0.00
   -3   -9   14     -1.70      0.00
   -2   -9   14      0.97      0.00
   -1   -9   14      2.39      0.00
    0   -9   14     -2.18      0.00
    1   -9   14     -1.22      0.00
    2   -9   14      0.23      0.00
    3   -9   14      2.05      0.00
    4   -9   14      3.99      0.00
   -4   -8   14     -1.28      0.00
   -3   -8   14     -3.29      0.00
   -2   -8   14      0.83      0.00
   -1   -8   14      3.09      0.00
    0   -8   14     -0.85      0.00
    1   -8   14     -0.69      0.00
    2   -8   14      2.15      0.00
    3   -8   14     -0.52      0.00
    4   -8   14      1.91      0.00
   -4   -7   14      0.42      0.00
   -3   -7   14     -0.90      0.00
   -2   -7   14      0.20      0.00
   -1   -7   14      1.35      0.00
    0   -7   14      1.48      0.00
    1   -7   14     -1.13      0.00
    2   -7   14      3.31      0.00
    3   -7   14     -2.84      0.00
    4   -7   14     -0.36      0.00
   -5   -6   14      1.95      0.00
   -4   -6   14     -0.10      0.00
   -3   -6   14      2.65      0.00
   -2   -6   14      0.69      0.00
   -1   -6   14      0.61      0.00
    0   -6   14      2.08      0.00
    1   -6   14     -1.19      0.00
    2   -6   14      1.71      0.00
    3   -6   14     -0.94      0.00
    4   -6   14      1.91      0.00
   -5   -5   14      0.31      0.00
   -4   -5   14     -1.78      0.00
   -3   -5   14      1.54      0.00
   -2   -5   14      1.64      0.00
   -1   -5   14      1.05      0.00
    0   -5   14      0.27      0.00
    1   -5   14      0.01      0.00
    2   -5   14     -0.97      0.00
    3   -5   14      2.59      0.00
    4   -5   14      2.67      0.00
   -5   -4   14     -1.17      0.00
   -4   -4   14     -1.21      0.00
   -3   -4   14     -1.57      0.00
   -2   -4   14      1.99      0.00
   -1   -4   14     -0.93      0.00
    0   -4   14     -0.35      0.00
    1   -4   14     -0.61      0.00
    2   -4   14     -1.51      0.00
    3   -4   14      0.08      0.00
    4   -4   14     -0.08      0.00
    5   -4   14      1.85      0.00
   -5   -3   14     -0.17      0.00
   -4   -3   14      0.13      0.00
   -3   -3   14     -0.99      0.00
   -2   -3   14      0.67      0.00
   -1   -3   14     -2.39      0.00
    0   -3   14     -0.33      0.00
    1   -3   14     -0.72      0.00
    2   -3   14     -0.93      0.00
    3   -3   14     -4.19      0.00
    4   -3   14     -0.73      0.00
    5   -3   14      2.06      0.00
   -5   -2   14     -0.22      0.00
   -4   -2   14      0.13      0.00
   -3   -2   14      0.11      0.00
   -2   -2   14     -0.67      0.00
   -1   -2   14     -0.64      0.00
    0   -2   14      0.11      0.00
    1   -2   14      0.32      0.00
    2   -2   14     -0.39      0.00
    3   -2   14     -2.33      0.00
    4   -2   14      1.26      0.00
    5   -2   14      2.93      0.00
   -5   -1   14     -1.61      0.00
   -4   -1   14     -0.45      0.00
   -3   -1   14     -0.13      0.00
   -2   -1   14     -1.01      0.00
   -1   -1   14      0.78      0.00
    0   -1   14      2.15      0.00
    1   -1   14     -0.93      0.00
    2   -1   14      0.89      0.00
    3   -1   14      0.82      0.00
    4   -1   14      2.26      0.00
   -5    0   14     -1.87      0.00
   -4    0   14      0.16      0.00
   -3    0   14      0.85      0.00
   -2    0   14     -0.72      0.00
   -1    0   14      1.07      0.00
    0    0   14      1.81      0.00
    1    0   14     -1.69      0.00
    2    0   14      2.12      0.00
   -5    1   14     -1.65      0.00
   -4    1   14      1.01      0.00
   -3    1   14      1.00      0.00
   -2    1   14      1.33      0.00
   -1    1   14      1.07      0.00
    0    1   14     -0.74      0.00
    1    1   14     -0.46      0.00
    2    1   14      2.72      0.00
   -5    2   14     -0.60      0.00
   -4    2   14      0.41      0.00
   -3    2   14      0.15      0.00
   -2    2   14      3.03      0.00
   -1    2   14     -0.16      0.00
    2    2   14      1.63      0.00
   -4    3   14      1.19      0.00
   -3    3   14      1.37      0.00
   -2    3   14      1.68      0.00
   -1    3   14     -0.79      0.00
    0    3   14     -0.53      0.00
    1    3   14     -1.12      0.00
    2    3   14     -0.47      0.00
   -4    4   14      2.01      0.00
   -3    4   14      2.86      0.00
   -2    4   14      0.22      0.00
   -1    4   14      0.61      0.00
    0    4   14      0.37      0.00
    1    4   14     -0.30      0.00
    2    4   14      0.57      0.00
   -4    5   14     -1.73      0.00
   -3    5   14      1.58      0.00
   -2    5   14      0.39      0.00
   -1    5   14      1.59      0.00
    0    5   14      2.53      0.00
    1    5   14      1.13      0.00
    2    5   14      1.75      0.00
   -3    6   14     -1.06      0.00
   -2    6   14     -0.23      0.00
   -1    6   14      0.84      0.00
    0    6   14      2.26      0.00
    1    6   14      1.81      0.00
    2    6   14     -1.68      0.00
   -3    7   14     -1.59      0.00
   -2    7   14     -2.08      0.00
   -1    7   14      0.18      0.00
    0    7   14     -0.15      0.00
    1    7   14      0.00      0.00
    2    7   14     -3.75      0.00
   -2    8   14     -2.80      0.00
   -1    8   14      0.55      0.00
    0    8   14     -0.25      0.00
    1    8   14     -1.58      0.00
    0  -13   15     -1.14      0.00
    1  -13   15      1.53      0.00
   -2  -12   15      3.22      0.00
   -1  -12   15      1.86      0.00
    0  -12   15     -0.19      0.00
    1  -12   15     -1.96      0.00
    2  -12   15     -1.34      0.00
   -3  -11   15     -0.18      0.00
   -2  -11   15      3.34      0.00
   -1  -11   15      2.25      0.00
    0  -11   15      2.83      0.00
    1  -11   15     -1.00      0.00
    2  -11   15     -1.20      0.00
    3  -11   15     -3.35      0.00
   -3  -10   15      1.31      0.00
   -2  -10   15     -0.17      0.00
   -1  -10   15      1.15      0.00
    0  -10   15      3.42      0.00
    1  -10   15      1.68      0.00
    2  -10   15     -1.20      0.00
    3  -10   15     -2.41      0.00
   -3   -9   15      3.59      0.00
   -2   -9   15     -1.69      0.00
   -1   -9   15     -0.41      0.00
    0   -9   15      1.95      0.00
    1   -9   15      0.66      0.00
    2   -9   15     -2.21      0.00
    3   -9   15      0.08      0.00
   -3   -8   15      3.31      0.00
   -2   -8   15     -0.40      0.00
   -1   -8   15     -0.06      0.00
    0   -8   15     -0.18      0.00
    1   -8   15      0.06      0.00
    2   -8   15     -2.52      0.00
    3   -8   15      3.04      0.00
   -4   -7   15      0.72      0.00
   -3   -7   15     -0.58      0.00
   -2   -7   15      0.07      0.00
   -1   -7   15      0.54      0.00
    0   -7   15     -0.97      0.00
    1   -7   15      1.26      0.00
    2   -7   15     -1.02      0.00
    3   -7   15      2.50      0.00
    4   -7   15      0.34      0.00
   -4   -6   15      2.77      0.00
   -3   -6   15     -2.39      0.00
   -2   -6   15     -1.82      0.00
   -1   -6   15     -0.41      0.00
    0   -6   15      0.01      0.00
    1   -6   15      0.52      0.00
    2   -6   15      1.11      0.00
    3   -6   15     -1.43      0.00
    4   -6   15     -2.18      0.00
   -4   -5   15      3.19      0.00
   -3   -5   15      0.80      0.00
   -2   -5   15     -3.29      0.00
   -1   -5   15      0.88      0.00
    0   -5   15     -0.77      0.00
    1   -5   15      0.30      0.00
    2   -5   15      1.12      0.00
    3   -5   15     -0.61      0.00
    4   -5   15     -0.62      0.00
   -4   -4   15      1.79      0.00
   -3   -4   15      2.41      0.00
   -2   -4   15     -0.53      0.00
   -1   -4   15      3.37      0.00
    0   -4   15     -1.80      0.00
    1   -4   15      0.89      0.00
    2   -4   15     -0.16      0.00
    3   -4   15      4.24      0.00
    4   -4   15      1.07      0.00
   -4   -3   15      1.07      0.00
   -3   -3   15      0.23      0.00
   -2   -3   15      2.70      0.00
   -1   -3   15      2.58      0.00
    0   -3   15     -0.96      0.00
    1   -3   15     -0.53      0.00
    2   -3   15     -0.64      0.00
    3   -3   15      3.14      0.00
    4   -3   15     -0.97      0.00
   -5   -2   15      2.09      0.00
   -4   -2   15      0.45      0.00
   -3   -2   15     -1.27      0.00
   -2   -2   15      1.32      0.00
   -1   -2   15      0.74      0.00
    0   -2   15     -1.85      0.00
    1   -2   15     -0.38      0.00
    2   -2   15     -1.41      0.00
    3   -2   15     -1.10      0.00
    4   -2   15     -2.89      0.00
   -5   -1   15      2.97      0.00
   -4   -1   15     -1.19      0.00
   -3   -1   15     -1.67      0.00
   -2   -1   15     -0.55      0.00
   -1   -1   15     -0.46      0.00
    0   -1   15     -2.32      0.00
    1   -1   15      1.53      0.00
    2   -1   15     -1.72      0.00
    3   -1   15     -0.48      0.00
   -5    0   15      1.73      0.00
   -4    0   15     -2.27      0.00
   -3    0   15     -1.45      0.00
   -2    0   15     -0.60      0.00
   -1    0   15     -1.56      0.00
    0    0   15      0.29      0.00
    1    0   15      1.10      0.00
    2    0   15     -0.66      0.00
   -5    1   15      0.35      0.00
   -4    1   15     -0.79      0.00
   -3    1   15     -0.71      0.00
   -2    1   15     -1.85      0.00
   -1    1   15     -1.02      0.00
    0    1   15      1.03      0.00
    1    1   15     -0.22      0.00
    2    1   15     -0.22      0.00
   -5    2   15     -0.57      0.00
   -4    2   15      0.49      0.00
   -3    2   15     -1.68      0.00
   -2    2   15     -2.45      0.00
    1    2   15     -0.79      0.00
    2    2   15     -0.64      0.00
   -4    3   15     -0.29      0.00
   -3    3   15     -3.20      0.00
   -2    3   15     -0.68      0.00
    0    3   15     -0.68      0.00
    1    3   15     -1.13      0.00
    2    3   15     -1.90      0.00
   -4    4   15      1.21      0.00
   -3    4   15     -2.45      0.00
   -2    4   15      0.55      0.00
   -1    4   15     -2.15      0.00
    0    4   15     -1.94      0.00
    1    4   15     -1.34      0.00
    2    4   15     -2.79      0.00
   -3    5   15     -0.33      0.00
   -2    5   15      0.43      0.00
   -1    5   15     -0.14      0.00
    0    5   15     -1.55      0.00
    1    5   15     -1.33      0.00
    2    5   15     -0.59      0.00
   -3    6   15      0.58      0.00
   -2    6   15      0.76      0.00
   -1    6   15      0.93      0.00
    0    6   15      1.84      0.00
    1    6   15      0.98      0.00
    2    6   15      1.41      0.00
   -2    7   15      1.61      0.00
   -1    7   15      0.18      0.00
    0    7   15      2.99      0.00
    1    7   15      3.83      0.00
    2    7   15      0.01      0.00
   -1    8   15     -0.33      0.00
    0  -12   16     -1.92      0.00
   -2  -11   16     -0.85      0.00
   -1  -11   16     -2.44      0.00
    0  -11   16     -2.77      0.00
    1  -11   16     -1.29      0.00
   -3  -10   16     -2.09      0.00
   -2  -10   16      1.84      0.00
   -1  -10   16     -1.51      0.00
    0  -10   16     -1.20      0.00
    1  -10   16     -1.05      0.00
    2  -10   16      1.37      0.00
    3  -10   16      0.43      0.00
   -3   -9   16     -3.41      0.00
   -2   -9   16      1.51      0.00
   -1   -9   16     -0.90      0.00
    0   -9   16      0.36      0.00
    1   -9   16      0.01      0.00
    2   -9   16      0.61      0.00
    3   -9   16     -2.19      0.00
   -3   -8   16     -1.69      0.00
   -2   -8   16     -0.11      0.00
   -1   -8   16     -1.50      0.00
    0   -8   16      0.35      0.00
    1   -8   16     -1.64      0.00
    2   -8   16     -1.30      0.00
    3   -8   16     -3.37      0.00
   -3   -7   16      1.04      0.00
   -2   -7   16      0.74      0.00
   -1   -7   16     -0.93      0.00
    0   -7   16     -0.62      0.00
    1   -7   16     -1.80      0.00
    2   -7   16     -2.73      0.00
    3   -7   16     -0.80      0.00
   -4   -6   16     -3.97      0.00
   -3   -6   16     -0.66      0.00
   -2   -6   16      3.04      0.00
   -1   -6   16     -0.88      0.00
    0   -6   16      0.92      0.00
    1   -6   16     -0.76      0.00
    2   -6   16     -2.04      0.00
    3   -6   16      0.02      0.00
   -4   -5   16     -2.99      0.00
   -3   -5   16     -3.70      0.00
   -2   -5   16      0.83      0.00
   -1   -5   16     -2.43      0.00
    0   -5   16      3.16      0.00
    1   -5   16     -1.22      0.00
    2   -5   16      0.05      0.00
    3   -5   16     -3.78      0.00
    4   -5   16     -1.17      0.00
   -4   -4   16     -1.98      0.00
   -3   -4   16     -1.70      0.00
   -2   -4   16     -3.92      0.00
   -1   -4   16     -2.41      0.00
    0   -4   16      1.81      0.00
    1   -4   16      0.04      0.00
    2   -4   16      0.71      0.00
    3   -4   16     -3.71      0.00
    4   -4   16      0.00      0.00
   -4   -3   16     -0.49      0.00
   -3   -3   16      2.09      0.00
   -2   -3   16     -2.13      0.00
   -1   -3   16     -1.74      0.00
    0   -3   16      1.36      0.00
    1   -3   16      1.22      0.00
    2   -3   16      0.53      0.00
    3   -3   16      0.79      0.00
    4   -3   16      2.13      0.00
   -4   -2   16      1.93      0.00
   -3   -2   16      2.65      0.00
   -2   -2   16      2.54      0.00
   -1   -2   16     -1.02      0.00
    0   -2   16      2.72      0.00
    1   -2   16     -0.68      0.00
    2   -2   16      0.00      0.00
    3   -2   16      0.38      0.00
   -4   -1   16      2.66      0.00
   -3   -1   16      0.80      0.00
   -2   -1   16      1.72      0.00
   -1   -1   16      1.09      0.00
    0   -1   16      0.70      0.00
    1   -1   16     -1.26      0.00
    2   -1   16     -1.84      0.00
   -4    0   16      0.51      0.00
   -3    0   16     -0.52      0.00
   -2    0   16      0.11      0.00
   -1    0   16      1.26      0.00
    0    0   16     -0.93      0.00
    1    0   16      0.69      0.00
    2    0   16     -1.91      0.00
   -4    1   16     -1.63      0.00
   -3    1   16      0.80      0.00
   -2    1   16      1.22      0.00
    0    1   16      0.64      0.00
    1    1   16      2.09      0.00
   -4    2   16     -1.14      0.00
   -3    2   16      2.55      0.00
   -2    2   16      0.29      0.00
    0    2   16      1.31      0.00
    1    2   16      1.95      0.00
    2    2   16      2.39      0.00
   -4    3   16     -0.89      0.00
   -3    3   16      1.67      0.00
   -2    3   16     -2.40      0.00
   -1    3   16      2.58      0.00
    0    3   16      1.70      0.00
    1    3   16      0.81      0.00
    2    3   16      2.14      0.00
   -3    4   16      0.04      0.00
   -2    4   16     -2.86      0.00
   -1    4   16      0.11      0.00
    0    4   16      1.67      0.00
    1    4   16      0.25      0.00
   -3    5   16     -0.09      0.00
   -2    5   16     -1.50      0.00
   -1    5   16     -2.00      0.00
    0    5   16     -1.69      0.00
    1    5   16     -0.92      0.00
   -2    6   16     -0.79      0.00
   -1    6   16     -1.36      0.00
    0    6   16     -4.59      0.00
    1    6   16     -3.54      0.00
    0  -11   17     -0.24      0.00
   -1  -10   17      0.23      0.00
    0  -10   17     -1.31      0.00
    1  -10   17      0.87      0.00
   -3   -9   17      1.50      0.00
   -2   -9   17     -1.42      0.00
   -1   -9   17      0.55      0.00
    0   -9   17     -0.46      0.00
    1   -9   17      2.45      0.00
    2   -9   17      2.55      0.00
   -3   -8   17      0.20      0.00
   -2   -8   17     -0.49      0.00
   -1   -8   17      1.10      0.00
    0   -8   17      0.98      0.00
    1   -8   17      3.22      0.00
    2   -8   17      3.97      0.00
   -3   -7   17      0.79      0.00
   -2   -7   17     -1.97      0.00
   -1   -7   17      1.02      0.00
    0   -7   17      0.07      0.00
    1   -7   17      1.87      0.00
    2   -7   17      3.24      0.00
   -3   -6   17      3.94      0.00
   -2   -6   17     -1.24      0.00
   -1   -6   17      1.30      0.00
    0   -6   17     -2.15      0.00
    1   -6   17      1.91      0.00
    2   -6   17      0.72      0.00
    3   -6   17      2.28      0.00
   -3   -5   17      3.40      0.00
   -2   -5   17      3.40      0.00
   -1   -5   17      1.09      0.00
    0   -5   17     -0.94      0.00
    1   -5   17      1.10      0.00
    2   -5   17     -0.69      0.00
    3   -5   17      2.91      0.00
   -4   -4   17      0.92      0.00
   -3   -4   17     -1.01      0.00
   -2   -4   17      2.74      0.00
   -1   -4   17      1.57      0.00
    0   -4   17      0.08      0.00
    1   -4   17     -0.87      0.00
    2   -4   17      0.01      0.00
    3   -4   17     -0.65      0.00
   -4   -3   17     -1.92      0.00
   -3   -3   17     -2.62      0.00
   -2   -3   17     -3.80      0.00
   -1   -3   17      2.28      0.00
    0   -3   17     -2.32      0.00
    1   -3   17      0.45      0.00
    2   -3   17      1.32      0.00
    3   -3   17     -0.79      0.00
    4   -3   17     -0.84      0.00
   -4   -2   17     -2.82      0.00
   -3   -2   17     -0.21      0.00
   -2   -2   17     -4.46      0.00
   -1   -2   17     -0.17      0.00
    0   -2   17     -1.59      0.00
    1   -2   17      1.89      0.00
    2   -2   17      3.21      0.00
   -4   -1   17     -0.10      0.00
   -3   -1   17      2.01      0.00
   -2   -1   17     -0.31      0.00
   -1   -1   17     -1.36      0.00
    0   -1   17      1.11      0.00
    1   -1   17     -0.10      0.00
    2   -1   17      2.94      0.00
   -4    0   17      2.29      0.00
   -3    0   17      1.06      0.00
   -2    0   17      0.31      0.00
   -1    0   17      1.33      0.00
    0    0   17      0.09      0.00
    1    0   17     -2.11      0.00
    2    0   17     -1.00      0.00
   -4    1   17      1.75      0.00
   -3    1   17     -0.85      0.00
    0    1   17     -0.79      0.00
   -3    2   17     -0.03      0.00
   -2    2   17      3.25      0.00
   -1    2   17     -2.12      0.00
    0    2   17     -0.41      0.00
    1    2   17      0.43      0.00
    2    2   17     -1.50      0.00
   -2    3   17      4.76      0.00
   -1    3   17     -1.39      0.00
    0    3   17     -1.41      0.00
    1    3   17      1.61      0.00
   -2    4   17      3.19      0.00
   -1    4   17      1.27      0.00
    0    4   17     -0.55      0.00
    1    4   17      0.98      0.00
    0    5   17      2.59      0.00
    1    5   17      1.42      0.00
    0  -10   18      0.46      0.00
   -1   -9   18      0.16      0.00
    0   -9   18     -0.99      0.00
    1   -9   18     -3.14      0.00
   -2   -8   18      1.29      0.00
   -1   -8   18     -0.56      0.00
    0   -8   18     -0.88      0.00
    1   -8   18     -2.19      0.00
    2   -8   18     -2.79      0.00
   -3   -7   18     -2.53      0.00
   -2   -7   18      1.40      0.00
   -1   -7   18     -0.75      0.00
    0   -7   18      0.26      0.00
    1   -7   18     -2.19      0.00
    2   -7   18     -0.90      0.00
   -3   -6   18     -3.44      0.00
   -2   -6   18     -1.67      0.00
   -1   -6   18     -0.36      0.00
    0   -6   18     -0.80      0.00
    1   -6   18     -1.90      0.00
    2   -6   18      1.09      0.00
   -3   -5   18     -0.60      0.00
   -2   -5   18     -2.36      0.00
   -1   -5   18     -1.25      0.00
    0   -5   18     -1.88      0.00
    1   -5   18      0.29      0.00
    2   -5   18      0.72      0.00
    3   -5   18      0.74      0.00
   -4   -4   18      0.88      0.00
   -3   -4   18      1.27      0.00
   -2   -4   18      3.48      0.00
   -1   -4   18     -3.20      0.00
    0   -4   18      0.92      0.00
    1   -4   18     -0.28      0.00
    2   -4   18     -0.85      0.00
    3   -4   18      1.35      0.00
   -4   -3   18      2.63      0.00
   -3   -3   18     -0.31      0.00
   -2   -3   18      6.13      0.00
   -1   -3   18     -1.18      0.00
    0   -3   18      1.51      0.00
    1   -3   18     -2.36      0.00
    2   -3   18     -2.30      0.00
    3   -3   18     -1.72      0.00
   -3   -2   18     -2.19      0.00
   -2   -2   18      1.93      0.00
   -1   -2   18      1.50      0.00
    0   -2   18     -1.66      0.00
    1   -2   18     -0.73      0.00
    2   -2   18     -1.90      0.00
   -3   -1   18     -1.94      0.00
   -2   -1   18     -0.44      0.00
   -1   -1   18     -1.47      0.00
    0   -1   18     -1.48      0.00
    1   -1   18      1.85      0.00
    2   -1   18      1.97      0.00
   -3    0   18     -0.61      0.00
   -2    0   18     -0.32      0.00
   -1    0   18     -3.25      0.00
    0    0   18     -0.39      0.00
    1    0   18      1.65      0.00
    2    0   18      4.51      0.00
   -2    1   18     -2.20      0.00
    2    1   18      2.16      0.00
   -2    2   18     -3.99      0.00
   -1    2   18      2.18      0.00
    0    2   18     -1.01      0.00
    1    2   18     -2.99      0.00
   -1    3   18      0.40      0.00
    0    3   18      1.45      0.00
    1    3   18     -1.98      0.00
    0   -9   19      0.85      0.00
   -1   -8   19      0.29      0.00
    0   -8   19      0.48      0.00
   -1   -7   19      0.11      0.00
    0   -7   19      1.34      0.00
    1   -7   19      1.94      0.00
   -1   -6   19      0.98      0.00
    0   -6   19      2.29      0.00
    1   -6   19      0.05      0.00
    2   -6   19     -1.40      0.00
   -2   -5   19     -2.36      0.00
   -1   -5   19      3.52      0.00
    0   -5   19      0.24      0.00
    1   -5   19     -0.24      0.00
    2   -5   19     -0.09      0.00
   -2   -4   19     -5.17      0.00
   -1   -4   19      2.73      0.00
    0   -4   19     -0.73      0.00
    1   -4   19      1.90      0.00
    2   -4   19      0.61      0.00
   -2   -3   19     -2.33      0.00
   -1   -3   19     -0.86      0.00
    0   -3   19      2.30      0.00
    1   -3   19      0.93      0.00
    2   -3   19      0.10      0.00
   -3   -2   19      1.34      0.00
   -2   -2   19      0.11      0.00
   -1   -2   19      0.55      0.00
    0   -2   19      2.62      0.00
    1   -2   19     -1.87      0.00
    2   -2   19     -2.46      0.00
   -3   -1   19      0.85      0.00
   -2   -1   19     -0.33      0.00
    0   -1   19      0.83      0.00
    1   -1   19     -2.14      0.00
    2   -1   19     -4.54      0.00
   -1    0   19      1.19      0.00
    0    0   19      2.78      0.00
    1    0   19     -0.21      0.00
    1    1   19      2.28      0.00
   -1   -5   20     -3.18      0.00
    0   -5   20      0.27      0.00
   -1   -4   20     -0.25      0.00
    0   -4   20     -2.27      0.00
    1   -4   20     -0.78      0.00
   -2   -3   20     -0.63      0.00
   -1   -3   20      0.03      0.00
    0   -3   20     -3.04      0.00
    1   -3   20      1.54      0.00
   -2   -2   20      0.41      0.00
   -1   -2   20     -2.37      0.00
   -7    6    0     -1.03      0.00
    6    8    0      0.44      0.00
    5   11    0     -1.92      0.00
   -5   12    0      0.38      0.00
    3   14    0      1.38      0.00
   -2  -15    1     -0.77      0.00
   -3  -14    1      0.88      0.00
   -4  -13    1     -0.11      0.00
    5  -12    1      0.62      0.00
   -5  -11    1      0.64      0.00
    6  -10    1     -0.62      0.00
   -6   -9    1     -1.17      0.00
   -6   -8    1     -1.31      0.00
   -5   -7    1     -0.39      0.00
    7   -6    1      1.21      0.00
   -7   -5    1     -1.71      0.00
    7   -5    1      1.35      0.00
    0    0    1    -58.71      0.00
    7    4    1      0.66      0.00
   -7    6    1      1.34      0.00
    6    8    1      1.51      0.00
    5   10    1      3.34      0.00
    5   11    1      1.15      0.00
   -5   12    1      0.56      0.00
    0  -16    2      2.12      0.00
   -2  -15    2      0.95      0.00
   -3  -14    2     -0.85      0.00
   -4  -13    2     -1.13      0.00
    5  -12    2     -1.53      0.00
   -5  -11    2      0.31      0.00
    6  -10    2      0.82      0.00
   -6   -9    2      1.26      0.00
   -6   -8    2      0.03      0.00
   -5   -7    2     -0.27      0.00
    7   -6    2     -1.11      0.00
   -7   -5    2      1.29      0.00
    7   -5    2      0.63      0.00
    7    4    2     -0.55      0.00
   -7    5    2     -2.18      0.00
    6    7    2     -3.18      0.00
    6    8    2     -0.85      0.00
    5   10    2     -1.27      0.00
   -3   14    2     -0.75      0.00
   -1   15    2     -0.32      0.00
    0   15    2     -1.74      0.00
    1   15    2     -1.34      0.00
    0  -16    3     -1.41      0.00
    1  -16    3     -0.37      0.00
    2  -15    3     -0.57      0.00
    3  -15    3     -1.02      0.00
   -3  -14    3     -1.22      0.00
   -4  -13    3      2.20      0.00
    5  -12    3      0.20      0.00
   -5  -11    3     -1.14      0.00
    6  -10    3     -1.61      0.00
   -6   -9    3     -0.52      0.00
   -6   -8    3      2.07      0.00
   -6   -7    3      4.45      0.00
   -7   -5    3     -0.43      0.00
    7   -5    3     -2.55      0.00
   -7   -4    3      0.23      0.00
    7   -2    3     -0.54      0.00
    7    3    3      0.84      0.00
   -7    4    3      2.81      0.00
   -7    5    3      2.87      0.00
    6    7    3      0.40      0.00
   -6    9    3      0.65      0.00
    5   10    3     -1.59      0.00
   -4   13    3      1.48      0.00
   -3   14    3      0.32      0.00
    2   14    3     -0.41      0.00
   -1   15    3      0.67      0.00
    0   15    3      0.89      0.00
    0  -16    4     -0.67      0.00
    1  -16    4      0.49      0.00
    2  -15    4      0.69      0.00
    3  -15    4      1.70      0.00
   -4  -13    4     -2.04      0.00
    5  -12    4      1.30      0.00
   -5  -11    4      1.66      0.00
    6  -10    4      2.18      0.00
   -6   -9    4     -1.00      0.00
    6   -9    4      2.12      0.00
   -6   -8    4     -2.89      0.00
   -7   -5    4      0.26      0.00
    7   -5    4      1.85      0.00
   -7   -4    4     -0.64      0.00
   -7   -3    4      0.14      0.00
    7   -2    4      2.35      0.00
    7   -1    4      3.74      0.00
   -7    5    4     -2.13      0.00
    6    7    4      1.10      0.00
   -6    9    4     -1.35      0.00
    5    9    4      2.82      0.00
    5   10    4      2.19      0.00
   -5   11    4     -1.28      0.00
    4   11    4      0.18      0.00
    3   13    4      0.01      0.00
    0  -16    5      2.10      0.00
    1  -16    5     -0.46      0.00
    2  -15    5     -1.76      0.00
    3  -15    5     -0.79      0.00
   -3  -14    5     -3.34      0.00
   -4  -13    5      0.85      0.00
   -6   -9    5      1.50      0.00
    6   -9    5      0.61      0.00
   -6   -8    5      1.00      0.00
    7   -5    5     -0.49      0.00
   -7   -4    5     -0.55      0.00
    7   -4    5     -0.49      0.00
   -7   -3    5     -2.00      0.00
    7   -3    5     -1.60      0.00
    7   -2    5     -3.00      0.00
    7   -1    5     -3.26      0.00
    7    0    5     -1.81      0.00
    7    1    5     -0.16      0.00
    7    2    5     -0.02      0.00
   -7    3    5      3.09      0.00
   -7    4    5      2.75      0.00
   -6    8    5      0.95      0.00
    5    9    5     -2.38      0.00
   -4   12    5     -0.90      0.00
   -3   13    5      0.64      0.00
    2   13    5     -2.00      0.00
   -2   14    5      0.66      0.00
   -1   14    5     -0.95      0.00
    0   14    5     -2.16      0.00
    1   14    5     -1.77      0.00
    0  -16    6     -1.80      0.00
    1  -16    6      0.11      0.00
    2  -15    6      2.69      0.00
   -4  -13    6     -1.34      0.00
    5  -12    6      0.61      0.00
   -6   -9    6     -0.16      0.00
    6   -9    6     -1.42      0.00
   -6   -8    6     -0.05      0.00
    6   -8    6     -2.01      0.00
    6   -6    6      0.24      0.00
   -7   -4    6      1.34      0.00
   -7   -3    6      0.33      0.00
    7   -3    6      1.43      0.00
    7   -2    6      1.86      0.00
    7   -1    6      1.34      0.00
    7    0    6      0.36      0.00
   -7    2    6     -1.24      0.00
   -7    3    6     -2.05      0.00
    6    6    6     -1.56      0.00
   -6    8    6     -0.90      0.00
    5    9    6      0.57      0.00
   -5   10    6     -0.91      0.00
    4   11    6     -0.81      0.00
   -4   12    6      0.50      0.00
    3   12    6      1.11      0.00
   -3   13    6     -1.17      0.00
    2   13    6      1.72      0.00
   -1   14    6      1.14      0.00
    0   14    6      1.10      0.00
    0  -16    7      1.00      0.00
    2  -15    7     -1.50      0.00
   -3  -14    7     -0.42      0.00
   -4  -13    7      2.38      0.00
    4  -13    7     -0.64      0.00
    4  -11    7     -0.73      0.00
    6   -9    7      1.05      0.00
   -6   -8    7      1.91      0.00
    6   -8    7      1.43      0.00
    6   -7    7      0.43      0.00
   -7   -3    7      0.88      0.00
   -7   -2    7     -0.98      0.00
   -7   -1    7     -3.01      0.00
   -7    1    7      0.27      0.00
   -7    2    7      0.74      0.00
    6    4    7      4.72      0.00
   -6    7    7      1.46      0.00
    5    8    7     -0.27      0.00
   -5   10    7      0.13      0.00
    4   10    7      0.80      0.00
   -2   13    7      1.10      0.00
   -1   13    7     -1.10      0.00
    0   13    7      0.07      0.00
   -2  -15    8     -1.65      0.00
    2  -15    8     -1.55      0.00
   -3  -14    8     -0.02      0.00
   -4  -13    8     -1.38      0.00
    4  -13    8      1.02      0.00
   -5  -11    8      1.35      0.00
    5  -11    8      1.42      0.00
    6   -8    8     -0.49      0.00
    6   -7    8     -0.30      0.00
   -7   -2    8      2.26      0.00
   -7   -1    8      0.71      0.00
   -7    0    8     -0.65      0.00
    5    3    8     -1.21      0.00
   -5    9    8      0.37      0.00
   -4   11    8      0.18      0.00
   -3   12    8      0.26      0.00
    2   12    8      2.72      0.00
   -1   13    8     -0.27      0.00
    0   13    8     -1.14      0.00
   -2  -15    9      0.03      0.00
   -1  -15    9     -0.08      0.00
    1  -15    9      0.48      0.00
    2  -15    9      2.77      0.00
   -3  -14    9     -0.76      0.00
    3  -14    9      0.23      0.00
    4  -13    9     -0.40      0.00
   -4  -12    9     -1.73      0.00
    5  -11    9     -1.51      0.00
    5  -10    9     -0.57      0.00
   -6   -8    9      1.71      0.00
    6   -8    9     -0.15      0.00
   -6   -7    9     -0.14      0.00
    6   -7    9      0.63      0.00
    6   -6    9      1.00      0.00
    5    4    9      2.14      0.00
    5    5    9      2.48      0.00
   -6    6    9      1.05      0.00
    5    6    9     -1.44      0.00
   -5    8    9     -0.60      0.00
    4    9    9     -0.12      0.00
   -2   12    9      1.63      0.00
   -1   12    9      0.34      0.00
    0   12    9      0.93      0.00
   -1  -15   10      1.00      0.00
    1  -15   10     -2.26      0.00
    3  -14   10     -1.72      0.00
   -4  -12   10      0.30      0.00
    5  -10   10     -0.50      0.00
   -6   -7   10      1.12      0.00
    6   -7   10     -0.71      0.00
   -6   -6   10     -0.33      0.00
    6   -6   10      0.16      0.00
    6   -5   10      1.46      0.00
    4    3   10      1.43      0.00
    4    4   10      1.30      0.00
    5    4   10     -0.94      0.00
   -6    5   10      0.28      0.00
    5    5   10      2.04      0.00
    5    6   10      3.69      0.00
   -5    7   10      0.22      0.00
   -5    8   10     -0.14      0.00
   -3   11   10      0.82      0.00
   -2   11   10     -2.35      0.00
    2   11   10      1.82      0.00
   -1   12   10     -0.54      0.00
    0   12   10     -0.77      0.00
   -1  -15   11     -0.01      0.00
    0  -15   11      0.95      0.00
    1  -15   11      3.00      0.00
    2  -14   11      3.37      0.00
   -3  -13   11     -0.68      0.00
   -4  -12   11      1.36      0.00
    4  -12   11      0.23      0.00
   -5  -10   11      0.06      0.00
    5  -10   11      0.82      0.00
    5   -9   11     -0.34      0.00
   -6   -6   11      1.81      0.00
   -6   -5   11      1.72      0.00
    6   -5   11     -0.94      0.00
    6   -4   11     -0.79      0.00
    6   -3   11     -0.93      0.00
    6    1   11     -0.29      0.00
    3    2   11     -1.11      0.00
    4    2   11     -0.69      0.00
    5    2   11     -0.29      0.00
   -6    3   11     -1.84      0.00
    3    3   11      0.29      0.00
    4    3   11     -1.49      0.00
    5    3   11     -0.09      0.00
   -6    4   11     -1.00      0.00
    4    4   11     -1.52      0.00
    5    4   11     -1.70      0.00
    3    5   11      0.84      0.00
    4    5   11      0.56      0.00
    5    5   11     -2.87      0.00
   -5    6   11      0.23      0.00
    3    6   11      2.41      0.00
    4    6   11      1.98      0.00
   -5    7   11      1.07      0.00
    3    7   11      2.97      0.00
    4    7   11      0.84      0.00
    3    8   11      1.12      0.00
   -4    9   11      0.62      0.00
    3    9   11     -0.46      0.00
   -3   10   11     -0.05      0.00
    2   10   11     -0.15      0.00
   -2   11   11      1.40      0.00
   -1   11   11     -0.25      0.00
    0   11   11      0.79      0.00
    1   11   11     -0.63      0.00
   -2  -14   12     -0.27      0.00
    1  -14   12     -1.19      0.00
    2  -14   12     -0.71      0.00
   -3  -13   12     -0.34      0.00
    3  -13   12      0.31      0.00
    4  -11   12     -0.26      0.00
   -5   -9   12     -1.14      0.00
    5   -9   12     -0.11      0.00
   -6   -5   12     -1.28      0.00
   -6   -4   12     -0.92      0.00
   -6    0   12     -0.68      0.00
    4    0   12     -0.53      0.00
    5    0   12      1.76      0.00
   -6    1   12     -1.28      0.00
    3    1   12      0.65      0.00
    4    1   12     -0.08      0.00
    5    1   12      1.05      0.00
   -6    2   12      0.38      0.00
    3    2   12      0.18      0.00
    4    2   12      1.09      0.00
    5    2   12      0.56      0.00
    3    3   12      0.21      0.00
    4    3   12      1.28      0.00
    5    3   12      1.00      0.00
    3    4   12     -0.15      0.00
    4    4   12     -0.76      0.00
    5    4   12      1.26      0.00
   -5    5   12     -0.12      0.00
    3    5   12     -1.70      0.00
    4    5   12     -2.07      0.00
   -5    6   12     -1.22      0.00
    3    6   12     -2.43      0.00
    4    6   12     -0.44      0.00
    3    7   12     -0.94      0.00
    4    7   12      0.69      0.00
   -4    8   12     -2.24      0.00
    3    8   12      0.23      0.00
   -3    9   12     -1.25      0.00
   -2   10   12     -2.33      0.00
   -1   10   12      0.69      0.00
   -1  -14   13      0.93      0.00
   -4  -11   13     -1.69      0.00
    4  -11   13      0.95      0.00
   -5   -8   13     -0.79      0.00
    5   -8   13      0.87      0.00
   -6   -3   13     -1.70      0.00
    5   -3   13     -1.32      0.00
   -6   -2   13     -1.76      0.00
    5   -2   13     -2.13      0.00
   -6   -1   13     -0.56      0.00
    5   -1   13     -3.05      0.00
   -6    0   13      0.39      0.00
    4    0   13     -0.66      0.00
    5    0   13     -1.97      0.00
    3    1   13     -0.33      0.00
    4    1   13     -1.01      0.00
    5    1   13     -0.81      0.00
    1    2   13     -1.18      0.00
    3    2   13     -0.58      0.00
    4    2   13     -0.83      0.00
    5    2   13     -0.69      0.00
    3    3   13     -0.85      0.00
    4    3   13      0.66      0.00
    5    3   13     -0.31      0.00
   -5    4   13     -0.40      0.00
    3    4   13     -0.23      0.00
    4    4   13      1.45      0.00
   -5    5   13      0.35      0.00
    3    5   13      0.36      0.00
    4    5   13     -0.41      0.00
    3    6   13     -0.11      0.00
    4    6   13     -1.69      0.00
   -4    7   13      3.66      0.00
    3    7   13     -0.22      0.00
   -3    8   13      1.99      0.00
   -2    9   13      3.06      0.00
    2    9   13      1.21      0.00
   -1   10   13     -0.80      0.00
    0   10   13     -0.90      0.00
    0  -14   14     -2.04      0.00
    2  -13   14     -2.46      0.00
   -3  -12   14     -0.76      0.00
    3  -12   14      1.79      0.00
   -4  -10   14     -0.52      0.00
    4  -10   14      1.20      0.00
   -5   -7   14      1.37      0.00
    5   -7   14      2.18      0.00
    5   -6   14      3.00      0.00
    5   -5   14      2.64      0.00
    5   -1   14      2.13      0.00
    3    0   14      0.50      0.00
    4    0   14      1.37      0.00
    5    0   14      0.59      0.00
    3    1   14      0.07      0.00
    4    1   14      0.13      0.00
    5    1   14      0.36      0.00
    0    2   14     -1.06      0.00
    1    2   14     -0.60      0.00
    3    2   14      0.90      0.00
    4    2   14     -0.69      0.00
   -5    3   14      0.76      0.00
    3    3   14      1.36      0.00
    4    3   14     -0.94      0.00
   -5    4   14      0.61      0.00
    3    4   14      1.29      0.00
    4    4   14      0.31      0.00
    3    5   14      1.31      0.00
    4    5   14      1.61      0.00
   -4    6   14     -4.12      0.00
    3    6   14      0.83      0.00
   -3    8   14     -0.26      0.00
    2    8   14     -1.37      0.00
   -1    9   14      0.68      0.00
    0    9   14      1.05      0.00
    1    9   14     -0.49      0.00
   -1  -13   15      0.09      0.00
   -4   -9   15      1.34      0.00
    4   -9   15     -2.68      0.00
   -4   -8   15      0.69      0.00
    4   -8   15      0.90      0.00
   -5   -6   15     -0.20      0.00
   -5   -5   15      1.56      0.00
   -5   -4   15      0.99      0.00
    5   -4   15     -1.07      0.00
   -5   -3   15      0.28      0.00
    5   -3   15     -1.43      0.00
    5   -2   15     -1.12      0.00
    4   -1   15     -1.49      0.00
    3    0   15      1.37      0.00
    4    0   15      0.86      0.00
    3    1   15      0.39      0.00
    4    1   15      1.14      0.00
   -1    2   15     -0.57      0.00
    0    2   15     -0.17      0.00
    3    2   15     -0.77      0.00
    4    2   15      0.52      0.00
   -1    3   15     -2.00      0.00
    3    3   15     -0.68      0.00
    4    3   15      0.30      0.00
    3    4   15     -0.60      0.00
   -4    5   15      3.45      0.00
    3    5   15     -0.70      0.00
   -3    7   15     -0.08      0.00
   -2    8   15      1.42      0.00
    0    8   15      0.75      0.00
    1    8   15      2.52      0.00
   -2  -12   16     -2.79      0.00
   -1  -12   16     -1.97      0.00
    1  -12   16      1.17      0.00
    2  -12   16      1.33      0.00
    2  -11   16      0.97      0.00
   -4   -8   16     -0.99      0.00
    4   -8   16     -2.04      0.00
   -4   -7   16     -2.82      0.00
    4   -7   16      0.16      0.00
    4   -6   16      0.39      0.00
   -5   -4   16      0.03      0.00
   -5   -3   16     -0.90      0.00
   -5   -2   16     -2.57      0.00
    4   -2   16      1.20      0.00
   -5   -1   16     -1.88      0.00
    3   -1   16     -2.88      0.00
    4   -1   16     -1.44      0.00
    3    0   16     -2.12      0.00
    4    0   16     -1.69      0.00
   -1    1   16      0.00      0.00
    2    1   16      0.70      0.00
    3    1   16     -0.19      0.00
    4    1   16     -0.11      0.00
   -1    2   16      1.52      0.00
    3    2   16     -0.61      0.00
    3    3   16     -1.25      0.00
   -4    4   16     -2.08      0.00
    2    4   16      0.81      0.00
    3    4   16     -0.57      0.00
    2    5   16      0.17      0.00
   -3    6   16      0.46      0.00
    2    6   16      1.32      0.00
   -2    7   16     -0.74      0.00
   -1    7   16     -0.24      0.00
    0    7   16     -3.12      0.00
    1    7   16     -3.21      0.00
    0  -12   17      1.38      0.00
   -2  -11   17     -1.27      0.00
   -1  -11   17      1.08      0.00
    1  -11   17      1.17      0.00
    2  -11   17     -0.69      0.00
   -2  -10   17     -2.66      0.00
    2  -10   17      0.22      0.00
    3   -9   17      2.07      0.00
    3   -8   17      1.46      0.00
   -4   -7   17      3.00      0.00
    3   -7   17      0.32      0.00
   -4   -6   17      2.45      0.00
   -4   -5   17      1.97      0.00
    4   -5   17      0.28      0.00
    4   -4   17     -1.03      0.00
    3   -2   17      3.05      0.00
    4   -2   17      0.94      0.00
    3   -1   17      3.02      0.00
    4   -1   17      1.50      0.00
    3    0   17      0.40      0.00
   -2    1   17      0.42      0.00
   -1    1   17      0.95      0.00
    1    1   17     -1.72      0.00
    2    1   17     -3.22      0.00
    3    1   17      0.51      0.00
   -4    2   17      0.60      0.00
    3    2   17      1.67      0.00
   -3    3   17      1.46      0.00
    2    3   17      0.32      0.00
    3    3   17      1.18      0.00
   -3    4   17      0.68      0.00
    2    4   17      0.11      0.00
   -2    5   17      1.04      0.00
   -1    5   17      1.63      0.00
   -1    6   17      0.58      0.00
    0    6   17      3.28      0.00
    0  -11   18      1.70      0.00
   -2  -10   18      2.40      0.00
   -1  -10   18      0.96      0.00
    1  -10   18     -2.28      0.00
   -2   -9   18      1.23      0.00
    2   -9   18     -2.78      0.00
   -3   -8   18     -0.31      0.00
    3   -7   18     -0.42      0.00
    3   -6   18     -1.18      0.00
   -4   -2   18      0.47      0.00
    3   -2   18     -2.50      0.00
   -4   -1   18     -2.11      0.00
    3   -1   18     -0.15      0.00
    3    0   18      0.32      0.00
   -3    1   18     -1.01      0.00
   -1    1   18      0.39      0.00
    0    1   18     -1.89      0.00
    1    1   18     -0.86      0.00
    3    1   18     -0.65      0.00
   -3    2   18     -2.25      0.00
    2    2   18     -0.56      0.00
   -3    3   18     -1.46      0.00
   -2    3   18     -3.30      0.00
    2    3   18     -0.62      0.00
   -2    4   18     -1.38      0.00
   -1    4   18     -0.60      0.00
    0    4   18      0.78      0.00
    1    4   18     -0.07      0.00
   -1    5   18     -0.25      0.00
    0    5   18     -1.08      0.00
    0  -10   19      0.92      0.00
   -1   -9   19     -0.12      0.00
    1   -9   19      0.97      0.00
   -2   -8   19     -0.97      0.00
    1   -8   19      1.47      0.00
    2   -8   19      0.24      0.00
   -2   -7   19      0.19      0.00
    2   -7   19     -1.36      0.00
   -3   -6   19      0.78      0.00
   -2   -6   19      1.10      0.00
   -3   -5   19     -0.22      0.00
   -3   -4   19      0.75      0.00
   -3   -3   19      1.57      0.00
   -1   -1   19      3.52      0.00
   -3    0   19      0.87      0.00
   -2    0   19      0.44      0.00
    2    0   19     -2.69      0.00
   -2    1   19      1.73      0.00
   -1    1   19     -1.41      0.00
    0    1   19      3.69      0.00
    2    1   19     -0.05      0.00
   -2    2   19      1.63      0.00
   -1    2   19     -0.75      0.00
    0    2   19      0.31      0.00
    1    2   19      2.58      0.00
   -1    3   19     -0.17      0.00
    0    3   19     -1.76      0.00
   -1   -8   20      0.20      0.00
    0   -8   20     -0.59      0.00
   -1   -7   20     -0.37      0.00
    0   -7   20     -1.18      0.00
    1   -7   20     -0.35      0.00
   -2   -6   20      1.48      0.00
   -1   -6   20     -2.66      0.00
    0   -6   20     -0.27      0.00
    1   -6   20      0.58      0.00
   -2   -5   20      2.93      0.00
    1   -5   20     -0.97      0.00
   -2   -4   20      1.00      0.00
    2   -4   20      0.46      0.00
    2   -3   20      1.50      0.00
    0   -2   20     -0.71      0.00
    1   -2   20      2.03      0.00
   -2   -1   20      0.43      0.00
   -1   -1   20     -1.32      0.00
    0   -1   20     -1.58      0.00
    1   -1   20      1.13      0.00
   -2    0   20     -0.45      0.00
   -1    0   20      0.56      0.00
    0    0   20     -3.67      0.00
    1    0   20     -0.29      0.00
   -1    1   20     -0.05      0.00
    0    1   20     -1.80      0.00
    0   -4   21      2.35      0.00
    0   -3   21      0.71      0.00
    0    0    0      0.00      0.00
# SQUEEZE RESULTS (Version = 170121)
# Note: Data are Listed for all Voids in the P1 Unit Cell
# i.e. Centre of Gravity, Solvent Accessible Volume,
# Recovered number of Electrons in the Void and
# Details about the Squeezed Material
loop_
  _platon_squeeze_void_nr
  _platon_squeeze_void_average_x
  _platon_squeeze_void_average_y
  _platon_squeeze_void_average_z
  _platon_squeeze_void_volume
  _platon_squeeze_void_count_electrons
  _platon_squeeze_void_content
   1 -0.070  0.000  0.500       246        93 ' '
# Missing Reflections Below sin(th)/lambda = 0.25
loop_
  _platon_missing_refln_index_h
  _platon_missing_refln_index_k
  _platon_missing_refln_index_l
  _platon_missing_refln_theta
    0    0    1     1.354
_platon_squeeze_void_probe_radius                  1.20
_platon_squeeze_details
)
TITL shelxl           P -1         R = 0.10
CELL    5.4836   11.8374   15.4284    102.62     92.41     92.01
SPGR P-1
# Solvent Accessible Volume =       248
# Electrons Found in S.A.V. =        93
# Note: Atoms in Void are Labelled as Cxxx and Qxxx for all Others
C101 0.948 0.853 0.299 !       2.53 eA-3
C102 0.055 0.863 0.323 !       2.32 eA-3
C103 0.809 0.916 0.349 !       1.97 eA-3
C104 0.441 0.952 0.417 !       1.93 eA-3
C105 0.877 0.843 0.346 !       1.82 eA-3
C106 0.163 0.783 0.377 !       1.79 eA-3
C107 0.121 0.878 0.394 !       1.75 eA-3
Q108 0.749 0.785 0.345 !       1.71 eA-3
C109 0.275 0.901 0.421 !       1.71 eA-3
C110 0.746 0.018 0.419 !       1.66 eA-3
C111 0.033 0.922 0.377 !       1.65 eA-3
C112 0.192 0.885 0.343 !       1.64 eA-3
C113 0.658 0.871 0.338 !       1.63 eA-3
C114 0.932 0.877 0.378 !       1.58 eA-3
C115 0.059 1.006 0.469 !       1.57 eA-3
C116 0.940 0.989 0.360 !       1.55 eA-3
C117 0.650 0.713 0.283 !       1.55 eA-3
C118 0.155 0.777 0.317 !       1.55 eA-3
Q119 0.119 0.879 0.270 !       1.54 eA-3
Q120 0.407 0.333 0.449 !       1.51 eA-3
C121 0.928 0.035 0.429 !       1.51 eA-3
C122 0.900 0.944 0.428 !       1.48 eA-3
C123 0.809 0.965 0.470 !       1.46 eA-3
C124 0.688 0.065 0.484 !       1.46 eA-3
C125 0.155 0.925 0.470 !       1.45 eA-3
C126 0.781 0.041 0.454 !       1.44 eA-3
C127 0.984 0.943 0.492 !       1.44 eA-3
Q128 0.312 0.812 0.425 !       1.42 eA-3
Q129 0.439 0.861 0.295 !       1.41 eA-3
C130 0.124 0.941 0.435 !       1.40 eA-3
Q131 0.368 0.903 0.465 !       1.38 eA-3
Q132 1.007 0.736 0.389 !       1.37 eA-3
C133 0.811 0.855 0.292 !       1.37 eA-3
Q134 0.065 0.942 0.302 !       1.36 eA-3
C135 0.313 0.848 0.361 !       1.35 eA-3
C136 0.290 0.941 0.470 !       1.35 eA-3
Q137 0.720 0.939 0.297 !       1.35 eA-3
C138 1.002 0.912 0.442 !       1.35 eA-3
Q139 0.519 0.862 0.421 !       1.34 eA-3
Q140 0.886 0.699 0.347 !       1.34 eA-3
C141 0.879 0.956 0.291 !       1.33 eA-3
Q142 0.604 0.150 0.421 !       1.32 eA-3
Q143 0.814 0.999 0.269 !       1.31 eA-3
C144 0.607 0.966 0.419 !       1.31 eA-3
Q145 0.307 0.871 0.247 !       1.31 eA-3
C146 0.607 0.990 0.489 !       1.30 eA-3
Q147 0.060 0.802 0.425 !       1.29 eA-3
Q148 0.558 0.645 0.267 !       1.29 eA-3
C149 1.003 0.780 0.344 !       1.28 eA-3
C150 0.435 0.863 0.363 !       1.28 eA-3
Q151 0.596 0.895 0.396 !       1.27 eA-3
Q152 0.905 0.794 0.396 !       1.26 eA-3
Q153 0.309 0.063 0.564 !       1.25 eA-3
Q154 0.302 0.917 0.310 !       1.25 eA-3
Q155 0.894 0.727 0.324 !       1.24 eA-3
Q156 0.088 0.055 0.368 !       1.22 eA-3
Q157 0.166 0.739 0.423 !       1.21 eA-3
Q158 0.706 0.704 0.328 !       1.21 eA-3
Q159 0.839 0.871 0.481 !       1.21 eA-3
Q160 0.357 0.034 0.440 !       1.20 eA-3
C161 0.872 0.029 0.499 !       1.17 eA-3
Q162 0.404 0.720 0.332 !       1.17 eA-3
Q163 0.307 0.752 0.435 !       1.16 eA-3
C164 0.217 0.961 0.421 !       1.16 eA-3
Q165 0.022 0.708 0.451 !       1.16 eA-3
Q166 0.773 0.881 0.409 !       1.16 eA-3
C167 0.338 0.825 0.298 !       1.14 eA-3
C168 0.068 0.807 0.265 !       1.14 eA-3
Q169 0.845 0.894 0.456 !       1.13 eA-3
C170 0.624 0.056 0.422 !       1.13 eA-3
Q171 0.352 0.947 0.356 !       1.12 eA-3
Q172 1.002 0.008 0.296 !       1.12 eA-3
C173 0.671 0.799 0.281 !       1.11 eA-3
C174 0.447 0.966 0.484 !       1.11 eA-3
Q175 0.816 0.721 0.380 !       1.11 eA-3
Q176 0.612 0.866 0.263 !       1.10 eA-3
Q177 0.491 0.094 0.456 !       1.09 eA-3
Q178 0.935 0.119 0.420 !       1.09 eA-3
C179 0.477 0.780 0.290 !       1.07 eA-3
C180 0.062 0.995 0.420 !       1.07 eA-3
Q181 0.249 0.808 0.488 !       1.06 eA-3
C182 0.498 0.765 0.238 !       1.06 eA-3
C183 0.623 0.970 0.371 !       1.06 eA-3
C184 0.163 0.993 0.438 !       1.05 eA-3
Q185 0.130 0.999 0.328 !       1.05 eA-3
Q186 0.151 0.756 0.478 !       1.05 eA-3
Q187 0.675 0.902 0.486 !       1.05 eA-3
Q188 0.064 0.660 0.342 !       1.04 eA-3
Q189 0.275 0.275 0.425 !       1.04 eA-3
Q190 0.878 0.186 0.468 !       1.03 eA-3
Q191 0.161 0.812 0.204 !       1.02 eA-3
C192 0.119 0.853 0.444 !       1.02 eA-3
Q193 0.939 0.714 0.278 !       1.02 eA-3
Q194 0.180 0.150 0.267 !       1.02 eA-3
Q195 0.843 0.949 0.174 !       1.01 eA-3
Q196 0.754 0.815 0.404 !       1.01 eA-3
Q197 0.217 0.419 0.001 !       1.01 eA-3
Q198 0.219 0.598 0.262 !       1.00 eA-3
Q199 0.248 0.516 0.010 !       1.00 eA-3
)
;
_shelx_fab_checksum              55231
loop_
_space_group_symop_id
_space_group_symop_operation_xyz
1 +X,+Y,+Z
2 -X,-Y,-Z
loop_
_atom_site_label
_atom_site_type_symbol
_atom_site_fract_x
_atom_site_fract_y
_atom_site_fract_z
_atom_site_U_iso_or_equiv
_atom_site_adp_type
_atom_site_occupancy
_atom_site_site_symmetry_order
_atom_site_calc_flag
_atom_site_refinement_flags_posn
_atom_site_refinement_flags_adp
_atom_site_refinement_flags_occupancy
_atom_site_disorder_assembly
_atom_site_disorder_group
Br1 Br 0.32539(15) 0.26981(7) 0.48763(6) 0.0609(4) Uani 0.86 1 d . . P A 1
O1 O 1.2724(7) 0.5850(3) 0.9951(3) 0.0410(11) Uani 1 1 d . . . . .
O2 O 1.3419(7) 0.4240(3) 0.8951(3) 0.0504(13) Uani 1 1 d . . . . .
H2O H 1.448224 0.416105 0.933822 0.060 Uiso 1 1 calc R U . . .
O3 O -0.3868(8) -0.1768(4) 0.0169(3) 0.0634(15) Uani 1 1 d . . . . .
O4 O -0.7432(8) -0.1818(4) 0.0810(3) 0.0661(16) Uani 1 1 d . . . . .
H4O H -0.753141 -0.250723 0.051792 0.079 Uiso 1 1 calc R U . . .
N1 N 0.3860(8) 0.4971(4) 0.6200(3) 0.0400(14) Uani 1 1 d . . . . .
N2 N -0.1142(9) 0.3048(4) 0.3662(3) 0.0424(14) Uani 1 1 d . . . . .
C1 C 0.4389(10) 0.5891(5) 0.6837(4) 0.0381(16) Uani 1 1 d . . . . .
C2 C 0.1985(10) 0.4995(5) 0.5591(4) 0.0385(16) Uani 1 1 d . . . . .
C3 C 0.1419(10) 0.4019(5) 0.4931(4) 0.0413(17) Uani 1 1 d . . . . .
H3 H 0.236397 0.335353 0.489137 0.050 Uiso 0.14 1 calc R U P A 2
C4 C -0.0555(10) 0.4006(5) 0.4315(4) 0.0404(17) Uani 1 1 d . . . . .
C5 C -0.3038(11) 0.3063(5) 0.3114(4) 0.0418(17) Uani 1 1 d . . . . .
C6 C 0.6400(10) 0.5749(5) 0.7475(4) 0.0425(17) Uani 1 1 d . . . . .
C7 C 0.6680(10) 0.6416(5) 0.8336(4) 0.0424(17) Uani 1 1 d . . . . .
H7 H 0.559398 0.701653 0.853312 0.051 Uiso 1 1 calc R U . . .
C8 C 0.8556(11) 0.6206(5) 0.8911(4) 0.0399(16) Uani 1 1 d . . . . .
H8 H 0.870482 0.664941 0.950514 0.048 Uiso 1 1 calc R U . . .
C9 C 1.0200(11) 0.5361(5) 0.8629(4) 0.0422(17) Uani 1 1 d . . . . .
C10 C 0.9881(11) 0.4659(5) 0.7762(4) 0.0433(17) Uani 1 1 d . . . . .
H10 H 1.095830 0.405551 0.756300 0.052 Uiso 1 1 calc R U . . .
C11 C 0.7982(11) 0.4861(5) 0.7208(4) 0.0429(17) Uani 1 1 d . . . . .
H11 H 0.774837 0.437941 0.662900 0.051 Uiso 1 1 calc R U . . .
C12 C 1.2222(11) 0.5189(5) 0.9248(4) 0.0425(17) Uani 1 1 d . . . . .
C13 C -0.3672(11) 0.1950(5) 0.2479(4) 0.0415(17) Uani 1 1 d . . . . .
C14 C -0.2013(11) 0.1476(5) 0.1849(4) 0.0458(18) Uani 1 1 d . . . . .
H14 H -0.049934 0.187574 0.181477 0.055 Uiso 1 1 calc R U . . .
C15 C -0.2591(12) 0.0429(6) 0.1282(5) 0.0501(19) Uani 1 1 d . . . . .
H15 H -0.147883 0.011416 0.084681 0.060 Uiso 1 1 calc R U . . .
C16 C -0.4775(12) -0.0182(6) 0.1331(5) 0.053(2) Uani 1 1 d . . . . .
C17 C -0.6407(11) 0.0287(6) 0.1956(4) 0.051(2) Uani 1 1 d . . . . .
H17 H -0.790322 -0.012377 0.199499 0.061 Uiso 1 1 calc R U . . .
C18 C -0.5874(11) 0.1342(5) 0.2520(4) 0.0460(18) Uani 1 1 d . . . . .
H18 H -0.701526 0.166190 0.294211 0.055 Uiso 1 1 calc R U . . .
C19 C -0.5268(13) -0.1333(6) 0.0701(5) 0.052(2) Uani 1 1 d . . . . .
loop_
_atom_site_aniso_label
_atom_site_aniso_U_11
_atom_site_aniso_U_22
_atom_site_aniso_U_33
_atom_site_aniso_U_23
_atom_site_aniso_U_13
_atom_site_aniso_U_12
Br1 0.0508(6) 0.0584(6) 0.0578(6) -0.0210(4) -0.0187(4) 0.0253(4)
O1 0.036(2) 0.041(2) 0.035(3) -0.012(2) -0.012(2) 0.0109(19)
O2 0.039(2) 0.051(3) 0.048(3) -0.014(2) -0.023(2) 0.023(2)
O3 0.052(3) 0.059(3) 0.059(3) -0.029(3) -0.014(3) 0.019(2)
O4 0.046(3) 0.053(3) 0.076(4) -0.034(3) -0.014(3) 0.007(2)
N1 0.027(3) 0.048(3) 0.034(3) -0.014(2) -0.013(2) 0.015(2)
N2 0.033(3) 0.046(3) 0.035(3) -0.020(2) -0.014(2) 0.013(2)
C1 0.027(3) 0.039(4) 0.040(4) -0.010(3) -0.009(3) 0.009(3)
C2 0.032(3) 0.037(4) 0.039(4) -0.009(3) -0.005(3) 0.010(3)
C3 0.031(3) 0.040(4) 0.042(4) -0.014(3) -0.015(3) 0.014(3)
C4 0.037(4) 0.050(4) 0.024(4) -0.014(3) -0.006(3) 0.014(3)
C5 0.033(4) 0.053(4) 0.032(4) -0.008(3) -0.006(3) 0.013(3)
C6 0.027(3) 0.040(4) 0.050(4) -0.012(3) -0.009(3) 0.004(3)
C7 0.035(4) 0.040(4) 0.041(4) -0.016(3) -0.006(3) 0.010(3)
C8 0.034(3) 0.046(4) 0.032(4) -0.008(3) -0.007(3) 0.006(3)
C9 0.032(3) 0.050(4) 0.037(4) -0.005(3) -0.017(3) 0.014(3)
C10 0.040(4) 0.042(4) 0.036(4) -0.018(3) -0.001(3) 0.011(3)
C11 0.035(3) 0.052(4) 0.029(4) -0.016(3) -0.016(3) 0.010(3)
C12 0.034(4) 0.042(4) 0.044(4) -0.008(3) -0.005(3) 0.007(3)
C13 0.036(4) 0.049(4) 0.033(4) -0.005(3) -0.008(3) 0.017(3)
C14 0.030(3) 0.052(4) 0.043(4) -0.014(3) -0.014(3) 0.006(3)
C15 0.038(4) 0.048(4) 0.051(5) -0.018(3) -0.009(3) 0.014(3)
C16 0.040(4) 0.047(4) 0.058(5) -0.019(3) -0.015(3) 0.018(3)
C17 0.028(3) 0.053(4) 0.054(5) -0.024(3) -0.007(3) 0.005(3)
C18 0.030(4) 0.046(4) 0.050(5) -0.016(3) -0.002(3) 0.008(3)
C19 0.043(4) 0.044(4) 0.056(5) -0.015(3) -0.017(4) 0.015(3)
loop_
_atom_type_symbol
_atom_type_description
_atom_type_scat_dispersion_real
_atom_type_scat_dispersion_imag
_atom_type_scat_source
C C 0.0033 0.0016
;
International Tables for Crystallography
(Vol. C, Tables 4.2.6.8 and 6.1.1.4)
;
H H 0.0000 0.0000
;
International Tables for Crystallography
(Vol. C, Table 6.1.1.4)
;
N N 0.0061 0.0033
;
International Tables for Crystallography
(Vol. C, Tables 4.2.6.8 and 6.1.1.4)
;
O O 0.0106 0.0060
;
International Tables for Crystallography
(Vol. C, Tables 4.2.6.8 and 6.1.1.4)
;
Br Br -0.2901 2.4595
;
International Tables for Crystallography
(Vol. C, Tables 4.2.6.8 and 6.1.1.4)
;
loop_
_geom_angle_atom_site_label_1
_geom_angle_atom_site_label_2
_geom_angle_atom_site_label_3
_geom_angle
_geom_angle_site_symmetry_1
_geom_angle_site_symmetry_3
_geom_angle_publ_flag
C12 O2 H2O 109.5 . . ?
C19 O4 H4O 109.5 . . ?
C1 N1 C2 119.3(5) . . ?
C5 N2 C4 118.9(5) . . ?
N1 C1 C5 120.5(5) . 2_566 ?
N1 C1 C6 114.5(5) . . ?
C5 C1 C6 125.0(5) 2_566 . ?
N1 C2 C3 119.0(5) . . ?
N1 C2 C4 119.6(5) . 2_566 ?
C3 C2 C4 121.3(5) . 2_566 ?
C2 C3 C4 120.1(5) . . ?
C2 C3 Br1 119.5(4) . . ?
C4 C3 Br1 120.3(4) . . ?
C2 C3 H3 119.9 . . ?
C4 C3 H3 119.9 . . ?
N2 C4 C3 120.8(5) . . ?
N2 C4 C2 120.6(5) . 2_566 ?
C3 C4 C2 118.6(5) . 2_566 ?
N2 C5 C1 120.8(5) . 2_566 ?
N2 C5 C13 115.1(5) . . ?
C1 C5 C13 124.1(5) 2_566 . ?
C7 C6 C11 118.9(5) . . ?
C7 C6 C1 123.0(5) . . ?
C11 C6 C1 117.9(5) . . ?
C6 C7 C8 120.0(5) . . ?
C6 C7 H7 120.0 . . ?
C8 C7 H7 120.0 . . ?
C9 C8 C7 120.9(6) . . ?
C9 C8 H8 119.6 . . ?
C7 C8 H8 119.6 . . ?
C8 C9 C10 119.2(5) . . ?
C8 C9 C12 119.5(5) . . ?
C10 C9 C12 121.3(5) . . ?
C11 C10 C9 119.1(5) . . ?
C11 C10 H10 120.5 . . ?
C9 C10 H10 120.5 . . ?
C10 C11 C6 121.8(5) . . ?
C10 C11 H11 119.1 . . ?
C6 C11 H11 119.1 . . ?
O1 C12 O2 123.5(5) . . ?
O1 C12 C9 123.1(5) . . ?
O2 C12 C9 113.3(5) . . ?
C18 C13 C14 119.2(6) . . ?
C18 C13 C5 120.7(6) . . ?
C14 C13 C5 120.0(6) . . ?
C15 C14 C13 119.4(6) . . ?
C15 C14 H14 120.3 . . ?
C13 C14 H14 120.3 . . ?
C14 C15 C16 121.3(6) . . ?
C14 C15 H15 119.4 . . ?
C16 C15 H15 119.4 . . ?
C17 C16 C15 119.2(6) . . ?
C17 C16 C19 122.4(7) . . ?
C15 C16 C19 118.4(6) . . ?
C18 C17 C16 120.3(6) . . ?
C18 C17 H17 119.8 . . ?
C16 C17 H17 119.8 . . ?
C17 C18 C13 120.6(6) . . ?
C17 C18 H18 119.7 . . ?
C13 C18 H18 119.7 . . ?
O3 C19 O4 124.0(6) . . ?
O3 C19 C16 123.7(7) . . ?
O4 C19 C16 112.3(6) . . ?
loop_
_geom_bond_atom_site_label_1
_geom_bond_atom_site_label_2
_geom_bond_distance
_geom_bond_site_symmetry_2
_geom_bond_publ_flag
Br1 C3 1.877(5) . ?
O1 C12 1.207(7) . ?
O2 C12 1.325(6) . ?
O2 H2O 0.8400 . ?
O3 C19 1.193(8) . ?
O4 C19 1.334(8) . ?
O4 H4O 0.8400 . ?
N1 C1 1.313(7) . ?
N1 C2 1.369(7) . ?
N2 C5 1.315(7) . ?
N2 C4 1.361(7) . ?
C1 C5 1.455(8) 2_566 ?
C1 C6 1.486(8) . ?
C2 C3 1.380(7) . ?
C2 C4 1.426(7) 2_566 ?
C3 C4 1.407(8) . ?
C3 H3 0.9500 . ?
C5 C13 1.480(8) . ?
C6 C7 1.388(8) . ?
C6 C11 1.390(8) . ?
C7 C8 1.395(8) . ?
C7 H7 0.9500 . ?
C8 C9 1.381(8) . ?
C8 H8 0.9500 . ?
C9 C10 1.413(8) . ?
C9 C12 1.482(8) . ?
C10 C11 1.379(8) . ?
C10 H10 0.9500 . ?
C11 H11 0.9500 . ?
C13 C18 1.395(9) . ?
C13 C14 1.400(8) . ?
C14 C15 1.370(8) . ?
C14 H14 0.9500 . ?
C15 C16 1.390(9) . ?
C15 H15 0.9500 . ?
C16 C17 1.383(9) . ?
C16 C19 1.499(9) . ?
C17 C18 1.371(8) . ?
C17 H17 0.9500 . ?
C18 H18 0.9500 . ?
loop_
_geom_hbond_atom_site_label_D
_geom_hbond_atom_site_label_H
_geom_hbond_atom_site_label_A
_geom_hbond_site_symmetry_D
_geom_hbond_site_symmetry_H
_geom_hbond_site_symmetry_A
_geom_hbond_distance_DA
_geom_hbond_distance_DH
_geom_hbond_distance_HA
_geom_hbond_angle_DHA
_geom_hbond_publ_flag
O2 H2O O1 . . 2_867 2.674(6) 0.840 1.848 167.3 no
O4 H4O O1 . . 1_344 2.795(6) 0.840 1.963 170.5 no
loop_
_geom_torsion_atom_site_label_1
_geom_torsion_atom_site_label_2
_geom_torsion_atom_site_label_3
_geom_torsion_atom_site_label_4
_geom_torsion
_geom_torsion_site_symmetry_1
_geom_torsion_site_symmetry_2
_geom_torsion_site_symmetry_3
_geom_torsion_site_symmetry_4
_geom_torsion_publ_flag
C2 N1 C1 C5 -1.4(10) . . . 2_566 ?
C2 N1 C1 C6 178.0(6) . . . . ?
C1 N1 C2 C3 -179.1(6) . . . . ?
C1 N1 C2 C4 -3.3(10) . . . 2_566 ?
N1 C2 C3 C4 177.7(6) . . . . ?
C4 C2 C3 C4 2.0(11) 2_566 . . . ?
N1 C2 C3 Br1 -0.8(9) . . . . ?
C4 C2 C3 Br1 -176.6(5) 2_566 . . . ?
C5 N2 C4 C3 178.3(6) . . . . ?
C5 N2 C4 C2 0.5(10) . . . 2_566 ?
C2 C3 C4 N2 -179.8(6) . . . . ?
Br1 C3 C4 N2 -1.2(9) . . . . ?
C2 C3 C4 C2 -1.9(11) . . . 2_566 ?
Br1 C3 C4 C2 176.6(5) . . . 2_566 ?
C4 N2 C5 C1 4.3(10) . . . 2_566 ?
C4 N2 C5 C13 -174.7(6) . . . . ?
N1 C1 C6 C7 -156.7(6) . . . . ?
C5 C1 C6 C7 22.7(11) 2_566 . . . ?
N1 C1 C6 C11 19.5(9) . . . . ?
C5 C1 C6 C11 -161.0(7) 2_566 . . . ?
C11 C6 C7 C8 1.3(10) . . . . ?
C1 C6 C7 C8 177.5(6) . . . . ?
C6 C7 C8 C9 2.0(10) . . . . ?
C7 C8 C9 C10 -3.8(10) . . . . ?
C7 C8 C9 C12 177.9(6) . . . . ?
C8 C9 C10 C11 2.2(10) . . . . ?
C12 C9 C10 C11 -179.4(6) . . . . ?
C9 C10 C11 C6 1.1(10) . . . . ?
C7 C6 C11 C10 -2.9(10) . . . . ?
C1 C6 C11 C10 -179.3(6) . . . . ?
C8 C9 C12 O1 -10.5(11) . . . . ?
C10 C9 C12 O1 171.2(6) . . . . ?
C8 C9 C12 O2 169.6(6) . . . . ?
C10 C9 C12 O2 -8.7(9) . . . . ?
N2 C5 C13 C18 114.6(7) . . . . ?
C1 C5 C13 C18 -64.4(10) 2_566 . . . ?
N2 C5 C13 C14 -63.0(8) . . . . ?
C1 C5 C13 C14 118.1(7) 2_566 . . . ?
C18 C13 C14 C15 0.5(10) . . . . ?
C5 C13 C14 C15 178.1(6) . . . . ?
C13 C14 C15 C16 -1.2(10) . . . . ?
C14 C15 C16 C17 1.0(11) . . . . ?
C14 C15 C16 C19 -178.9(6) . . . . ?
C15 C16 C17 C18 0.0(11) . . . . ?
C19 C16 C17 C18 179.9(7) . . . . ?
C16 C17 C18 C13 -0.8(11) . . . . ?
C14 C13 C18 C17 0.5(10) . . . . ?
C5 C13 C18 C17 -177.0(6) . . . . ?
C17 C16 C19 O3 -178.2(7) . . . . ?
C15 C16 C19 O3 1.6(11) . . . . ?
C17 C16 C19 O4 1.0(10) . . . . ?
C15 C16 C19 O4 -179.2(6) . . . . ?
