#------------------------------------------------------------------------------
#$Date: 2021-07-05 19:19:24 +0300 (Mon, 05 Jul 2021) $
#$Revision: 267028 $
#$URL: file:///home/coder/svn-repositories/cod/cif/7/12/83/7128301.cif $
#------------------------------------------------------------------------------
#
# This file is available in the Crystallography Open Database (COD),
# http://www.crystallography.net/
#
# All data on this site have been placed in the public domain by the
# contributors.
#
data_7128301
loop_
_publ_author_name
'Tanaka, Yuki'
'Bai, Shiqiang'
'Wang, Xizu'
'Tee, Si Yin'
'Lim, Siew Lay'
'Ke, Lin'
'Dolmanan, Surani B.'
'Lee, Coryl Jing Jun'
'Lim, Poh Chong'
'Yao, Xiang'
'Wu, Jishan'
'Han, Ming-Yong'
_publ_section_title
;
 Synthesis and optical and electronic properties of one-dimensional
 sulfoxonium-based hybrid metal halide
 (CH<sub>3</sub>)<sub>3</sub>SOPbI<sub>3</sub>.
;
_journal_issue                   47
_journal_name_full
'Chemical communications (Cambridge, England)'
_journal_page_first              5790
_journal_page_last               5793
_journal_paper_doi               10.1039/d1cc01386f
_journal_volume                  57
_journal_year                    2021
_chemical_formula_sum            'C1.5 H4.5 I1.5 O0.5 Pb0.5 S0.5'
_chemical_formula_weight         340.53
_space_group_crystal_system      orthorhombic
_space_group_IT_number           62
_space_group_name_Hall           '-P 2ac 2n'
_space_group_name_H-M_alt        'P n m a'
_atom_sites_solution_hydrogens   mixed
_atom_sites_solution_primary     'Dual Space'
_audit_creation_method           SHELXL-2018/3
_audit_update_record
;
2021-04-21 deposited with the CCDC.	2021-05-10 downloaded from the CCDC.
;
_cell_angle_alpha                90
_cell_angle_beta                 90
_cell_angle_gamma                90
_cell_formula_units_Z            8
_cell_length_a                   7.7592(2)
_cell_length_b                   11.1022(3)
_cell_length_c                   14.1866(4)
_cell_measurement_reflns_used    6740
_cell_measurement_temperature    100(2)
_cell_measurement_theta_max      30.49
_cell_measurement_theta_min      2.99
_cell_volume                     1222.09(6)
_computing_cell_refinement       'APEX3 v2016.1-0 (Bruker AXS)'
_computing_data_collection       'APEX3 (Bruker AXS)'
_computing_data_reduction        'SAINT V8.32B (Bruker AXS Inc., 2014)'
_computing_molecular_graphics    'Bruker SHELXTL'
_computing_publication_material  'Bruker SHELXTL'
_computing_structure_refinement  'SHELXL--2014 (Sheldrick 2014)'
_computing_structure_solution    'SHELXT--(Sheldrick 2015)'
_diffrn_ambient_temperature      100(2)
_diffrn_measured_fraction_theta_full 0.995
_diffrn_measured_fraction_theta_max 0.988
_diffrn_measurement_device_type  'Bruker D8 Venture'
_diffrn_measurement_method       '\f and \w scans'
_diffrn_radiation_type           MoK\a
_diffrn_radiation_wavelength     0.71073
_diffrn_reflns_av_R_equivalents  0.0485
_diffrn_reflns_av_unetI/netI     0.0357
_diffrn_reflns_Laue_measured_fraction_full 0.995
_diffrn_reflns_Laue_measured_fraction_max 0.988
_diffrn_reflns_limit_h_max       10
_diffrn_reflns_limit_h_min       -10
_diffrn_reflns_limit_k_max       15
_diffrn_reflns_limit_k_min       -15
_diffrn_reflns_limit_l_max       20
_diffrn_reflns_limit_l_min       -19
_diffrn_reflns_number            11373
_diffrn_reflns_point_group_measured_fraction_full 0.995
_diffrn_reflns_point_group_measured_fraction_max 0.988
_diffrn_reflns_theta_full        25.242
_diffrn_reflns_theta_max         30.518
_diffrn_reflns_theta_min         2.992
_diffrn_source                   'Microfocus Sealed Tube'
_exptl_absorpt_coefficient_mu    21.502
_exptl_absorpt_correction_T_max  0.7461
_exptl_absorpt_correction_T_min  0.2984
_exptl_absorpt_correction_type   multi-scan
_exptl_absorpt_process_details   'Sadabs, (Sheldrick 2012)'
_exptl_crystal_colour            Colourless
_exptl_crystal_density_diffrn    3.702
_exptl_crystal_density_meas      ?
_exptl_crystal_density_method    'Not Measured'
_exptl_crystal_description       Block
_exptl_crystal_F_000             1168
_exptl_crystal_size_max          0.394
_exptl_crystal_size_mid          0.203
_exptl_crystal_size_min          0.186
_refine_diff_density_max         1.346
_refine_diff_density_min         -0.955
_refine_diff_density_rms         0.233
_refine_ls_extinction_coef       0.00211(9)
_refine_ls_extinction_expression Fc^*^=kFc[1+0.001xFc^2^\l^3^/sin(2\q)]^-1/4^
_refine_ls_extinction_method     'SHELXL-2018/3 (Sheldrick 2018)'
_refine_ls_goodness_of_fit_ref   1.155
_refine_ls_hydrogen_treatment    mixed
_refine_ls_matrix_type           full
_refine_ls_number_parameters     58
_refine_ls_number_reflns         1924
_refine_ls_number_restraints     0
_refine_ls_restrained_S_all      1.155
_refine_ls_R_factor_all          0.0260
_refine_ls_R_factor_gt           0.0225
_refine_ls_shift/su_max          0.001
_refine_ls_shift/su_mean         0.000
_refine_ls_structure_factor_coef Fsqd
_refine_ls_weighting_details
'w=1/[\s^2^(Fo^2^)+1.1715P] where P=(Fo^2^+2Fc^2^)/3'
_refine_ls_weighting_scheme      calc
_refine_ls_wR_factor_gt          0.0458
_refine_ls_wR_factor_ref         0.0471
_reflns_Friedel_coverage         0.000
_reflns_number_gt                1774
_reflns_number_total             1924
_reflns_threshold_expression     'I > 2\s(I)'
_cod_data_source_file            d1cc01386f2.cif
_cod_data_source_block           I005
_cod_depositor_comments
;
The following automatic conversions were performed:

data item '_exptl_absorpt_correction_type' value 'Multi-scan' was
changed to 'multi-scan' in accordance with the
/home/data/users/saulius/crontab/automatic-downloads/rss-feeds/RSC/lib/dictionaries/cif_core.dic
dictionary named 'cif_core.dic' version 2.4.2 last updated on
2011-04-26.

data item '_exptl_crystal_density_meas' value 'Not Measured' was
changed to '?' -- the value is perceived as not measured.

Automatic conversion script
Id: cif_fix_values 7556 2019-12-06 15:28:31Z antanas 

 Adding full bibliography for 7128301.cif.
;
_cod_original_formula_sum        'C1.50 H4.50 I1.50 O0.50 Pb0.50 S0.50'
_cod_database_code               7128301
_shelx_shelxl_version_number     2018/3
_shelx_space_group_comment
; 
The symmetry employed for this shelxl refinement is uniquely defined 
by the following loop, which should always be used as a source of 
symmetry information in preference to the above space-group names. 
They are only intended as comments. 
;
_shelx_estimated_absorpt_t_min   0.2984
_shelx_estimated_absorpt_t_max   0.7461
_computing_bruker_data_scaling   'SADABS V2012/1 (Bruker AXS Inc.)'
_shelx_res_file
; 
TITL I005.res in Pnma 
    I005.res 
    created by SHELXL-2018/3 at 09:43:58 on 13-Apr-2021 
CELL  0.71073   7.7592  11.1022  14.1866   90.000   90.000   90.000 
ZERR    8.000   0.0002   0.0003   0.0004    0.000    0.000    0.000 
LATT  1 
SYMM 1/2-X, -Y, 1/2+Z 
SYMM -X, 1/2+Y, -Z 
SYMM 1/2+X, 1/2-Y, 1/2-Z 
SFAC C H I O PB S 
UNIT 12 36 12 4 4 4 
TEMP -173.230 
L.S. 10 
BOND $H 
LIST 4 
ACTA 
CONF 
OMIT 0 1 1 
OMIT 0 0 2 
OMIT 10 4 0 
FMAP 2 
PLAN 20 
WGHT    0.000000    1.171500 
EXTI    0.002110 
FVAR       0.05978 
PB1   5    1.064646    0.750000    0.750126    10.50000    0.00696    0.01295 = 
         0.00839    0.00000   -0.00051    0.00000 
I1    3    0.817991    0.556871    0.849861    11.00000    0.01476    0.01017 = 
         0.01029    0.00062    0.00001    0.00009 
I2    3    0.821332    0.750000    0.571754    10.50000    0.00850    0.02787 = 
         0.00631    0.00000   -0.00010    0.00000 
S1    6    0.265529    0.750000    0.348923    10.50000    0.01101    0.01156 = 
         0.00760    0.00000    0.00086    0.00000 
O1    4    0.306909    0.750000    0.249884    10.50000    0.02473    0.01909 = 
         0.00725    0.00000    0.00454    0.00000 
C1    1    0.447225    0.750000    0.419842    10.50000    0.01194    0.01668 = 
         0.01454    0.00000   -0.00298    0.00000 
H1A   2    0.416834    0.750000    0.487266    10.50000    0.02060 
H1B   2    0.506432    0.679262    0.404053    11.00000    0.02895 
C2    1    0.144230    0.623944    0.383041    11.00000    0.02052    0.01671 = 
         0.00842   -0.00141    0.00050   -0.00792 
AFIX 137 
H2A   2    0.124957    0.626273    0.451287    11.00000   -1.50000 
H2B   2    0.206979    0.550284    0.366574    11.00000   -1.50000 
H2C   2    0.033006    0.624869    0.350318    11.00000   -1.50000 
REM ##### 
AFIX   0 
HKLF 4 
  
  
  
  
REM  I005.res in Pnma 
REM wR2 = 0.047078, GooF = S = 1.15453, Restrained GooF = 1.15453 for all data 
REM R1 = 0.022531 for 1774 Fo > 4sig(Fo) and 0.026049 for all 1924 data 
REM 58 parameters refined using 0 restraints 
  
END 
  
WGHT      0.0000      1.1715 
  
REM Highest difference peak  1.346,  deepest hole -0.955,  1-sigma level  0.233 
Q1    1   0.8263  0.7500  0.7566  10.50000  0.05    1.35 
Q2    1   1.1224  0.8006  0.7297  11.00000  0.05    1.16 
Q3    1   0.3116  0.7500  0.5416  10.50000  0.05    1.13 
Q4    1   0.9258  0.7500  0.7173  10.50000  0.05    1.12 
Q5    1   0.9817  0.7500  0.8417  10.50000  0.05    1.02 
Q6    1   1.1604  0.7500  0.6692  10.50000  0.05    0.99 
Q7    1   0.8712  0.7500  0.4859  10.50000  0.05    0.96 
Q8    1   1.0789  0.5660  0.8547  11.00000  0.05    0.95 
Q9    1   1.0620  0.7500  0.6637  10.50000  0.05    0.94 
Q10   1   1.0172  0.7954  0.7711  11.00000  0.05    0.89 
Q11   1   1.0502  0.7828  0.8407  11.00000  0.05    0.86 
Q12   1   0.7671  0.6172  0.8303  11.00000  0.05    0.85 
Q13   1   0.3526  0.7500  0.3764  10.50000  0.05    0.85 
Q14   1  -0.0790  0.7500  0.4273  10.50000  0.05    0.84 
Q15   1   1.2221  0.7500  0.7784  10.50000  0.05    0.84 
Q16   1   0.1147  0.7160  0.5691  11.00000  0.05    0.84 
Q17   1   0.9678  0.7500  0.5228  10.50000  0.05    0.82 
Q18   1   0.6748  0.6458  0.4300  11.00000  0.05    0.78 
Q19   1   1.1213  0.7891  0.7732  11.00000  0.05    0.77 
Q20   1  -0.0219  0.7500  0.3525  10.50000  0.05    0.75 
;
_shelx_res_checksum              19518
_shelx_hkl_file
; 
   1   0   0   -0.01    0.02 
  -1   0   0    0.11    0.04 
  -1   0   0    0.18    0.07 
   2   0   0  147.85    8.32 
   2   0   0  164.92    8.32 
  -2   0   0  153.74    8.36 
  -2   0   0  162.26    8.53 
  -3   0   0    0.08    0.11 
   4   0   0   16.42    0.99 
  -4   0   0   12.89    1.08 
  -4   0   0   13.76    1.24 
   4   0   0   14.85    1.22 
   4   0   0   14.48    0.96 
   5   0   0   -0.11    0.10 
  -5   0   0    0.58    0.38 
   5   0   0    0.38    0.13 
  -5   0   0    0.12    0.14 
   5   0   0    0.17    0.10 
  -6   0   0   57.36    3.63 
   6   0   0   54.36    3.08 
   6   0   0   55.65    4.21 
  -6   0   0   62.24    3.99 
   6   0   0   54.72    3.10 
  -7   0   0    1.28    0.67 
  -8   0   0  515.03   27.41 
   8   0   0  465.15   26.55 
   1   1   0    0.08    0.06 
  -1  -1   0    0.03    0.04 
  -1  -1   0    0.46    0.11 
  -1   1   0    0.15    0.04 
  -2   1   0    7.59    0.54 
  -2   1   0    7.25    0.56 
   2  -1   0    9.39    0.67 
   2   1   0   10.48    0.83 
   2   1   0    8.90    0.65 
  -2  -1   0    8.96    0.76 
  -2  -1   0    8.38    0.66 
  -2   1   0    8.64    0.68 
  -3   1   0    1.17    0.26 
  -3   1   0    1.47    0.31 
  -4   1   0  705.23   36.91 
  -4  -1   0  676.22   36.75 
  -4   1   0  676.59   36.62 
   4   1   0  709.42   36.62 
  -4  -1   0  718.11   37.01 
   5   1   0    0.57    0.29 
   5  -1   0    0.86    0.30 
   5   1   0    0.28    0.16 
  -5  -1   0    0.13    0.18 
  -5   1   0    0.01    0.14 
  -5   1   0    0.17    0.14 
   5   1   0    0.16    0.15 
   6   1   0    1.93    0.56 
   6  -1   0    1.58    0.46 
  -6   1   0    1.95    0.62 
  -6  -1   0    1.70    0.46 
   6   1   0    1.18    0.29 
  -6  -1   0    0.79    0.46 
   6   1   0    1.35    0.31 
  -7  -1   0    0.07    0.35 
   7  -1   0    0.20    0.23 
  -7  -1   0   -0.34    0.21 
   7   1   0    0.16    0.14 
   7   1   0    0.08    0.13 
   7   1   0   -0.03    0.23 
  -8  -1   0   10.72    1.50 
  -8   1   0    9.85    1.52 
   8  -1   0    9.24    1.20 
   8   1   0   10.28    1.32 
   9  -1   0    0.12    0.36 
  -9   1   0    0.81    0.65 
  -1  -2   0    0.53    0.15 
   1   2   0    0.11    0.08 
   1   2   0    0.29    0.09 
  -1  -2   0    0.44    0.14 
   1  -2   0    0.36    0.07 
   2  -2   0  144.10    7.60 
   2   2   0  152.66    7.77 
  -2   2   0  139.48    7.65 
  -2   2   0  135.37    7.52 
  -2  -2   0  140.71    7.74 
  -3   2   0    0.37    0.17 
   3  -2   0    0.02    0.08 
  -3  -2   0    0.05    0.10 
   3   2   0    0.68    0.31 
  -3   2   0    0.20    0.09 
   3   2   0    0.06    0.09 
  -3  -2   0    0.18    0.17 
   4   2   0    2.38    0.39 
   4   2   0    2.24    0.52 
  -4   2   0    1.74    0.45 
  -4  -2   0    1.89    0.49 
  -4  -2   0    2.20    0.49 
   4  -2   0    2.83    0.40 
  -4   2   0    2.36    0.38 
  -5  -2   0    0.81    0.42 
  -5   2   0   -0.09    0.13 
   5   2   0    0.26    0.16 
  -5   2   0    0.14    0.19 
  -5  -2   0    0.04    0.16 
   5  -2   0   -0.06    0.10 
   5   2   0    0.10    0.19 
  -6  -2   0  139.21    8.36 
   6  -2   0  136.09    7.91 
   6   2   0  138.19    7.73 
  -6  -2   0  130.57    8.04 
  -6   2   0  145.11    8.30 
   6   2   0  140.25    7.73 
   6   2   0  144.15    8.22 
  -7  -2   0    1.11    0.51 
  -7   2   0    3.06    0.92 
  -8  -2   0   44.78    3.81 
   8  -2   0   45.47    3.29 
   8   2   0   48.30    2.83 
   8   2   0   48.14    2.83 
   8   2   0   43.47    3.47 
  -8  -2   0   46.02    3.53 
  -8   2   0   50.05    3.79 
   9  -2   0   -0.16    0.29 
  -9   2   0    0.63    0.66 
   0   3   0    0.03    0.07 
   0  -3   0    0.02    0.06 
   1  -3   0    0.17    0.07 
  -1  -3   0    0.12    0.13 
  -1  -3   0    0.06    0.09 
  -1   3   0    0.24    0.09 
   1   3   0    0.14    0.10 
  -2  -3   0  156.12    9.36 
   2   3   0  192.93    9.57 
   2  -3   0  155.62    9.08 
  -2   3   0  158.45    9.10 
  -2  -3   0  177.84    9.36 
   2   3   0  191.19    9.48 
  -3   3   0    0.51    0.14 
   3   3   0    1.22    0.31 
   3  -3   0    0.56    0.17 
   3   3   0    1.06    0.40 
  -3  -3   0    0.67    0.28 
  -3  -3   0    0.13    0.14 
  -3   3   0    0.31    0.16 
  -4  -3   0   78.79    4.72 
   4  -3   0   76.66    4.32 
  -4  -3   0   76.43    4.55 
   4   3   0   79.24    4.49 
  -4   3   0   67.22    4.24 
  -4   3   0   76.20    4.51 
   5   3   0    0.09    0.26 
   5  -3   0    0.09    0.13 
   5   3   0    0.04    0.13 
  -5  -3   0    0.10    0.19 
  -5  -3   0    0.21    0.26 
  -5   3   0    0.37    0.28 
   6  -3   0   79.90    4.77 
  -6  -3   0   79.10    5.27 
   6   3   0   81.10    5.19 
  -6   3   0   68.74    4.84 
   6   3   0   86.92    4.81 
  -6  -3   0   79.87    5.06 
  -6   3   0   83.61    5.65 
   7   3   0   -0.29    0.22 
  -7  -3   0    0.24    0.31 
  -7   3   0    0.91    0.30 
  -7  -3   0    0.18    0.42 
   7   3   0   -0.12    0.17 
   7   3   0   -0.10    0.19 
   8  -3   0    0.25    0.21 
   8   3   0    0.46    0.32 
  -8  -3   0    1.16    0.45 
  -8   3   0    0.43    0.47 
   8   3   0    0.31    0.28 
   9  -3   0    0.02    0.28 
   9   3   0    0.63    0.31 
   9   3   0    0.54    0.28 
  -9   3   0   -0.58    0.59 
  -1   4   0    0.85    0.22 
   1   4   0    0.32    0.14 
  -1  -4   0    0.53    0.21 
   2   4   0    1.81    0.39 
  -2  -4   0    2.01    0.44 
  -2   4   0    2.01    0.28 
   2  -4   0    2.00    0.23 
  -2  -4   0    1.55    0.33 
  -3   4   0    0.22    0.11 
  -3  -4   0   -0.07    0.09 
   3  -4   0    0.12    0.09 
  -3  -4   0    0.28    0.20 
   3   4   0    0.02    0.11 
   3   4   0    0.82    0.31 
  -4   4   0    0.53    0.18 
   4   4   0    0.36    0.36 
  -4  -4   0   -0.21    0.16 
  -4  -4   0    0.55    0.24 
   4  -4   0    0.19    0.12 
   4   4   0    0.27    0.17 
   5   4   0    0.13    0.23 
  -5  -4   0    0.88    0.38 
  -5   4   0    0.09    0.15 
   5  -4   0    0.83    0.26 
  -5   4   0    0.52    0.29 
   6   4   0   10.23    1.29 
  -6  -4   0    9.75    1.19 
  -6   4   0   10.04    1.25 
  -6   4   0    8.43    1.02 
  -6  -4   0    8.84    1.29 
   6   4   0   11.86    1.13 
   6  -4   0   10.76    0.98 
  -7   4   0    0.48    0.34 
   7  -4   0    0.39    0.26 
   7   4   0    0.11    0.27 
  -7  -4   0    0.85    0.33 
  -7   4   0    2.44    0.78 
  -8   4   0  230.31   12.81 
   8   4   0  222.03   11.91 
   8   4   0  203.05   11.79 
   8  -4   0  199.05   11.86 
   9   4   0    0.41    0.37 
  -9   4   0    2.04    0.67 
   9   4   0   -0.01    0.26 
  10   4   0   -0.48    0.31 
  -1  -5   0    0.26    0.18 
   1   5   0    0.74    0.27 
  -1  -5   0    0.56    0.22 
  -1   5   0    0.40    0.18 
  -2  -5   0  129.99    7.32 
   2  -5   0  135.75    6.89 
   2   5   0  131.71    7.39 
  -2  -5   0  128.03    7.33 
  -2   5   0  121.52    7.11 
  -3   5   0    0.24    0.15 
   3   5   0    0.40    0.26 
  -3  -5   0    1.35    0.44 
  -3  -5   0    0.98    0.31 
   3  -5   0    0.49    0.14 
  -4   5   0  859.68   49.07 
  -4  -5   0  930.70   49.52 
  -4  -5   0  953.58   49.66 
   4   5   0 1000.00   49.53 
  -5   5   0    0.84    0.27 
  -5  -5   0    0.03    0.23 
  -5  -5   0    0.03    0.20 
   5   5   0    0.34    0.28 
   5  -5   0    0.02    0.11 
  -6  -5   0   12.19    1.36 
   6   5   0   12.36    1.24 
  -6   5   0    8.51    1.02 
   6  -5   0   11.24    0.98 
  -7  -5   0    0.33    0.34 
  -7  -5   0   -0.03    0.38 
  -7   5   0    0.37    0.27 
   7   5   0    0.41    0.32 
   7  -5   0    0.29    0.24 
   8   5   0   25.26    2.09 
   8  -5   0   23.16    1.79 
   8   5   0   22.11    1.93 
   9   5   0    1.47    0.46 
   0   6   0  963.94   52.63 
   1  -6   0    0.16    0.12 
  -1  -6   0    0.08    0.13 
   1   6   0    0.35    0.24 
  -1   6   0    0.11    0.13 
  -2  -6   0   16.64    1.38 
  -2   6   0   15.42    1.25 
   2   6   0   15.56    1.43 
  -2  -6   0   14.98    1.33 
   2  -6   0   16.20    1.02 
  -3  -6   0    0.70    0.39 
  -3   6   0    0.38    0.20 
   3   6   0    0.19    0.22 
  -3  -6   0    0.06    0.15 
  -4  -6   0    1.36    0.47 
   4  -6   0    2.01    0.28 
  -4  -6   0    2.00    0.58 
  -4   6   0    2.49    0.41 
   4   6   0    1.36    0.43 
   5  -6   0    0.39    0.17 
  -5  -6   0    0.73    0.36 
  -5   6   0    0.84    0.29 
  -5  -6   0    0.17    0.30 
   5   6   0    0.63    0.34 
   6   6   0    2.47    0.67 
  -6   6   0    3.63    0.55 
  -6  -6   0    1.73    0.60 
   6  -6   0    3.03    0.44 
   7   6   0    0.01    0.27 
   7  -6   0    0.33    0.23 
  -7   6   0    0.86    0.42 
   8   6   0  239.91   13.20 
  -8   6   0  223.65   13.24 
   8  -6   0  237.22   12.82 
   9   6   0    1.27    0.65 
   9   6   0    0.23    0.39 
   0   7   0    0.40    0.23 
   0  -7   0    0.26    0.16 
   0  -7   0    0.27    0.17 
   1   7   0    0.04    0.16 
  -1  -7   0    0.03    0.15 
   1  -7   0    0.08    0.12 
   1  -7   0    0.24    0.18 
  -1  -7   0   -0.03    0.12 
  -1   7   0    0.09    0.16 
  -2   7   0   92.38    5.52 
   2  -7   0   96.92    5.17 
   2   7   0   93.67    5.78 
  -2  -7   0   93.33    5.60 
  -2  -7   0   93.77    5.61 
   3   7   0    0.37    0.27 
   3  -7   0    0.37    0.14 
  -3  -7   0    0.07    0.22 
  -3  -7   0    0.24    0.28 
  -3   7   0    0.09    0.17 
  -4  -7   0   90.37    5.49 
   4  -7   0   83.25    4.64 
  -4   7   0   81.21    5.03 
   4   7   0   87.67    5.40 
  -4  -7   0   83.60    5.34 
   5  -7   0    0.16    0.13 
   5   7   0   -0.14    0.17 
  -5  -7   0   -0.25    0.22 
  -5   7   0    0.30    0.23 
   6  -7   0   31.55    1.95 
  -6   7   0   31.15    2.27 
   6   7   0   29.16    2.50 
   7  -7   0    0.17    0.19 
  -7   7   0    0.41    0.38 
   7   7   0   -0.50    0.26 
   8   7   0    1.45    0.60 
  -8   7   0    0.01    0.46 
   9   7   0    0.76    0.52 
   0  -8   0   57.45    3.53 
   0   8   0   55.41    3.75 
   0  -8   0   57.24    3.45 
   1  -8   0    0.25    0.15 
  -1   8   0    0.72    0.32 
  -1  -8   0    0.16    0.20 
   1  -8   0    0.04    0.16 
   1   8   0    0.02    0.20 
  -1  -8   0    0.75    0.30 
   2  -8   0  110.33    6.25 
  -2  -8   0  111.61    6.73 
  -2  -8   0  116.10    6.78 
   2   8   0  118.15    6.96 
  -2   8   0  112.05    6.72 
   2  -8   0  120.40    6.31 
   3   8   0   -0.12    0.24 
  -3   8   0   -0.07    0.20 
  -3  -8   0   -0.09    0.18 
   3  -8   0    0.05    0.09 
  -3  -8   0    0.37    0.31 
   4  -8   0    0.65    0.15 
   4   8   0    0.54    0.34 
  -4  -8   0    1.35    0.54 
  -4   8   0    0.86    0.36 
  -4  -8   0    0.32    0.28 
   5  -8   0    0.00    0.09 
  -5  -8   0   -0.20    0.38 
  -5   8   0    0.04    0.25 
   6   8   0  125.13    7.54 
   6  -8   0  119.92    6.55 
  -6   8   0  118.71    7.14 
  -7   8   0    0.83    0.52 
   7   8   0    0.50    0.46 
  -8   8   0    9.50    1.35 
   8   8   0   10.17    1.39 
  -9   8   0    0.14    0.43 
   0  -9   0    1.19    0.38 
   0   9   0    0.31    0.29 
   0  -9   0    0.14    0.17 
  -1  -9   0   -0.06    0.18 
   1  -9   0   -0.09    0.13 
   1  -9   0    0.16    0.19 
   1   9   0    0.14    0.23 
  -1  -9   0    0.40    0.27 
  -1   9   0    0.26    0.30 
   2   9   0   14.83    1.59 
  -2  -9   0   15.14    1.44 
  -2   9   0   13.19    1.39 
   2  -9   0   15.03    1.06 
  -2  -9   0   15.81    1.49 
   3  -9   0    0.21    0.11 
   3   9   0    0.07    0.21 
   3  -9   0    0.22    0.13 
  -3  -9   0   -0.02    0.24 
  -3   9   0    0.29    0.24 
  -3  -9   0    0.08    0.28 
  -4   9   0  163.94    9.23 
   4   9   0  164.85    9.56 
  -4  -9   0  142.84    9.35 
  -4  -9   0  166.23    9.84 
   5   9   0    0.06    0.34 
  -5   9   0    0.85    0.28 
  -5  -9   0   -0.09    0.61 
   6   9   0    7.14    1.31 
  -6   9   0    6.74    1.00 
   7   9   0    0.04    0.44 
  -7   9   0    0.82    0.47 
  -8   9   0    2.61    0.81 
   8   9   0    1.68    0.70 
  -9   9   0   -0.09    0.61 
   9   9   0   -0.84    0.46 
   0 -10   0  681.88   35.00 
   0  10   0  663.93   35.47 
   0 -10   0  627.43   35.71 
  -1 -10   0    0.92    0.37 
   1 -10   0    0.32    0.22 
  -1 -10   0    0.23    0.19 
  -1  10   0    0.08    0.28 
   1 -10   0    0.32    0.25 
   1  10   0   -0.01    0.18 
   2 -10   0   25.08    1.57 
  -2 -10   0   25.14    2.07 
  -2  10   0   24.51    2.84 
   2  10   0   20.82    2.13 
  -2 -10   0   22.55    1.96 
   3 -10   0    0.45    0.14 
  -3  10   0    0.64    0.37 
   3 -10   0    0.18    0.12 
   3  10   0   -0.27    0.16 
  -3 -10   0    0.18    0.29 
  -3 -10   0   -0.08    0.29 
   4  10   0    0.76    0.45 
  -4  10   0    2.11    0.56 
   5  10   0   -0.14    0.33 
  -5  10   0   -0.28    0.25 
   6  10   0    8.90    1.38 
  -6  10   0    8.43    1.25 
   7  10   0    0.31    0.46 
  -7  10   0    1.73    0.61 
   8  10   0  203.04   12.34 
  -8  10   0  211.96   12.09 
   0 -11   0    0.69    0.31 
   1 -11   0    0.11    0.17 
   1  11   0    0.26    0.44 
   1 -11   0    0.54    0.29 
  -1  11   0    0.17    0.29 
  -1 -11   0    0.51    0.31 
  -1 -11   0    0.17    0.26 
  -2  11   0   14.26    1.61 
  -2 -11   0   13.57    1.44 
   2 -11   0   14.60    1.07 
   2  11   0   13.33    1.70 
  -2 -11   0   15.31    1.56 
  -3  11   0    0.83    0.35 
   3  11   0    0.23    0.37 
  -3 -11   0    0.80    0.35 
  -4  11   0  329.61   18.12 
   4  11   0  316.61   18.37 
  -5  11   0    1.28    0.48 
   5  11   0    0.25    0.37 
   6  11   0    1.53    0.76 
  -6  11   0    0.96    0.52 
  -7  11   0   -0.89    0.47 
   7  11   0   -0.91    0.41 
   0  12   0   69.12    5.00 
   0 -12   0   74.69    4.50 
   0 -12   0   67.42    4.32 
  -1 -12   0    0.12    0.26 
  -1 -12   0   -0.31    0.31 
   1  12   0   -0.33    0.22 
  -1  12   0   -0.27    0.25 
   1 -12   0    0.10    0.22 
  -2 -12   0   22.94    2.02 
   2  12   0   22.41    2.38 
   2 -12   0   22.41    1.53 
  -2  12   0   24.49    2.34 
  -3  12   0   -0.14    0.30 
   3  12   0   -0.25    0.30 
   4  12   0    1.95    0.87 
  -4  12   0    2.39    0.73 
   5  12   0   -0.15    0.46 
  -5  12   0   -0.36    0.40 
   6  12   0   31.81    3.19 
  -6  12   0   38.74    3.04 
  -7  12   0   -0.18    0.63 
   7  12   0   -0.73    0.54 
   0  13   0   -0.63    0.31 
   0 -13   0    0.44    0.29 
  -1 -13   0   -0.32    0.32 
   1 -13   0   -0.14    0.23 
  -1  13   0    0.30    0.54 
  -1 -13   0   -0.46    0.41 
   2 -13   0   55.17    3.66 
  -2  13   0   69.79    4.90 
   2  13   0   70.96    5.03 
  -2 -13   0   69.73    5.13 
   3  13   0    0.45    0.71 
  -3  13   0   -0.10    0.46 
   4  13   0    3.71    1.09 
  -4  13   0    6.19    1.38 
  -5  13   0   -0.52    0.63 
   5  13   0    0.65    0.70 
  -6  13   0   39.93    3.28 
   6  13   0   35.77    3.47 
   0  14   0   64.31    4.94 
   0 -14   0   61.40    3.97 
   1 -14   0    0.10    0.26 
  -1  14   0    0.07    0.52 
  -2  14   0   11.84    1.80 
   2  14   0    9.10    1.75 
   3  14   0   -0.05    0.49 
  -3  14   0    0.66    0.60 
   4  14   0   -0.06    0.58 
  -4  14   0    1.27    0.57 
  -5  14   0    0.04    0.72 
   0  15   0    0.37    0.48 
   1 -15   0   -0.17    0.32 
   1  15   0    0.50    0.73 
  -1  15   0    0.78    0.69 
   2  15   0    3.41    1.20 
  -3  15   0   -0.31    0.68 
   3  15   0   -0.08    0.60 
  -1   0  -1    1.35    0.19 
  -1   0  -1    1.58    0.22 
  -1   0   1    1.40    0.13 
   1   0   1    2.04    0.21 
  -2   0   1   23.70    1.48 
  -2   0   1   23.42    1.35 
  -2   0  -1   22.82    1.50 
   2   0  -1   22.72    1.27 
   2   0  -1   25.32    1.51 
   2   0  -1   21.60    1.28 
   2   0   1   21.56    1.40 
   2   0   1   22.69    1.38 
  -3   0   1    1.04    0.30 
  -3   0  -1    0.73    0.26 
  -3   0  -1    0.79    0.20 
   3   0  -1    0.54    0.11 
   3   0  -1    0.73    0.29 
  -3   0   1    0.83    0.20 
   3   0   1    0.93    0.20 
   3   0   1    0.60    0.21 
   3   0   1    0.52    0.15 
   4   0  -1  760.91   39.51 
   4   0   1  752.66   39.68 
  -5   0  -1    7.59    0.93 
  -5   0   1    5.99    0.68 
   5   0   1    7.30    0.84 
  -5   0   1    6.40    1.04 
   5   0  -1    6.34    0.76 
   5   0   1    6.56    0.59 
   5   0   1    5.36    0.54 
   6   0   1    5.24    0.52 
  -6   0   1    5.86    0.76 
   6   0   1    5.38    0.80 
   6   0   1    5.49    0.51 
  -6   0   1    5.04    0.87 
  -6   0  -1    5.88    0.95 
   6   0  -1    5.96    0.81 
  -7   0  -1    4.87    1.03 
   7   0  -1    3.67    0.83 
  -7   0   1    4.87    1.03 
  -7   0   1    4.73    0.88 
   7   0   1    4.78    0.42 
   7   0   1    3.51    0.82 
   7   0   1    4.66    0.41 
   8   0   1   23.55    2.13 
  -8   0  -1   24.45    2.47 
   9   0   1    0.15    0.31 
   0   1  -1    0.01    0.02 
  -1  -1  -1    2.61    0.32 
   1   1  -1    2.11    0.23 
   1  -1   1    2.13    0.20 
  -1  -1  -1    1.92    0.24 
   1  -1   1    2.08    0.25 
  -1   1  -1    2.54    0.23 
  -1  -1   1    1.92    0.23 
   1   1   1    2.24    0.28 
   1   1   1    2.81    0.29 
  -2   1   1   59.58    3.35 
   2  -1   1   58.85    3.27 
   2   1  -1   67.06    3.54 
   2  -1   1   55.93    3.25 
   2  -1   1   66.46    3.48 
   2   1  -1   60.81    3.33 
  -2  -1  -1   57.08    3.40 
  -2   1  -1   54.01    3.35 
  -2  -1   1   60.23    3.51 
   2  -1  -1   63.02    3.34 
   2   1   1   62.50    3.42 
  -2   1  -1   56.70    3.42 
  -2  -1   1   58.56    3.37 
  -3   1   1    0.36    0.16 
   3  -1   1    0.40    0.11 
  -3   1   1    0.65    0.17 
   3  -1   1    0.51    0.13 
  -3   1   1    0.35    0.11 
  -3  -1  -1    0.87    0.28 
   3   1  -1    0.31    0.16 
  -3  -1  -1    0.37    0.17 
   3  -1   1    0.88    0.25 
   3   1  -1    0.78    0.18 
   3   1   1    0.35    0.13 
   3   1   1    0.85    0.31 
   3  -1  -1    0.53    0.17 
  -3  -1   1    0.36    0.19 
  -3   1  -1    0.23    0.14 
  -3   1  -1    0.95    0.25 
  -3  -1   1    0.32    0.13 
  -4   1   1   14.27    0.99 
  -4  -1  -1   14.13    1.27 
   4  -1   1   13.57    0.88 
   4   1  -1   14.31    1.24 
  -4   1   1   14.62    1.21 
   4   1  -1   13.49    0.96 
  -4  -1  -1   13.41    1.14 
   4  -1   1   13.41    1.13 
   4  -1   1   13.51    0.90 
   4   1   1   14.71    1.31 
  -4  -1   1   13.50    1.25 
  -4  -1   1   14.83    1.13 
   4   1   1   14.54    1.07 
   4  -1  -1   13.09    1.09 
  -4   1  -1   14.50    1.25 
   4   1   1   13.00    1.04 
  -4   1  -1   12.85    1.18 
   5   1  -1   12.04    0.92 
   5   1  -1   12.52    1.22 
   5  -1   1   12.91    0.84 
  -5  -1  -1   12.51    1.31 
  -5   1   1   12.17    1.03 
  -5   1   1   15.24    1.34 
  -5  -1  -1   16.20    1.29 
   5   1  -1   13.29    0.94 
   5  -1   1   15.65    1.26 
   5  -1   1   11.67    0.81 
  -5  -1   1   12.49    1.31 
   5   1   1   13.36    1.27 
   5   1   1   12.83    1.03 
   5  -1  -1   12.68    1.14 
  -5  -1   1   12.91    1.14 
   5   1   1   12.40    1.01 
   6   1  -1    7.58    0.63 
  -6  -1  -1    7.00    1.06 
  -6   1   1    7.59    0.83 
   6  -1   1    9.09    0.99 
  -6   1   1    8.91    1.08 
   6   1  -1    7.48    0.62 
   6   1  -1    8.06    0.99 
  -6  -1   1    5.73    0.82 
  -6   1  -1    8.06    1.10 
  -6  -1   1    7.68    1.09 
   6  -1  -1    7.96    0.91 
   6   1   1    7.05    0.72 
   6   1   1    8.36    1.04 
   6   1   1    7.34    0.73 
  -7   1   1   15.66    1.67 
  -7   1   1   11.89    1.26 
   7  -1   1   14.85    1.44 
  -7  -1  -1   14.22    1.67 
   7   1   1   13.63    1.46 
  -7  -1   1   13.15    1.37 
  -7   1  -1   14.81    1.70 
   7   1   1   14.42    1.07 
   7  -1  -1   13.14    1.35 
  -7  -1   1   12.54    1.59 
   7   1   1   13.74    1.06 
  -8  -1  -1  177.97   11.90 
  -8   1   1  218.81   12.09 
   8  -1   1  190.43   11.43 
  -8  -1   1  201.93   12.04 
   8   1   1  212.72   10.72 
  -8   1  -1  211.30   12.36 
  -8  -1   1  190.10   11.53 
   8   1   1  190.17   11.55 
   8   1   1  206.69   10.73 
   9  -1   1    4.71    1.08 
  -9   1   1    5.03    1.38 
   9   1   1    3.49    0.99 
  10  -1   1    8.61    1.32 
   0   2  -1    0.26    0.09 
   0  -2   1    0.35    0.10 
   0   2   1    0.33    0.09 
   1  -2   1   45.92    2.60 
   1   2  -1   48.76    2.72 
  -1  -2  -1   48.85    2.72 
  -1  -2  -1   46.90    2.71 
  -1   2  -1   47.34    2.65 
   1   2   1   47.16    2.73 
  -1  -2   1   45.61    2.71 
   2   2  -1  362.57   18.09 
   2  -2   1  334.55   17.86 
  -2  -2  -1  348.96   18.12 
   2  -2   1  366.15   18.08 
  -2   2  -1  317.36   18.08 
  -2  -2   1  338.16   18.09 
  -2   2  -1  313.72   17.94 
   2   2   1  346.63   18.11 
   3   2  -1  241.71   12.70 
   3  -2   1  224.39   12.66 
  -3  -2  -1  246.09   12.94 
   3  -2   1  232.28   12.41 
   3  -2   1  240.65   12.42 
  -3  -2  -1  237.28   12.79 
  -3   2   1  228.94   12.67 
   3   2   1  252.48   12.77 
  -3  -2   1  242.79   12.93 
   3  -2  -1  240.26   12.60 
  -3   2  -1  214.11   12.63 
  -3   2  -1  236.86   12.81 
  -3  -2   1  240.63   12.78 
  -4  -2  -1   38.42    2.57 
   4   2  -1   40.02    2.44 
  -4   2   1   40.51    2.57 
   4   2  -1   44.96    2.85 
  -4   2   1   32.75    2.33 
  -4   2   1   35.90    2.25 
   4  -2   1   38.06    2.48 
  -4  -2  -1   40.14    2.73 
  -4   2  -1   41.99    2.68 
  -4  -2   1   38.03    2.72 
   4   2   1   40.42    2.73 
   4   2   1   40.88    2.52 
  -4  -2   1   41.62    2.60 
   4  -2  -1   40.46    2.44 
   5  -2   1   99.96    5.87 
  -5   2   1  107.06    6.06 
   5   2  -1  112.84    6.21 
   5   2  -1  103.56    5.72 
  -5  -2  -1  101.13    6.19 
  -5  -2  -1  101.10    5.99 
  -5   2   1  102.88    5.67 
  -5  -2   1  101.71    6.20 
  -5   2  -1   89.01    5.95 
   5   2   1   94.31    5.76 
  -5  -2   1  104.48    5.99 
  -5   2  -1  105.58    6.14 
   5  -2  -1  101.86    5.81 
   5   2   1   97.43    6.09 
   5   2   1  102.05    5.81 
   6   2  -1  128.27    7.24 
   6   2  -1  129.56    7.23 
  -6  -2  -1  129.03    7.68 
  -6   2   1  138.09    7.84 
  -6  -2  -1  126.45    7.90 
   6  -2   1  131.31    7.53 
   6   2  -1  131.51    7.75 
   6  -2  -1  132.45    7.47 
  -6  -2   1  135.53    7.99 
   6   2   1  127.21    7.34 
   6   2   1  132.17    7.80 
  -6  -2   1  123.79    7.60 
   6   2   1  137.14    7.40 
  -6   2  -1  130.06    7.85 
  -7   2   1    0.25    0.36 
  -7  -2  -1   -0.41    0.34 
   7  -2   1    0.26    0.25 
   7   2  -1   -0.07    0.14 
   7   2  -1    0.04    0.16 
   7  -2  -1    0.00    0.22 
   7   2   1   -0.05    0.15 
   7   2   1    0.18    0.25 
   7   2   1    0.13    0.22 
  -7  -2   1    0.71    0.48 
  -7  -2   1    0.43    0.33 
  -7   2  -1    0.22    0.34 
   8   2  -1    1.46    0.30 
  -8   2   1    2.20    0.76 
  -8  -2  -1    1.70    0.83 
   8  -2   1    1.64    0.57 
   8   2  -1    1.62    0.31 
  -8   2  -1    1.39    0.69 
   8   2   1    1.80    0.68 
   8   2   1    1.33    0.38 
   8   2   1    1.60    0.41 
  -8  -2   1    1.10    0.53 
  -8  -2   1    1.09    0.51 
   9  -2   1   31.94    2.63 
  -9   2   1   31.07    3.07 
   9   2   1   30.86    2.83 
   9   2   1   31.92    2.01 
  -9   2  -1   35.84    3.19 
  10  -2   1   48.49    3.67 
   0  -3   1   10.68    0.83 
   0  -3  -1   11.81    0.82 
   0   3   1   11.26    0.84 
   0   3  -1   12.25    0.91 
   0  -3  -1   12.68    0.79 
   1  -3   1  273.26   14.89 
  -1  -3  -1  306.90   15.07 
  -1  -3  -1  274.07   15.01 
   1   3  -1  303.74   15.11 
  -1   3   1  264.89   14.86 
  -1  -3   1  282.68   15.03 
   1   3   1  293.81   15.10 
  -1   3  -1  259.35   14.93 
  -2   3   1  345.72   18.61 
   2  -3   1  357.96   18.82 
   2  -3   1  369.37   18.68 
   2   3  -1  357.14   18.95 
  -2  -3  -1  370.01   19.04 
  -2  -3  -1  348.53   18.95 
  -2  -3   1  353.67   19.04 
  -2   3  -1  330.45   18.78 
  -2  -3   1  357.93   18.97 
   2   3   1  359.36   19.07 
   2   3   1  365.28   19.00 
  -3  -3  -1   13.25    1.18 
  -3  -3  -1   11.50    1.03 
   3   3  -1   11.29    1.00 
   3  -3   1   11.00    0.88 
  -3   3   1   11.69    0.90 
  -3   3  -1   10.69    0.86 
   3  -3  -1   11.33    0.80 
  -3  -3   1   14.58    1.31 
   3   3   1   12.44    1.20 
  -3  -3   1   12.56    1.06 
   3   3   1   12.64    1.06 
  -4  -3  -1    4.32    0.63 
  -4  -3  -1    3.97    0.67 
  -4   3   1    4.71    0.57 
   4   3  -1    4.26    0.55 
   4  -3   1    4.38    0.52 
  -4   3   1    3.51    0.37 
  -4   3  -1    4.09    0.52 
   4   3   1    4.17    0.58 
   4   3   1    5.66    0.86 
   4  -3  -1    4.20    0.46 
  -4   3  -1    4.37    0.63 
  -4  -3   1    4.18    0.59 
  -4  -3   1    3.94    0.67 
  -5   3   1   94.50    5.43 
   5   3  -1   91.20    5.22 
   5  -3   1   89.97    5.21 
  -5  -3  -1   88.55    5.43 
  -5  -3  -1   92.65    5.63 
  -5  -3   1   89.39    5.63 
  -5   3  -1   97.78    5.60 
  -5  -3   1   87.93    5.43 
  -5   3  -1   73.23    5.27 
   5   3   1   91.65    5.62 
   5   3   1   90.46    5.29 
   5  -3  -1   91.20    5.14 
  -6  -3  -1  134.49    8.35 
   6  -3   1  139.95    8.10 
   6   3  -1  146.69    8.02 
  -6  -3  -1  149.69    8.68 
  -6   3   1  147.89    8.43 
   6   3   1  141.97    8.50 
  -6   3  -1  149.18    8.58 
   6   3   1  146.05    8.11 
   6   3   1  147.64    8.14 
  -6   3  -1  129.06    8.30 
   6  -3  -1  140.14    8.02 
  -6  -3   1  146.48    8.68 
  -6  -3   1  141.49    8.37 
  -7  -3  -1  113.47    7.89 
  -7   3   1  127.76    7.54 
   7   3  -1  126.07    6.89 
  -7  -3  -1  114.97    7.65 
   7  -3   1  118.46    7.10 
   7   3  -1  123.42    6.90 
  -7  -3   1  113.57    8.19 
  -7  -3   1  116.01    7.39 
   7   3   1  127.14    7.12 
  -7   3  -1  131.81    7.73 
   7   3   1  124.51    7.01 
   7  -3  -1  121.84    7.04 
   7   3   1  115.99    7.43 
  -8   3   1   25.01    2.54 
   8   3  -1   26.03    1.83 
   8  -3   1   24.74    2.12 
   8   3  -1   27.95    1.90 
   8   3   1   28.94    2.04 
   8   3   1   25.70    1.95 
  -8  -3   1   25.58    2.39 
  -8   3  -1   30.67    2.81 
   8   3   1   23.97    2.38 
   9   3  -1   34.18    2.13 
  -9   3   1   36.02    4.49 
   9  -3   1   32.85    2.69 
   9   3   1   39.20    2.42 
   9   3   1   35.65    2.35 
  -9   3  -1   30.61    3.26 
   0  -4   1    0.20    0.11 
   0   4   1    0.09    0.10 
   0  -4  -1    0.19    0.10 
   0   4  -1    0.01    0.05 
   0  -4  -1    0.14    0.10 
  -1  -4  -1    0.70    0.20 
  -1   4   1    1.58    0.25 
  -1  -4  -1    0.90    0.25 
   1   4  -1    1.24    0.33 
   1  -4   1    1.01    0.23 
  -1  -4   1    1.55    0.34 
   1   4   1    1.11    0.33 
  -1   4  -1    1.01    0.26 
   1   4   1    1.35    0.32 
   1  -4  -1    1.23    0.14 
   2   4  -1   84.77    4.50 
  -2  -4  -1   72.76    4.37 
   2  -4   1   75.42    4.07 
  -2  -4  -1   72.92    4.37 
  -2   4   1   68.89    4.09 
  -2  -4   1   75.26    4.39 
   2   4   1   80.16    4.51 
  -2   4  -1   69.11    4.21 
  -2  -4   1   74.69    4.45 
   3  -4   1   23.70    1.55 
  -3   4   1   22.37    1.42 
   3   4  -1   24.20    1.75 
  -3  -4  -1   23.98    1.81 
   3  -4  -1   23.13    1.40 
   3   4   1   27.34    2.06 
  -3   4  -1   20.10    1.53 
  -3  -4   1   25.30    1.90 
  -3  -4   1   26.55    1.95 
   3   4   1   26.41    1.84 
  -4  -4  -1  253.96   13.78 
   4  -4   1  241.54   13.42 
  -4  -4  -1  262.33   13.92 
  -4   4   1  222.93   13.24 
   4   4  -1  269.40   13.70 
  -4   4   1  251.34   13.57 
   4   4   1  272.20   14.01 
   4   4   1  255.26   13.72 
   4  -4  -1  250.11   13.31 
  -4  -4   1  251.93   13.77 
  -4   4  -1  230.58   13.45 
  -4  -4   1  245.99   13.91 
  -5  -4  -1   12.97    1.30 
  -5   4   1   14.27    1.27 
   5  -4   1   12.63    1.07 
   5   4  -1   13.01    1.19 
  -5   4   1   11.71    0.95 
  -5  -4  -1   12.39    1.36 
  -5   4  -1   10.96    1.12 
   5  -4  -1   13.16    1.01 
  -5  -4   1   11.90    1.39 
   5   4   1   13.18    1.23 
   5   4   1   15.51    1.57 
  -5  -4   1   11.88    1.28 
  -6   4   1   38.67    2.76 
  -6  -4  -1   33.15    2.69 
   6  -4   1   36.89    2.43 
   6   4  -1   36.30    2.75 
  -6   4   1   30.75    2.36 
  -6  -4  -1   37.19    2.94 
   6  -4  -1   35.83    2.33 
  -6  -4   1   36.45    2.94 
  -6   4  -1   37.97    3.32 
   6   4   1   37.76    2.97 
  -6  -4   1   35.49    2.74 
   6   4   1   36.89    2.58 
  -6   4  -1   30.30    2.55 
  -7  -4  -1   -0.02    0.44 
   7   4  -1    0.24    0.24 
   7  -4   1    0.29    0.28 
  -7  -4  -1    0.02    0.28 
  -7   4   1    0.83    0.45 
   7   4   1    1.15    0.48 
  -7   4  -1    0.55    0.40 
  -7   4  -1    0.84    0.29 
   7   4   1    0.15    0.24 
   7  -4  -1    0.23    0.20 
  -7  -4   1    0.51    0.37 
  -7  -4   1    0.69    0.44 
   7   4   1    0.26    0.30 
   8  -4   1    6.19    0.92 
   8   4  -1    6.20    0.82 
   8   4  -1    8.09    0.97 
   8   4   1    7.60    0.91 
  -8   4  -1    4.78    1.22 
   8   4   1    6.44    0.96 
   8   4   1    6.98    1.20 
   9   4  -1    6.17    0.93 
   9  -4   1    7.93    1.07 
   9   4  -1    7.64    0.87 
   9   4   1    9.68    1.13 
  -9   4  -1    8.51    1.79 
   9   4   1   10.49    1.08 
  10   4   1    6.84    0.81 
   0   5   1  777.30   42.38 
   1  -5   1   14.05    1.01 
  -1  -5  -1   12.37    1.04 
  -1  -5  -1   14.01    1.12 
   1   5  -1   14.20    1.22 
  -1   5   1   13.81    1.07 
   1  -5  -1   12.49    0.93 
   1  -5  -1   16.19    0.90 
  -1  -5   1   13.69    1.13 
  -1   5  -1   12.31    1.07 
   1   5   1   14.84    1.20 
  -1  -5   1   13.48    1.15 
  -2  -5  -1    2.79    0.55 
  -2  -5  -1    2.06    0.46 
   2  -5   1    2.09    0.27 
  -2   5   1    2.02    0.31 
   2   5  -1    1.38    0.38 
  -2   5  -1    1.65    0.35 
  -2  -5   1    1.54    0.39 
   2   5   1    1.66    0.41 
   2   5   1    2.55    0.56 
  -2  -5   1    3.29    0.64 
  -3  -5  -1    4.83    0.68 
  -3   5   1    4.07    0.45 
   3   5  -1    4.64    0.66 
  -3  -5  -1    4.69    0.66 
   3  -5   1    4.23    0.46 
   3  -5  -1    4.63    0.34 
  -3  -5   1    4.31    0.65 
  -3   5  -1    5.35    0.58 
   3   5   1    4.43    0.65 
   3   5   1    6.07    0.84 
  -3  -5   1    4.80    0.72 
  -4  -5  -1   21.52    1.80 
   4   5  -1   25.33    1.84 
  -4   5   1   19.08    1.39 
  -4  -5  -1   21.59    1.85 
   4  -5   1   21.28    1.47 
  -4  -5   1   23.25    1.94 
  -4  -5   1   21.03    1.77 
   4   5   1   22.00    1.78 
  -4   5  -1   20.08    1.53 
   4  -5  -1   22.33    1.34 
  -5   5   1    1.27    0.32 
   5   5  -1    1.57    0.46 
   5  -5   1    1.19    0.31 
  -5  -5  -1    1.19    0.46 
   5   5   1    1.41    0.46 
  -5   5  -1    1.04    0.34 
  -5  -5   1    2.62    0.73 
   5   5   1    2.55    0.88 
   5  -5  -1    1.23    0.28 
  -5  -5   1    1.76    0.49 
   6   5  -1    9.60    1.11 
   6  -5   1   10.89    1.00 
  -6  -5  -1    5.77    1.69 
  -6   5   1   11.11    1.02 
   6   5   1   11.09    1.41 
  -6   5  -1   10.87    1.15 
  -6  -5   1   11.18    1.36 
  -6  -5   1    8.60    1.39 
   6  -5  -1   11.31    0.94 
   6   5   1   13.73    1.32 
  -7   5   1    0.75    0.30 
  -7  -5  -1    0.73    0.63 
  -7   5   1    0.81    0.65 
   7  -5   1    0.52    0.30 
   7   5  -1    0.03    0.26 
  -7  -5   1    1.76    0.59 
  -7   5  -1    0.79    0.42 
   7   5   1    0.58    0.44 
   7   5   1    0.63    0.37 
  -7  -5   1    1.19    0.63 
   8  -5   1  271.12   15.54 
  -8   5   1  304.00   16.48 
   8   5  -1  264.71   15.54 
   8   5  -1  305.73   15.77 
   8   5   1  312.19   15.89 
  -8   5  -1  253.85   15.92 
   8   5   1  277.31   15.70 
   9   5  -1    0.52    0.40 
   9  -5   1    0.02    0.29 
   9   5  -1    1.72    0.45 
   9   5   1    0.37    0.38 
   9   5   1    1.02    0.49 
  10   5   1    2.77    0.67 
   0   6  -1    0.17    0.14 
   0  -6  -1    1.10    0.26 
   0   6   1    0.45    0.23 
  -1   6   1    0.24    0.17 
  -1  -6  -1    0.09    0.12 
  -1  -6  -1    0.03    0.12 
   1   6  -1   -0.02    0.11 
   1  -6   1   -0.04    0.10 
  -1  -6   1    0.00    0.13 
   1   6   1    0.16    0.15 
   1  -6  -1    0.07    0.09 
  -1   6  -1    0.26    0.18 
  -1  -6   1    0.16    0.16 
   1  -6  -1    0.14    0.10 
   2   6  -1    9.54    1.08 
  -2  -6  -1    9.40    0.93 
  -2   6   1    8.66    0.81 
  -2  -6  -1    9.40    0.95 
   2  -6   1    8.70    0.69 
   2   6   1    7.48    0.92 
  -2  -6   1    8.58    0.96 
  -2   6  -1    8.04    0.84 
   2  -6  -1    8.61    0.55 
  -2  -6   1    8.18    0.91 
   3   6  -1    1.27    0.40 
  -3   6   1    2.00    0.41 
  -3  -6  -1    1.97    0.50 
   3  -6   1    1.77    0.29 
  -3  -6  -1    1.83    0.50 
   3   6   1    3.48    0.73 
  -3  -6   1    1.81    0.47 
  -3  -6   1    2.69    0.70 
  -3   6  -1    1.97    0.44 
  -4  -6  -1  339.42   18.77 
   4  -6   1  325.04   18.14 
   4   6  -1  354.00   18.68 
  -4   6   1  309.79   18.20 
  -4  -6  -1  339.23   18.70 
   4   6   1  385.29   18.92 
   4  -6  -1  338.79   17.94 
  -4  -6   1  345.22   18.86 
  -4   6  -1  323.64   18.36 
   4   6   1  368.99   19.04 
  -4  -6   1  336.95   18.72 
  -5   6   1    1.22    0.29 
  -5  -6  -1    0.43    0.33 
   5   6  -1    0.34    0.28 
  -5  -6  -1    0.76    0.37 
   5  -6   1    0.50    0.23 
  -5  -6   1    0.19    0.26 
   5   6   1    0.69    0.38 
  -5   6  -1    0.53    0.28 
   5   6   1    1.31    0.57 
   5  -6  -1    0.40    0.16 
  -5  -6   1   -0.10    0.25 
  -6  -6  -1   13.85    1.53 
   6   6  -1   14.98    1.48 
  -6   6   1   14.19    1.23 
   6  -6   1   15.28    1.21 
  -6  -6   1   14.97    1.65 
   6   6   1   12.75    1.45 
  -6   6  -1   14.70    1.40 
  -7   6   1    0.89    0.45 
   7   6  -1    1.05    0.49 
   7  -6   1    1.18    0.39 
  -7   6  -1    2.10    0.61 
   7   6   1    0.94    0.42 
   8  -6   1   10.94    1.12 
   8   6  -1    9.99    1.24 
  -8   6   1   11.64    1.26 
   8   6   1   12.12    1.38 
  -8   6  -1    9.10    1.43 
   9   6  -1    3.18    0.74 
   9  -6   1    1.20    0.49 
   9   6  -1    3.90    0.68 
   9   6   1    2.21    0.66 
   9   6   1    2.54    0.85 
  10   6  -1    1.92    0.60 
  10   6  -1    3.46    0.68 
  10   6   1    1.78    0.67 
   0   7   1   26.97    1.98 
   0  -7  -1   26.07    1.79 
   0  -7   1   26.20    1.84 
   0  -7  -1   24.64    1.69 
   0   7  -1   24.32    1.94 
  -1   7   1   72.13    4.44 
   1   7  -1   68.07    4.52 
  -1  -7  -1   69.79    5.11 
   1  -7   1   79.99    4.30 
  -1  -7  -1   74.81    4.35 
   1  -7  -1   74.08    4.09 
   1  -7  -1   79.74    4.23 
  -1  -7   1   73.16    4.44 
  -1  -7   1   71.04    4.42 
  -1   7  -1   68.99    4.45 
   1   7   1   72.69    4.57 
   2  -7   1  172.87    8.84 
  -2   7   1  158.79    9.07 
  -2  -7  -1  164.09    9.17 
  -2  -7  -1  171.16    9.24 
   2   7  -1  167.47    9.40 
  -2   7  -1  157.53    9.13 
  -2  -7   1  165.41    9.27 
  -2  -7   1  156.82    9.20 
   2  -7  -1  154.89    8.61 
   2   7   1  159.66    9.32 
   3   7  -1    6.20    0.96 
  -3   7   1    4.33    0.61 
   3  -7   1    4.91    0.52 
  -3  -7  -1    5.33    0.77 
  -3  -7  -1    5.23    0.78 
  -3  -7   1    4.80    0.75 
  -3  -7   1    4.73    0.78 
  -3   7  -1    5.95    0.74 
   3   7   1    5.32    0.82 
   4  -7   1    1.72    0.34 
  -4  -7  -1    1.49    0.50 
  -4  -7  -1    1.23    0.52 
   4   7  -1    1.75    0.49 
  -4   7   1    1.33    0.39 
   4   7   1    1.59    0.55 
  -4   7  -1    1.32    0.42 
  -4  -7   1    3.78    0.90 
  -4  -7   1    1.96    0.66 
   5   7  -1   36.60    2.67 
  -5  -7  -1   35.08    2.80 
  -5   7   1   30.21    2.21 
   5  -7   1   33.56    2.10 
   5   7   1   32.45    2.63 
  -5   7  -1   31.80    2.37 
  -5  -7   1   33.66    2.84 
   6   7  -1   78.03    4.93 
  -6   7   1   72.19    4.51 
   6  -7   1   76.54    4.36 
   6   7   1   77.02    5.02 
  -6   7  -1   71.83    4.72 
   7  -7   1   55.47    3.26 
  -7   7   1   46.94    3.40 
   7   7  -1   47.28    3.62 
   7   7   1   54.49    3.82 
  -7   7  -1   56.20    3.78 
  -8   7   1   37.21    2.73 
   8  -7   1   37.40    2.47 
   8   7  -1   35.46    2.83 
  -8   7  -1   38.46    2.97 
   8   7   1   32.52    2.83 
   9   7  -1   17.81    1.78 
   9   7  -1   15.37    2.51 
   9   7   1   18.09    1.86 
   0  -8  -1    0.15    0.16 
   0   8  -1    0.20    0.24 
   0  -8  -1    1.04    0.30 
   0  -8   1    1.99    0.50 
  -1   8   1   30.76    2.37 
  -1  -8  -1   33.76    2.26 
  -1  -8  -1   33.28    2.32 
   1  -8   1   34.66    2.20 
  -1  -8   1   35.55    2.40 
   1  -8  -1   30.91    1.99 
   1   8   1   33.58    2.52 
  -1   8  -1   30.53    2.38 
  -1  -8   1   31.32    2.31 
  -2  -8  -1  200.85   11.05 
  -2   8   1  193.31   10.99 
   2  -8   1  204.12   10.64 
  -2  -8  -1  194.97   10.98 
   2   8  -1  198.29   11.22 
  -2  -8   1  197.33   11.08 
   2   8   1  192.39   11.22 
  -2   8  -1  184.65   11.00 
   2  -8  -1  194.54   10.41 
  -2  -8   1  204.82   11.12 
   3  -8   1  139.76    7.67 
   3   8  -1  136.41    8.30 
  -3   8   1  134.71    7.98 
  -3  -8  -1  140.33    8.20 
  -3  -8  -1  136.92    8.19 
  -3   8  -1  139.42    8.10 
  -3  -8   1  143.57    8.26 
   3   8   1  144.21    8.40 
  -3  -8   1  146.80    8.33 
   4  -8   1    7.93    0.69 
  -4  -8  -1    9.52    1.14 
  -4  -8  -1    8.45    1.13 
  -4   8   1    7.59    0.83 
   4   8  -1    7.12    1.05 
   4   8   1    8.08    1.14 
  -4   8  -1    7.72    0.98 
  -4  -8   1    7.98    1.13 
  -4  -8   1   10.86    1.75 
  -5  -8  -1   57.17    4.32 
  -5   8   1   60.54    3.88 
   5   8  -1   60.77    4.24 
   5  -8   1   63.90    3.55 
   5   8   1   62.53    4.31 
  -5   8  -1   60.36    3.99 
  -5  -8   1   66.47    5.88 
  -6   8   1   95.56    5.74 
   6   8  -1   93.63    6.12 
   6  -8   1   99.67    5.41 
   6   8   1   93.24    6.18 
  -6   8  -1   98.07    5.96 
   7   8  -1    0.31    0.38 
  -7   8   1   -0.56    0.26 
   7  -8   1   -0.14    0.16 
  -7   8  -1   -0.30    0.34 
   7   8   1    0.16    0.46 
   8   8  -1    0.19    0.45 
  -8   8   1    1.02    0.39 
   8  -8   1    0.76    0.24 
  -8   8  -1    1.74    0.71 
   9   8  -1   23.23    2.22 
  -9   8  -1   22.59    2.31 
   9   8   1   23.17    2.27 
   0  -9  -1   93.28    5.21 
   0  -9   1   87.88    5.34 
   0  -9   1   88.31    5.29 
   0  -9  -1   94.42    5.34 
   0   9  -1   85.40    5.60 
   1   9  -1   10.46    1.28 
  -1  -9  -1   12.00    1.12 
   1  -9   1   11.05    1.01 
   1  -9   1   12.65    1.09 
  -1   9   1   12.64    1.31 
  -1  -9  -1   11.35    1.16 
  -1  -9   1   11.25    1.17 
  -1   9  -1   10.85    1.26 
   1  -9  -1   11.34    0.92 
  -1  -9   1   12.36    1.20 
  -2  -9  -1   55.33    3.76 
  -2   9   1   54.48    3.79 
   2  -9   1   60.22    3.43 
  -2  -9  -1   55.41    3.72 
   2   9  -1   54.43    3.96 
  -2   9  -1   55.54    3.84 
   2  -9  -1   56.41    3.19 
   2   9   1   59.84    4.07 
  -2  -9   1   59.90    3.86 
  -2  -9   1   62.80    3.90 
  -3  -9  -1    0.59    0.42 
   3  -9   1    1.00    0.28 
   3   9  -1    0.98    0.49 
  -3  -9  -1    0.33    0.30 
  -3   9   1    1.70    0.48 
  -3  -9   1    0.81    0.30 
  -3   9  -1    0.70    0.35 
   3   9   1    0.20    0.35 
  -3  -9   1    0.90    0.44 
  -4   9   1    2.89    0.70 
   4  -9   1    2.94    0.37 
  -4  -9  -1    3.56    0.92 
  -4  -9  -1    2.54    0.69 
   4   9  -1    3.48    0.87 
  -4   9  -1    3.47    0.78 
   4   9   1    3.63    0.94 
  -4  -9   1    2.81    0.96 
   5   9  -1    9.61    1.35 
   5  -9   1   10.42    0.78 
  -5   9   1   10.69    1.18 
  -5   9  -1   10.30    1.21 
   5   9   1   10.43    1.44 
  -6   9   1   20.30    1.81 
   6   9  -1   18.81    2.00 
   6  -9   1   20.87    1.35 
   6   9   1   19.64    2.08 
  -6   9  -1   23.59    1.97 
  -7   9   1   17.27    1.51 
   7   9  -1   11.96    1.60 
  -7   9  -1   13.02    1.64 
   7   9   1   16.26    1.87 
  -8   9   1   61.96    4.16 
   8   9  -1   56.74    5.10 
   8   9   1   63.40    4.51 
   9   9  -1    5.93    1.20 
   9   9   1    4.83    1.19 
  -9   9  -1    7.21    1.34 
   0 -10   1    0.35    0.25 
   0 -10   1    0.18    0.24 
   0  10  -1    0.89    0.40 
   0 -10  -1    0.22    0.23 
   0  10   1    0.52    0.31 
   0 -10  -1    0.19    0.19 
   1  10  -1    1.31    0.57 
  -1 -10  -1    1.42    0.48 
  -1 -10  -1    1.60    0.45 
   1 -10   1    2.29    0.52 
  -1  10   1    0.75    0.43 
   1 -10   1    1.66    0.43 
  -1  10  -1    1.50    0.60 
  -1 -10   1    1.37    0.46 
   1 -10  -1    1.72    0.36 
  -1 -10   1    1.68    0.51 
   1  10   1    1.43    0.54 
  -2 -10  -1    1.65    0.51 
   2 -10   1    1.45    0.38 
  -2 -10  -1    1.05    0.45 
   2 -10   1    1.47    0.37 
  -2  10   1    1.82    0.59 
   2  10  -1    1.32    0.56 
  -2 -10   1    0.90    0.46 
  -2  10  -1    1.25    0.49 
   2  10   1    1.75    0.63 
  -2 -10   1    2.03    0.62 
   2 -10  -1    1.53    0.25 
  -3 -10  -1    4.07    0.87 
   3 -10   1    5.73    0.59 
  -3 -10  -1    3.68    0.79 
  -3  10   1    5.52    0.83 
   3  10  -1    3.88    1.01 
  -3  10  -1    7.30    1.66 
  -3 -10   1    5.65    1.13 
  -3 -10   1    4.55    0.94 
   4 -10   1  265.91   14.24 
   4  10  -1  273.97   15.38 
  -4  10   1  269.96   15.04 
  -4  10  -1  276.72   15.34 
   4  10   1  258.19   15.40 
  -5  10   1    3.96    0.88 
   5  10  -1    4.35    1.09 
   5  10   1    3.54    1.01 
  -5  10  -1    5.73    0.94 
  -6  10   1    4.04    0.91 
  -6  10  -1    5.40    1.68 
   6  10   1    4.33    1.14 
  -7  10   1    2.15    0.67 
   7  10  -1    1.03    0.67 
  -7  10  -1    1.13    0.62 
   7  10   1    1.24    0.60 
   8  10  -1    8.81    1.59 
   8  10   1    8.46    1.60 
   0  11  -1  220.39   13.00 
   0 -11  -1  219.02   12.30 
   0 -11   1  247.49   12.62 
   0  11   1  215.46   13.01 
   0 -11   1  221.95   12.44 
  -1 -11  -1    3.33    0.73 
   1  11  -1    5.15    1.15 
   1 -11   1    2.72    0.81 
  -1  11   1    2.71    0.81 
  -1 -11  -1    2.66    0.61 
   1 -11   1    2.30    0.57 
   1  11   1    3.40    0.97 
  -1 -11   1    3.22    0.73 
  -1 -11   1    3.12    0.72 
   1 -11  -1    2.48    0.48 
  -1  11  -1    2.07    0.63 
  -2  11   1    5.04    1.07 
  -2 -11  -1    4.28    0.86 
   2  11  -1    3.80    0.88 
  -2 -11  -1    4.33    1.35 
   2 -11   1    4.41    0.60 
   2 -11   1    4.70    0.58 
  -2 -11   1    4.57    0.96 
   2  11   1    3.43    0.93 
  -2  11  -1    5.02    1.05 
  -2 -11   1    4.21    0.95 
   2 -11  -1    4.36    0.41 
   3  11  -1    0.70    0.49 
  -3  11   1    2.04    0.65 
   3 -11   1    1.69    0.35 
   3 -11   1    1.56    0.33 
   3  11   1    2.83    0.79 
  -3  11  -1    1.84    0.63 
  -3 -11   1    1.56    0.64 
  -4  11   1   10.47    1.53 
   4  11  -1    7.73    1.24 
   4  11   1    5.85    1.26 
  -4  11  -1    9.75    1.34 
  -5  11   1    2.22    0.58 
   5  11  -1    1.66    0.77 
  -5  11  -1    2.39    0.76 
   5  11   1    2.34    0.83 
   6  11  -1    2.06    0.85 
  -6  11   1    1.45    0.59 
  -6  11  -1    1.84    0.69 
   6  11   1    0.25    0.48 
   7  11  -1    0.99    0.67 
  -7  11   1    1.00    0.60 
  -7  11  -1   -0.85    0.49 
   0 -12  -1    0.24    0.24 
   0  12  -1    0.04    0.33 
   0 -12   1    0.00    0.32 
   0  12   1    0.10    0.46 
   0 -12   1    0.05    0.27 
   1 -12   1    2.70    0.64 
   1 -12   1    3.58    0.59 
   1  12  -1    3.21    0.92 
  -1  12   1    2.85    0.81 
  -1 -12  -1    2.06    0.57 
   1 -12  -1    3.03    0.48 
  -1  12  -1    3.42    0.99 
  -1 -12   1    3.31    0.80 
   1  12   1    2.73    0.90 
   2 -12   1   57.82    3.48 
   2  12  -1   55.48    4.36 
  -2 -12  -1   58.06    3.93 
  -2 -12  -1   58.55    4.16 
  -2  12   1   56.95    4.24 
  -2  12  -1   61.53    4.34 
   2 -12  -1   58.25    3.24 
   2  12   1   55.92    4.40 
   3  12  -1   18.95    2.15 
   3 -12   1   18.58    1.27 
  -3  12   1   21.53    1.99 
   3 -12   1   18.67    1.32 
  -3  12  -1   18.82    1.93 
   3  12   1   18.74    2.19 
   4  12  -1   22.27    2.49 
  -4  12   1   29.56    2.47 
   4  12   1   24.37    2.60 
  -4  12  -1   26.76    2.50 
  -5  12   1   10.60    1.52 
   5  12  -1    9.13    1.52 
   5  12   1    7.82    1.60 
  -5  12  -1   13.95    1.58 
   6  12  -1   27.29    2.87 
  -6  12   1   32.04    2.78 
   6  12   1   28.15    2.93 
  -6  12  -1   32.68    2.84 
   7  12  -1   -0.22    0.61 
   7  12   1   -0.14    0.57 
   0  13   1    1.61    0.72 
   0 -13  -1    2.00    0.55 
   0 -13   1    2.13    0.59 
   0  13  -1    2.20    0.87 
   0 -13   1    1.91    0.63 
  -1  13   1   45.52    3.60 
  -1 -13  -1   38.69    2.86 
   1 -13   1   40.53    2.70 
   1  13  -1   41.66    3.54 
  -1  13  -1   42.41    3.52 
  -1 -13   1   38.79    3.46 
  -1 -13   1   38.68    2.95 
   1  13   1   39.74    3.55 
   1 -13  -1   39.36    2.55 
  -2  13   1   87.36    6.07 
   2  13  -1   87.43    6.19 
  -2 -13  -1   82.38    5.55 
   2 -13   1   87.92    5.08 
   2  13   1   89.12    6.31 
  -2  13  -1   97.73    6.24 
  -3  13   1    2.26    0.83 
   3  13  -1    2.52    1.02 
  -3  13  -1    3.28    1.00 
   3  13   1    2.08    1.20 
  -4  13   1    1.85    0.66 
   4  13  -1    0.59    0.41 
   4  13   1   -0.24    0.53 
  -4  13  -1    1.13    0.65 
   5  13  -1   17.22    2.22 
  -5  13   1   20.54    2.22 
   5  13   1   16.92    2.26 
  -5  13  -1   19.40    2.27 
   6  13  -1   54.16    4.52 
  -6  13   1   57.49    4.32 
  -6  13  -1   60.45    4.48 
   6  13   1   52.50    4.56 
   0  14   1   -0.07    0.55 
   0 -14   1   -0.04    0.35 
   0 -14  -1    0.30    0.37 
   0  14  -1   -0.03    0.53 
  -1  14   1    1.65    0.77 
   1 -14   1    1.52    0.45 
   1  14  -1    2.70    1.19 
  -1 -14   1    1.82    0.71 
  -1  14  -1    1.73    0.82 
   1  14   1    3.39    1.48 
   2  14  -1   27.64    2.97 
  -2  14   1   32.15    3.06 
  -2  14  -1   30.93    3.03 
   2  14   1   29.64    3.08 
   3  14  -1    9.31    1.82 
  -3  14   1    9.99    1.62 
  -3  14  -1   13.74    1.87 
   3  14   1    8.89    1.91 
  -4  14   1   27.55    2.68 
   4  14  -1   22.98    2.73 
   4  14   1   22.19    2.73 
  -4  14  -1   29.04    2.85 
  -5  14   1    9.63    1.52 
   5  14  -1    3.31    1.11 
   5  14   1    6.19    1.60 
  -5  14  -1    5.22    1.38 
   0  15   1   98.12    7.18 
   0  15  -1  104.11    7.27 
  -1  15   1    6.62    1.58 
   1  15  -1    5.74    1.45 
  -1  15  -1    8.06    1.83 
   1  15   1    5.16    1.46 
   2  15  -1    1.46    0.84 
   2 -15   1    0.24    0.27 
  -2  15   1    0.66    0.73 
   2  15   1   -0.43    0.66 
  -2  15  -1    2.86    1.15 
   3  15  -1    0.61    0.71 
  -3  15   1    0.32    0.72 
   3  15   1    0.35    0.81 
  -3  15  -1   -0.07    0.82 
   0   0  -2    0.01    0.02 
  -1   0  -2   34.32    2.08 
  -1   0  -2   35.27    2.06 
  -1   0   2   30.58    1.89 
   1   0   2   33.24    2.01 
   1   0   2   39.90    2.16 
   1   0  -2   31.91    1.86 
  -2   0  -2   82.60    4.40 
   2   0  -2   71.63    3.98 
  -2   0  -2   70.85    4.31 
  -2   0   2   69.24    4.06 
  -2   0   2   81.72    4.30 
   2   0   2   83.21    4.41 
   2   0   2   68.98    4.20 
   3   0   2    6.05    0.56 
   3   0   2    5.27    0.64 
  -3   0  -2    5.59    0.66 
  -3   0   2    5.80    0.50 
  -3   0   2    6.33    0.66 
   3   0   2    5.14    0.54 
  -4   0   2    1.07    0.27 
  -4   0   2    0.63    0.28 
   4   0   2    1.57    0.50 
  -4   0  -2    2.74    0.59 
   4   0   2    1.06    0.27 
   5   0   2   25.64    1.66 
   5   0   2   24.22    1.62 
  -5   0  -2   24.40    2.03 
   5   0   2   22.89    1.89 
  -5   0   2   25.17    2.09 
  -5   0   2   24.44    1.73 
  -6   0   2   86.76    5.23 
  -6   0  -2   92.21    5.71 
   6   0   2   85.23    4.95 
   6   0   2   85.40    5.41 
  -6   0   2   91.83    5.64 
   6   0   2   88.88    4.99 
   7   0   2   37.83    2.93 
  -7   0   2   41.05    3.19 
  -7   0   2   38.70    2.82 
  -7   0  -2   38.97    3.24 
   7   0   2   40.49    2.42 
   7   0   2   41.13    2.39 
   8   0   2   77.82    5.30 
  -8   0   2   84.55    5.27 
   8   0   2   80.10    4.43 
  -8   0   2   82.97    6.40 
  -8   0  -2   82.93    5.77 
   9   0   2   20.25    2.05 
   0  -1   2    0.51    0.14 
   0   1   2    0.14    0.09 
   0   1  -2    0.10    0.06 
   1   1  -2    0.84    0.16 
  -1  -1  -2    0.64    0.16 
   1  -1   2    1.18    0.18 
  -1  -1   2    1.16    0.18 
  -1   1  -2    0.69    0.17 
   2  -1   2  196.70   10.56 
  -2   1   2  200.62   10.41 
   2  -1   2  188.45   10.37 
  -2  -1  -2  205.49   10.62 
   2   1  -2  182.77   10.33 
  -2  -1   2  184.34   10.39 
   2   1   2  211.50   10.53 
  -2   1  -2  180.67   10.49 
   2   1   2  222.52   10.72 
  -2   1  -2  177.10   10.52 
  -3   1   2    0.41    0.17 
   3   1  -2    1.19    0.19 
   3  -1   2    1.04    0.30 
  -3  -1  -2    1.20    0.35 
   3  -1   2    0.56    0.16 
   3  -1   2    0.87    0.21 
  -3   1   2    0.90    0.13 
  -3  -1   2    0.30    0.15 
  -3   1  -2    1.32    0.34 
   3   1   2    0.60    0.21 
  -3  -1   2    2.10    0.47 
   3   1   2    0.57    0.27 
  -3   1  -2    0.45    0.23 
  -4  -1  -2  145.87    8.17 
  -4   1   2  138.85    7.70 
   4  -1   2  138.57    7.70 
   4  -1   2  153.26    7.77 
  -4   1   2  147.50    8.04 
   4   1  -2  139.13    7.67 
   4  -1   2  142.07    8.02 
   4   1   2  162.37    8.34 
   4   1   2  150.95    7.91 
  -4  -1   2  141.97    7.91 
  -4  -1   2  140.53    8.14 
  -4   1  -2  140.24    8.12 
  -4   1  -2  128.31    8.08 
   4   1   2  132.75    7.85 
  -5   1   2    3.07    0.65 
   5   1  -2    2.35    0.30 
  -5   1   2    2.38    0.38 
   5  -1   2    2.21    0.33 
  -5  -1  -2    4.41    0.90 
   5  -1   2    2.72    0.33 
   5  -1   2    2.74    0.59 
   5   1  -2    2.75    0.31 
  -5   1  -2    2.71    0.61 
  -5  -1   2    2.95    0.72 
   5   1   2    2.80    0.44 
   5   1   2    2.08    0.44 
   5   1   2    1.85    0.48 
   6  -1   2   66.83    4.63 
  -6   1   2   65.64    4.32 
   6   1  -2   63.10    3.56 
   6  -1   2   66.18    3.66 
   6  -1   2   64.67    3.61 
   6   1  -2   64.25    3.54 
  -6  -1  -2   66.95    4.47 
  -6   1   2   63.37    3.91 
  -6  -1   2   65.49    4.11 
   6   1   2   60.49    3.84 
   6   1   2   62.25    4.23 
  -6   1  -2   66.86    4.43 
  -6  -1   2   67.28    4.44 
   6   1   2   67.07    3.89 
  -7   1   2    1.06    0.40 
  -7   1   2    1.77    0.61 
  -7  -1  -2    2.18    0.85 
   7  -1   2    0.51    0.35 
   7   1   2    1.07    0.52 
  -7   1  -2    1.56    0.61 
  -7  -1   2    0.55    0.33 
  -7  -1   2    1.02    0.60 
   7   1   2    1.09    0.32 
   7   1   2    0.61    0.26 
  -8   1   2    1.18    0.40 
   8  -1   2    0.49    0.40 
  -8   1   2    0.05    0.48 
  -8  -1  -2    0.64    0.55 
  -8   1  -2    0.54    0.65 
   8   1   2    0.47    0.27 
   8   1   2    0.75    0.28 
   8   1   2    1.36    0.60 
  -8  -1   2    0.79    0.54 
  -8  -1   2    0.43    0.45 
   9  -1   2   -0.09    0.32 
  -9   1   2    1.06    0.69 
  -9  -1   2    0.51    0.50 
   9   1   2   -0.11    0.39 
  10  -1   2   63.73    4.54 
  10   1   2   60.61    4.58 
   0  -2  -2   55.93    2.84 
   0   2  -2   45.26    2.87 
   0  -2   2   46.71    2.86 
   0   2   2   54.81    2.87 
  -1   2  -2  432.39   23.84 
   2   2  -2  227.16   12.12 
  -2  -2  -2  260.48   12.38 
   2  -2   2  218.35   12.02 
   2  -2   2  207.86   12.15 
  -2   2   2  223.34   11.98 
  -2   2  -2  207.25   12.09 
   2   2   2  226.21   12.23 
  -2  -2   2  217.01   12.16 
   2   2   2  256.96   12.44 
   3  -2   2   47.88    2.91 
   3   2  -2   47.04    2.82 
  -3  -2  -2   45.10    2.93 
  -3  -2  -2   50.97    3.12 
  -3   2   2   46.78    2.80 
   3  -2   2   45.97    2.67 
  -3  -2   2   47.84    3.10 
  -3   2  -2   45.51    2.98 
  -3   2  -2   42.89    2.86 
  -3  -2   2   46.84    2.90 
   3   2   2   55.75    3.25 
   3   2   2   49.59    2.94 
   4   2  -2    2.37    0.37 
   4  -2   2    2.62    0.44 
  -4  -2  -2    2.04    0.67 
   4  -2   2    2.80    0.31 
   4  -2   2    2.74    0.30 
  -4   2   2    2.92    0.46 
  -4   2   2    3.00    0.28 
  -4   2   2    2.81    0.32 
   4   2   2    4.82    0.71 
  -4  -2   2    2.78    0.59 
  -4  -2   2    2.66    0.52 
   4   2   2    3.00    0.47 
  -4   2  -2    4.70    0.62 
  -4   2  -2    3.44    0.69 
   5  -2   2   48.71    3.24 
  -5  -2  -2   52.46    3.54 
  -5   2   2   50.57    2.96 
   5  -2   2   50.76    2.85 
  -5   2   2   52.27    3.35 
   5  -2   2   49.06    2.82 
   5   2  -2   51.76    3.03 
  -5   2  -2   53.72    3.57 
  -5  -2   2   52.77    3.57 
  -5   2  -2   45.36    3.39 
   5   2   2   54.34    3.24 
  -5  -2   2   48.44    3.29 
   5   2   2   52.90    3.20 
   5   2   2   52.11    3.63 
   6   2  -2  209.51   11.39 
  -6   2   2  191.70   11.47 
   6   2  -2  211.98   11.42 
  -6  -2  -2  210.99   12.18 
   6  -2   2  210.05   11.80 
  -6   2   2  230.82   12.11 
  -6  -2   2  205.18   11.86 
   6   2   2  208.26   11.61 
  -6  -2   2  208.81   12.19 
   6   2   2  221.07   11.68 
  -6   2  -2  223.66   12.23 
   6   2   2  211.67   12.08 
  -7   2   2  134.78    7.95 
   7  -2   2  125.66    7.62 
   7   2  -2  134.23    7.11 
   7   2  -2  129.09    7.06 
  -7   2   2  121.92    7.41 
  -7  -2  -2  141.58    8.64 
  -7  -2   2  118.15    7.69 
  -7   2  -2  137.79    8.18 
   7   2   2  131.90    7.40 
   7   2   2  124.61    7.85 
   7   2   2  136.19    7.44 
  -7  -2   2  124.35    8.11 
  -8   2   2   16.86    2.00 
   8  -2   2   18.27    1.75 
   8   2   2   16.49    1.84 
   8   2   2   17.01    1.43 
   8   2   2   20.48    1.75 
  -8   2  -2   19.05    2.12 
  -8  -2   2   19.56    2.20 
  -8  -2   2   16.11    1.84 
  -9   2   2   33.53    3.18 
   9  -2   2   33.73    2.79 
   9   2   2   34.02    2.23 
   9   2   2   37.18    2.27 
   9   2   2   31.12    2.92 
  10  -2   2   32.59    2.82 
  10   2   2   33.39    3.07 
   0   3   2    0.25    0.11 
   0   3   2    0.18    0.11 
   0  -3   2    0.04    0.09 
  -1  -3  -2  159.20    8.42 
   1  -3   2  152.45    8.34 
   1   3  -2  160.84    8.48 
  -1   3  -2  141.32    8.38 
  -1  -3   2  158.45    8.47 
   1   3   2  165.64    8.53 
   1   3   2  149.17    8.46 
  -2  -3  -2  337.22   18.36 
   2  -3   2  337.87   18.29 
  -2  -3  -2  321.42   18.32 
   2  -3   2  333.57   18.12 
   2   3  -2  368.31   18.38 
  -2  -3   2  350.93   18.37 
  -2   3  -2  307.70   18.19 
   2   3   2  351.68   18.52 
   2   3   2  387.98   18.55 
   3   3  -2  431.61   22.86 
  -3   3   2  425.19   22.68 
  -3  -3  -2  394.89   22.94 
  -3  -3  -2  458.20   23.14 
   3  -3   2  406.76   22.82 
   3  -3   2  415.46   22.60 
  -3   3  -2  391.46   22.79 
  -3  -3   2  417.42   22.95 
  -3  -3   2  480.09   23.29 
   3   3   2  484.86   23.28 
   3   3   2  434.26   22.98 
   4   3  -2   32.64    2.13 
   4  -3   2   30.72    2.12 
  -4  -3  -2   37.47    2.55 
   4  -3   2   31.38    1.83 
  -4   3   2   32.53    2.12 
  -4  -3  -2   33.75    2.31 
   4  -3   2   31.29    1.82 
  -4   3  -2   28.63    2.16 
  -4  -3   2   33.55    2.46 
   4   3   2   33.68    2.31 
  -4   3  -2   30.49    2.35 
  -4  -3   2   33.73    2.29 
  -5   3   2  201.59   11.12 
  -5   3   2  214.11   11.58 
  -5  -3  -2  206.20   11.69 
   5  -3   2  216.38   11.51 
  -5  -3  -2  211.22   11.87 
   5   3  -2  210.00   11.39 
  -5   3   2  182.37   11.19 
   5   3   2  232.00   12.07 
  -5   3  -2  224.36   11.91 
  -5  -3   2  217.95   11.71 
  -5  -3   2  204.52   11.91 
   5   3   2  219.13   11.60 
  -5   3  -2  179.37   11.61 
   6  -3   2   98.77    5.93 
   6   3  -2  103.35    5.76 
  -6   3   2  107.65    6.19 
  -6  -3  -2  100.31    6.39 
  -6   3   2   93.47    5.64 
   6   3   2  101.08    5.93 
  -6   3  -2  110.48    6.48 
  -6  -3   2  101.69    6.16 
   6   3   2  105.14    6.41 
  -6   3  -2   86.28    6.14 
  -6  -3   2   97.40    6.40 
   6   3   2  101.82    6.26 
   7   3  -2    3.78    0.55 
  -7   3   2    4.70    1.01 
  -7  -3  -2    4.93    1.09 
   7   3  -2    4.14    0.60 
   7  -3   2    3.43    0.75 
   7   3   2    4.33    0.71 
  -7   3  -2    4.93    1.17 
   7   3   2    3.37    0.70 
  -7  -3   2    3.68    0.90 
  -7  -3   2    4.38    1.10 
   7   3   2    3.23    0.81 
   8  -3   2    2.98    0.76 
   8   3  -2    2.07    0.43 
  -8   3   2    4.37    1.00 
   8   3  -2    2.71    0.50 
   8   3   2    2.27    0.58 
  -8  -3   2    3.39    0.76 
  -8   3  -2    2.86    0.98 
   8   3   2    2.38    0.61 
   8   3   2    1.94    0.71 
   9  -3   2   39.11    3.11 
  -9   3   2   40.53    3.52 
   9   3   2   39.88    3.44 
   9   3   2   42.56    2.82 
   9   3   2   44.32    2.86 
  -9   3  -2   45.19    3.91 
   0   4  -2  139.49    7.98 
   0   4   2  152.92    7.86 
   0  -4  -2  142.40    7.78 
   0   4   2  137.96    7.93 
   0  -4   2  153.06    7.97 
  -1  -4  -2   31.75    1.89 
   1  -4   2   29.03    1.83 
  -1   4   2   28.16    1.80 
  -1  -4  -2   29.17    1.90 
   1   4  -2   30.41    1.99 
   1   4   2   29.18    1.94 
  -1  -4   2   29.74    1.95 
  -1   4  -2   27.83    1.90 
   1  -4  -2   26.94    1.59 
   1   4   2   31.86    2.01 
  -2  -4  -2  107.49    6.25 
   2  -4   2  118.42    6.04 
  -2  -4  -2  109.14    6.25 
   2   4  -2  112.20    6.28 
  -2   4   2  108.07    5.94 
  -2   4  -2  105.12    6.14 
  -2  -4   2  117.78    6.44 
   2   4   2  113.35    6.38 
  -2  -4   2  110.69    6.28 
   2   4   2  102.24    6.29 
   3   4  -2    9.10    0.87 
   3  -4   2    8.81    0.64 
  -3  -4  -2    8.58    0.90 
   3  -4   2    8.40    0.77 
  -3  -4  -2    8.66    0.92 
   3   4   2    9.11    0.96 
  -3   4  -2    7.39    0.75 
  -3  -4   2    7.16    1.12 
  -3  -4   2    8.58    0.99 
   4   4  -2    0.47    0.24 
  -4  -4  -2    1.12    0.39 
   4  -4   2    0.69    0.25 
  -4  -4  -2    0.27    0.22 
  -4   4   2    0.68    0.24 
   4   4   2    0.29    0.19 
  -4  -4   2    0.74    0.34 
  -4  -4   2    0.35    0.23 
  -4   4  -2    0.39    0.21 
   4   4   2    0.33    0.35 
  -5   4   2    0.52    0.29 
   5  -4   2    0.68    0.27 
  -5  -4  -2    0.63    0.39 
   5   4  -2    0.14    0.17 
  -5  -4  -2    1.19    0.40 
  -5   4   2    0.60    0.16 
  -5  -4   2    0.05    0.26 
   5   4   2    0.01    0.22 
  -5  -4   2    0.21    0.26 
  -5   4  -2    0.22    0.21 
   5   4   2    0.78    0.42 
  -6  -4  -2  115.01    7.25 
  -6  -4  -2  116.12    7.09 
  -6   4   2  129.79    7.03 
   6   4  -2  123.45    6.73 
  -6   4   2  102.15    6.50 
   6  -4   2  112.47    6.70 
   6   4   2  125.18    6.92 
  -6  -4   2  108.25    7.03 
  -6   4  -2  103.78    6.97 
  -6  -4   2  112.07    7.30 
   6   4   2  134.25    7.59 
  -7  -4  -2    3.58    1.00 
   7   4  -2    4.61    0.68 
  -7   4   2    5.57    1.10 
   7  -4   2    4.38    0.71 
   7   4   2    4.32    0.95 
  -7   4  -2    5.46    0.77 
   7   4   2    5.13    0.82 
  -7  -4   2    4.76    1.03 
  -7  -4   2    4.25    1.12 
   7   4   2    6.10    0.85 
  -8   4   2   40.92    3.28 
   8  -4   2   37.95    2.84 
   8   4  -2   38.16    2.58 
   8   4   2   42.04    2.89 
   8   4   2   35.52    3.19 
   8   4   2   39.53    2.84 
   9   4  -2    1.44    0.41 
  -9   4   2    1.17    0.79 
   9  -4   2    0.83    0.49 
   9   4   2    1.18    0.73 
   9   4   2    1.40    0.59 
   9   4   2    1.21    0.47 
  10  -4   2   23.13    2.10 
 -10   4   2   19.03    2.61 
  10   4   2   22.85    1.79 
   0   5   2    1.35    0.33 
   0  -5  -2    0.14    0.09 
   1   5  -2    7.05    0.78 
  -1   5   2    6.99    0.67 
   1  -5   2    7.51    0.68 
  -1  -5  -2    7.65    0.74 
  -1  -5  -2    7.37    0.69 
  -1  -5   2    6.44    0.73 
   1   5   2    9.17    0.86 
   1   5   2    7.07    0.74 
  -1   5  -2    6.52    0.72 
   1  -5  -2    6.63    0.48 
   2  -5   2   93.93    5.16 
  -2  -5  -2   92.26    5.39 
  -2  -5  -2   93.58    5.43 
  -2   5   2   82.69    5.13 
   2   5  -2  102.10    5.62 
   2   5   2   96.44    5.57 
  -2   5  -2   83.89    5.30 
   2   5   2   97.91    5.59 
  -2  -5   2   97.97    5.59 
   3  -5   2   51.69    3.18 
   3  -5   2   54.89    3.01 
   3   5  -2   54.76    3.44 
  -3   5   2   50.83    3.01 
  -3  -5  -2   53.68    3.46 
  -3  -5  -2   52.33    3.42 
   3   5   2   58.45    3.63 
  -3  -5   2   55.07    3.48 
   3   5   2   54.44    3.58 
  -3  -5   2   54.54    3.59 
  -3   5  -2   48.07    3.23 
   4  -5   2  162.59    9.12 
  -4  -5  -2  166.66    9.54 
  -4  -5  -2  162.15    9.46 
  -4   5   2  157.47    8.87 
   4   5  -2  175.37    9.40 
   4   5   2  177.70   10.18 
  -4  -5   2  168.98    9.70 
   4   5   2  175.45    9.55 
  -4   5  -2  151.29    9.20 
  -4  -5   2  168.51    9.52 
   5   5  -2   33.73    2.35 
  -5  -5  -2   38.52    2.63 
  -5   5   2   28.21    1.90 
  -5  -5  -2   35.71    2.66 
   5  -5   2   29.34    2.13 
   5   5   2   30.44    2.40 
   5   5   2   37.76    2.91 
  -5  -5   2   31.63    2.65 
  -5   5  -2   28.82    2.27 
  -5  -5   2   31.55    2.49 
   6  -5   2   32.96    2.35 
  -6   5   2   38.58    2.67 
  -6  -5  -2   33.24    2.75 
   6   5  -2   31.39    2.43 
   6   5   2   37.76    3.14 
  -6  -5   2   32.43    2.74 
  -6   5  -2   32.35    2.58 
   6   5   2   35.89    2.64 
  -6  -5   2   38.42    4.13 
   7  -5   2    1.78    0.58 
   7   5  -2    0.35    0.31 
  -7   5   2    0.63    0.46 
  -7   5   2    0.91    0.33 
  -7  -5   2    0.61    0.43 
   7   5   2    0.12    0.35 
  -7   5  -2    0.52    0.46 
   7   5   2    0.86    0.50 
  -7  -5   2    0.45    0.78 
   8   5  -2    0.20    0.32 
  -8   5   2    0.79    0.57 
   8  -5   2    0.17    0.30 
   8   5   2    0.22    0.45 
   8   5   2    0.09    0.36 
  -8   5  -2    0.02    0.41 
   8   5   2    0.11    0.33 
  -9   5   2    6.38    1.42 
   9   5  -2    6.04    0.92 
   9  -5   2    5.98    0.93 
   9   5  -2    5.67    0.80 
   9   5   2    6.65    1.00 
   9   5   2    8.90    1.16 
  10  -5   2   34.57    2.82 
  10   5   2   37.72    2.72 
   0   6  -2  151.80    8.76 
   0   6   2  149.63    8.74 
   0  -6   2  165.62    8.71 
   0  -6  -2  158.62    8.48 
   1   6  -2    2.24    0.51 
  -1   6   2    0.79    0.25 
  -1  -6  -2    0.30    0.19 
   1  -6   2    0.32    0.18 
  -1  -6  -2    1.53    0.37 
  -1   6  -2    0.26    0.19 
   1   6   2    0.91    0.35 
   2   6  -2   66.50    4.26 
   2  -6   2   71.73    3.96 
  -2   6   2   63.37    4.00 
  -2  -6  -2   71.63    4.24 
  -2  -6  -2   69.40    4.18 
   2   6   2   71.00    4.39 
  -2  -6   2   72.47    4.39 
   2   6   2   71.48    4.35 
  -2   6  -2   65.96    4.16 
  -2  -6   2   66.34    4.24 
  -3   6   2    0.58    0.21 
   3  -6   2    0.10    0.13 
  -3  -6  -2    0.32    0.25 
   3  -6   2    0.49    0.16 
   3   6  -2   -0.02    0.18 
  -3  -6  -2    0.20    0.24 
  -3  -6   2   -0.02    0.22 
  -3   6  -2    0.24    0.19 
   3   6   2    0.30    0.24 
  -3  -6   2    0.04    0.17 
   3   6   2    0.23    0.16 
  -4  -6  -2    0.20    0.28 
  -4  -6  -2    0.32    0.24 
   4  -6   2    0.45    0.22 
   4   6  -2    0.45    0.24 
   4   6   2    0.57    0.37 
  -4   6  -2    0.94    0.35 
   4   6   2    0.17    0.20 
  -4  -6   2    0.51    0.31 
  -4  -6   2    1.14    0.48 
  -5  -6  -2    3.70    0.85 
  -5   6   2    4.56    0.52 
   5  -6   2    4.73    0.59 
   5   6  -2    3.93    0.77 
  -5  -6  -2    3.29    0.76 
  -5  -6   2    5.68    0.89 
   5   6   2    5.64    0.97 
  -5   6  -2    3.57    0.75 
  -5  -6   2    6.19    1.21 
   5   6   2    3.99    0.80 
   6   6  -2   80.93    4.79 
   6  -6   2   76.02    4.45 
  -6   6   2   69.88    4.29 
   6   6   2   72.17    5.10 
   6   6   2   77.89    4.91 
  -6   6  -2   75.09    4.79 
  -6  -6   2   67.68    4.93 
   7  -6   2    4.02    0.63 
  -7   6   2    3.97    0.62 
   7   6  -2    3.33    0.76 
   7   6   2    3.66    0.86 
   7   6   2    2.64    0.85 
  -7   6  -2    2.86    0.78 
   8  -6   2   47.35    3.23 
   8   6  -2   44.60    3.28 
  -8   6  -2   51.53    3.80 
   8   6   2   50.76    3.65 
   8   6   2   46.44    3.48 
   9   6  -2    2.85    0.69 
   9  -6   2    3.22    0.75 
   9   6  -2    4.52    0.90 
   9   6   2    3.18    0.82 
  10  -6   2   15.61    1.62 
  10   6   2   17.00    1.72 
   0  -7   2    0.73    0.27 
   0   7   2    0.46    0.29 
   1  -7   2   35.40    2.20 
   1   7  -2   31.20    2.37 
  -1  -7  -2   33.46    2.53 
  -1  -7  -2   32.85    2.18 
  -1   7   2   32.88    2.30 
  -1   7  -2   32.64    2.35 
   1  -7  -2   31.50    1.91 
   1   7   2   29.33    2.35 
  -1  -7   2   34.60    2.34 
   2   7  -2  176.57    9.98 
  -2  -7  -2  170.92    9.59 
   2  -7   2  176.29    9.29 
  -2   7   2  162.26    9.42 
  -2  -7  -2  171.81    9.53 
  -2  -7   2  172.37    9.66 
   2   7   2  165.93    9.73 
  -2   7  -2  160.89    9.55 
  -2  -7   2  174.43    9.72 
  -3  -7  -2  136.49    8.10 
   3  -7   2  135.15    7.76 
   3  -7   2  142.41    7.57 
   3   7  -2  137.90    8.15 
  -3  -7  -2  143.84    8.16 
  -3   7   2  132.99    7.80 
  -3   7  -2  139.52    8.04 
   3   7   2  140.26    9.42 
   3   7   2  146.60    8.35 
  -3  -7   2  142.18    8.19 
  -3  -7   2  144.55    8.32 
   4  -7   2   36.03    2.25 
   4   7  -2   31.79    2.57 
  -4  -7  -2   35.83    2.70 
  -4  -7  -2   33.76    2.64 
  -4   7   2   35.01    2.27 
  -4   7  -2   32.33    2.46 
   4   7   2   36.15    2.85 
  -4  -7   2   34.85    2.80 
  -4  -7   2   34.19    2.67 
   4   7   2   36.01    2.72 
   5   7  -2   89.61    5.38 
  -5  -7  -2   81.03    5.47 
   5  -7   2   88.22    4.90 
  -5   7   2   83.33    4.88 
   5   7   2   82.59    5.41 
   5   7   2   85.17    5.65 
  -5   7  -2   79.74    5.18 
   6   7  -2   58.48    4.13 
   6  -7   2   65.75    3.77 
  -6   7   2   58.39    3.71 
   6   7   2   62.94    4.60 
  -6   7  -2   61.56    4.16 
   6   7   2   64.27    4.35 
  -7   7   2    4.36    0.70 
   7   7  -2    3.94    0.87 
   7  -7   2    4.41    0.65 
  -7   7  -2    5.16    1.06 
   7   7   2    4.24    1.02 
   8  -7   2    0.84    0.38 
  -8   7   2    1.20    0.44 
   8   7  -2    0.76    0.48 
  -8   7  -2    3.05    0.76 
   8   7   2    1.53    0.63 
   9   7  -2   15.27    1.60 
   9  -7   2   15.07    1.38 
   9   7   2   14.28    1.71 
  -9   7  -2   16.80    2.00 
   0  -8  -2   20.39    1.41 
   0   8  -2   18.57    1.68 
   0  -8   2   19.97    1.58 
   0   8   2   18.43    1.68 
  -1  -8  -2  315.53   16.77 
   1   8  -2  314.86   17.01 
  -1  -8  -2  308.51   16.64 
   1  -8   2  314.60   16.65 
  -1   8   2  293.78   16.83 
   1  -8  -2  300.63   16.33 
  -1   8  -2  293.46   16.89 
  -1  -8   2  318.23   16.88 
   1   8   2  315.84   17.05 
  -1  -8   2  310.47   16.84 
  -2  -8  -2  121.92    7.10 
   2   8  -2  120.46    7.24 
  -2  -8  -2  119.10    7.01 
  -2   8   2  113.24    6.99 
   2  -8   2  128.11    6.79 
  -2  -8   2  126.75    7.25 
  -2   8  -2  119.83    7.14 
  -2  -8   2  124.74    7.18 
   2   8   2  115.68    7.26 
  -3  -8  -2   24.02    2.01 
  -3  -8  -2   23.43    2.02 
   3  -8   2   25.25    1.57 
   3  -8   2   24.27    1.74 
  -3   8   2   24.78    1.88 
   3   8  -2   23.33    2.07 
  -3  -8   2   25.07    2.09 
  -3  -8   2   26.18    2.16 
  -3   8  -2   25.01    2.02 
   3   8   2   23.75    2.13 
   4   8  -2    1.66    0.59 
   4  -8   2    2.23    0.37 
  -4  -8  -2    1.54    0.58 
  -4  -8  -2    1.71    0.51 
  -4   8   2    1.38    0.41 
  -4   8  -2    1.47    0.47 
  -4  -8   2    1.15    0.48 
   4   8   2    1.54    0.54 
  -4  -8   2    2.92    0.86 
   5  -8   2   44.93    2.67 
   5   8  -2   42.26    3.18 
  -5  -8  -2   40.82    3.29 
  -5   8   2   40.29    2.78 
  -5   8  -2   42.70    3.06 
   5   8   2   41.47    3.26 
   6   8  -2  125.98    7.71 
  -6   8   2  124.87    7.21 
   6  -8   2  124.74    7.08 
   6   8   2  130.48    7.89 
  -6   8  -2  127.29    7.65 
  -7   8   2   92.65    5.85 
   7   8  -2   95.88    6.30 
   7  -8   2  100.58    5.75 
   7   8   2   99.42    6.50 
  -7   8  -2  112.68    6.54 
   8  -8   2   10.59    1.03 
   8   8  -2    9.91    1.35 
  -8   8   2    9.32    1.16 
  -8   8  -2    9.97    1.52 
   8   8   2    9.67    1.41 
   9   8  -2   26.67    2.32 
   9   8   2   25.83    2.44 
  -9   8  -2   22.89    2.52 
   0  -9   2   -0.21    0.22 
   0   9   2    0.02    0.20 
   0  -9   2   -0.05    0.17 
   0   9  -2   -0.04    0.20 
   0  -9  -2    0.00    0.15 
   1  -9   2    5.48    0.69 
   1   9  -2    3.84    0.81 
  -1  -9  -2    4.45    0.67 
  -1   9   2    4.95    0.81 
  -1  -9  -2    4.16    0.69 
  -1  -9   2    4.95    0.76 
  -1   9  -2    4.58    0.92 
   1   9   2    5.49    0.90 
  -1  -9   2    5.33    0.78 
   1  -9  -2    4.51    0.48 
   2   9  -2   91.61    5.70 
  -2  -9  -2   86.27    5.36 
   2  -9   2   94.03    5.14 
  -2  -9  -2   90.56    5.48 
  -2   9   2   88.49    5.49 
  -2  -9   2   91.81    5.59 
  -2   9  -2   87.22    5.56 
   2   9   2   81.93    5.64 
  -2  -9   2   86.45    5.50 
   3  -9   2   22.92    1.58 
   3   9  -2   18.49    1.87 
  -3  -9  -2   19.21    1.77 
  -3  -9  -2   20.15    1.83 
   3  -9   2   20.26    1.34 
  -3   9   2   17.75    1.66 
  -3   9  -2   18.73    1.79 
   3   9   2   18.68    1.92 
  -3  -9   2   19.54    2.16 
  -3  -9   2   19.82    1.91 
   4   9  -2   47.57    3.52 
   4  -9   2   48.26    2.88 
  -4  -9  -2   46.41    3.44 
  -4   9   2   49.52    3.21 
  -4  -9  -2   42.17    3.38 
   4   9   2   46.09    3.58 
  -4   9  -2   47.97    3.38 
  -4  -9   2   46.04    3.59 
   5   9  -2   15.26    1.70 
   5  -9   2   16.42    1.19 
  -5   9   2   15.67    1.46 
   5   9   2   13.28    1.71 
  -5   9  -2   15.25    1.59 
   6   9  -2   36.08    2.98 
   6  -9   2   35.50    2.30 
  -6   9   2   35.34    2.60 
  -6   9  -2   40.32    2.96 
   6   9   2   36.02    3.09 
  -7   9   2    2.22    0.54 
   7  -9   2    1.53    0.41 
   7   9  -2    1.21    0.64 
  -7   9  -2    2.20    0.75 
   8  -9   2    1.90    0.29 
  -8   9   2    2.39    0.50 
  -8   9  -2    0.70    0.67 
   9   9  -2    2.64    0.92 
  -9   9   2    2.10    0.73 
  -9   9  -2    4.76    1.22 
   9   9   2    2.14    0.82 
   0 -10   2  119.44    6.70 
   0  10   2  109.30    7.00 
   0 -10   2  111.84    6.62 
   0  10  -2  110.44    6.98 
   0 -10  -2  112.32    6.39 
  -1  10   2   21.14    2.01 
   1 -10   2   23.05    1.75 
   1  10  -2   21.97    2.06 
  -1 -10  -2   22.71    1.75 
   1  10   2   19.71    2.05 
  -1 -10   2   21.28    1.89 
  -1  10  -2   24.09    2.11 
  -1 -10   2   22.28    1.88 
   1 -10  -2   21.92    1.47 
  -2  10   2   24.92    2.16 
   2  10  -2   25.60    2.30 
   2 -10   2   26.24    1.81 
  -2 -10  -2   23.01    1.97 
  -2 -10  -2   23.48    2.04 
  -2  10  -2   23.81    2.17 
   2  10   2   24.65    2.33 
  -2 -10   2   24.76    2.12 
  -2 -10   2   26.29    2.18 
   3 -10   2    1.00    0.34 
  -3 -10  -2    1.24    0.59 
  -3 -10  -2    0.84    0.48 
   3  10  -2    0.34    0.34 
  -3  10   2    1.05    0.41 
   3 -10   2    0.89    0.25 
   3  10   2    0.85    0.49 
  -3  10  -2    1.11    0.43 
  -3 -10   2    0.89    0.50 
  -3 -10   2    1.13    0.66 
  -4 -10  -2   -0.03    0.54 
   4 -10   2    1.40    0.36 
   4  10  -2   -0.06    0.22 
  -4  10   2    0.56    0.27 
  -4  10  -2    0.41    0.35 
  -5  10   2   14.90    1.51 
   5  10  -2   14.69    1.74 
   5 -10   2   14.16    1.08 
   5  10   2   12.92    1.72 
  -5  10  -2   16.70    1.71 
   6 -10   2   31.33    2.04 
  -6  10   2   33.19    2.56 
   6  10  -2   33.36    2.91 
  -6  10  -2   37.37    2.84 
   6  10   2   33.87    3.03 
   7  10  -2   20.13    2.20 
  -7  10   2   18.91    1.82 
   7  10   2   20.06    2.26 
  -7  10  -2   23.32    2.22 
   8  10  -2   43.51    3.52 
  -8  10   2   39.06    3.01 
  -8  10  -2   45.71    3.66 
   8  10   2   43.70    3.65 
   0  11  -2    0.13    0.31 
   0 -11   2    0.03    0.23 
   0  11   2   -0.12    0.29 
   0 -11   2   -0.01    0.27 
   0 -11  -2    0.37    0.19 
   1 -11   2    1.35    0.44 
   1  11  -2    0.90    0.50 
  -1  11   2    2.20    0.77 
  -1 -11  -2    2.01    0.45 
   1 -11   2    1.22    0.43 
   1  11   2    0.48    0.44 
  -1 -11   2    1.75    0.57 
  -1  11  -2    1.31    0.61 
  -1 -11   2    2.14    0.60 
   1 -11  -2    1.07    0.30 
  -2 -11  -2   33.15    2.59 
   2 -11   2   34.29    2.38 
   2  11  -2   35.19    2.98 
  -2  11   2   35.93    2.88 
   2 -11   2   39.18    2.42 
  -2 -11   2   35.14    2.78 
   2  11   2   34.24    3.04 
  -2  11  -2   36.87    2.97 
  -2 -11   2   32.55    2.72 
   3  11  -2    7.74    1.30 
  -3 -11  -2   11.05    2.41 
  -3  11   2    7.75    1.18 
   3 -11   2    9.88    0.96 
   3  11   2    9.75    1.44 
  -3  11  -2   12.81    1.39 
  -4  11   2   71.86    4.62 
   4 -11   2   69.23    3.92 
   4  11  -2   63.47    4.78 
   4  11   2   61.29    4.86 
  -4  11  -2   70.40    4.78 
  -5  11   2    7.59    1.09 
   5  11  -2    6.49    1.34 
   5 -11   2    4.78    0.48 
   5  11   2    6.37    1.38 
  -6  11   2   17.33    1.77 
   6  11  -2   17.32    2.07 
  -6  11  -2   21.14    2.11 
   6  11   2   19.08    2.20 
  -7  11   2   -0.56    0.47 
   7  11  -2    0.32    0.52 
  -7  11  -2    1.46    0.61 
   7  11   2   -0.37    0.45 
   0 -12   2   29.67    2.27 
   0  12  -2   25.98    2.54 
   0  12   2   27.40    2.62 
   0 -12   2   26.04    2.12 
   0 -12  -2   26.48    1.94 
  -1 -12  -2   38.79    2.82 
  -1  12   2   41.25    3.41 
   1 -12   2   41.14    2.81 
   1  12  -2   43.39    3.48 
   1 -12   2   41.86    2.88 
  -1  12  -2   37.83    3.31 
   1  12   2   42.09    3.54 
   1 -12  -2   42.37    2.54 
  -1 -12   2   42.75    3.11 
  -1 -12   2   41.78    3.06 
   2 -12   2   41.55    2.70 
   2  12  -2   42.30    3.48 
  -2  12   2   42.33    3.38 
   2 -12   2   38.80    3.12 
  -2 -12  -2   43.04    3.03 
   2  12   2   39.29    3.51 
  -2 -12   2   39.69    3.13 
  -2  12  -2   44.02    3.47 
   3  12  -2    7.56    1.52 
   3 -12   2    7.60    0.82 
  -3  12   2    6.29    1.24 
   3 -12   2    6.58    0.73 
   3  12   2    6.66    1.49 
  -3  12  -2    7.87    1.27 
  -4  12   2    1.58    0.48 
   4  12  -2    1.11    0.65 
   4 -12   2    0.28    0.16 
   4  12   2    0.61    0.56 
  -4  12  -2    0.36    0.46 
  -5  12   2    2.52    0.63 
   5  12  -2    2.65    0.87 
   5  12   2    2.42    0.81 
  -5  12  -2    3.20    0.89 
  -6  12   2   57.64    4.04 
   6  12  -2   49.58    4.20 
   6  12   2   50.71    4.36 
  -6  12  -2   55.23    4.27 
  -7  12   2   12.42    1.82 
   7  12  -2   10.97    1.75 
   7  12   2   10.98    1.83 
   0  13   2   -0.39    0.36 
   0 -13   2   -0.12    0.33 
   0 -13  -2   -0.41    0.25 
   0 -13   2    0.17    0.47 
   0  13  -2    0.27    0.40 
  -1 -13  -2   23.09    1.92 
  -1  13   2   25.07    2.57 
   1 -13   2   23.51    1.86 
   1 -13   2   24.69    1.98 
   1  13  -2   20.89    2.41 
  -1  13  -2   23.84    2.50 
   1  13   2   26.12    2.67 
   1 -13  -2   24.83    1.65 
  -1 -13   2   24.17    2.18 
  -2  13   2   65.66    4.86 
  -2 -13  -2   67.35    4.49 
   2 -13   2   63.25    3.96 
   2  13  -2   64.74    4.93 
  -2  13  -2   67.89    4.92 
   2  13   2   62.99    5.00 
   3  13  -2  102.10    6.77 
  -3  13   2   99.30    6.54 
   3  13   2   83.54    7.28 
  -3  13  -2  102.03    6.71 
  -4  13   2   10.72    1.54 
   4  13  -2    9.75    1.61 
   4  13   2    7.47    1.63 
  -4  13  -2    9.77    1.60 
   5  13  -2   52.34    4.48 
  -5  13   2   58.75    4.33 
   5  13   2   53.89    4.62 
  -5  13  -2   63.39    4.62 
  -6  13   2   27.85    2.66 
   6  13  -2   23.35    2.67 
   6  13   2   25.67    2.86 
   0  14   2   21.52    2.53 
   0 -14  -2   20.59    1.67 
   0 -14   2   23.74    2.06 
   0  14  -2   21.57    2.54 
   0 -14   2   21.03    1.87 
  -1 -14  -2   21.70    1.85 
   1 -14   2   21.92    1.85 
   1 -14   2   21.55    1.75 
  -1  14   2   23.57    2.55 
   1  14  -2   17.41    2.34 
  -1  14  -2   19.31    2.37 
   1  14   2   19.99    2.80 
  -2  14   2   24.52    2.67 
   2  14  -2   24.13    2.74 
   2  14   2   25.77    2.88 
  -2  14  -2   25.43    2.70 
   3  14  -2    3.43    1.01 
  -3  14   2    3.81    1.01 
  -3  14  -2    3.48    1.10 
   3  14   2    3.49    1.23 
  -4  14   2    2.00    0.81 
   4  14  -2   -0.77    0.54 
   4  14   2    0.59    0.56 
  -4  14  -2    0.31    0.60 
  -5  14   2    4.25    0.95 
  -5  14  -2    1.97    0.98 
   0 -15   2   -0.21    0.56 
   0  15  -2    0.99    0.61 
   0 -15  -2    0.94    0.38 
   1  15  -2    4.47    1.36 
  -1  15   2    2.16    0.97 
   1  15   2    1.92    0.93 
  -1  15  -2    1.77    1.15 
   1 -15  -2    2.53    0.29 
  -2  15   2   12.68    2.06 
   2  15  -2    8.96    1.92 
  -2  15  -2   16.12    2.05 
   2  15   2   11.73    1.94 
   3  15  -2   11.72    2.18 
  -3  15   2   17.30    2.24 
  -3  15  -2   15.92    2.21 
   3  15   2   12.94    2.16 
   0   0  -3    0.10    0.06 
   0   0   3    0.20    0.11 
   1   0   3   73.66    4.25 
  -1   0  -3   81.07    4.35 
  -1   0   3   68.80    4.12 
   1   0  -3   71.62    4.08 
   1   0   3   81.94    4.46 
  -2   0   3  555.97   29.40 
   2   0   3  572.46   29.60 
  -2   0  -3  554.03   29.76 
  -3   0  -3  305.87   16.40 
   3   0   3  312.67   16.23 
  -3   0   3  294.64   16.06 
  -3   0  -3  274.59   16.39 
  -3   0   3  311.62   16.34 
   3   0   3  301.95   16.20 
   3   0   3  321.20   16.41 
  -4   0  -3    4.70    0.68 
   4   0   3    4.63    0.68 
  -4   0   3    3.88    0.48 
  -4   0   3    4.63    0.66 
   4   0   3    4.68    0.56 
   4   0   3    5.27    0.58 
  -5   0  -3  181.90   10.27 
   5   0   3  188.49    9.83 
  -5   0   3  177.87    9.83 
   5   0   3  171.24    9.76 
   5   0   3  175.71   10.10 
  -6   0  -3  145.15    8.39 
   6   0   3  138.43    7.67 
  -6   0   3  134.36    8.23 
   6   0   3  142.28    7.73 
  -6   0   3  134.38    8.03 
   6   0   3  136.83    8.13 
   7   0   3    7.78    1.07 
  -7   0   3    7.06    1.15 
  -7   0   3    6.97    0.91 
   7   0   3    8.01    0.78 
   7   0   3    7.56    0.74 
  -7   0  -3    8.89    1.34 
  -8   0   3    5.85    0.97 
   8   0   3    6.16    0.59 
   8   0   3    5.91    1.18 
  -8   0   3    5.01    1.42 
  -8   0  -3    5.47    1.24 
   8   0   3    5.26    0.60 
  -9   0   3   19.89    2.10 
   9   0   3   22.16    2.19 
  10   0   3  127.52    8.10 
   0  -1   3   38.44    2.43 
   0   1  -3   46.03    2.50 
   1  -1   3  140.64    7.72 
   1   1  -3  137.45    7.65 
  -1  -1  -3  140.83    7.79 
  -1   1   3  140.98    7.61 
  -1  -1   3  134.67    7.68 
   1   1   3  157.97    7.93 
   1   1   3  147.22    7.80 
  -2   1   3  326.30   17.53 
   2  -1   3  324.63   17.85 
   2   1  -3  337.40   17.59 
   2  -1   3  346.72   17.73 
  -2  -1  -3  364.72   17.94 
  -2   1  -3  334.33   17.87 
  -2  -1   3  317.53   17.68 
   2   1   3  321.31   17.79 
   3   1  -3   18.51    1.17 
   3  -1   3   20.13    1.48 
   3  -1   3   19.31    1.30 
  -3   1   3   19.56    1.39 
  -3   1   3   16.61    1.11 
  -3  -1  -3   19.14    1.50 
   3   1   3   20.74    1.42 
  -3   1  -3   18.86    1.49 
  -3  -1   3   18.43    1.32 
   3   1   3   21.12    1.61 
  -3   1  -3   16.12    1.44 
  -3  -1   3   19.15    1.52 
   3   1   3   19.04    1.39 
  -4  -1  -3    3.18    0.89 
   4   1  -3    2.21    0.26 
  -4   1   3    2.07    0.29 
  -4   1   3    2.13    0.46 
   4  -1   3    1.79    0.35 
   4  -1   3    2.64    0.59 
   4  -1   3    2.27    0.36 
  -4   1  -3    3.51    0.55 
  -4   1  -3    2.01    0.54 
  -4  -1   3    3.39    0.56 
   4   1   3    3.32    0.77 
   4   1   3    1.57    0.35 
  -4  -1   3    1.51    0.35 
   4   1   3    1.59    0.36 
   5  -1   3    5.94    0.58 
   5   1  -3    5.78    0.45 
   5   1  -3    5.18    0.46 
  -5   1   3    6.93    0.85 
   5  -1   3    6.26    0.81 
  -5   1   3    5.55    0.59 
  -5  -1  -3    6.01    0.89 
   5  -1   3    6.47    0.64 
  -5  -1   3    7.27    0.79 
   5   1   3    5.75    0.84 
   5   1   3    5.38    0.67 
  -5  -1   3    5.45    0.83 
  -5   1  -3    5.96    0.89 
   5   1   3    6.01    0.69 
  -6   1   3  244.18   13.93 
   6  -1   3  240.80   13.76 
   6  -1   3  252.17   13.28 
   6  -1   3  252.79   13.33 
  -6  -1  -3  253.32   14.15 
  -6   1   3  237.15   13.46 
  -6  -1   3  243.21   13.69 
   6   1   3  248.06   13.50 
   6   1   3  259.14   13.55 
   6   1   3  239.14   13.89 
  -6   1  -3  258.97   14.17 
  -6  -1   3  250.04   14.08 
   7  -1   3   12.37    1.40 
   7  -1   3   15.56    1.07 
  -7   1   3   13.75    1.61 
   7  -1   3   15.48    1.02 
  -7  -1  -3   14.09    1.72 
  -7   1   3   13.39    1.29 
  -7  -1   3   15.19    1.73 
  -7  -1   3   12.71    1.40 
   7   1   3   13.70    1.20 
   7   1   3   15.76    1.27 
   7   1   3   12.47    1.48 
  -7   1  -3   14.29    1.73 
  -8   1   3   11.57    1.28 
   8  -1   3   10.42    1.35 
  -8  -1  -3   13.82    1.83 
  -8   1   3   12.78    1.62 
   8   1   3   10.55    1.03 
   8   1   3   12.65    1.06 
  -8  -1   3    9.29    1.55 
  -8   1  -3   13.31    1.78 
  -8  -1   3   11.32    1.39 
   8   1   3   12.64    1.51 
   9  -1   3    2.58    0.79 
  -9   1   3    6.22    1.39 
   9   1   3    3.99    1.07 
   9   1   3    3.14    0.47 
   9   1   3    2.22    0.43 
  10  -1   3   41.48    4.16 
  10   1   3   42.05    3.53 
   0   2   3    2.45    0.32 
   0   2  -3    2.49    0.32 
   1  -2   3   24.99    1.56 
  -1  -2  -3   26.21    1.63 
   1   2  -3   24.20    1.56 
  -1  -2   3   22.46    1.57 
  -1   2  -3   23.81    1.57 
   1   2   3   26.31    1.70 
   2  -2   3  216.45   11.73 
   2   2  -3  217.96   11.77 
   2  -2   3  217.42   11.96 
  -2  -2  -3  229.10   11.95 
  -2  -2   3  201.95   11.82 
   2   2   3  240.18   12.01 
  -2   2  -3  204.69   11.82 
   2   2   3  232.90   12.06 
  -3   2   3   93.80    5.10 
   3  -2   3   88.02    5.02 
   3  -2   3   84.90    5.22 
   3   2  -3   94.57    5.08 
  -3  -2  -3   90.81    5.34 
   3   2   3  107.48    5.68 
  -3   2  -3   81.36    5.22 
   3   2   3   88.97    5.26 
  -3  -2   3   91.90    5.44 
  -3  -2   3   88.74    5.20 
   4   2  -3   68.78    3.90 
  -4   2   3   70.72    4.08 
   4  -2   3   72.38    3.92 
   4  -2   3   65.36    3.84 
   4  -2   3   65.81    4.14 
  -4  -2  -3   65.06    4.27 
   4   2   3   69.62    4.12 
  -4   2  -3   60.48    4.21 
  -4  -2   3   66.37    4.12 
   4   2   3   71.74    4.15 
  -4   2  -3   69.03    4.33 
   4   2   3   74.27    4.44 
  -5   2   3   38.51    2.38 
  -5  -2  -3   41.67    3.00 
   5  -2   3   39.32    2.74 
   5   2  -3   40.37    2.44 
   5  -2   3   38.15    2.38 
   5  -2   3   41.79    2.44 
  -5   2   3   42.18    2.80 
  -5   2  -3   35.72    2.89 
   5   2   3   43.03    2.80 
  -5  -2   3   40.47    2.77 
   5   2   3   40.22    2.70 
  -5   2  -3   39.42    2.97 
   5   2   3   43.64    3.08 
  -5  -2   3   44.10    3.07 
   6   2  -3   68.53    3.91 
   6   2  -3   67.79    3.87 
  -6   2   3   65.04    3.98 
   6  -2   3   72.63    4.39 
  -6   2   3   67.13    4.83 
   6  -2   3   69.53    3.85 
   6  -2   3   68.55    3.82 
  -6  -2  -3   70.31    4.70 
   6   2   3   66.72    4.19 
   6   2   3   72.42    4.26 
  -6   2  -3   73.64    4.77 
  -6   2  -3   62.70    4.59 
  -6  -2   3   68.19    4.70 
   6   2   3   65.53    4.52 
  -6  -2   3   69.71    4.41 
  -7  -2  -3    0.27    0.40 
   7   2  -3    0.00    0.11 
  -7   2   3    0.99    0.37 
   7  -2   3    1.09    0.43 
   7   2   3    0.01    0.32 
  -7   2  -3   -0.01    0.36 
   7   2   3    0.08    0.25 
   7   2   3   -0.27    0.19 
  -7  -2   3    0.05    0.37 
  -7  -2   3    0.69    0.37 
  -8   2   3    0.06    0.34 
   8  -2   3    0.64    0.39 
  -8   2   3    1.09    0.60 
  -8  -2   3    1.39    0.44 
   8   2   3    0.53    0.40 
  -8   2  -3   -0.51    0.52 
   8   2   3    0.17    0.34 
   8   2   3    0.76    0.36 
  -9   2   3   13.73    1.93 
   9  -2   3   11.57    1.49 
   9   2   3   12.48    1.63 
   9   2   3   12.21    1.18 
   9   2   3   14.88    1.31 
  10  -2   3   71.03    4.88 
  10   2   3   67.52    5.09 
   0  -3  -3  107.93    5.76 
   0   3   3  106.95    5.80 
   0  -3   3  102.96    5.87 
   1  -3   3  122.93    6.90 
  -1  -3  -3  127.10    6.95 
  -1   3   3  114.38    6.71 
   1   3  -3  138.30    7.04 
  -1  -3   3  127.58    6.99 
  -1   3  -3  128.54    6.96 
   1   3   3  125.95    7.06 
   1   3   3  126.70    7.03 
  -2   3   3  186.19    9.51 
   2   3  -3  191.04    9.85 
   2  -3   3  177.08    9.70 
  -2  -3  -3  187.18    9.91 
   2   3   3  178.58    9.94 
   2   3   3  193.96   10.09 
  -2  -3   3  170.03    9.85 
  -2   3  -3  159.34    9.76 
   3  -3   3    1.65    0.28 
   3  -3   3    1.94    0.46 
   3   3  -3    2.21    0.36 
  -3   3   3    2.66    0.31 
  -3   3  -3    1.99    0.43 
  -3  -3   3    2.88    0.56 
   3   3   3    1.71    0.45 
  -3  -3   3    2.44    0.59 
   3   3   3    1.26    0.34 
  -4   3   3    2.07    0.41 
   4  -3   3    2.60    0.34 
   4  -3   3    1.49    0.38 
   4   3  -3    1.73    0.38 
   4  -3   3    2.65    0.32 
   4   3   3    2.14    0.50 
  -4   3  -3    1.75    0.46 
   4   3   3    4.28    0.96 
  -4  -3   3    2.41    0.62 
  -4  -3   3    2.31    0.51 
   5  -3   3   44.18    2.59 
   5  -3   3   46.33    3.00 
  -5  -3  -3   42.87    3.21 
   5  -3   3   46.78    2.62 
  -5   3   3   41.87    2.59 
   5   3  -3   46.53    2.83 
  -5   3   3   47.87    3.00 
  -5   3  -3   48.78    3.39 
  -5   3  -3   40.39    3.14 
   5   3   3   44.42    2.99 
   5   3   3   44.85    3.04 
  -5  -3   3   46.30    3.36 
   5   3   3   48.67    3.45 
  -5  -3   3   47.39    3.14 
  -6   3   3  145.94    8.29 
  -6   3   3  141.46    7.77 
   6  -3   3  145.18    8.36 
  -6  -3  -3  145.37    8.64 
   6   3  -3  143.20    7.89 
   6   3   3  147.99    8.23 
  -6  -3   3  140.09    8.37 
  -6   3  -3  148.66    8.73 
  -6  -3   3  145.94    8.74 
   6   3   3  136.93    8.49 
  -6   3  -3  117.25    8.39 
   6   3   3  149.76    8.20 
   7  -3   3   72.43    4.67 
   7   3  -3   76.49    4.31 
   7   3  -3   74.55    4.23 
  -7   3   3   70.05    4.34 
  -7   3   3   76.49    4.91 
  -7  -3  -3   74.05    5.18 
  -7  -3   3   69.04    4.85 
   7   3   3   73.76    4.60 
   7   3   3   68.70    4.93 
   7   3   3   73.47    4.57 
  -7  -3   3   70.64    5.18 
  -7   3  -3   77.73    5.30 
   8  -3   3   43.72    3.28 
  -8   3   3   47.60    3.64 
   8   3  -3   45.96    2.69 
   8   3  -3   49.30    2.76 
  -8  -3   3   44.80    3.55 
  -8   3  -3   44.45    4.23 
   8   3   3   47.40    3.17 
   8   3   3   44.75    3.13 
   8   3   3   42.22    3.54 
  -9   3   3   28.49    2.65 
   9  -3   3   21.75    2.16 
   9   3   3   25.41    2.53 
   9   3   3   26.48    2.03 
   9   3   3   23.87    1.96 
  10  -3   3   24.01    2.29 
  10   3   3   23.66    2.56 
  10   3   3   24.64    1.85 
   0   4  -3    0.42    0.23 
   0  -4  -3    0.07    0.08 
   0  -4   3   -0.08    0.07 
   0   4   3    0.08    0.10 
   0   4   3   -0.01    0.07 
   1  -4   3    6.63    0.65 
  -1  -4  -3    7.57    0.68 
   1   4  -3    7.50    0.76 
  -1   4   3    7.16    0.50 
  -1  -4   3    7.21    0.73 
  -1   4  -3    6.19    0.69 
   1   4   3    6.57    0.73 
   1   4   3    9.85    0.91 
   2  -4   3  245.31   13.33 
  -2  -4  -3  247.20   13.53 
   2   4  -3  263.03   13.59 
   2   4   3  251.06   13.65 
   2   4   3  266.24   13.74 
  -2   4  -3  235.17   13.44 
  -2  -4   3  240.37   13.56 
   3   4  -3   23.77    1.70 
  -3  -4  -3   24.09    1.85 
   3  -4   3   22.36    1.65 
   3  -4   3   22.16    1.47 
   3   4   3   23.77    1.84 
  -3   4  -3   20.73    1.62 
  -3  -4   3   24.12    1.96 
   3   4   3   20.49    1.80 
  -3  -4   3   25.60    1.81 
   4  -4   3   19.67    1.32 
   4   4  -3   21.28    1.60 
   4  -4   3   19.01    1.55 
  -4   4   3   21.08    1.43 
  -4  -4  -3   22.22    1.82 
  -4  -4   3   19.46    1.70 
   4   4   3   24.24    1.88 
  -4  -4   3   21.18    1.90 
   4   4   3   24.95    2.08 
  -4   4  -3   19.06    1.61 
  -5   4   3   13.32    1.14 
   5  -4   3   11.55    0.76 
   5   4  -3   11.92    1.09 
  -5  -4  -3   13.36    1.40 
   5  -4   3   11.03    1.09 
  -5  -4   3   11.28    1.26 
   5   4   3   10.69    1.18 
  -5  -4   3   12.04    1.43 
  -5   4  -3   10.86    1.22 
   5   4   3   12.89    1.49 
  -6   4   3  105.69    5.90 
   6  -4   3   97.72    5.75 
  -6  -4  -3   88.14    6.21 
  -6   4   3   89.50    5.35 
   6   4  -3   95.41    5.60 
   6   4   3   97.08    6.23 
  -6  -4   3   93.73    6.03 
   6   4   3  103.45    5.93 
  -6   4  -3   89.22    6.04 
  -6  -4   3   92.82    6.29 
   6   4   3  103.75    5.89 
   7   4  -3    0.72    0.47 
   7  -4   3    0.29    0.32 
  -7  -4  -3    0.41    0.50 
  -7  -4   3    0.50    0.55 
   7   4   3    0.73    0.39 
  -7   4  -3    0.29    0.45 
  -7  -4   3   -0.05    0.38 
   7   4   3    0.50    0.41 
   7   4   3    0.09    0.26 
   8   4  -3    0.80    0.36 
   8   4  -3    0.68    0.38 
   8  -4   3    0.79    0.45 
  -8   4   3    1.84    0.73 
   8   4   3    0.05    0.38 
   8   4   3    0.79    0.42 
   8   4   3   -0.28    0.38 
   9   4  -3    0.36    0.21 
   9  -4   3    0.49    0.40 
   9   4  -3    0.33    0.25 
  -9   4   3    0.93    0.60 
   9   4   3    0.10    0.47 
   9   4   3    0.21    0.39 
   9   4   3    0.51    0.40 
  10  -4   3   92.83    5.81 
 -10   4   3   79.92    6.20 
  10   4   3   83.95    6.24 
  10   4   3   93.88    5.43 
   0   5  -3    2.97    0.49 
   0   5   3    4.23    0.46 
   0  -5  -3    2.94    0.36 
   0   5   3    3.00    0.46 
  -1   5   3  291.68   16.07 
  -1  -5  -3  300.65   16.07 
   1  -5   3  311.96   16.11 
   1   5  -3  337.11   16.36 
  -1  -5   3  297.67   16.22 
   1   5   3  286.73   16.24 
  -1   5  -3  298.18   16.20 
   1   5   3  300.21   16.21 
   1  -5  -3  281.44   15.77 
   2   5  -3  284.60   15.61 
   2  -5   3  307.48   15.38 
  -2   5   3  256.44   15.26 
  -2  -5  -3  293.34   15.55 
  -2  -5   3  311.34   15.68 
   2   5   3  278.48   15.67 
  -2   5  -3  275.47   15.50 
   2   5   3  292.44   15.74 
   3  -5   3   42.39    2.54 
  -3   5   3   39.68    2.44 
   3   5  -3   41.78    2.82 
   3  -5   3   39.72    2.72 
  -3  -5  -3   44.34    2.92 
  -3  -5   3   45.53    2.95 
   3   5   3   41.63    3.02 
  -3   5  -3   42.21    2.78 
  -3  -5   3   45.04    3.11 
   3   5   3   47.86    3.09 
   4  -5   3    5.18    0.66 
   4  -5   3    5.20    0.47 
   4   5  -3    4.54    0.68 
  -4  -5  -3    5.82    0.83 
  -4  -5   3    5.46    0.91 
   4   5   3    6.72    1.05 
  -4   5  -3    4.69    0.68 
  -4  -5   3    5.63    0.83 
   4   5   3    5.52    1.05 
  -5   5   3   34.96    2.18 
  -5  -5  -3   33.16    2.60 
   5  -5   3   29.36    2.18 
   5   5  -3   32.79    2.31 
  -5  -5   3   29.43    2.63 
   5   5   3   28.83    2.57 
  -5   5  -3   30.76    2.38 
  -5  -5   3   32.10    2.54 
   5   5   3   32.00    2.45 
  -6   5   3  291.69   14.26 
  -6   5   3  218.20   13.62 
   6  -5   3  250.12   14.06 
   6   5  -3  263.79   14.12 
   6   5   3  260.88   14.36 
  -6  -5   3  239.03   15.00 
  -6  -5   3  254.67   15.31 
  -6   5  -3  241.13   14.42 
   6   5   3  291.40   15.18 
   7   5  -3   76.76    4.93 
  -7   5   3   91.12    5.36 
   7  -5   3   77.75    5.01 
  -7   5  -3   78.42    5.46 
   7   5   3   86.87    5.30 
  -7  -5   3   79.00    5.54 
   7   5   3   81.28    5.25 
   7   5   3   83.26    5.73 
   8   5  -3    4.74    0.82 
   8  -5   3    5.48    0.84 
  -8   5   3    5.68    1.19 
  -8   5  -3    4.78    1.18 
   8   5   3    6.58    1.02 
   8   5   3    4.65    0.95 
   8   5   3    5.01    1.16 
  -9   5   3   27.93    2.66 
   9  -5   3   25.04    2.22 
   9   5  -3   27.12    1.93 
   9   5   3   23.89    2.64 
   9   5   3   28.39    2.33 
 -10   5   3   42.20    3.51 
  10  -5   3   36.00    2.98 
  10   5   3   39.49    2.92 
   0   6   3    1.77    0.44 
   1   6  -3   16.82    1.48 
  -1  -6  -3   18.16    1.35 
   1  -6   3   18.35    1.38 
  -1   6   3   17.04    1.38 
  -1   6  -3   17.29    1.47 
   1   6   3   20.12    1.57 
   1  -6  -3   17.30    1.09 
  -1  -6   3   18.78    1.49 
   1   6   3   18.44    1.47 
  -2   6   3  231.91   13.62 
  -2  -6  -3  260.88   13.83 
   2   6  -3  260.48   13.97 
   2  -6   3  269.64   13.66 
   2   6   3  262.89   14.09 
  -2  -6   3  252.60   13.92 
  -2   6  -3  242.39   13.84 
   2   6   3  245.99   13.97 
   3   6  -3   86.37    5.02 
  -3  -6  -3   79.24    4.89 
  -3   6   3   72.71    4.48 
   3  -6   3   78.93    4.71 
   3  -6   3   78.86    4.49 
   3   6   3   77.81    5.06 
  -3  -6   3   79.93    4.96 
  -3  -6   3   89.64    5.21 
   3   6   3   75.40    5.28 
  -3   6  -3   79.38    4.82 
  -4  -6  -3    6.90    0.97 
   4  -6   3    7.93    0.60 
   4  -6   3    7.64    0.81 
   4   6  -3    6.91    0.91 
  -4   6   3    7.39    0.62 
   4   6   3   10.13    1.25 
  -4  -6   3    8.74    1.17 
  -4  -6   3    7.44    1.01 
   4   6   3    6.71    0.96 
  -4   6  -3    7.16    0.88 
  -5  -6  -3   46.47    3.34 
  -5   6   3   44.69    2.57 
   5  -6   3   43.10    2.85 
   5   6  -3   43.31    3.06 
   5   6   3   47.00    3.47 
  -5  -6   3   36.65    3.54 
  -5   6  -3   43.88    3.10 
  -5  -6   3   47.22    3.34 
   5   6   3   44.25    3.23 
   6   6  -3   83.65    5.07 
   6  -6   3   83.02    4.90 
  -6   6   3   77.44    4.52 
  -6   6  -3   83.60    5.28 
  -6  -6   3   72.68    5.30 
   6   6   3   79.75    5.53 
   6   6   3   85.51    5.30 
   7   6  -3    1.81    0.56 
  -7   6   3    2.11    0.47 
   7  -6   3    2.26    0.55 
   7   6   3    2.31    0.72 
  -7   6  -3    3.05    0.77 
   7   6   3    1.62    0.69 
   8   6  -3    1.86    0.56 
   8  -6   3    2.58    0.64 
  -8   6  -3    1.90    0.72 
   8   6   3    1.19    0.56 
   8   6   3    1.30    0.61 
   9  -6   3    5.86    1.10 
   9   6  -3    4.42    0.84 
   9   6   3    4.48    1.03 
  10  -6   3   89.99    5.79 
  10   6   3   93.76    5.90 
   0   7   3   72.82    4.84 
   0  -7   3   84.35    4.81 
   0   7  -3   79.07    4.91 
   0  -7  -3   82.84    4.54 
  -1  -7  -3   19.45    1.48 
   1   7  -3   19.91    1.70 
  -1   7   3   17.54    1.56 
   1  -7   3   24.12    1.60 
   1  -7  -3   19.51    1.24 
   1   7   3   18.66    1.69 
  -1   7  -3   20.70    1.69 
  -1  -7   3   20.47    1.66 
   2   7  -3  109.63    6.44 
  -2   7   3  100.57    6.11 
  -2  -7  -3  104.30    6.18 
   2  -7   3  107.72    6.02 
  -2  -7   3  109.72    6.49 
  -2  -7   3  109.87    6.37 
  -2   7  -3  100.27    6.27 
   2   7   3  109.48    6.44 
   2   7   3  106.43    6.45 
   3  -7   3    0.19    0.19 
   3   7  -3    0.14    0.23 
  -3  -7  -3    0.38    0.29 
   3  -7   3    0.36    0.18 
  -3   7   3    0.02    0.11 
  -3   7  -3   -0.07    0.13 
  -3  -7   3    0.84    0.41 
   3   7   3    0.75    0.63 
  -3  -7   3    0.26    0.42 
   3   7   3    0.28    0.30 
   4  -7   3    0.42    0.16 
  -4  -7  -3    0.82    0.42 
   4   7  -3    0.55    0.35 
   4  -7   3    0.11    0.19 
  -4   7   3    0.97    0.27 
  -4  -7   3    0.32    0.31 
  -4  -7   3    0.50    0.26 
  -4   7  -3    0.34    0.27 
   4   7   3    0.57    0.29 
   4   7   3    0.52    0.37 
  -5   7   3   13.16    1.03 
   5   7  -3   13.44    1.41 
  -5  -7  -3   12.10    1.67 
   5  -7   3   12.40    1.14 
   5   7   3   11.77    1.42 
  -5   7  -3   12.86    1.35 
   5   7   3   14.32    1.68 
   6  -7   3   93.35    5.56 
   6   7  -3   97.48    5.92 
  -6   7   3   86.91    5.32 
   6   7   3  102.29    6.16 
   6   7   3   88.87    6.29 
  -6   7  -3  101.45    6.09 
   7   7  -3   23.79    2.08 
  -7   7   3   21.24    1.65 
   7  -7   3   23.97    1.83 
   7   7   3   23.00    2.22 
  -7   7  -3   28.61    2.56 
   7   7   3   24.38    2.53 
   8   7  -3   25.22    2.17 
   8  -7   3   26.00    2.05 
   8   7   3   23.90    2.37 
  -8   7  -3   29.06    2.72 
   9  -7   3    9.33    1.16 
   9   7  -3    8.82    1.18 
  -9   7  -3   10.10    1.67 
   9   7   3   11.01    1.57 
   0  -8  -3    0.03    0.13 
   0   8   3    0.38    0.31 
   0  -8   3   -0.02    0.15 
  -1  -8  -3   22.90    1.70 
  -1   8   3   22.24    1.88 
   1   8  -3   23.28    1.98 
   1  -8   3   24.32    1.77 
  -1  -8   3   22.39    1.86 
   1  -8  -3   22.49    1.44 
   1   8   3   24.23    2.03 
  -1   8  -3   24.43    1.98 
  -2   8   3   88.28    5.61 
   2   8  -3   91.96    5.82 
   2  -8   3   99.39    5.46 
  -2  -8  -3   93.26    5.61 
  -2   8  -3   91.72    5.77 
  -2  -8   3  101.24    5.95 
   2   8   3   96.92    5.95 
  -2  -8   3   92.44    5.76 
  -3  -8  -3   93.10    5.65 
  -3   8   3   85.75    5.40 
   3  -8   3   95.97    5.22 
   3   8  -3   99.58    5.91 
   3   8   3   88.16    5.83 
  -3  -8   3   88.79    5.75 
   3   8   3   94.71    5.94 
  -3   8  -3   91.11    5.68 
  -3  -8   3   91.05    5.89 
   4  -8   3   58.78    3.19 
  -4   8   3   59.62    3.60 
  -4  -8  -3   59.84    3.99 
   4   8  -3   54.00    3.91 
   4  -8   3   57.56    3.56 
  -4  -8   3   57.60    4.21 
   4   8   3   56.83    4.10 
  -4   8  -3   58.06    3.88 
   4   8   3   53.91    4.15 
  -5   8   3   42.72    2.83 
   5   8  -3   43.38    3.26 
   5  -8   3   46.71    2.86 
  -5  -8  -3   50.62    4.55 
   5   8   3   40.61    3.33 
  -5   8  -3   44.40    3.25 
   5   8   3   42.20    3.51 
   6  -8   3   27.00    1.97 
   6   8  -3   27.01    2.35 
  -6   8   3   26.74    1.93 
   6   8   3   26.39    2.48 
  -6   8  -3   30.03    2.42 
   7   8  -3    0.28    0.41 
  -7   8   3    0.84    0.28 
  -7   8  -3   -0.19    0.35 
   7   8   3    0.16    0.32 
   8  -8   3    0.24    0.29 
   8   8  -3    0.33    0.48 
  -8   8   3   -0.26    0.35 
  -8   8  -3    0.76    0.56 
   8   8   3    0.64    0.44 
   9   8  -3   15.03    1.66 
   9   8   3   16.89    1.96 
  -9   8  -3   21.73    2.23 
   0  -9   3   37.74    2.73 
   0   9   3   41.56    3.55 
   0   9  -3   38.06    2.93 
   0  -9  -3   40.26    2.49 
  -1   9   3    3.15    0.73 
   1   9  -3    2.85    0.72 
   1  -9   3    4.96    0.81 
  -1   9  -3    3.00    0.70 
   1   9   3    3.30    0.85 
   1  -9  -3    3.56    0.39 
  -1  -9   3    2.85    0.62 
  -1  -9   3    2.65    0.67 
  -2   9   3   91.35    5.69 
  -2  -9  -3   91.96    5.57 
   2   9  -3   88.95    5.83 
   2  -9   3   98.92    5.43 
   2   9   3   90.09    5.94 
  -2  -9   3   91.01    5.82 
  -2   9  -3   91.88    5.81 
  -2  -9   3   95.82    5.80 
  -3   9   3    1.76    0.50 
   3  -9   3    1.70    0.37 
   3   9  -3    1.76    0.59 
  -3  -9  -3    1.91    0.56 
  -3  -9   3    0.91    0.44 
   3   9   3    1.49    0.66 
  -3   9  -3    1.44    0.68 
  -3  -9   3    1.76    0.64 
  -4  -9  -3    0.95    0.41 
  -4   9   3    0.47    0.27 
   4  -9   3    0.55    0.27 
   4   9  -3    1.48    0.60 
  -4  -9   3    0.47    0.51 
  -4   9  -3    0.37    0.40 
   4   9   3    0.25    0.36 
   5   9  -3    0.79    0.55 
  -5  -9  -3    0.14    0.29 
   5  -9   3    0.39    0.22 
  -5   9   3    1.07    0.36 
  -5   9  -3    0.55    0.34 
   5   9   3    0.67    0.45 
   6  -9   3   89.89    5.20 
   6   9  -3   84.85    5.78 
  -6   9   3   85.37    5.31 
   6   9   3   88.94    6.04 
  -6   9  -3   96.67    5.93 
   7   9  -3    0.33    0.45 
  -7   9   3    0.76    0.39 
   7  -9   3    0.29    0.34 
  -7   9  -3   -0.64    0.41 
   7   9   3    0.51    0.51 
  -8   9   3   18.68    1.41 
   8   9  -3   14.53    2.36 
   8   9   3   14.27    1.91 
  -8   9  -3   19.29    2.20 
   0  10   3    0.22    0.24 
   0 -10  -3    0.04    0.16 
   0 -10   3   -0.09    0.23 
   0  10  -3   -0.11    0.25 
  -1  10   3   21.63    2.03 
   1  10  -3   22.00    2.07 
   1 -10   3   23.81    1.80 
  -1 -10  -3   21.10    1.69 
   1  10   3   20.14    2.07 
  -1  10  -3   21.87    2.05 
  -1 -10   3   23.73    1.95 
  -1 -10   3   21.34    1.92 
   1 -10  -3   21.31    1.42 
   2  10  -3  140.74    8.53 
  -2 -10  -3  144.02    8.16 
  -2  10   3  140.53    8.39 
   2 -10   3  141.67    8.38 
  -2 -10   3  147.54    8.72 
  -2  10  -3  144.95    8.52 
   2  10   3  128.63    8.55 
  -2 -10   3  137.20    8.41 
  -3 -10  -3  102.14    6.16 
   3 -10   3  103.95    5.64 
   3  10  -3   94.97    6.34 
  -3  10   3   96.56    6.11 
  -3  10  -3  100.88    6.34 
  -3 -10   3  102.78    6.45 
   3  10   3   91.57    6.42 
  -4  10   3    5.06    0.78 
   4 -10   3    4.26    0.62 
   4  10  -3    3.60    0.88 
   4  10   3    4.87    1.09 
  -4  10  -3    3.02    0.83 
   5  10  -3   60.44    4.39 
  -5  10   3   62.00    4.03 
   5 -10   3   59.23    3.66 
  -5  10  -3   62.72    4.38 
   5  10   3   58.86    4.53 
  -6  10   3   55.27    3.62 
   6  10  -3   49.37    4.00 
   6 -10   3   57.21    3.35 
  -6  10  -3   58.88    4.09 
   6  10   3   50.75    4.19 
   7  10  -3    1.97    0.78 
  -7  10   3    2.04    0.64 
  -7  10  -3    3.51    0.98 
   7  10   3    1.30    0.67 
   8  10  -3    0.87    0.61 
  -8  10  -3    3.49    1.08 
   8  10   3   -0.47    0.53 
   0 -11   3    7.54    1.02 
   0  11  -3    7.39    1.37 
   0  11   3    7.46    1.44 
   0 -11  -3    7.49    0.79 
   0 -11   3    6.64    0.96 
  -1 -11  -3   67.46    4.16 
   1  11  -3   68.99    4.75 
  -1  11   3   66.60    4.70 
   1 -11   3   67.37    4.24 
  -1  11  -3   67.60    4.71 
   1 -11  -3   68.04    3.81 
  -1 -11   3   65.45    4.41 
   1  11   3   61.63    4.71 
  -2 -11  -3   88.26    5.52 
   2  11  -3   94.18    6.04 
  -2  11   3   86.73    5.83 
   2 -11   3   95.56    5.36 
   2  11   3   82.04    6.00 
  -2 -11   3   87.71    6.98 
  -2  11  -3   92.95    5.98 
  -3 -11  -3    9.08    1.51 
   3 -11   3   11.85    0.97 
  -3  11   3   12.34    1.99 
   3  11  -3    9.31    1.43 
  -3  11  -3   12.31    1.45 
   3  11   3   10.39    1.56 
  -4  11   3    1.26    0.57 
   4  11  -3    1.66    0.70 
   4 -11   3    1.47    0.43 
   4  11   3    0.75    0.53 
  -5  11   3    5.29    1.04 
   5  11  -3    3.93    1.07 
   5 -11   3    4.29    0.59 
   5  11   3    4.99    1.18 
  -5  11  -3    6.85    1.33 
  -6  11   3   94.78    6.08 
   6  11  -3   95.53    6.51 
   6  11   3   90.18    6.64 
  -6  11  -3  109.22    6.65 
   7  11  -3   18.46    2.17 
  -7  11   3   19.20    1.80 
   7  11   3   22.41    2.46 
  -7  11  -3   24.77    2.56 
   0 -12   3    1.10    0.44 
   0 -12   3   -0.16    0.29 
   0  12   3   -0.26    0.30 
   1 -12   3    1.18    0.45 
  -1  12   3    1.64    0.65 
   1  12  -3    0.19    0.40 
  -1 -12  -3    1.30    0.47 
   1 -12   3    0.75    0.44 
  -1 -12   3    1.31    0.48 
   1 -12  -3    1.60    0.32 
   1  12   3    0.57    0.56 
  -1  12  -3    0.58    0.51 
  -1 -12   3    1.33    0.49 
   2 -12   3   42.60    2.89 
  -2  12   3   46.11    3.51 
  -2 -12  -3   42.67    3.08 
   2 -12   3   45.75    2.93 
   2  12  -3   44.26    3.60 
   2  12   3   37.80    3.56 
  -2  12  -3   40.99    3.48 
  -3  12   3    6.06    1.20 
   3  12  -3    5.04    1.21 
   3 -12   3    5.87    0.67 
   3  12   3    4.75    1.30 
  -3  12  -3    5.19    1.16 
   4 -12   3   25.92    1.84 
  -4  12   3   24.07    2.34 
  -4  12  -3   30.25    2.59 
   4  12   3   22.33    3.01 
   5  12  -3    2.50    0.96 
  -5  12   3    2.82    0.84 
  -5  12  -3    4.03    0.98 
   5  12   3    2.48    0.94 
   6  12  -3   23.39    2.49 
  -6  12   3   24.65    2.44 
  -6  12  -3   20.81    2.50 
   6  12   3   22.09    2.56 
   7  12  -3    1.13    0.57 
  -7  12   3   -0.85    0.56 
  -7  12  -3    1.88    0.67 
   7  12   3   -0.22    0.60 
   0 -13   3   49.35    3.47 
   0 -13  -3   48.07    3.14 
   0  13  -3   52.08    4.09 
   0 -13   3   51.17    3.54 
   0  13   3   47.46    4.09 
   1  13  -3   39.29    3.40 
   1 -13   3   36.52    2.68 
  -1 -13  -3   37.73    2.66 
   1 -13   3   38.50    2.78 
  -1  13   3   35.53    3.28 
  -1  13  -3   37.73    3.33 
   1  13   3   36.35    3.43 
  -2  13   3   26.87    2.50 
   2  13  -3   21.07    2.49 
   2 -13   3   22.57    1.82 
   2 -13   3   22.86    1.81 
   2  13   3   22.17    2.57 
  -2  13  -3   23.88    2.48 
   3  13  -3    0.64    0.54 
   3 -13   3    1.13    0.39 
  -3  13   3    2.10    0.66 
   3 -13   3    1.25    0.46 
   3  13   3    0.96    0.74 
  -3  13  -3    0.42    0.61 
   4  13  -3   -0.15    0.53 
   4 -13   3   -0.21    0.21 
   4  13   3    0.79    0.74 
  -4  13  -3   -0.05    0.52 
  -5  13   3   19.24    2.06 
   5  13  -3   13.36    2.01 
  -5  13  -3   21.83    2.37 
   5  13   3   14.40    2.16 
  -6  13   3   27.31    2.52 
   6  13  -3   17.67    2.41 
   6  13   3   23.48    2.78 
  -6  13  -3   31.69    2.92 
   0  14  -3    0.61    0.78 
   0 -14  -3   -0.35    0.22 
   0 -14   3   -0.85    0.44 
  -1 -14  -3    0.16    0.41 
   1 -14   3   -0.18    0.37 
   1  14  -3    0.56    0.54 
  -1  14   3    0.87    0.58 
   1 -14   3    1.04    0.44 
  -1  14  -3   -0.54    0.48 
   1  14   3    0.09    0.80 
  -2  14   3   27.70    2.98 
   2  14  -3   30.39    3.11 
  -2  14  -3   32.42    3.15 
   2  14   3   33.74    3.35 
   3  14  -3    1.82    0.85 
  -3  14   3    1.99    0.79 
   3  14   3    0.92    0.75 
  -3  14  -3    4.14    1.21 
  -4  14   3   19.06    2.24 
   4  14  -3   18.09    2.34 
  -4  14  -3   21.37    2.42 
   0  15  -3   10.16    2.08 
   0  15   3    8.11    1.91 
   1  15  -3   35.53    3.66 
  -1  15   3   47.10    4.51 
  -1  15  -3   43.16    3.81 
   1  15   3   37.99    3.91 
  -2  15   3   36.92    3.53 
   2  15  -3   33.38    3.44 
   2  15   3   36.39    3.77 
  -2  15  -3   37.26    3.59 
   3 -15   3    3.72    0.45 
   3  15  -3    4.59    1.21 
  -3  15   3    7.56    1.47 
   3  15   3    3.57    1.29 
  -3  15  -3    6.34    1.55 
   0   0   4   51.33    3.01 
   0   0  -4   49.12    2.94 
   1   0  -4  328.23   18.39 
   1   0   4  327.75   18.57 
  -1   0   4  314.30   18.46 
   1   0   4  393.68   18.92 
  -1   0  -4  382.05   18.74 
   2   0  -4  448.69   23.74 
   2   0   4  481.86   24.10 
  -2   0   4  452.64   23.88 
  -2   0  -4  428.90   24.13 
  -3   0  -4    7.91    0.93 
   3   0   4   11.11    0.91 
  -3   0   4    7.69    0.70 
   3   0   4    9.14    0.97 
  -3   0  -4    8.37    0.91 
   4   0   4    0.39    0.18 
   4   0   4    0.32    0.20 
  -4   0   4    0.34    0.16 
   4   0   4    0.69    0.38 
  -4   0  -4    1.79    0.55 
  -5   0   4   93.95    5.49 
   5   0   4   89.84    5.46 
  -5   0   4   97.34    5.85 
  -5   0  -4   96.10    5.93 
   5   0   4   97.19    5.53 
   5   0   4   97.32    5.86 
   6   0   4  301.01   15.80 
   6   0   4  283.17   16.17 
  -6   0   4  294.49   16.32 
  -6   0  -4  305.63   16.50 
  -6   0   4  280.89   15.89 
   6   0   4  285.52   15.71 
   7   0   4  160.64    8.87 
  -7   0  -4  169.23    9.88 
  -7   0   4  151.29    9.17 
   7   0   4  163.74    8.96 
   7   0   4  156.43    9.45 
  -7   0   4  162.59    9.67 
   8   0   4    6.80    0.74 
  -8   0  -4    7.79    1.57 
   8   0   4    6.73    1.35 
  -8   0   4    6.13    0.97 
   8   0   4    6.91    0.77 
   9   0   4   44.12    3.52 
   9   0   4   45.61    2.63 
  -9   0   4   40.76    3.25 
  10   0   4   34.83    3.12 
   0   1  -4    0.07    0.09 
   0   1   4    0.11    0.10 
   0  -1   4    0.08    0.09 
  -1   1   4   45.33    2.79 
   1   1  -4   47.83    2.77 
   1  -1   4   47.55    2.88 
   1   1   4   46.83    2.92 
  -1   1  -4   48.35    2.95 
  -1  -1   4   45.40    2.82 
   1   1   4   56.31    3.18 
   2   1  -4  211.52   12.21 
   2  -1   4  241.26   12.69 
  -2   1   4  220.89   12.26 
  -2  -1  -4  240.25   12.59 
   2  -1   4  229.19   12.41 
  -2   1  -4  233.06   12.61 
  -2  -1   4  218.13   12.34 
   2   1   4  219.09   12.46 
   2   1   4  261.90   12.80 
  -3   1   4  104.23    5.93 
   3  -1   4  113.04    6.41 
   3   1  -4  109.85    5.92 
  -3  -1  -4  110.59    6.36 
   3  -1   4  113.12    6.15 
   3   1   4  112.79    6.24 
  -3   1  -4  104.70    6.36 
   3   1   4  110.66    6.26 
  -3  -1   4  105.33    6.11 
  -3   1  -4  110.39    6.39 
  -4   1   4   61.32    3.83 
   4  -1   4   59.31    3.62 
   4  -1   4   62.06    3.92 
  -4  -1  -4   64.30    3.99 
  -4   1   4   57.38    3.49 
   4   1  -4   60.45    3.39 
   4  -1   4   63.17    3.69 
   4   1   4   66.43    4.07 
   4   1   4   64.93    3.79 
  -4   1  -4   55.10    3.97 
  -4  -1   4   60.93    3.72 
  -4  -1   4   63.23    4.01 
   4   1   4   61.40    3.76 
  -4   1  -4   62.51    4.14 
  -5   1   4   56.83    3.45 
   5   1  -4   55.83    3.16 
   5  -1   4   60.44    3.55 
  -5  -1  -4   58.45    3.95 
   5  -1   4   57.18    3.80 
   5   1  -4   53.37    3.17 
  -5   1   4   65.14    3.88 
   5  -1   4   56.38    3.46 
  -5   1  -4   63.06    4.06 
  -5  -1   4   60.01    3.69 
   5   1   4   56.11    3.61 
   5   1   4   59.38    3.65 
   5   1   4   63.18    4.00 
  -5  -1   4   59.62    3.98 
  -5   1  -4   54.28    3.99 
  -6   1   4  101.90    6.11 
   6  -1   4  108.56    6.01 
  -6  -1  -4  107.82    6.73 
   6  -1   4  102.15    6.44 
   6  -1   4  107.35    6.07 
  -6   1   4  107.74    6.55 
  -6   1  -4  111.08    6.81 
   6   1   4  105.30    6.19 
   6   1   4  107.46    6.57 
  -6  -1   4  110.11    6.75 
  -6  -1   4  104.43    6.34 
   6   1   4  109.26    6.25 
  -7  -1  -4   -0.58    0.39 
   7  -1   4    0.12    0.26 
   7  -1   4    0.04    0.15 
   7  -1   4   -0.03    0.19 
  -7   1   4    0.61    0.41 
  -7   1   4    0.10    0.24 
  -7  -1   4    1.05    0.47 
  -7   1  -4    0.18    0.38 
  -7  -1   4    0.18    0.40 
   7   1   4    0.31    0.27 
   7   1   4    0.24    0.29 
   8  -1   4    0.73    0.23 
  -8   1   4   -0.04    0.34 
   8  -1   4    0.33    0.35 
   8  -1   4    0.41    0.22 
  -8   1   4    0.46    0.54 
  -8   1  -4   -0.22    0.50 
   8   1   4    0.36    0.34 
   8   1   4    0.90    0.50 
  -8  -1   4    0.25    0.43 
  -8  -1   4    0.15    0.62 
   8   1   4    0.48    0.49 
  -9   1   4   27.39    2.36 
   9  -1   4   24.16    2.40 
  -9   1   4   28.77    2.79 
   9   1   4   29.40    1.92 
   9   1   4   27.99    2.39 
   9   1   4   26.65    2.56 
  -9  -1   4   22.15    2.44 
  10  -1   4   59.92    4.44 
  10   1   4   58.22    4.53 
   0   2   4  504.03   26.68 
  -1  -2  -4    1.35    0.32 
  -1  -2   4    1.21    0.30 
   1   2   4    0.94    0.30 
  -1   2  -4    1.53    0.33 
   2   2  -4   22.78    1.48 
   2  -2   4   22.80    1.53 
   2  -2   4   23.45    1.75 
  -2  -2  -4   24.08    1.67 
  -2  -2   4   22.31    1.57 
  -2   2  -4   20.49    1.58 
   3  -2   4    4.77    0.63 
  -3   2   4    4.78    0.53 
  -3  -2  -4    3.84    0.60 
   3   2  -4    4.60    0.48 
   3  -2   4    4.31    0.50 
  -3  -2   4    3.92    0.54 
   3   2   4    4.95    0.74 
   3   2   4    5.16    0.65 
  -3   2  -4    4.05    0.60 
   3   2   4    4.15    0.58 
  -4   2   4    8.49    0.64 
   4   2  -4   10.17    0.79 
  -4  -2  -4    9.48    1.06 
  -4   2   4   10.80    0.95 
   4  -2   4    9.99    1.03 
   4  -2   4    9.29    0.81 
  -4   2  -4    8.58    1.05 
  -4  -2   4   10.21    1.12 
   4   2   4    8.89    0.95 
   4   2   4   11.01    1.21 
   4   2   4    9.07    1.12 
  -4  -2   4    9.26    0.96 
  -5  -2  -4    2.07    0.59 
   5  -2   4    3.23    0.43 
  -5   2   4    4.52    0.64 
  -5   2   4    2.76    0.36 
   5   2  -4    2.60    0.35 
   5  -2   4    2.93    0.45 
   5   2   4    3.08    0.60 
  -5   2  -4    2.70    0.70 
   5   2   4    4.02    0.94 
  -5  -2   4    2.88    0.73 
  -5  -2   4    3.21    0.67 
  -5   2  -4    2.19    0.66 
   5   2   4    2.55    0.52 
  -6  -2  -4    6.06    1.06 
   6   2  -4    6.28    0.56 
  -6   2   4    9.64    1.11 
   6  -2   4    6.85    0.65 
  -6   2   4    6.45    0.68 
   6  -2   4    7.34    0.69 
   6  -2   4    4.97    0.81 
  -6   2  -4    6.95    1.36 
  -6   2  -4    5.87    1.18 
  -6  -2   4    6.22    1.08 
   6   2   4    6.85    1.03 
  -6  -2   4    6.02    0.89 
   6   2   4    7.43    0.89 
   6   2   4    6.14    0.84 
  -7   2   4    4.15    0.98 
   7  -2   4    3.31    0.43 
   7  -2   4    2.18    0.59 
  -7  -2  -4    3.26    0.93 
   7  -2   4    4.36    0.45 
  -7   2   4    3.57    0.66 
   7   2   4    2.83    0.67 
   7   2   4    3.38    0.70 
  -7  -2   4    5.22    0.85 
  -7  -2   4    4.56    1.09 
   7   2   4    2.75    0.78 
  -7   2  -4    5.02    1.22 
   8  -2   4  170.90   10.85 
  -8   2   4  184.47   11.19 
  -8   2   4  187.72   10.62 
  -8  -2   4  195.98   11.60 
   8   2   4  198.98   10.63 
  -8  -2   4  183.58   11.07 
   8   2   4  186.18   11.20 
   8   2   4  200.30   10.59 
  -8   2  -4  185.85   11.61 
  -9   2   4    0.36    0.86 
  -9   2   4    2.14    0.58 
   9  -2   4    0.13    0.37 
   9   2   4    1.59    0.60 
   9   2   4    0.11    0.41 
   9   2   4    0.83    0.38 
  10   2   4    5.41    1.27 
  10   2   4    1.68    0.30 
   0  -3   4    0.63    0.23 
   0   3  -4    0.62    0.24 
  -1   3   4    0.40    0.15 
  -1  -3  -4    0.67    0.21 
   1  -3   4    1.05    0.28 
   1   3  -4    0.48    0.19 
  -1  -3   4    1.03    0.27 
   1   3   4    0.57    0.24 
  -1   3  -4    0.72    0.24 
  -2  -3  -4   11.86    1.07 
   2   3  -4   12.43    1.02 
   2  -3   4   12.76    0.99 
   2   3   4   12.75    1.16 
  -2  -3   4   12.26    1.07 
   2   3   4   15.32    1.33 
  -2   3  -4   11.02    1.01 
   3  -3   4    2.03    0.46 
   3   3  -4    0.85    0.27 
   3  -3   4    0.87    0.26 
  -3  -3  -4    1.46    0.43 
   3   3   4    1.36    0.39 
  -3  -3   4    0.83    0.27 
   3   3   4    0.71    0.32 
  -3   3  -4    0.63    0.25 
  -4  -3  -4  422.84   22.87 
  -4   3   4  423.08   22.45 
   4  -3   4  427.61   22.38 
   4   3  -4  427.41   22.46 
   4  -3   4  411.02   22.70 
  -4  -3   4  418.86   22.75 
   4   3   4  424.42   22.73 
   4   3   4  451.94   23.12 
  -4  -3   4  417.65   23.01 
  -4   3  -4  400.17   22.76 
   5  -3   4    1.50    0.33 
  -5   3   4    1.90    0.46 
   5  -3   4    1.21    0.43 
   5   3  -4    1.66    0.38 
   5  -3   4    1.61    0.34 
  -5  -3  -4    1.26    0.41 
   5   3   4    3.17    0.73 
   5   3   4    1.60    0.45 
  -5  -3   4    0.76    0.33 
  -5  -3   4    1.75    0.63 
  -5   3  -4    2.02    0.63 
   6   3  -4   10.27    0.90 
   6  -3   4   11.31    0.85 
  -6   3   4   10.25    0.83 
   6  -3   4   10.67    1.18 
  -6   3   4   10.69    1.17 
   6  -3   4   11.32    0.82 
  -6  -3  -4   11.76    1.44 
   6   3   4   10.56    1.17 
   6   3   4   11.69    1.44 
  -6  -3   4    9.15    1.22 
   6   3   4   10.79    1.16 
  -6  -3   4    9.87    1.40 
  -6   3  -4    9.21    1.31 
   7   3  -4    1.13    0.32 
  -7   3   4    1.73    0.60 
   7   3  -4    1.23    0.31 
  -7   3   4    1.51    0.41 
  -7  -3  -4    0.61    0.47 
   7  -3   4    1.54    0.54 
  -7  -3   4    1.15    0.73 
   7   3   4    2.10    0.62 
  -7  -3   4    2.11    0.55 
   7   3   4    1.48    0.64 
   7   3   4    1.87    0.51 
  -8   3   4    8.85    1.15 
  -8   3   4    5.98    0.82 
   8  -3   4    5.41    0.96 
   8   3  -4    6.07    0.51 
  -8  -3   4    4.58    1.06 
   8   3   4    8.46    1.10 
   8   3   4    5.28    1.15 
   8   3   4    6.83    0.99 
   9  -3   4    2.00    0.74 
   9   3   4    2.45    0.64 
   9   3   4    2.07    1.14 
   9   3   4    3.35    0.67 
 -10   3   4    5.85    1.73 
  10  -3   4    3.37    0.97 
  10   3   4    4.19    0.82 
  10   3   4    2.93    0.95 
   0   4  -4  124.75    6.65 
   0  -4  -4  116.82    6.40 
   0  -4   4  116.11    6.57 
   0   4   4  110.70    6.46 
  -1  -4  -4   56.65    3.17 
   1   4  -4   52.69    3.25 
   1  -4   4   51.12    3.15 
  -1   4   4   50.58    2.96 
   1   4   4   51.08    3.22 
  -1   4  -4   51.88    3.21 
   1   4   4   48.69    3.25 
  -1  -4   4   55.95    3.27 
   2   4  -4  160.81    8.59 
  -2  -4  -4  153.14    8.57 
   2  -4   4  156.30    8.43 
  -2   4  -4  146.26    8.52 
  -2  -4   4  149.41    8.61 
   2   4   4  153.02    8.69 
   2   4   4  157.04    8.72 
   3  -4   4    0.87    0.26 
   3   4  -4    0.46    0.20 
  -3  -4  -4    0.66    0.30 
   3  -4   4    0.60    0.28 
  -3   4   4    0.80    0.14 
  -3   4  -4    0.17    0.16 
  -3  -4   4    0.27    0.21 
   3   4   4    0.50    0.29 
   4  -4   4    6.72    0.77 
  -4  -4  -4    4.52    0.74 
   4  -4   4    4.24    0.50 
  -4   4   4    4.64    0.50 
   4   4  -4    4.16    0.60 
  -4   4  -4    3.16    0.69 
  -4  -4   4    5.16    0.88 
   4   4   4    4.69    0.73 
  -4  -4   4    5.65    0.78 
  -5  -4  -4   23.52    2.09 
   5  -4   4   21.16    1.80 
  -5   4   4   23.81    1.72 
   5   4  -4   25.43    1.78 
   5  -4   4   21.99    1.50 
   5  -4   4   23.98    1.55 
  -5   4  -4   24.28    2.05 
  -5  -4   4   23.43    2.01 
   5   4   4   27.80    2.51 
  -5  -4   4   22.84    2.21 
   5   4   4   23.90    1.97 
   6   4  -4   70.39    4.31 
   6  -4   4   72.96    3.95 
  -6   4   4   74.58    4.55 
   6  -4   4   71.46    3.94 
   6  -4   4   67.19    4.50 
   6   4   4   72.07    4.63 
  -6  -4   4   68.53    4.77 
   6   4   4   77.32    5.13 
  -6  -4   4   71.23    5.09 
  -6   4  -4   74.35    4.94 
   6   4   4   75.01    4.69 
   7  -4   4   44.96    3.21 
   7   4  -4   45.27    2.87 
  -7   4   4   45.30    3.54 
  -7   4   4   45.09    2.77 
  -7  -4   4   44.08    3.77 
   7   4   4   49.57    3.34 
  -7   4  -4   44.09    4.84 
   7   4   4   46.74    3.27 
   7   4   4   44.90    3.60 
  -7  -4   4   43.34    3.47 
   8   4  -4   54.75    3.20 
  -8   4   4   51.43    3.87 
   8   4  -4   60.38    3.35 
   8  -4   4   48.32    3.63 
   8   4   4   50.77    3.66 
   8   4   4   53.78    3.69 
   8   4   4   46.45    3.96 
  -9   4   4   11.60    1.69 
   9  -4   4   10.48    1.37 
   9   4   4   12.96    1.42 
   9   4   4   11.86    1.71 
  10  -4   4   20.23    2.03 
 -10   4   4   19.85    2.39 
  10   4   4   15.77    2.21 
  10   4   4   22.36    1.89 
   0  -5   4    0.03    0.12 
   0   5   4    0.27    0.19 
   0  -5  -4    0.03    0.09 
   0   5   4    0.56    0.23 
   0   5  -4    0.15    0.13 
  -1   5   4   57.03    3.55 
   1   5  -4   64.38    3.77 
  -1  -5  -4   59.08    3.53 
   1  -5   4   61.33    3.57 
  -1   5   4   58.13    3.31 
   1   5   4   57.97    3.71 
   1   5   4   57.23    3.64 
  -1   5  -4   58.41    3.65 
  -2  -5  -4  400.39   21.53 
   2   5  -4  426.52   21.65 
   2  -5   4  406.82   21.40 
   2   5   4  413.39   21.81 
  -2  -5   4  391.69   21.63 
   2   5   4  389.59   21.71 
  -2   5  -4  386.51   21.53 
   3   5  -4  212.63   11.51 
   3  -5   4  216.08   11.25 
   3  -5   4  206.06   11.51 
  -3  -5  -4  203.87   11.56 
  -3  -5   4  208.31   11.64 
  -3   5  -4  196.11   11.47 
   3   5   4  210.40   11.79 
   3   5   4  208.99   11.69 
   4  -5   4    3.46    0.42 
   4  -5   4    3.89    0.59 
  -4  -5  -4    2.62    0.61 
   4   5  -4    1.71    0.45 
   4   5   4    2.58    0.58 
  -4   5  -4    2.34    0.57 
  -4  -5   4    2.72    0.63 
  -4  -5   4    2.60    0.76 
   4   5   4    1.87    0.60 
   5  -5   4  105.41    5.56 
   5  -5   4  100.64    6.00 
   5   5  -4  101.66    5.99 
  -5  -5  -4   97.95    6.32 
   5  -5   4  106.78    5.58 
  -5   5   4  106.58    5.75 
  -5   5  -4  100.64    6.22 
  -5  -5   4   98.88    6.56 
   5   5   4  101.65    6.25 
   5   5   4   96.59    6.42 
  -5  -5   4   95.04    6.25 
   6  -5   4  124.61    7.89 
   6   5  -4  133.87    7.87 
  -6   5   4  143.65    7.91 
  -6  -5   4  139.06    8.76 
  -6   5  -4  136.42    8.37 
   6   5   4  144.57    8.24 
   6   5   4  155.52    8.92 
  -6  -5   4  126.45    8.59 
   7  -5   4    0.64    0.37 
   7   5  -4    0.49    0.29 
  -7   5   4    0.51    0.31 
   7   5   4    0.28    0.58 
   7   5   4    0.88    0.40 
   7   5   4    0.07    0.30 
  -7   5  -4    1.71    0.64 
   8   5  -4    1.11    0.39 
   8  -5   4    1.68    0.63 
  -8   5   4    1.83    0.61 
   8   5   4    0.76    0.47 
  -8   5  -4    1.09    0.66 
   8   5   4    1.38    0.62 
   8   5   4    1.68    0.63 
  -9   5   4   41.33    3.34 
   9  -5   4   37.81    3.03 
   9   5  -4   39.96    2.58 
   9   5   4   42.61    3.65 
   9   5   4   42.70    3.16 
   9   5   4   37.83    3.53 
  10  -5   4   94.31    6.05 
 -10   5   4   86.49    6.51 
  10   5   4   90.53    6.67 
  10   5   4  101.05    5.99 
   0   6  -4   13.93    1.27 
   0  -6   4   11.87    1.16 
   0   6   4   12.98    1.08 
   0   6   4   12.62    1.20 
   0  -6  -4   13.64    0.99 
   1  -6   4   92.58    5.27 
  -1   6   4   84.58    5.27 
  -1  -6  -4   94.46    5.22 
   1   6  -4   92.85    5.46 
  -1   6  -4   87.41    5.37 
   1   6   4   93.26    5.39 
   1   6   4   80.94    5.38 
  -1  -6   4   96.44    5.43 
  -2  -6  -4  201.13   11.04 
   2  -6   4  205.44   10.92 
  -2   6   4  187.65   10.89 
   2   6   4  200.92   11.26 
   2   6   4  191.19   11.23 
  -2  -6   4  209.58   11.23 
  -2   6  -4  202.73   11.13 
  -3   6   4    2.22    0.41 
   3  -6   4    1.48    0.46 
   3   6  -4    2.05    0.55 
   3  -6   4    1.74    0.38 
  -3  -6  -4    2.84    0.62 
   3   6   4    1.46    0.47 
  -3  -6   4    1.91    0.62 
  -3   6  -4    1.99    0.49 
  -4   6   4    0.48    0.17 
   4  -6   4    0.60    0.31 
  -4  -6  -4    0.68    0.37 
   4  -6   4    0.49    0.20 
   4   6  -4    1.02    0.38 
   4   6   4    0.83    0.46 
  -4  -6   4    0.69    0.47 
  -4   6  -4    1.00    0.38 
   4   6   4    0.64    0.42 
  -4  -6   4    1.00    0.40 
   5   6  -4   34.07    2.55 
  -5  -6  -4   36.27    2.82 
   5  -6   4   36.17    2.05 
   5  -6   4   35.61    2.50 
   5  -6   4   36.48    2.05 
  -5   6  -4   34.41    2.65 
   5   6   4   34.41    2.75 
  -5  -6   4   33.53    2.81 
   5   6   4   33.92    2.92 
   6   6  -4  115.05    7.00 
   6  -6   4  116.93    7.26 
   6   6   4  122.72    7.35 
   6   6   4  122.29    7.68 
  -6   6  -4  118.43    7.38 
  -6  -6   4  118.13    7.49 
   7  -6   4   63.38    4.22 
   7   6  -4   63.96    4.22 
  -7   6  -4   69.60    4.86 
   7   6   4   67.70    4.69 
   7   6   4   62.72    4.88 
   7   6   4   69.06    4.60 
   8  -6   4   21.88    1.89 
   8   6  -4   17.99    1.68 
   8   6   4   20.68    2.05 
  -8   6  -4   22.63    2.31 
   9  -6   4   16.11    1.69 
   9   6  -4   19.90    1.54 
   9   6   4   17.99    1.90 
   9   6   4   14.57    2.11 
  10  -6   4   19.54    1.99 
  10   6   4   22.04    2.25 
   0   7  -4    2.05    0.56 
   0   7   4    0.24    0.16 
   1   7  -4    0.60    0.31 
   1  -7   4    0.91    0.31 
  -1  -7  -4    0.39    0.23 
  -1   7   4    0.57    0.29 
   1  -7  -4    0.91    0.19 
  -1  -7   4    0.49    0.25 
   1   7   4    0.44    0.28 
   1   7   4    0.28    0.23 
  -1   7  -4    0.56    0.27 
   2   7  -4   15.00    1.44 
  -2   7   4   16.30    1.32 
  -2  -7  -4   15.50    1.32 
   2  -7   4   13.74    1.20 
  -2   7  -4   13.78    1.36 
   2   7   4   14.95    2.03 
  -2  -7   4   12.68    1.35 
   2   7   4   14.36    1.45 
   3  -7   4    0.34    0.20 
  -3  -7  -4    0.07    0.23 
  -3   7   4    0.53    0.20 
   3   7  -4    0.10    0.19 
   3   7   4    0.56    0.39 
  -3  -7   4    0.00    0.19 
   3   7   4    0.11    0.22 
  -3   7  -4    0.70    0.29 
  -3  -7   4    0.68    0.23 
   4  -7   4  227.52   11.76 
   4   7  -4  224.05   12.34 
  -4  -7  -4  216.25   12.38 
   4  -7   4  223.02   12.11 
  -4   7   4  209.67   11.81 
   4   7   4  228.71   12.63 
   4   7   4  208.40   12.60 
  -4  -7   4  204.81   12.42 
  -4   7  -4  223.80   12.35 
  -4  -7   4  219.96   12.75 
   5  -7   4    0.06    0.22 
  -5  -7  -4    0.35    0.35 
   5   7  -4    0.07    0.27 
  -5   7   4    0.79    0.23 
   5   7   4    0.94    0.47 
  -5   7  -4    0.36    0.33 
  -5  -7   4    0.80    0.33 
   5   7   4    0.18    0.24 
   6   7  -4   18.26    1.76 
   6   7   4   19.06    1.96 
   6   7   4   19.62    2.14 
   7  -7   4    0.41    0.32 
   7   7  -4    0.12    0.33 
   7   7   4   -0.05    0.31 
  -7   7  -4    1.43    0.70 
   7   7   4    1.13    0.55 
   8  -7   4    5.26    0.87 
   8   7  -4    3.12    0.74 
   8   7   4    2.97    1.02 
   8   7   4    3.31    0.99 
  -8   7  -4    5.57    1.31 
   9  -7   4    2.64    0.71 
   9   7  -4    2.57    0.72 
  -9   7  -4    4.86    1.49 
   9   7   4    2.49    0.81 
   0  -8   4  328.19   17.68 
   0   8  -4  327.09   17.87 
   0   8   4  314.34   17.85 
   0  -8  -4  329.08   17.34 
   1  -8   4    8.30    0.89 
   1   8  -4    7.30    0.99 
  -1  -8  -4    8.18    0.83 
  -1   8   4    6.37    0.89 
  -1   8  -4    7.18    1.40 
  -1  -8   4    6.26    0.88 
   1  -8  -4    7.44    0.59 
   2  -8   4    6.28    0.81 
  -2   8   4    5.44    0.78 
   2   8  -4    5.68    0.88 
  -2  -8  -4    5.81    0.78 
  -2   8  -4    5.24    0.85 
   2   8   4    6.43    0.95 
   2   8   4    5.08    1.07 
  -2  -8   4    6.41    0.92 
   3  -8   4    4.77    0.59 
  -3   8   4    4.89    0.61 
  -3  -8  -4    3.89    0.78 
   3   8  -4    3.41    0.78 
  -3  -8   4    2.81    0.68 
  -3  -8   4    4.44    0.94 
  -3   8  -4    3.92    0.80 
   3   8   4    4.66    1.07 
   3   8   4    2.89    0.73 
   4   8  -4    4.09    0.87 
   4  -8   4    3.74    0.47 
  -4  -8  -4    3.75    0.86 
   4  -8   4    4.51    0.69 
  -4   8   4    4.56    0.61 
   4   8   4    2.46    0.72 
  -4   8  -4    6.18    0.94 
  -4  -8   4    3.53    1.44 
   4   8   4    3.86    0.97 
   5   8  -4    0.43    0.39 
  -5   8   4    0.23    0.23 
   5  -8   4   -0.13    0.18 
   5   8   4   -0.03    0.31 
  -5   8  -4   -0.03    0.28 
   5   8   4    0.13    0.35 
   6  -8   4    1.91    0.65 
  -6   8   4    1.40    0.37 
   6   8  -4    1.44    0.53 
  -6   8  -4    2.09    0.72 
   6   8   4    0.94    0.59 
   6   8   4    2.09    0.86 
   7   8  -4    0.66    0.44 
  -7   8   4    0.18    0.24 
   7  -8   4    0.68    0.28 
   7   8   4   -0.79    0.37 
   7   8   4    0.06    0.41 
  -7   8  -4    0.82    0.49 
   8  -8   4  151.87    9.00 
   8   8  -4  147.24    9.21 
   8   8   4  154.30    9.79 
  -8   8  -4  178.80   10.14 
   9  -8   4    0.26    0.29 
   9   8  -4   -0.20    0.42 
  -9   8  -4    0.96    0.95 
   9   8   4   -0.26    0.49 
   0  -9  -4    0.25    0.21 
   0   9   4   -0.46    0.20 
   0  -9   4    0.37    0.26 
   0   9  -4    0.04    0.18 
  -1   9   4    5.08    0.99 
   1   9  -4    5.11    1.03 
   1  -9   4    5.42    0.74 
   1  -9  -4    4.39    0.43 
  -1   9  -4    3.10    0.72 
  -1  -9   4    4.89    0.78 
   1   9   4    3.01    0.73 
  -2  -9  -4   46.45    3.18 
  -2   9   4   47.75    3.34 
   2   9  -4   47.21    3.47 
   2  -9   4   50.91    3.13 
  -2   9  -4   48.98    3.49 
  -2  -9   4   50.51    3.58 
  -2  -9   4   49.47    3.44 
   2   9   4   41.99    3.49 
  -3   9   4   10.67    1.18 
   3   9  -4   11.20    1.38 
   3  -9   4   12.17    1.06 
  -3  -9  -4   10.87    1.25 
   3   9   4    9.18    1.35 
  -3  -9   4   11.57    1.38 
  -3  -9   4   12.89    1.54 
  -3   9  -4   13.22    1.44 
   4  -9   4   80.55    4.74 
   4   9  -4   72.21    5.04 
  -4   9   4   79.90    4.75 
   4  -9   4   80.74    4.36 
   4   9   4   71.60    5.22 
   4   9   4   69.02    5.27 
  -4   9  -4   78.88    5.08 
  -5   9   4    6.83    0.85 
   5  -9   4    6.55    0.83 
   5   9  -4    7.59    1.37 
   5   9   4    7.66    1.60 
   5   9   4    5.31    1.18 
  -5   9  -4    7.80    1.13 
   6  -9   4   33.50    2.38 
   6   9  -4   32.12    2.77 
  -6   9   4   32.42    2.32 
  -6   9  -4   37.27    2.99 
   6   9   4   33.67    2.99 
   7   9  -4   -0.29    0.31 
   7  -9   4    0.05    0.27 
  -7   9   4    0.19    0.30 
  -7   9  -4    1.23    0.55 
   8   9  -4    0.81    1.04 
   8  -9   4    1.13    0.33 
  -8   9  -4    2.63    0.98 
   8   9   4    1.32    0.72 
   0 -10  -4    3.44    0.51 
   0  10  -4    5.24    1.10 
   0 -10   4    3.70    0.75 
   0  10   4    3.93    0.93 
   1 -10   4   78.89    4.67 
   1  10  -4   70.91    4.97 
  -1  10   4   71.82    4.96 
  -1 -10  -4   76.59    4.52 
   1  10   4   71.08    5.07 
  -1 -10   4   75.27    4.83 
   1 -10  -4   74.07    4.14 
  -1  10  -4   72.27    4.96 
  -1 -10   4   75.11    4.88 
   2  10  -4  144.50    9.20 
   2 -10   4  162.13    8.76 
  -2  10   4  148.90    9.10 
  -2 -10  -4  156.21    8.86 
  -2 -10   4  156.99    9.27 
  -2  10  -4  157.15    9.27 
  -2 -10   4  160.99    9.18 
   2  10   4  146.70    9.38 
   3  10  -4    2.09    0.65 
   3 -10   4    3.55    0.56 
  -3  10   4    3.53    0.79 
  -3 -10  -4    3.03    0.76 
   3  10   4    1.81    0.65 
  -3 -10   4    3.37    1.37 
  -3  10  -4    2.51    0.75 
  -4  10   4    0.45    0.31 
   4  10  -4    0.52    0.42 
   4 -10   4   -0.06    0.14 
   4 -10   4    0.27    0.24 
   4  10   4   -0.15    0.23 
  -4  10  -4    0.94    0.41 
   5 -10   4   28.56    2.02 
  -5  10   4   25.33    2.11 
   5  10  -4   23.55    2.37 
  -5  10  -4   26.62    2.49 
   5  10   4   27.04    2.62 
  -6  10   4  103.26    6.23 
   6  10  -4  100.59    6.73 
   6 -10   4  101.86    6.07 
  -6  10  -4  114.17    7.03 
  -7  10   4   51.54    3.45 
   7  10  -4   52.68    4.03 
  -7  10  -4   60.22    4.45 
   7  10   4   55.65    4.38 
  -8  10   4    8.08    0.81 
  -8  10  -4    7.88    1.30 
   0 -11   4   -0.41    0.30 
   0  11  -4    0.53    0.46 
   0  11   4    0.03    0.38 
   0 -11  -4   -0.04    0.18 
  -1 -11  -4   12.54    1.22 
  -1  11   4   13.15    1.64 
   1  11  -4   12.04    1.58 
   1 -11   4   12.37    1.31 
  -1  11  -4   10.68    1.49 
  -1 -11   4   13.80    1.48 
   1  11   4   15.43    1.81 
  -1 -11   4   13.78    1.51 
   1 -11  -4   12.78    0.92 
   2 -11   4  130.77    7.22 
  -2  11   4  117.43    7.66 
  -2 -11  -4  122.38    7.32 
   2  11  -4  121.35    7.80 
  -2  11  -4  126.43    7.83 
  -2 -11   4  126.30    7.73 
   2  11   4  125.01    8.01 
   3 -11   4   49.24    2.99 
   3  11  -4   45.20    3.64 
  -3  11  -4   46.06    3.61 
   3  11   4   43.71    3.76 
   4 -11   4    3.43    0.44 
   4  11  -4    4.12    1.02 
  -4  11   4    5.20    1.00 
   4 -11   4    5.23    0.68 
  -4  11  -4    3.95    1.01 
   4  11   4    4.31    1.07 
   5 -11   4   24.70    1.88 
  -5  11   4   26.01    2.19 
   5  11  -4   23.63    2.45 
  -5  11  -4   26.51    2.54 
   6  11  -4   47.44    3.96 
  -6  11   4   53.05    3.63 
   6  11   4   50.23    4.26 
  -6  11  -4   56.99    4.23 
  -7  11   4   -0.21    0.47 
   7  11  -4    0.76    0.61 
   7  11   4   -0.33    0.43 
  -7  11  -4    0.76    0.61 
   0 -12   4   96.87    5.93 
   0 -12  -4   94.19    5.46 
   0  12  -4   96.84    6.39 
   0 -12   4   94.37    5.92 
   0  12   4   90.41    6.42 
   1  12  -4   -0.03    0.38 
  -1 -12  -4   -0.10    0.30 
   1 -12   4    0.10    0.36 
  -1  12   4    1.87    0.75 
  -1 -12   4   -0.43    0.35 
   1 -12  -4    0.19    0.14 
   1  12   4    0.32    0.42 
  -1  12  -4    0.46    0.44 
   2  12  -4   15.84    1.95 
  -2  12   4   16.77    1.94 
  -2 -12  -4   16.50    1.60 
   2 -12   4   17.44    1.54 
  -2  12  -4   18.03    2.04 
   2  12   4   15.53    2.02 
  -3  12   4    1.28    0.48 
   3 -12   4    0.48    0.31 
   3  12  -4    0.56    0.55 
  -3  12  -4    1.04    0.61 
   3  12   4    0.56    0.52 
  -4  12   4    3.63    0.97 
   4 -12   4    3.21    0.67 
   4  12  -4    2.35    0.81 
  -4  12  -4    3.86    1.04 
   4  12   4    1.29    0.94 
   5  12  -4    0.57    0.57 
  -5  12  -4    1.33    0.77 
   5  12   4    1.14    0.66 
  -6  12   4   10.32    1.33 
  -6  12  -4    9.88    1.56 
   6  12   4    6.74    1.60 
   0  13   4   -0.44    0.37 
   0  13  -4   -0.48    0.39 
   0 -13   4    0.35    0.47 
   1 -13   4    0.85    0.49 
  -1 -13  -4    0.78    0.43 
   1 -13   4    0.44    0.39 
   1  13  -4    1.33    0.70 
  -1  13   4    0.64    0.59 
  -1  13  -4    0.22    0.53 
   1  13   4   -0.43    0.41 
  -1 -13   4    0.58    0.46 
  -2  13   4    1.05    0.59 
   2 -13   4    1.10    0.51 
  -2 -13  -4    1.31    0.59 
   2  13  -4    1.18    0.96 
   2 -13   4    1.24    0.52 
  -2  13  -4    0.80    0.56 
   2  13   4   -0.10    0.47 
   3 -13   4    7.15    1.04 
  -3  13   4    7.65    1.20 
   3  13  -4    5.96    1.43 
  -3  13  -4    5.53    1.32 
   3  13   4    4.51    1.39 
  -4  13   4  141.83    8.71 
   4  13  -4  137.56    8.96 
   4  13   4  130.09    9.16 
  -4  13  -4  146.41    9.03 
   5  13  -4    4.84    1.21 
  -5  13   4    8.70    1.35 
   5  13   4    2.72    1.12 
  -5  13  -4    5.71    1.43 
   0  14  -4   48.43    4.10 
   0  14   4   47.70    4.27 
  -1  14   4   -0.20    0.54 
   1 -14   4    0.44    0.57 
   1 -14   4    0.65    0.55 
  -1 -14  -4    1.44    0.41 
   1  14  -4   -0.16    0.45 
  -1  14  -4    0.30    0.59 
   1  14   4   -0.50    0.85 
  -2  14   4   17.82    2.18 
   2 -14   4   15.15    1.45 
   2  14  -4   11.36    1.91 
  -2  14  -4   20.43    3.04 
   2  14   4   15.51    2.22 
   3  14  -4    0.21    0.59 
   3 -14   4    0.61    0.39 
  -3  14   4    1.01    0.71 
  -3  14  -4    0.54    0.81 
   4  14  -4    1.37    0.81 
  -4  14   4    2.47    0.74 
   4  14   4    1.77    1.05 
   0  15   4   -0.87    0.53 
   0  15  -4   -1.11    0.47 
   1  15  -4    4.11    1.24 
  -1  15   4    6.18    1.63 
   1 -15   4    1.67    1.21 
  -1  15  -4    3.83    1.14 
   1  15   4    6.66    1.73 
   2  15  -4   52.15    4.61 
  -2  15   4   57.63    4.83 
   2  15   4   53.39    4.96 
  -2  15  -4   63.51    4.80 
   0   0  -5    0.12    0.10 
   0   0   5    0.19    0.12 
   1   0   5    8.89    0.98 
   1   0  -5    8.81    0.71 
  -1   0  -5    8.79    0.86 
  -1   0   5    8.81    0.81 
   1   0   5    8.96    0.87 
   2   0   5  390.99   20.57 
   2   0   5  412.68   20.87 
  -2   0   5  373.48   20.39 
  -2   0  -5  362.79   20.64 
   2   0  -5  380.67   20.21 
   3   0   5   46.06    2.90 
  -3   0  -5   43.32    3.06 
  -3   0  -5   46.37    3.04 
  -3   0   5   46.49    2.74 
   3   0  -5   42.88    2.44 
   4   0   5   17.99    1.67 
  -4   0   5   16.93    1.57 
  -4   0   5   16.56    1.33 
  -4   0  -5   18.38    1.64 
   4   0   5   20.46    1.49 
   5   0   5   12.65    1.35 
   5   0   5   12.46    1.16 
  -5   0   5   13.08    1.38 
   5   0   5   12.77    1.29 
  -5   0  -5   13.52    1.46 
  -5   0   5   11.23    1.09 
  -6   0   5  123.43    7.41 
  -6   0   5  112.67    6.95 
   6   0   5  121.48    6.94 
   6   0   5  119.12    7.28 
  -6   0  -5  123.02    7.53 
   6   0   5  122.20    6.88 
  -7   0   5   -0.44    0.37 
   7   0   5    0.64    0.44 
   7   0   5   -0.10    0.23 
  -7   0  -5    0.25    0.53 
  -7   0   5    0.21    0.30 
   7   0   5    0.43    0.37 
   8   0   5    1.30    0.57 
   8   0   5    0.77    0.34 
  -8   0   5   -0.10    0.48 
  -8   0   5    0.88    0.47 
   9   0   5    6.32    0.78 
  -9   0   5    5.72    1.15 
   9   0   5    4.39    1.08 
  10   0   5   85.39    5.99 
   0   1   5  282.37   15.53 
   0   1  -5  288.09   15.46 
   0  -1   5  296.79   15.54 
   1   1  -5   20.75    1.48 
   1  -1   5   21.72    1.61 
  -1   1   5   25.54    1.64 
  -1  -1   5   21.66    1.57 
   1   1   5   22.17    1.64 
   1   1   5   27.29    1.98 
  -2  -1  -5   64.78    4.00 
   2   1  -5   61.39    3.69 
   2  -1   5   77.81    4.40 
   2  -1   5   65.04    3.92 
  -2   1   5   63.93    3.81 
  -2  -1   5   61.23    3.83 
   2   1   5   64.81    3.97 
   2   1   5   73.57    4.38 
  -2   1  -5   63.12    4.05 
   3   1  -5    3.86    0.39 
   3  -1   5    4.17    0.55 
   3  -1   5    2.60    0.60 
  -3   1   5    3.70    0.44 
  -3  -1  -5    3.75    0.60 
  -3   1  -5    4.22    0.65 
   3   1   5    4.02    0.59 
   3   1   5    4.18    0.69 
  -3  -1   5    3.39    0.49 
  -4  -1  -5   -0.02    0.15 
  -4   1   5    0.27    0.15 
  -4   1   5    0.18    0.21 
   4  -1   5    0.19    0.17 
   4   1  -5    0.15    0.10 
   4  -1   5    0.03    0.13 
  -4   1  -5    0.13    0.21 
   4   1   5    0.52    0.23 
  -4  -1   5    0.86    0.54 
  -4  -1   5    0.34    0.19 
  -4   1  -5    0.20    0.20 
   4   1   5    0.27    0.31 
  -5  -1  -5    7.65    1.04 
  -5   1   5    7.70    0.97 
   5  -1   5    6.73    0.74 
   5  -1   5    6.86    0.78 
  -5   1   5    6.53    0.70 
   5  -1   5    6.86    0.95 
   5   1   5    7.33    0.87 
  -5  -1   5    6.27    0.84 
  -5   1  -5    6.56    1.03 
  -5   1  -5    6.92    1.03 
   5   1   5    7.65    1.06 
  -5  -1   5    6.77    1.00 
   5   1   5    6.95    0.83 
  -6   1   5   78.39    4.92 
   6  -1   5   72.37    4.37 
  -6  -1  -5   80.81    5.13 
   6  -1   5   76.20    4.46 
  -6   1   5   69.17    4.42 
   6  -1   5   69.76    4.78 
  -6  -1   5   75.38    5.05 
  -6   1  -5   72.85    5.07 
  -6  -1   5   70.96    4.64 
   6   1   5   71.16    4.88 
   6   1   5   79.26    4.64 
   6   1   5   74.48    4.54 
  -7   1   5    9.81    1.12 
   7  -1   5   10.68    1.01 
   7  -1   5   11.05    1.06 
   7  -1   5   10.65    1.33 
  -7  -1  -5   10.31    1.50 
  -7   1   5   13.19    1.53 
  -7  -1   5   11.10    1.31 
   7   1   5   12.23    1.22 
  -7  -1   5   13.04    1.58 
   7   1   5   11.64    1.43 
  -7   1  -5   15.93    2.09 
   7   1   5   12.30    1.15 
   8  -1   5   70.68    3.85 
   8  -1   5   68.56    3.78 
  -8   1   5   63.20    4.68 
  -8   1   5   57.77    4.12 
   8  -1   5   60.84    4.43 
   8   1   5   62.40    4.53 
   8   1   5   66.54    4.06 
  -8  -1   5   58.45    4.31 
  -8  -1   5   53.98    4.66 
   8   1   5   66.39    3.99 
   9  -1   5    4.34    0.49 
  -9   1   5    4.86    1.29 
   9  -1   5    4.20    1.03 
   9   1   5    4.32    1.17 
   9   1   5    4.71    0.79 
   9   1   5    5.53    0.76 
  -9  -1   5    5.46    1.22 
  10  -1   5   27.00    2.64 
  10   1   5   27.27    2.75 
   1   2  -5    3.67    0.45 
   1  -2   5    3.51    0.48 
   1   2   5    3.98    0.61 
  -1  -2   5    3.96    0.52 
   1   2   5    3.37    0.50 
  -1   2  -5    4.47    0.55 
   2  -2   5   22.59    1.59 
   2  -2   5   23.65    1.84 
  -2  -2  -5   21.96    1.66 
  -2   2   5   21.73    1.44 
   2   2  -5   21.34    1.48 
   2   2   5   21.52    1.65 
  -2  -2   5   21.99    1.61 
  -2   2  -5   21.88    1.67 
   2   2   5   22.60    1.82 
   3  -2   5   29.51    2.21 
  -3   2   5   27.07    1.79 
   3   2  -5   26.47    1.81 
  -3  -2  -5   27.02    2.20 
   3  -2   5   30.90    1.99 
  -3   2  -5   29.62    2.18 
   3   2   5   28.45    2.15 
   3   2   5   31.00    2.26 
   3   2   5   32.64    2.41 
  -3  -2   5   30.59    2.06 
  -4   2   5  700.62   40.70 
   4  -2   5  806.71   40.96 
   4  -2   5  758.68   41.29 
  -4   2   5  791.63   41.09 
   4   2  -5  783.10   40.78 
  -4  -2  -5  744.87   41.32 
  -4   2  -5  774.17   41.42 
   4   2   5  844.90   41.64 
   4   2   5  802.28   41.20 
  -4  -2   5  794.38   41.54 
  -4  -2   5  740.25   41.43 
   4   2   5  786.61   41.19 
   5  -2   5   12.12    1.01 
  -5   2   5    9.98    1.10 
  -5   2   5    9.78    0.86 
   5   2  -5   11.75    0.86 
  -5  -2  -5   11.88    1.32 
   5  -2   5   12.02    1.06 
   5   2   5   13.71    1.47 
  -5  -2   5   11.06    1.37 
   5   2   5   10.74    1.36 
  -5   2  -5   11.41    1.38 
  -5  -2   5   11.74    1.21 
   5   2   5   12.25    1.18 
   6  -2   5    1.96    0.41 
  -6   2   5    1.78    0.59 
   6   2  -5    1.53    0.27 
  -6   2   5    1.64    0.39 
   6  -2   5    1.09    0.42 
   6  -2   5    1.56    0.40 
  -6  -2  -5    0.75    0.43 
   6   2   5    2.41    0.83 
   6   2   5    1.42    0.48 
  -6  -2   5    1.06    0.46 
  -6   2  -5    2.69    0.80 
  -6   2  -5    1.87    0.72 
  -6  -2   5    1.28    0.63 
   6   2   5    1.99    0.55 
   7  -2   5    0.05    0.23 
   7  -2   5    0.19    0.19 
   7  -2   5    0.12    0.20 
  -7   2   5    0.22    0.27 
  -7   2   5   -0.35    0.30 
  -7  -2  -5    1.41    0.50 
  -7  -2   5    1.04    0.40 
  -7  -2   5    0.34    0.56 
   7   2   5    0.42    0.35 
   7   2   5    1.44    0.57 
   7   2   5   -0.37    0.18 
   8  -2   5   13.38    0.99 
  -8   2   5   12.48    1.24 
   8  -2   5   12.45    1.52 
  -8   2   5   12.14    1.63 
   8  -2   5   14.33    1.02 
  -8  -2   5   14.60    1.69 
   8   2   5   11.49    1.58 
  -8   2  -5   13.31    1.99 
   8   2   5   12.96    1.37 
   8   2   5   13.09    1.34 
   9  -2   5    3.16    0.93 
   9   2   5    3.19    0.74 
   9   2   5    4.03    0.83 
  10  -2   5    2.10    0.87 
  10   2   5    1.97    0.57 
  10   2   5    1.71    0.83 
  -1  -3  -5   33.07    2.11 
  -1   3   5   28.50    2.05 
   1   3  -5   32.51    2.10 
   1  -3   5   32.59    2.12 
   1   3   5   32.49    2.23 
  -1  -3   5   30.91    2.13 
  -1   3  -5   32.39    2.14 
   2   3  -5   38.15    2.37 
   2  -3   5   38.68    2.39 
  -2  -3  -5   37.43    2.48 
  -2  -3   5   34.96    2.45 
   2   3   5   37.43    2.60 
  -2   3  -5   35.86    2.46 
   3  -3   5    2.84    0.64 
  -3  -3  -5    1.68    0.44 
   3  -3   5    1.72    0.37 
   3   3  -5    1.98    0.42 
  -3   3  -5    2.00    0.51 
   3   3   5    1.89    0.59 
  -3  -3   5    1.95    0.45 
   3   3   5    2.14    0.58 
  -4   3   5    4.71    0.59 
  -4  -3  -5    3.20    0.69 
   4   3  -5    4.64    0.56 
   4  -3   5    4.08    0.55 
  -4   3  -5    6.32    0.86 
  -4  -3   5    4.98    0.74 
   4   3   5    4.17    0.69 
  -4  -3   5    3.41    0.80 
   4   3   5    4.22    0.68 
   5  -3   5   12.92    1.37 
   5  -3   5   11.70    1.03 
  -5   3   5   12.18    1.13 
   5  -3   5   11.42    0.98 
  -5  -3  -5   11.23    1.32 
   5   3  -5   12.00    0.98 
   5   3   5   13.13    1.28 
   5   3   5   11.03    1.20 
  -5  -3   5   10.84    1.41 
  -5  -3   5   10.53    1.24 
   5   3   5   13.64    1.51 
  -5   3  -5   11.35    1.35 
   6  -3   5   11.61    0.98 
   6  -3   5   11.37    0.95 
  -6   3   5   10.79    0.89 
   6   3  -5   10.80    0.92 
   6  -3   5   10.50    1.22 
  -6   3   5   12.78    1.25 
  -6  -3  -5   10.03    1.37 
  -6   3  -5   13.35    1.57 
   6   3   5   10.22    1.41 
  -6  -3   5   11.14    1.34 
   6   3   5   13.59    1.34 
  -6  -3   5   12.02    1.59 
   6   3   5   10.62    1.20 
   7  -3   5    9.80    0.83 
   7  -3   5    9.76    0.81 
  -7  -3  -5    9.39    1.40 
   7   3  -5    9.93    0.81 
   7  -3   5    9.62    1.22 
  -7   3   5    9.67    0.91 
  -7   3   5   11.15    1.29 
   7   3   5    9.64    1.36 
   7   3   5    8.82    1.16 
  -7  -3   5    8.28    1.50 
  -7  -3   5   10.45    1.51 
   7   3   5   10.12    1.21 
  -7   3  -5   11.89    1.46 
  -8   3   5  296.26   16.57 
  -8   3   5  312.43   17.26 
   8  -3   5  288.90   17.04 
   8   3   5  327.35   16.95 
   8   3   5  312.82   16.92 
   8   3   5  310.59   17.50 
  -8  -3   5  288.34   17.69 
   9  -3   5    1.65    0.64 
  -9   3   5    4.87    1.24 
   9   3   5    2.29    0.66 
   9   3   5    2.04    0.61 
   9   3   5    2.92    1.04 
  10  -3   5    2.07    0.83 
 -10   3   5    5.66    1.42 
  10   3   5    3.20    0.72 
  10   3   5    2.90    0.99 
  -1   4   5    1.75    0.36 
  -1  -4  -5    2.08    0.44 
   1  -4   5    1.44    0.35 
   1   4   5    2.03    0.46 
  -1  -4   5    1.28    0.35 
  -1   4  -5    1.21    0.33 
  -2  -4  -5   45.05    2.85 
   2  -4   5   43.46    2.74 
   2   4  -5   44.26    2.78 
  -2   4   5   42.34    2.58 
   2   4   5   46.79    3.06 
  -2  -4   5   43.89    2.89 
   2   4   5   41.30    2.94 
  -2   4  -5   41.32    2.81 
   3  -4   5   17.47    1.30 
  -3   4   5   17.33    1.11 
   3   4  -5   16.52    1.34 
   3  -4   5   16.78    1.48 
  -3  -4  -5   16.55    1.47 
  -3  -4   5   15.84    1.46 
   3   4   5   16.80    1.56 
  -3   4  -5   14.51    1.39 
   3   4   5   17.56    1.57 
   4  -4   5  238.23   12.61 
  -4   4   5  237.61   12.52 
   4   4  -5  232.09   12.70 
   4  -4   5  223.23   12.90 
  -4  -4  -5  236.92   13.09 
  -4  -4   5  232.01   13.35 
   4   4   5  229.96   13.01 
   4   4   5  231.91   13.23 
  -4  -4   5  240.09   13.06 
  -4   4  -5  228.22   13.01 
   5   4  -5   11.14    1.04 
   5  -4   5   10.82    1.21 
  -5   4   5   12.05    1.05 
   5  -4   5   12.23    0.97 
  -5  -4  -5   12.11    1.38 
   5   4   5   12.38    1.27 
  -5  -4   5   10.56    1.45 
   5   4   5   11.88    1.46 
  -5   4  -5   11.93    1.38 
   5   4   5   11.64    1.29 
  -5  -4   5    9.77    1.24 
   6  -4   5   29.52    1.90 
   6  -4   5   29.04    1.87 
  -6   4   5   31.05    2.24 
   6  -4   5   26.23    2.25 
   6   4  -5   29.25    2.04 
   6   4   5   36.54    3.14 
   6   4   5   27.75    2.35 
  -6  -4   5   30.33    3.25 
  -6  -4   5   27.73    2.48 
   6   4   5   30.36    2.38 
  -6   4  -5   30.01    2.64 
  -7   4   5    1.65    0.47 
   7  -4   5    0.50    0.34 
   7   4  -5    0.35    0.23 
  -7   4   5    0.17    0.19 
  -7  -4   5    0.68    0.42 
  -7   4  -5    0.32    0.37 
   7   4   5    0.36    0.43 
   7   4   5   -0.04    0.33 
   7   4   5    0.47    0.35 
  -7  -4   5   -0.59    0.49 
   8   4  -5    2.69    0.43 
   8  -4   5    3.50    0.85 
   8   4  -5    4.03    0.59 
  -8   4   5    2.20    0.71 
   8   4   5    2.00    0.82 
   8   4   5    1.48    0.53 
  -9   4   5    4.52    1.09 
   9  -4   5    3.98    0.94 
   9   4   5    2.13    0.71 
   9   4   5    4.81    1.27 
 -10   4   5   22.38    2.38 
  10  -4   5   25.36    3.40 
  10   4   5   22.46    2.02 
  10   4   5   18.39    2.33 
   0   5   5   16.55    1.26 
   0  -5   5   14.92    1.47 
   0   5  -5   16.96    1.39 
   0  -5  -5   14.11    1.12 
  -1   5   5   22.46    1.50 
   1  -5   5   22.88    1.69 
  -1  -5  -5   23.44    1.65 
   1   5   5   22.78    1.76 
  -1  -5   5   22.92    1.77 
   1   5   5   22.26    1.82 
  -1   5  -5   23.87    1.81 
   2  -5   5  177.91    9.62 
  -2  -5  -5  177.91    9.73 
   2   5  -5  191.95    9.87 
   2   5   5  171.10    9.90 
  -2   5  -5  166.95    9.73 
   2   5   5  161.62    9.86 
  -2  -5   5  173.01    9.83 
  -3  -5  -5    1.52    0.44 
   3  -5   5    1.41    0.38 
   3  -5   5    0.86    0.33 
   3   5  -5    0.62    0.28 
  -3  -5   5    1.37    0.46 
   3   5   5    1.25    0.43 
  -3   5  -5    1.37    0.44 
   3   5   5    1.56    0.55 
  -4  -5  -5    3.21    0.74 
   4  -5   5    2.83    0.44 
   4  -5   5    3.55    0.72 
   4   5   5    3.90    0.83 
  -4  -5   5    2.31    0.69 
  -4  -5   5    3.88    0.82 
   4   5   5    2.23    0.60 
  -4   5  -5    3.42    0.73 
  -5  -5  -5   10.28    1.27 
   5   5  -5    8.91    0.99 
  -5   5   5    9.47    0.83 
   5  -5   5    9.07    0.80 
   5  -5   5    9.27    1.09 
   5   5   5    9.35    1.16 
  -5  -5   5    8.65    1.18 
   5   5   5    8.07    1.21 
  -5  -5   5    9.20    1.39 
  -5   5  -5    9.08    1.19 
   6   5  -5  180.69   10.28 
  -6   5   5  188.27   10.27 
   6  -5   5  172.47   10.45 
   6  -5   5  194.26    9.92 
   6  -5   5  191.57    9.91 
  -6  -5   5  176.56   10.84 
  -6  -5   5  174.61   11.19 
   6   5   5  187.43   10.74 
   6   5   5  191.93   10.70 
  -6   5  -5  191.73   12.77 
   6   5   5  179.21   10.99 
   7   5  -5    6.96    0.89 
   7  -5   5    8.33    1.10 
  -7   5   5   10.07    1.10 
   7   5   5    9.43    1.43 
   7   5   5    9.03    1.23 
   7   5   5    8.76    1.22 
  -7   5  -5    8.89    1.41 
   8   5  -5    6.81    0.84 
   8  -5   5    7.54    1.10 
   8   5   5    8.53    1.24 
   8   5   5    9.45    1.47 
  -8   5  -5    7.80    1.70 
   9   5  -5    0.90    0.37 
   9  -5   5    2.11    0.74 
   9   5   5    1.63    0.63 
   9   5   5    0.88    0.72 
  10  -5   5   41.87    3.70 
  10   5   5   43.75    3.24 
  10   5   5   36.49    3.67 
   0  -6   5    0.05    0.14 
   0   6   5   -0.04    0.14 
   0   6  -5   -0.05    0.16 
   0  -6  -5    0.10    0.11 
   0   6   5    0.68    0.27 
   1   6  -5    1.82    0.46 
  -1   6   5    2.52    0.54 
   1  -6   5    2.63    0.52 
  -1  -6  -5    3.26    0.48 
  -1   6   5    3.02    0.37 
  -1  -6   5    1.93    0.48 
  -1   6  -5    2.15    0.55 
   1   6   5    2.53    0.69 
   1   6   5    3.24    0.55 
  -2   6   5  101.67    6.42 
   2  -6   5  122.39    6.49 
  -2  -6  -5  115.02    6.68 
   2   6  -5  117.32    6.72 
  -2  -6   5  117.27    6.73 
   2   6   5  109.93    6.76 
   2   6   5  110.03    6.74 
  -2   6  -5  110.11    6.62 
   3  -6   5   16.80    1.32 
   3   6  -5   16.09    1.48 
  -3  -6  -5   17.85    1.56 
   3   6   5   15.41    1.89 
  -3   6  -5   17.89    1.57 
   3   6   5   16.86    1.64 
  -3  -6   5   15.53    1.55 
  -4  -6  -5   80.37    4.94 
   4   6  -5   74.40    4.72 
   4  -6   5   74.18    4.72 
   4  -6   5   77.82    4.42 
  -4   6  -5   73.12    4.81 
   4   6   5   70.71    5.02 
  -4  -6   5   74.01    4.94 
   4   6   5   82.14    5.13 
  -4  -6   5   76.12    5.24 
   5  -6   5    8.08    1.19 
   5  -6   5    8.06    0.73 
   5   6  -5    7.24    0.96 
  -5  -6  -5    7.49    1.08 
  -5   6  -5    8.99    1.17 
  -5  -6   5    9.08    1.27 
   5   6   5    7.68    1.20 
   5   6   5    8.85    1.19 
   6  -6   5   46.62    3.28 
   6   6  -5   46.53    3.24 
  -6  -6   5   47.62    3.70 
   6   6   5   46.56    3.79 
  -6   6  -5   50.75    3.73 
   6   6   5   49.49    3.60 
   7   6  -5    0.20    0.35 
   7  -6   5   -0.13    0.19 
  -7   6  -5    0.58    0.31 
   7   6   5   -0.36    0.28 
   8   6  -5    0.97    0.42 
   8  -6   5    0.40    0.38 
   8   6   5   -0.31    0.33 
   8   6   5    0.17    0.41 
  -8   6  -5    0.65    0.62 
   9  -6   5    3.18    0.87 
   9   6  -5    2.60    0.62 
   9   6   5    2.32    0.80 
  -9   6  -5    1.97    0.92 
   9   6   5    2.78    1.05 
   0  -7   5  619.16   32.02 
   0   7   5  593.48   31.83 
   0   7   5  581.69   32.11 
   0  -7  -5  604.96   31.65 
  -1   7   5    9.17    1.05 
   1  -7   5   10.89    1.05 
  -1  -7  -5    8.75    0.89 
   1   7  -5    9.35    1.15 
  -1  -7   5    8.42    1.02 
   1   7   5    8.88    1.04 
  -1   7  -5   10.88    1.15 
   1   7   5    7.59    1.03 
   2  -7   5    6.20    0.74 
  -2  -7  -5    5.22    0.73 
  -2   7   5    6.36    0.80 
  -2   7  -5    4.40    0.76 
  -2  -7   5    5.50    0.83 
   2   7   5    6.48    0.93 
  -3   7   5    1.77    0.43 
   3   7  -5    2.58    0.67 
   3  -7   5    1.75    0.43 
  -3  -7  -5    1.32    0.46 
  -3  -7   5    0.79    0.41 
  -3   7  -5    1.59    0.48 
   3   7   5    1.84    0.60 
   3   7   5    1.08    0.43 
   4  -7   5    2.25    0.58 
  -4   7   5    1.94    0.40 
   4   7  -5    2.39    0.62 
   4  -7   5    2.09    0.43 
  -4  -7  -5    1.56    0.53 
   4   7   5    1.41    0.59 
  -4  -7   5    2.41    0.82 
   4   7   5    2.15    0.76 
  -4   7  -5    2.17    0.66 
  -5  -7  -5    3.18    0.81 
   5   7  -5    2.69    0.71 
   5  -7   5    3.80    1.30 
  -5   7   5    3.58    0.44 
   5  -7   5    3.10    0.42 
  -5   7  -5    4.21    0.92 
   5   7   5    3.93    1.07 
  -5  -7   5    3.89    0.89 
   5   7   5    2.15    0.71 
   6   7  -5    2.15    0.59 
   6  -7   5    0.96    0.42 
   6   7   5    2.08    0.82 
   6   7   5    1.14    0.60 
  -6   7  -5    2.22    0.75 
   7  -7   5    5.44    0.84 
   7   7  -5    3.68    0.81 
  -7   7  -5    6.44    1.37 
   7   7   5    4.56    1.08 
   7   7   5    3.58    1.06 
   8   7  -5  165.95    9.82 
   8  -7   5  165.18    9.92 
  -8   7  -5  204.38   11.07 
   8   7   5  161.84   10.81 
   8   7   5  168.07   10.38 
   9  -7   5    2.47    0.79 
   9   7  -5    2.41    0.65 
   9   7   5    2.78    0.92 
   9   7   5    2.07    0.90 
  -9   7  -5    2.13    0.97 
   0   8  -5    0.58    0.34 
   0  -8   5    0.08    0.20 
   0  -8  -5    0.16    0.16 
   0   8   5    1.36    0.50 
  -1  -8  -5    3.64    0.67 
   1   8  -5    2.45    0.68 
   1  -8   5    3.75    0.69 
  -1   8   5    2.80    0.67 
  -1  -8   5    3.40    0.75 
   1   8   5    2.89    0.67 
   1   8   5    4.94    0.98 
  -1   8  -5    3.01    0.73 
  -2   8   5   19.27    1.73 
  -2  -8  -5   21.31    1.71 
   2   8  -5   19.63    1.84 
   2  -8   5   20.38    1.64 
  -2  -8   5   21.40    1.88 
   2   8   5   22.01    2.02 
  -2   8  -5   19.04    1.83 
   2   8   5   21.07    1.93 
   3  -8   5   15.74    1.25 
  -3  -8  -5   14.03    1.41 
   3   8  -5   12.10    1.40 
  -3   8   5   13.40    1.24 
  -3  -8   5   15.05    1.71 
   3   8   5   12.65    1.54 
  -3   8  -5   12.79    1.43 
   3   8   5   13.28    1.57 
  -4   8   5  518.78   27.97 
   4   8  -5  524.93   28.43 
   4  -8   5  544.12   27.85 
  -4  -8  -5  521.29   28.46 
   4  -8   5  527.03   28.25 
  -4  -8   5  529.71   28.95 
   4   8   5  504.21   28.79 
   4   8   5  505.59   28.67 
  -4   8  -5  550.31   28.57 
   5   8  -5    5.76    0.93 
   5  -8   5    4.19    0.47 
  -5   8   5    4.27    0.59 
   5  -8   5    5.06    0.79 
  -5   8  -5    5.68    0.92 
   5   8   5    3.81    0.92 
   5   8   5    4.70    1.17 
   6  -8   5    2.10    0.56 
   6   8  -5    2.50    0.74 
  -6   8  -5    2.82    0.81 
   6   8   5    1.36    0.69 
   6   8   5    2.39    0.87 
   7   8  -5    0.13    0.41 
   7  -8   5    0.12    0.33 
  -7   8  -5    1.10    0.56 
   7   8   5   -1.16    0.76 
   7   8   5    0.20    0.42 
   8  -8   5    7.40    1.04 
   8   8  -5    8.60    1.20 
   8   8   5    9.14    1.87 
  -8   8  -5   10.96    2.05 
   8   8   5    6.97    1.37 
   9   8  -5    2.49    0.72 
   9  -8   5    1.94    0.67 
   9   8   5    1.23    0.80 
  -9   8  -5    2.26    1.12 
   0   9  -5  238.57   13.10 
   0   9   5  220.58   13.09 
   0  -9   5  227.05   12.81 
   0  -9  -5  230.84   12.41 
  -1  -9  -5    8.35    0.87 
   1   9  -5    7.59    1.07 
   1  -9   5    5.90    0.85 
  -1   9   5    7.47    1.04 
  -1  -9   5    5.71    0.89 
  -1   9  -5    7.11    1.06 
   1   9   5    4.71    1.02 
  -2   9   5    6.48    0.95 
  -2  -9  -5    8.46    0.97 
   2   9  -5    6.68    1.04 
   2  -9   5    7.97    0.89 
  -2   9  -5    6.72    0.96 
   2   9   5    5.66    1.00 
   2   9   5    6.31    1.31 
   3  -9   5    2.18    0.59 
  -3   9   5    1.38    0.49 
  -3  -9  -5    1.56    0.56 
   3   9  -5    1.34    0.52 
  -3   9  -5    1.22    0.48 
  -3  -9   5    0.41    0.70 
   3   9   5    1.47    0.60 
  -3  -9   5    0.68    0.50 
   3   9   5    1.95    0.70 
   4   9  -5   -0.09    0.33 
   4  -9   5    0.31    0.23 
  -4   9   5    0.68    0.28 
   4  -9   5    0.20    0.36 
  -4  -9  -5    0.15    0.37 
   4   9   5    0.61    0.44 
  -4   9  -5    1.29    0.57 
   4   9   5    0.10    0.44 
   5  -9   5    3.27    0.74 
   5   9  -5    1.60    0.61 
  -5   9   5    2.20    0.57 
   5   9   5    2.49    0.77 
   5   9   5    2.10    0.82 
  -6   9   5   12.58    1.17 
   6   9  -5   13.20    1.59 
   6  -9   5   13.82    1.35 
   6   9   5   12.04    1.85 
   6   9   5   13.65    1.78 
  -6   9  -5   16.22    1.88 
   7   9  -5    3.72    0.98 
   7  -9   5    3.70    0.79 
   7   9   5    3.58    1.13 
   7   9   5    3.55    1.02 
  -7   9  -5    7.30    1.49 
   8  -9   5   66.05    4.42 
  -8   9  -5   76.99    5.56 
   8   9   5   68.01    5.17 
   0 -10  -5    0.55    0.25 
   0 -10   5    0.39    0.35 
   0  10  -5    0.07    0.29 
   0  10   5   -0.19    0.26 
   1  10  -5    0.84    0.51 
  -1 -10  -5    1.35    0.42 
  -1  10   5    1.11    0.49 
   1 -10   5    0.91    0.38 
   1  10   5    1.31    0.61 
  -1  10  -5    0.85    0.43 
  -2  10   5  117.94    7.51 
   2 -10   5  133.27    7.23 
   2  10  -5  120.75    7.63 
  -2 -10  -5  121.11    7.24 
  -2 -10   5  121.75    8.40 
   2  10   5  115.71    7.79 
  -2  10  -5  130.96    7.70 
  -3  10   5    9.07    1.08 
  -3 -10  -5    6.52    1.01 
   3 -10   5    6.73    0.81 
   3  10  -5    4.48    0.97 
  -3  10  -5    7.05    1.17 
   3  10   5    4.12    1.05 
   4  10  -5    8.36    1.27 
  -4  10   5    8.53    1.10 
   4 -10   5    7.77    0.82 
   4 -10   5    8.22    1.06 
  -4  10  -5    9.44    1.29 
   4  10   5    7.84    1.55 
   5  10  -5    4.23    1.09 
   5 -10   5    3.20    0.76 
  -5  10   5    3.53    0.77 
  -5  10  -5    3.27    0.87 
   6  10  -5   47.26    3.79 
   6 -10   5   50.24    3.38 
  -6  10   5   48.51    3.33 
  -6  10  -5   57.00    4.20 
   6  10   5   52.90    4.18 
   7  10  -5   -0.26    0.40 
   7 -10   5    0.48    0.35 
  -7  10   5    0.09    0.36 
   7  10   5   -0.39    0.42 
  -7  10  -5   -0.28    0.38 
   8  10  -5    0.13    0.50 
   8  10   5    1.13    0.71 
  -8  10  -5    1.24    0.87 
   0  11   5   19.05    2.13 
   0 -11  -5   20.37    1.49 
   0  11  -5   19.35    2.05 
   0 -11   5   19.74    2.42 
   1  11  -5    5.65    1.14 
  -1  11   5    6.34    1.28 
   1 -11   5    7.50    0.97 
  -1 -11  -5    5.19    0.74 
  -1  11  -5    4.84    1.06 
   1  11   5    5.44    1.26 
  -1 -11   5    4.32    1.34 
  -2 -11  -5   52.72    3.57 
   2  11  -5   49.85    3.94 
  -2  11   5   50.55    3.86 
   2 -11   5   54.69    3.53 
  -2  11  -5   58.83    4.09 
   2  11   5   48.29    4.10 
   3  11  -5    0.79    0.35 
  -3 -11  -5    0.93    0.57 
   3 -11   5    0.25    0.30 
  -3  11  -5   -0.03    0.38 
   3  11   5    0.29    0.42 
  -4  11   5    1.90    0.65 
   4  11  -5    1.51    0.68 
   4 -11   5    1.43    0.55 
   4 -11   5    1.79    0.40 
  -4  11  -5    1.52    0.72 
   5 -11   5    3.44    0.79 
  -5  11   5    3.36    0.77 
  -5  11  -5    3.59    1.02 
   5  11   5    1.72    0.87 
  -6  11   5   66.71    4.32 
   6 -11   5   61.11    4.08 
   6  11  -5   64.94    4.78 
   6  11   5   70.67    5.23 
   7  11  -5    0.73    0.60 
  -7  11  -5    1.83    0.88 
   7  11   5    3.22    1.18 
   0 -12   5    0.91    0.43 
   0  12   5    0.56    0.58 
   0  12  -5    0.18    0.47 
   0 -12  -5   -0.01    0.23 
   1 -12   5    0.15    0.46 
  -1 -12  -5   -0.23    0.25 
  -1  12   5    0.32    0.34 
   1  12  -5    1.77    0.75 
  -1  12  -5   -0.28    0.26 
   2  12  -5    0.44    0.52 
  -2  12   5    1.21    0.64 
  -2 -12  -5    3.45    0.84 
   2 -12   5    1.19    0.43 
   2  12   5    1.18    0.66 
  -2  12  -5    0.42    0.46 
   3  12  -5    1.39    0.73 
   3 -12   5    2.36    0.56 
  -3  12  -5    1.98    0.78 
   3  12   5    2.61    0.95 
  -4  12   5  152.45    9.63 
   4 -12   5  179.34    9.39 
   4  12  -5  160.96    9.95 
  -4  12  -5  169.77   10.10 
   4  12   5  137.85   10.03 
  -5  12   5    2.89    0.79 
   5 -12   5    1.45    0.52 
   5  12  -5    1.24    0.73 
   5  12   5    1.95    0.89 
  -5  12  -5    1.16    0.78 
  -6  12   5    3.61    0.89 
   6  12  -5    4.26    1.17 
   6  12   5    2.36    0.99 
  -6  12  -5    2.99    1.13 
   0 -13  -5  296.90   16.36 
   0  13   5  299.01   17.81 
   0  13  -5  317.57   17.66 
  -1 -13  -5    2.46    0.66 
  -1  13   5    3.00    1.02 
   1 -13   5    2.60    0.73 
   1  13  -5    2.04    0.94 
   1 -13   5    4.48    0.86 
   1  13   5    3.84    1.11 
  -1  13  -5    1.83    0.73 
   2  13  -5   10.74    1.57 
   2 -13   5   10.92    1.22 
  -2  13   5    9.57    1.57 
  -2 -13  -5   11.32    1.41 
   2  13   5    8.37    1.73 
  -2  13  -5    9.49    1.59 
   3 -13   5   -0.07    0.31 
  -3  13   5    1.58    0.65 
   3  13  -5    0.41    0.51 
  -3  13  -5    1.77    0.71 
   3  13   5   -0.36    0.51 
   4  13  -5    2.22    0.93 
  -4  13   5    1.27    0.73 
   4  13   5    1.60    0.76 
  -4  13  -5    1.07    0.81 
  -5  13   5    1.89    0.67 
   5  13  -5    1.35    0.72 
   5  13   5    1.22    0.89 
  -5  13  -5    2.00    0.82 
   0 -14  -5    0.27    0.26 
   0  14   5    0.39    0.66 
   0  14  -5    1.72    0.81 
   1  14  -5    0.57    0.68 
  -1  14   5    0.37    0.61 
  -1 -14  -5    0.59    0.32 
   1  14   5   -1.10    0.55 
  -1  14  -5    0.05    0.55 
  -2  14   5    3.82    1.23 
   2  14  -5    1.59    0.75 
   2 -14   5    2.28    0.69 
  -2 -14  -5    2.65    1.08 
   2  14   5    1.46    0.99 
  -2  14  -5    1.98    0.75 
   3  14  -5    2.69    1.06 
  -3  14   5    4.12    1.14 
  -3  14  -5    3.20    1.09 
   3  14   5    2.18    0.97 
   4  14  -5   82.52    6.23 
  -4  14   5   82.43    6.06 
  -4  14  -5   98.09    6.55 
   4  14   5   85.46    6.64 
   0  15  -5    3.68    1.15 
   0  15   5    6.81    1.80 
  -1  15   5    2.15    0.89 
   1  15  -5    0.26    0.66 
  -1 -15  -5   -0.66    0.43 
  -1  15  -5    2.19    0.84 
   1  15   5   -0.21    0.76 
   2  15  -5   31.57    3.29 
  -2  15   5   29.34    3.46 
   2  15   5   33.00    3.72 
  -2  15  -5   35.20    3.43 
   0   0  -6   79.48    4.66 
   0   0   6   81.87    4.80 
  -1   0  -6  113.59    6.58 
   1   0  -6  114.62    6.36 
   1   0   6  115.33    6.62 
  -1   0   6  116.81    6.58 
   2   0   6  241.99   12.91 
  -2   0  -6  225.49   12.66 
   2   0  -6  223.10   12.17 
  -2   0   6  223.82   12.44 
   2   0   6  229.63   12.57 
  -3   0   6    6.39    0.70 
  -3   0  -6    6.86    0.93 
   3   0   6    6.22    0.78 
   3   0  -6    5.93    0.46 
   3   0   6    6.78    1.00 
   4   0   6    3.98    0.64 
   4   0   6    5.16    1.07 
  -4   0  -6    4.58    0.77 
  -4   0   6    4.36    0.60 
   5   0   6   38.15    2.87 
  -5   0   6   36.37    2.78 
   5   0   6   35.76    2.48 
  -5   0  -6   36.91    2.86 
  -5   0   6   32.49    2.41 
   5   0   6   35.09    2.53 
   6   0   6   81.79    5.60 
   6   0   6   92.04    5.35 
  -6   0  -6   93.70    5.92 
  -6   0   6   87.05    5.71 
   6   0   6   85.16    5.22 
  -6   0   6   86.25    5.34 
  -7   0   6   70.89    4.74 
  -7   0  -6   65.79    5.21 
   7   0   6   77.90    4.58 
  -7   0   6   79.52    5.29 
   7   0   6   72.67    5.03 
   7   0   6   80.49    4.69 
   8   0   6   51.73    3.30 
   8   0   6   52.66    3.40 
  -8   0   6   54.46    3.74 
  -8   0   6   45.87    4.01 
   8   0   6   49.97    3.89 
  -9   0   6   27.70    2.44 
   9   0   6   24.58    2.51 
   9   0   6   23.72    2.01 
   9   0   6   28.96    2.00 
  10   0   6   26.22    2.70 
   0   1   6    0.37    0.19 
   0  -1   6    0.59    0.23 
   0   1  -6    0.55    0.23 
  -1   1   6   14.02    1.21 
   1  -1   6   14.37    1.23 
   1   1  -6   13.21    1.07 
  -1  -1   6   15.77    1.24 
  -1   1  -6   12.85    1.20 
   1   1   6   14.62    1.27 
   1   1   6   16.93    1.55 
  -2   1   6   52.43    3.43 
   2   1  -6   53.27    3.27 
   2  -1   6   68.04    4.16 
   2  -1   6   55.10    3.52 
  -2   1  -6   56.45    3.63 
  -2  -1   6   56.26    3.48 
   2   1   6   59.37    3.91 
   2   1   6   56.45    3.59 
  -3  -1  -6   48.88    3.30 
  -3   1   6   45.67    3.00 
   3  -1   6   55.84    3.63 
   3  -1   6   46.85    3.13 
   3   1  -6   47.40    2.85 
  -3  -1   6   49.66    3.13 
  -3   1  -6   47.58    3.32 
   3   1   6   58.68    3.76 
   3   1   6   47.31    3.22 
  -4   1   6  198.21   11.19 
   4   1  -6  202.92   10.96 
  -4  -1  -6  214.94   11.73 
   4  -1   6  206.93   11.71 
  -4   1  -6  208.21   11.81 
   4   1   6  208.70   11.94 
   4   1   6  209.85   11.51 
  -4  -1   6  200.75   11.38 
   5  -1   6   17.18    1.44 
  -5  -1  -6   17.41    1.72 
  -5   1   6   14.83    1.25 
   5  -1   6   17.02    1.37 
  -5   1   6   17.55    1.71 
   5  -1   6   17.37    1.65 
  -5  -1   6   13.76    1.38 
   5   1   6   14.31    1.61 
   5   1   6   15.97    1.74 
  -5   1  -6   13.73    1.64 
   5   1   6   16.65    1.46 
  -5  -1   6   15.96    1.68 
  -5   1  -6   16.36    1.73 
  -6   1   6   34.75    2.50 
   6  -1   6   39.84    2.84 
  -6   1   6   36.86    2.85 
   6  -1   6   35.49    2.46 
  -6  -1  -6   35.91    3.02 
   6  -1   6   36.13    2.84 
   6   1   6   38.04    2.69 
  -6  -1   6   36.52    2.71 
   6   1   6   35.87    2.59 
  -6  -1   6   36.70    3.05 
  -6   1  -6   38.02    3.12 
   6   1   6   37.37    3.02 
   7  -1   6    0.48    0.32 
  -7  -1  -6   -0.13    0.36 
  -7   1   6    0.52    0.33 
   7  -1   6    0.41    0.40 
   7  -1   6    0.20    0.22 
  -7   1   6    0.82    0.50 
   7   1   6    0.60    0.36 
  -7  -1   6    1.43    0.54 
  -7   1  -6    1.00    0.64 
  -7  -1   6    1.97    0.57 
   7   1   6    0.18    0.30 
   7   1   6    0.52    0.39 
  -8   1   6    8.16    1.41 
   8  -1   6    7.10    1.18 
  -8   1   6    8.75    1.11 
   8  -1   6    8.78    0.96 
   8   1   6    9.48    1.11 
   8   1   6    9.59    1.38 
  -8  -1   6    8.87    1.55 
   8   1   6    8.48    1.07 
  -8  -1   6    9.73    1.31 
  -9   1   6   10.81    1.66 
  -9   1   6    9.17    1.30 
   9  -1   6    8.82    0.91 
   9  -1   6    8.07    1.35 
   9   1   6   10.23    1.15 
   9   1   6    7.52    2.24 
   9   1   6   11.80    1.16 
  10   1   6    2.98    0.60 
   0   2   6  909.32   47.90 
   1   2  -6   22.22    1.60 
  -1   2   6   24.77    1.70 
   1  -2   6   23.26    1.71 
  -1  -2   6   22.16    1.70 
  -1   2  -6   25.42    1.77 
   1   2   6   23.11    1.89 
   1   2   6   22.39    1.74 
  -2   2   6    2.11    0.42 
   2   2  -6    1.21    0.30 
  -2  -2  -6    2.41    0.54 
   2  -2   6    2.04    0.44 
   2  -2   6    1.72    0.53 
  -2  -2   6    1.52    0.39 
   2   2   6    1.87    0.53 
   2   2   6    2.03    0.52 
  -2   2  -6    1.16    0.40 
   3  -2   6    5.69    0.70 
   3   2  -6    6.71    0.62 
   3  -2   6    6.53    0.91 
  -3   2   6    5.82    0.64 
  -3  -2  -6    5.47    0.76 
   3   2   6    6.34    0.90 
  -3  -2   6    5.49    0.74 
  -3   2  -6    6.71    0.86 
   3   2   6    4.85    0.72 
   4   2  -6   19.63    1.37 
  -4   2   6   17.89    1.39 
  -4  -2  -6   19.99    1.80 
   4  -2   6   20.63    1.57 
  -4   2   6   21.66    1.68 
   4  -2   6   18.65    1.75 
   4   2   6   21.57    2.06 
  -4  -2   6   21.07    1.70 
   4   2   6   20.43    1.70 
  -4   2  -6   20.25    1.86 
   4   2   6   23.12    1.84 
  -5  -2  -6    1.03    0.41 
  -5   2   6    0.53    0.35 
   5  -2   6    0.41    0.26 
  -5   2   6    0.95    0.30 
   5   2  -6    0.44    0.18 
   5  -2   6    0.45    0.31 
  -5  -2   6    0.52    0.33 
   5   2   6    0.41    0.30 
   5   2   6    0.54    0.31 
  -5   2  -6   -0.15    0.20 
  -5  -2   6    0.25    0.32 
   5   2   6    0.44    0.27 
   6  -2   6   19.84    1.58 
   6  -2   6   20.16    1.58 
  -6  -2  -6   18.36    1.94 
   6  -2   6   18.16    1.80 
  -6   2   6   18.00    1.45 
   6   2  -6   20.43    1.20 
  -6   2   6   19.48    1.81 
   6   2   6   20.71    1.74 
  -6  -2   6   18.57    2.05 
  -6   2  -6   18.92    2.07 
   6   2   6   17.52    1.87 
  -6  -2   6   16.55    1.72 
   6   2   6   18.81    1.71 
   7  -2   6    2.31    0.78 
  -7   2   6    3.06    0.67 
   7  -2   6    1.66    0.44 
  -7  -2  -6    2.17    0.77 
   7  -2   6    2.65    0.52 
  -7   2   6    1.99    0.67 
  -7  -2   6    3.23    0.86 
   7   2   6    1.79    0.59 
   7   2   6    1.14    0.52 
   7   2   6    0.92    0.49 
  -7  -2   6    1.19    0.67 
  -8   2   6  324.01   18.82 
  -8   2   6  310.71   18.19 
   8  -2   6  296.82   18.58 
   8  -2   6  357.35   17.92 
   8  -2   6  370.22   17.98 
   8   2   6  318.85   18.90 
   8   2   6  339.64   18.41 
   8   2   6  353.39   18.37 
   9  -2   6    1.39    0.59 
  -9   2   6    0.44    0.74 
   9   2   6    2.03    0.82 
   9   2   6    1.56    0.59 
   9   2   6    1.26    0.52 
  10  -2   6    1.33    0.65 
  10   2   6    2.52    0.90 
  10   2   6    2.35    0.65 
   0   3   6    1.41    0.41 
   1   3  -6    6.89    0.73 
   1  -3   6    7.00    0.77 
  -1   3   6    6.70    0.79 
  -1   3  -6    7.82    0.83 
   1   3   6    7.59    0.91 
  -2  -3  -6   33.26    2.33 
   2  -3   6   32.39    2.24 
   2   3  -6   31.15    2.15 
  -2  -3   6   33.60    2.35 
   2   3   6   36.22    2.63 
  -2   3  -6   33.45    2.35 
  -3   3   6   30.38    1.82 
   3   3  -6   28.24    1.88 
   3  -3   6   27.32    2.23 
  -3  -3  -6   28.11    2.14 
   3  -3   6   27.24    1.95 
   3   3   6   26.66    2.09 
   3   3   6   28.77    2.24 
   3   3   6   28.48    2.28 
  -3   3  -6   26.27    2.09 
  -3  -3   6   26.78    2.08 
  -4  -3  -6  678.87   37.25 
   4  -3   6  650.78   37.18 
  -4   3   6  696.51   36.89 
  -4   3   6  664.95   36.64 
   4   3  -6  702.47   36.76 
   4  -3   6  711.66   36.86 
  -4   3  -6  697.76   37.35 
  -4  -3   6  677.61   37.15 
   4   3   6  787.65   37.49 
   4   3   6  687.67   37.13 
   4   3   6  717.61   37.53 
  -5   3   6   13.14    1.01 
   5   3  -6   14.33    1.12 
  -5  -3  -6   13.98    1.54 
   5  -3   6   14.65    1.21 
  -5   3   6   14.20    1.28 
   5  -3   6   13.04    1.42 
  -5  -3   6   15.36    1.74 
  -5  -3   6   14.05    1.48 
   5   3   6   13.25    1.38 
  -5   3  -6   16.03    1.67 
   5   3   6   14.22    1.44 
   5   3   6   16.82    1.83 
   6  -3   6    0.93    0.42 
   6  -3   6    1.11    0.35 
  -6   3   6    1.50    0.33 
  -6   3   6    0.80    0.40 
   6   3  -6    1.52    0.36 
   6  -3   6    1.04    0.35 
  -6  -3   6    1.62    0.60 
   6   3   6    1.65    0.57 
  -6  -3   6    0.68    0.60 
   6   3   6    1.27    0.49 
   6   3   6    0.56    0.43 
  -6   3  -6    0.73    0.47 
   7  -3   6    0.83    0.30 
   7   3  -6    1.09    0.26 
  -7   3   6    0.60    0.44 
  -7   3   6    1.60    0.41 
   7  -3   6    0.95    0.50 
   7  -3   6    0.60    0.29 
  -7  -3   6    0.94    0.49 
   7   3   6    0.95    0.53 
  -7   3  -6    0.88    0.62 
   7   3   6    0.94    0.45 
  -7  -3   6    1.08    0.68 
   7   3   6    0.71    0.45 
  -8   3   6   23.90    1.95 
   8  -3   6   27.77    1.72 
  -8   3   6   24.07    2.39 
   8  -3   6   27.50    1.70 
   8  -3   6   25.17    2.35 
   8   3   6   25.63    2.25 
   8   3   6   26.94    2.62 
   8   3   6   28.23    2.29 
   9  -3   6    0.37    0.51 
  -9   3   6    2.24    0.49 
  -9   3   6    1.42    0.76 
   9   3   6    1.04    0.69 
   9   3   6    0.63    0.48 
 -10   3   6   14.49    2.39 
  10  -3   6    9.74    1.33 
  10   3   6    8.29    1.82 
  10   3   6    8.14    1.34 
   0   4   6  281.99   17.11 
   0  -4   6  326.83   17.28 
   0   4  -6  344.36   17.25 
  -1   4   6   14.14    1.23 
  -1  -4  -6   14.43    1.23 
   1   4  -6   17.08    1.33 
   1  -4   6   17.37    1.42 
   1   4   6   15.36    1.39 
  -1   4  -6   15.15    1.32 
  -1  -4   6   15.14    1.34 
  -2   4   6   50.17    3.20 
   2   4  -6   51.90    3.25 
   2  -4   6   54.46    3.31 
  -2  -4  -6   53.46    3.36 
  -2   4  -6   50.30    3.35 
   2   4   6   54.30    3.58 
  -2  -4   6   51.67    3.41 
   3   4  -6    0.50    0.26 
   3  -4   6    0.13    0.17 
  -3  -4  -6    0.54    0.32 
   3  -4   6    0.62    0.33 
  -3   4  -6    0.14    0.17 
   3   4   6    0.04    0.25 
  -3  -4   6    0.24    0.25 
   3   4   6    2.14    0.61 
  -4   4   6    7.86    0.72 
   4   4  -6    7.43    0.80 
   4  -4   6    6.19    0.91 
  -4  -4  -6    7.21    0.99 
   4  -4   6    6.41    0.76 
   4   4   6    7.27    0.94 
   4   4   6    6.63    1.02 
  -4   4  -6    7.12    0.98 
  -4  -4   6    6.42    0.95 
   4   4   6    7.84    1.03 
  -5  -4  -6   11.27    1.35 
   5  -4   6   10.93    1.00 
  -5   4   6   11.15    1.02 
   5   4  -6   10.80    1.01 
   5  -4   6   10.38    1.22 
   5   4   6   11.06    1.26 
  -5   4  -6   11.33    1.40 
   5   4   6   10.55    1.24 
  -5  -4   6   10.54    1.48 
   5   4   6   10.76    1.39 
  -5  -4   6   10.60    1.33 
   6  -4   6    9.50    0.92 
   6  -4   6    9.62    0.95 
   6   4  -6   11.33    1.00 
   6  -4   6   10.18    1.22 
  -6   4   6   11.55    1.11 
   6   4   6   11.24    1.29 
   6   4   6   10.90    1.64 
  -6  -4   6   10.46    1.37 
  -6   4  -6    9.58    1.42 
   6   4   6   10.02    1.28 
  -6  -4   6    8.65    1.51 
   7  -4   6   11.40    1.40 
   7  -4   6   15.39    1.08 
  -7   4   6   13.47    1.69 
   7   4  -6   12.86    1.09 
  -7   4   6   12.94    1.01 
   7  -4   6   13.85    1.06 
   7   4   6   12.34    1.47 
   7   4   6   11.72    1.46 
  -7  -4   6   13.21    1.71 
  -7   4  -6   12.84    1.80 
   7   4   6   13.68    1.71 
   8  -4   6  136.95    8.52 
  -8   4   6  142.08    8.53 
   8   4  -6  144.07    7.78 
  -8   4   6  133.63    7.87 
   8   4  -6  147.75    7.71 
   8   4   6  146.61    8.58 
   8   4   6  143.16    9.06 
   8   4   6  137.34    8.49 
   9  -4   6    1.63    0.72 
  -9   4   6    4.21    1.05 
   9   4   6    2.22    0.86 
   9   4   6    1.34    0.65 
  10  -4   6   10.69    1.41 
  10   4   6    9.55    1.66 
  10   4   6   10.84    1.43 
   0  -5   6    0.16    0.17 
   0   5   6   -0.02    0.11 
   0   5  -6   -0.05    0.12 
   1  -5   6   20.53    1.62 
  -1   5   6   19.63    1.48 
  -1  -5  -6   20.32    1.55 
   1   5  -6   21.20    1.65 
  -1   5  -6   22.79    1.75 
   1   5   6   20.43    1.71 
  -1  -5   6   20.59    1.68 
   1   5   6   18.78    1.73 
  -2  -5  -6  136.23    8.01 
   2   5  -6  142.36    7.96 
  -2   5   6  138.28    7.61 
   2  -5   6  154.12    7.98 
  -2   5  -6  139.75    8.03 
  -2  -5   6  137.65    8.07 
   2   5   6  134.62    8.19 
   2   5   6  134.50    8.15 
  -3   5   6   90.44    4.99 
   3  -5   6   94.99    5.35 
  -3  -5  -6   92.86    5.56 
   3  -5   6   92.48    5.70 
   3   5  -6   94.59    5.42 
  -3   5   6   93.04    4.92 
  -3   5  -6   89.01    5.54 
   3   5   6   86.45    5.66 
   3   5   6   86.56    5.75 
  -3  -5   6   89.20    5.62 
   4  -5   6   42.32    2.97 
   4   5  -6   40.80    2.74 
  -4   5   6   40.80    2.34 
   4  -5   6   42.70    2.66 
  -4  -5  -6   39.47    2.95 
   4   5   6   38.27    3.02 
  -4  -5   6   38.46    3.00 
   4   5   6   41.92    3.20 
  -4   5  -6   39.26    2.97 
  -5   5   6   51.39    3.04 
  -5  -5  -6   49.50    3.67 
   5  -5   6   52.09    3.15 
   5  -5   6   48.74    3.49 
   5   5  -6   48.87    3.27 
  -5   5  -6   52.84    3.79 
   5   5   6   51.44    3.68 
  -5  -5   6   51.51    4.02 
  -5  -5   6   50.64    3.69 
   5   5   6   51.40    3.91 
  -6   5   6   75.75    4.47 
   6  -5   6   75.00    4.28 
   6  -5   6   77.93    4.34 
   6   5  -6   74.01    4.49 
   6  -5   6   66.65    4.71 
  -6  -5   6   64.47    4.96 
   6   5   6   74.03    4.90 
   6   5   6   74.52    4.97 
   6   5   6   79.44    5.44 
  -6   5  -6   81.68    5.34 
  -6  -5   6   69.01    5.36 
   7   5  -6    0.48    0.32 
   7  -5   6    0.37    0.19 
   7  -5   6    0.76    0.41 
  -7   5   6    1.14    0.49 
   7  -5   6    0.47    0.19 
  -7   5  -6    2.07    0.56 
   7   5   6    0.77    0.47 
   7   5   6    0.97    0.57 
   8  -5   6    1.97    0.67 
  -8   5   6    2.53    0.77 
   8   5  -6    2.11    0.50 
  -8   5  -6    1.64    0.89 
   8   5   6    1.62    0.93 
   8   5   6    2.13    0.70 
  -9   5   6   17.97    1.81 
   9  -5   6   16.72    1.88 
   9   5   6   15.42    2.14 
   9   5   6   20.23    1.99 
   0  -6   6  124.78    6.94 
   0   6   6  105.38    6.96 
   0   6   6  116.89    6.80 
   0   6  -6  127.13    7.01 
   1  -6   6   32.82    2.31 
   1   6  -6   35.06    3.05 
  -1  -6  -6   30.24    2.18 
  -1   6   6   31.94    2.08 
  -1  -6   6   30.82    2.37 
   1   6   6   30.82    2.47 
   1   6   6   33.35    2.41 
  -1   6  -6   34.28    2.42 
  -2  -6  -6   86.48    5.36 
   2   6  -6   87.38    5.43 
   2  -6   6   91.71    5.33 
  -2   6  -6   97.57    5.55 
  -2  -6   6   91.67    5.57 
   2   6   6   82.61    5.57 
   2   6   6   93.68    6.31 
   3  -6   6    0.62    0.27 
   3   6  -6    0.60    0.32 
  -3  -6  -6    1.12    0.43 
  -3   6  -6    0.57    0.34 
   3   6   6    2.35    0.72 
  -3  -6   6    0.50    0.36 
   3   6   6    0.47    0.44 
  -4  -6  -6    5.28    0.85 
   4   6  -6    3.46    0.72 
   4  -6   6    4.35    0.60 
  -4  -6   6    4.82    1.03 
   4   6   6    4.10    0.95 
  -4   6  -6    4.37    1.14 
  -4  -6   6    3.32    0.75 
   4   6   6    4.53    1.04 
   5  -6   6   13.93    1.48 
   5  -6   6   15.97    1.23 
  -5  -6  -6   14.81    1.71 
   5   6  -6   14.74    1.41 
  -5  -6   6   15.53    1.68 
  -5   6  -6   15.91    1.67 
   5   6   6   14.32    1.62 
   5   6   6   13.06    1.66 
   6   6  -6   29.60    2.28 
   6  -6   6   31.26    1.96 
   6  -6   6   34.21    2.01 
   6  -6   6   25.58    2.33 
  -6   6  -6   30.58    2.79 
   6   6   6   34.59    2.77 
   6   6   6   27.55    2.77 
   7  -6   6   26.52    2.24 
   7   6  -6   24.27    1.99 
   7   6   6   27.60    2.74 
   7   6   6   26.63    2.46 
   8   6  -6   75.43    4.57 
   8  -6   6   75.97    4.98 
   8   6   6   65.79    5.04 
  -8   6  -6   86.09    5.90 
   8   6   6   70.83    5.53 
   9   6  -6    4.96    0.72 
  -9   6  -6    6.99    1.66 
   9   6   6    7.02    1.36 
   0  -7   6    0.30    0.23 
   0   7   6    0.79    0.34 
   0  -7  -6    0.55    0.23 
   0   7  -6    0.07    0.21 
   0   7   6    2.19    0.65 
  -1   7   6    0.70    0.24 
   1  -7   6    0.54    0.29 
  -1   7   6    0.24    0.26 
   1   7  -6    0.53    0.34 
  -1  -7  -6    0.26    0.19 
   1   7   6    0.69    0.33 
  -1  -7   6    0.82    0.34 
   1   7   6    1.69    0.60 
  -1   7  -6    0.24    0.24 
   2  -7   6    2.31    0.52 
  -2   7   6    3.09    0.65 
   2   7  -6    2.47    0.58 
  -2  -7  -6    3.49    0.60 
   2   7   6    4.05    0.87 
  -2  -7   6    3.10    0.68 
  -2   7  -6    4.35    0.88 
   2   7   6    2.89    0.76 
  -3   7   6    3.37    0.54 
  -3  -7  -6    2.64    0.67 
   3   7  -6    3.36    0.76 
   3  -7   6    3.03    0.59 
  -3   7  -6    3.23    0.74 
  -3  -7   6    2.79    0.77 
   3   7   6    2.67    0.78 
   3   7   6    3.16    0.85 
  -4   7   6  336.53   19.14 
   4  -7   6  364.21   19.66 
   4   7  -6  359.70   19.57 
  -4  -7  -6  356.07   19.72 
   4  -7   6  375.05   19.23 
   4   7   6  349.69   19.92 
   4   7   6  348.14   20.03 
  -4   7  -6  371.08   19.80 
   5  -7   6    3.13    0.52 
   5   7  -6    3.39    0.77 
   5  -7   6    3.08    0.71 
  -5   7   6    4.33    0.47 
   5   7   6    5.11    1.23 
  -5   7  -6    3.12    0.86 
   5   7   6    3.30    0.91 
  -5  -7   6    5.41    1.36 
   6  -7   6    2.43    0.36 
   6   7  -6    1.59    0.56 
   6  -7   6    1.95    0.62 
   6  -7   6    2.42    0.36 
   6   7   6    2.38    0.82 
   6   7   6    2.59    0.77 
   7   7  -6    0.93    0.43 
   7  -7   6    0.81    0.46 
   7   7   6    2.17    0.84 
  -7   7  -6    2.42    0.83 
   7   7   6    1.21    0.64 
   8   7  -6   14.46    1.41 
   8  -7   6   13.25    1.55 
   8   7   6   12.17    1.94 
   8   7   6   11.41    2.53 
  -8   7  -6   18.02    2.20 
   9   7  -6    0.64    0.44 
   9   7   6    0.86    0.79 
   9   7   6    0.47    0.53 
  -9   7  -6   -0.23    0.70 
   0   8   6  553.12   29.88 
   0   8  -6  574.42   30.23 
   0  -8  -6  560.33   29.67 
   0  -8   6  575.32   30.11 
   0   8   6  539.92   30.30 
  -1   8   6   31.40    2.55 
   1   8  -6   33.22    2.59 
  -1  -8  -6   34.15    2.59 
   1  -8   6   34.71    2.46 
  -1  -8   6   32.23    2.53 
   1   8   6   28.53    2.59 
  -1   8  -6   33.59    2.60 
   1   8   6   32.82    2.52 
   2   8  -6    2.84    0.74 
  -2  -8  -6    2.84    0.63 
  -2   8   6    3.42    0.77 
   2  -8   6    3.93    0.73 
  -2   8  -6    2.87    0.75 
   2   8   6    3.26    0.89 
   2   8   6    2.06    0.65 
  -2  -8   6    3.22    0.80 
   3   8  -6    3.31    0.74 
  -3   8   6    5.46    0.62 
   3  -8   6    4.10    0.74 
  -3  -8  -6    4.62    0.94 
   3   8   6    2.85    0.83 
   3   8   6    3.42    0.94 
  -3   8  -6    3.61    0.89 
  -4  -8  -6   15.64    1.61 
   4  -8   6   14.06    1.51 
   4   8  -6   16.29    1.63 
  -4   8   6   14.23    1.30 
   4  -8   6   15.83    1.29 
   4   8   6   12.38    1.64 
  -4   8  -6   14.85    1.64 
   4   8   6   15.67    1.84 
   5   8  -6    3.23    0.81 
  -5   8   6    3.44    0.53 
   5  -8   6    2.98    0.50 
   5  -8   6    3.53    0.79 
   5   8   6    2.88    0.91 
   5   8   6    3.92    1.06 
  -5   8  -6    3.20    0.84 
   6  -8   6   16.83    1.62 
   6   8  -6   14.53    1.61 
   6   8   6   14.97    1.88 
   6   8   6   17.85    2.17 
  -6   8  -6   19.35    2.01 
   7   8  -6    4.74    0.95 
   7  -8   6    6.08    0.92 
   7   8   6    5.78    1.48 
   7   8   6    3.55    0.95 
  -7   8  -6    8.25    1.69 
   8   8  -6  235.43   13.72 
   8  -8   6  242.55   13.82 
  -8   8  -6  281.58   15.12 
   8   8   6  242.01   14.38 
   8   8   6  226.03   14.83 
   0  -9   6   -0.03    0.21 
   0   9   6    0.46    0.32 
   0  -9  -6   -0.05    0.17 
   0   9  -6   -0.05    0.26 
  -1   9   6    1.25    0.52 
   1  -9   6    0.64    0.38 
  -1  -9  -6    1.10    0.33 
   1   9  -6    1.93    0.66 
  -1   9  -6    0.54    0.37 
   1   9   6    0.11    0.31 
   1   9   6    0.93    0.39 
   2   9  -6    8.51    1.18 
  -2  -9  -6    8.89    1.05 
  -2   9   6    8.42    1.08 
   2  -9   6   10.52    1.10 
  -2  -9   6    8.76    1.21 
   2   9   6    8.42    1.30 
   2   9   6   11.02    1.37 
  -2   9  -6    8.27    1.23 
  -3   9   6    2.83    0.63 
  -3  -9  -6    1.15    0.50 
   3  -9   6    1.96    0.53 
   3   9  -6    2.40    0.74 
  -3   9  -6    2.42    0.78 
   3   9   6    2.41    0.82 
   3   9   6    2.48    0.82 
  -4  -9  -6  143.98    8.90 
   4   9  -6  149.21    8.95 
   4  -9   6  152.02    8.84 
   4  -9   6  156.43    8.46 
  -4   9   6  146.55    8.59 
   4   9   6  141.56    9.32 
   4   9   6  151.94    9.32 
  -4   9  -6  151.19    9.10 
   5  -9   6    0.26    0.21 
   5  -9   6    0.29    0.30 
  -5   9   6    0.75    0.34 
   5   9  -6   -0.15    0.30 
   5   9   6    0.86    0.44 
  -5   9  -6   -0.23    0.37 
   5   9   6    0.16    0.30 
  -6   9   6   12.19    1.07 
   6   9  -6    9.59    1.34 
   6  -9   6   10.12    1.24 
   6   9   6   10.32    1.57 
  -6   9  -6   14.54    1.82 
   6   9   6    9.54    1.72 
   7   9  -6   -0.29    0.36 
   7  -9   6    0.63    0.44 
   7   9   6    1.22    0.74 
   7   9   6    0.15    0.56 
  -7   9  -6    0.75    0.66 
   8   9  -6    6.03    1.57 
   8  -9   6    5.77    1.03 
   8   9   6    7.14    1.86 
   8   9   6    5.67    1.29 
  -8   9  -6    9.78    2.03 
   0  10  -6   14.63    1.71 
   0 -10  -6   18.23    1.33 
   0 -10   6   15.31    1.58 
   0  10   6   15.56    1.82 
   1 -10   6   36.55    2.68 
   1  10  -6   37.54    2.97 
  -1  10   6   34.02    2.89 
  -1 -10  -6   34.53    2.47 
  -1 -10   6   35.32    2.80 
   1  10   6   33.15    3.04 
  -1  10  -6   38.11    2.99 
  -2  10   6   87.91    5.90 
   2  10  -6   92.04    5.99 
   2 -10   6   93.19    5.58 
  -2 -10  -6   86.61    5.53 
   2  10   6   89.00    6.22 
  -2  10  -6   99.77    6.09 
   3  10  -6    1.88    0.64 
  -3 -10  -6    2.73    0.66 
  -3  10   6    1.10    0.45 
   3 -10   6    1.67    0.49 
  -3  10  -6    1.12    0.57 
   3  10   6    1.77    0.79 
   3  10   6    1.51    0.67 
   4  10  -6    0.99    0.54 
  -4  10   6    1.48    0.55 
   4 -10   6    1.23    0.42 
   4 -10   6    0.73    0.42 
   4  10   6    1.14    0.65 
  -4  10  -6    0.48    0.49 
   4  10   6    0.56    0.55 
  -5  10   6   15.67    1.49 
   5  10  -6   16.75    1.81 
   5 -10   6   14.29    1.50 
   5  10   6   12.73    1.87 
  -5  10  -6   18.20    1.98 
   5  10   6   11.34    1.90 
   6 -10   6   46.36    3.31 
  -6  10   6   43.16    3.09 
   6  10  -6   47.83    3.76 
   6  10   6   46.01    3.96 
   6  10   6   42.69    4.85 
  -6  10  -6   58.86    4.23 
   7  10  -6   29.79    2.64 
   7 -10   6   29.04    2.34 
  -7  10   6   26.42    1.98 
   7  10   6   28.26    2.93 
  -7  10  -6   38.81    3.35 
   0 -11  -6   -0.02    0.21 
   0  11   6    0.13    0.36 
   0  11  -6   -0.16    0.26 
   0 -11   6   -0.17    0.32 
  -1 -11  -6    3.99    0.77 
  -1  11   6    6.06    0.96 
   1  11  -6    4.33    1.05 
   1 -11   6    4.45    0.88 
  -1  11  -6    4.43    1.12 
   1  11   6    5.35    1.31 
   2 -11   6   45.75    3.26 
   2  11  -6   43.97    3.64 
  -2 -11  -6   46.97    3.28 
  -2  11   6   47.48    3.68 
  -2  11  -6   51.67    3.82 
   2  11   6   48.44    3.97 
  -3  11   6   21.83    2.30 
   3 -11   6   21.12    1.75 
  -3 -11  -6   18.63    1.87 
   3  11  -6   18.20    2.07 
  -3  11  -6   22.00    2.25 
   3  11   6   20.91    2.38 
   4 -11   6   26.80    1.94 
  -4  11   6   23.22    2.26 
   4 -11   6   28.92    2.37 
   4  11  -6   25.89    2.53 
  -4  11  -6   27.53    2.69 
   4  11   6   28.25    2.88 
   5  11  -6   13.18    1.71 
   5 -11   6   12.80    1.40 
  -5  11   6   10.23    1.41 
   5  11   6   14.05    1.98 
  -5  11  -6   15.08    1.91 
  -6  11   6   30.92    2.42 
   6  11  -6   26.87    2.68 
   6 -11   6   31.39    2.38 
  -6  11  -6   31.89    3.14 
   6  11   6   29.34    3.08 
   7  11  -6    0.24    0.55 
   7  11   6   -0.27    0.50 
  -7  11  -6    0.48    0.83 
   0 -12  -6  152.91    8.54 
   0  12  -6  160.30    9.61 
   0  12   6  148.31    9.76 
  -1 -12  -6    0.86    0.39 
  -1  12   6    1.15    0.62 
   1 -12   6    0.61    0.49 
   1  12  -6    1.26    0.68 
  -1  12  -6    0.52    0.57 
   1  12   6    1.52    0.82 
   2 -12   6    3.80    0.84 
   2  12  -6    5.12    1.18 
  -2  12   6    5.11    1.26 
  -2 -12  -6    7.01    0.92 
  -2  12  -6    6.33    1.40 
   2  12   6    6.94    1.62 
  -3  12   6    3.06    0.83 
   3 -12   6    0.10    0.46 
   3  12  -6    0.88    0.62 
  -3  12  -6    1.00    0.57 
   3  12   6    0.73    0.62 
   4 -12   6    2.81    0.84 
  -4  12   6    3.56    0.90 
   4  12  -6    3.65    1.10 
  -4  12  -6    3.77    1.14 
   4  12   6    1.74    0.98 
  -5  12   6    0.11    0.46 
   5  12  -6    0.00    0.45 
  -5  12  -6   -0.35    0.56 
   5  12   6   -0.26    0.52 
  -6  12   6    1.15    0.58 
   6  12  -6    0.31    0.46 
   6 -12   6    0.47    0.36 
  -6  12  -6    1.05    0.75 
   6  12   6    1.16    0.73 
   0  13   6    0.64    0.66 
   0  13  -6    0.41    0.97 
  -1 -13  -6    3.84    0.74 
  -1  13   6    3.77    1.23 
   1  13  -6    2.66    0.97 
   1  13   6    3.06    1.14 
  -1  13  -6    2.61    0.96 
   2 -13   6    7.30    1.10 
   2  13  -6    6.37    1.50 
  -2  13   6    9.77    1.25 
  -2  13  -6    5.75    1.36 
   3  13  -6   11.56    1.76 
  -3  13   6   11.55    1.74 
   3  13   6   12.84    2.08 
  -3  13  -6   14.27    1.94 
   4 -13   6  208.65   11.15 
  -4  13   6  176.95   11.39 
   4  13  -6  172.98   11.55 
   4  13   6  179.91   12.08 
  -4  13  -6  218.65   12.80 
   5  13  -6    9.28    1.81 
  -5  13   6    8.26    1.51 
   5  13   6    4.51    1.39 
  -5  13  -6    8.74    1.77 
   0  14  -6   84.16    6.04 
   0  14   6   81.06    6.36 
  -1  14   6    0.23    0.78 
   1  14  -6    1.04    0.80 
  -1 -14  -6    1.32    0.30 
  -1  14  -6    0.87    0.65 
   1  14   6    1.02    0.79 
   2  14  -6    5.11    1.31 
  -2  14   6    7.80    1.62 
   2 -14   6    8.92    1.14 
   2  14   6    5.45    1.66 
  -2  14  -6    7.43    1.55 
  -3  14   6    0.56    0.70 
   3 -14   6    0.39    0.37 
   3  14  -6   -0.21    0.64 
   3 -14   6    1.26    0.51 
  -3  14  -6    0.81    0.66 
   3  14   6    0.72    0.80 
  -4  14   6    3.74    0.89 
   4  14  -6    3.72    1.23 
   4  14   6    1.68    1.06 
  -4  14  -6    3.51    1.15 
   0  15   6    0.07    0.82 
   0  15  -6    0.27    0.55 
   1  15  -6    2.88    1.15 
  -1  15   6    2.43    1.11 
   1  15   6    3.59    1.45 
  -1  15  -6    3.11    1.16 
   0   0  -7    0.18    0.14 
   0   0   7   -0.06    0.11 
   1   0   7   93.81    5.62 
  -1   0   7   95.10    5.59 
  -1   0  -7  100.40    5.66 
   1   0  -7   87.68    5.29 
   2   0   7  187.32   10.62 
  -2   0  -7  193.62   10.36 
   2   0   7  180.52   10.20 
   2   0  -7  170.49    9.77 
  -2   0   7  178.02   10.12 
   3   0   7  473.13   25.13 
  -3   0  -7  476.78   25.39 
   3   0  -7  430.68   24.55 
  -3   0   7  442.30   24.97 
   3   0   7  520.05   25.72 
  -4   0   7   59.00    3.84 
   4   0   7   65.07    3.99 
   4   0   7   61.69    4.30 
  -5   0   7  248.87   13.98 
   5   0   7  250.45   14.03 
   5   0   7  250.13   13.67 
  -5   0   7  230.61   13.50 
  -5   0  -7  247.49   14.07 
   5   0   7  245.82   13.56 
  -6   0   7   81.35    5.48 
   6   0   7   79.89    5.39 
   6   0   7   82.17    5.00 
  -6   0  -7   85.97    5.69 
   6   0   7   85.18    5.13 
  -6   0   7   75.58    5.04 
  -7   0   7    5.30    0.89 
   7   0   7    5.51    0.83 
  -7   0   7    4.38    1.16 
  -7   0  -7    3.73    0.98 
   7   0   7    5.72    1.27 
   7   0   7    7.09    0.86 
  -8   0   7    1.83    0.56 
  -8   0   7   -1.15    0.54 
   8   0   7    0.42    0.39 
   8   0   7   -0.33    0.26 
   8   0   7   -0.33    0.30 
   9   0   7   41.33    2.93 
   9   0   7   45.60    3.05 
   9   0   7   40.95    3.58 
  -9   0   7   47.17    3.46 
   0  -1   7  125.17    7.04 
   0   1  -7  121.60    6.91 
   0   1   7  116.90    7.02 
   1  -1   7  227.15   12.50 
   1   1  -7  209.96   12.22 
  -1   1   7  233.12   12.51 
   1   1   7  243.94   12.61 
  -1  -1   7  230.41   12.49 
   1   1   7  227.69   12.77 
  -1   1  -7  212.33   12.43 
  -2   1   7  111.94    6.29 
   2   1  -7  104.48    6.00 
   2  -1   7  108.42    6.42 
   2   1   7  107.75    6.66 
   2   1   7  105.72    6.37 
  -2   1  -7  106.58    6.36 
  -2  -1   7  108.64    6.27 
  -3   1   7   26.11    2.00 
   3  -1   7   34.81    2.71 
   3  -1   7   28.28    2.11 
   3   1  -7   26.56    1.79 
   3   1   7   35.54    2.62 
  -3  -1   7   27.52    2.09 
  -3   1  -7   27.77    2.26 
   3   1   7   25.95    2.13 
   4  -1   7    0.56    0.34 
  -4   1   7    1.72    0.44 
   4   1  -7    0.24    0.13 
   4  -1   7   -0.06    0.16 
  -4  -1  -7   -0.03    0.24 
  -4  -1   7    0.10    0.17 
  -4   1  -7    1.15    0.43 
   4   1   7    0.48    0.27 
   4   1   7    0.38    0.35 
  -5   1   7   23.62    1.94 
  -5  -1  -7   30.60    2.49 
   5  -1   7   26.77    2.05 
   5  -1   7   29.64    2.40 
  -5   1   7   27.90    2.31 
   5   1   7   27.00    2.14 
  -5   1  -7   27.10    2.50 
  -5  -1   7   29.07    2.51 
   5   1   7   29.50    2.26 
  -5  -1   7   26.51    2.13 
  -6   1   7   93.86    5.92 
   6  -1   7   88.41    5.86 
   6  -1   7   95.42    5.46 
  -6   1   7   82.04    5.41 
   6  -1   7   96.75    5.58 
  -6  -1  -7   75.93    6.46 
   6   1   7   90.93    6.03 
  -6  -1   7   93.45    6.13 
  -6  -1   7   88.86    5.69 
   6   1   7   98.67    5.73 
   6   1   7   95.01    5.59 
   7  -1   7   52.21    4.03 
  -7   1   7   53.83    3.71 
   7  -1   7   58.68    3.70 
   7  -1   7   58.82    3.61 
  -7   1   7   57.67    4.18 
   7   1   7   53.42    4.10 
   7   1   7   58.21    3.85 
  -7  -1   7   55.29    4.68 
  -7  -1   7   53.85    3.91 
   7   1   7   56.59    3.71 
   8  -1   7   52.05    3.27 
  -8   1   7   51.81    4.68 
  -8   1   7   47.92    3.51 
   8  -1   7   51.29    3.35 
   8  -1   7   46.10    3.79 
  -8  -1   7   48.46    3.82 
  -8  -1   7   47.31    4.42 
   8   1   7   50.71    3.98 
   8   1   7   52.35    3.53 
   8   1   7   51.50    3.43 
   9  -1   7   16.21    1.40 
   9   1   7   15.84    1.58 
   9   1   7   19.62    1.61 
   9   1   7   13.06    1.85 
  10  -1   7   20.09    2.34 
  10   1   7   20.49    2.44 
  10   1   7   22.57    1.84 
   0  -2   7   -0.12    0.09 
   0   2  -7    0.17    0.14 
   0   2   7   -0.04    0.16 
  -1   2   7    3.51    0.55 
   1  -2   7    2.35    0.75 
   1   2  -7    3.07    0.47 
  -1   2  -7    2.77    0.61 
   1   2   7    2.60    0.80 
  -1  -2   7    4.34    0.80 
   1   2   7    3.20    0.73 
  -2   2   7   52.83    3.36 
   2   2  -7   49.88    3.16 
   2  -2   7   55.62    3.43 
  -2   2  -7   51.15    3.48 
   2   2   7   51.52    3.45 
  -2  -2   7   55.67    3.49 
   2   2   7   53.28    3.71 
   3  -2   7    3.56    0.80 
   3  -2   7    4.61    0.67 
   3   2  -7    3.73    0.49 
  -3   2   7    3.89    0.59 
  -3  -2  -7    2.57    0.65 
   3   2   7    6.39    1.00 
   3   2   7    4.09    0.68 
  -3   2  -7    4.92    0.79 
  -3  -2   7    3.79    0.74 
   4  -2   7  204.26   11.95 
   4  -2   7  216.68   11.60 
  -4  -2  -7  209.36   11.91 
   4   2  -7  207.17   11.27 
  -4   2   7  199.06   11.42 
  -4  -2   7  211.72   11.76 
   4   2   7  215.55   12.19 
   4   2   7  210.39   11.78 
   4   2   7  207.82   11.83 
  -4   2  -7  211.26   12.01 
  -5  -2  -7    2.89    0.80 
  -5   2   7    3.43    0.80 
  -5   2   7    2.94    0.54 
   5   2  -7    3.10    0.38 
   5  -2   7    1.79    0.56 
   5  -2   7    2.25    0.51 
   5   2   7    2.31    0.66 
  -5  -2   7    3.34    0.93 
  -5   2  -7    3.58    0.98 
   5   2   7    2.74    0.83 
   5   2   7    4.59    0.92 
  -5  -2   7    2.42    0.60 
   6  -2   7   31.26    2.19 
   6  -2   7   27.91    2.03 
  -6   2   7   25.44    1.97 
  -6   2   7   26.19    2.30 
   6  -2   7   29.71    2.45 
   6   2   7   28.64    2.28 
  -6  -2   7   28.41    2.36 
  -6   2  -7   26.88    2.64 
  -6  -2   7   26.09    2.63 
   6   2   7   29.21    2.60 
   6   2   7   27.17    2.27 
  -7   2   7    1.16    0.38 
   7  -2   7    0.03    0.26 
   7  -2   7   -0.12    0.25 
  -7   2   7   -0.47    0.33 
   7  -2   7    0.25    0.38 
  -7  -2   7    0.02    0.40 
   7   2   7    0.06    0.33 
  -7  -2   7    1.33    0.68 
   7   2   7   -0.18    0.22 
   7   2   7    0.33    0.34 
  -8   2   7    2.27    0.61 
  -8   2   7    2.05    0.55 
   8  -2   7    1.36    0.41 
   8  -2   7    1.42    0.61 
  -8  -2   7    1.68    0.65 
   8   2   7    1.69    0.74 
   8   2   7    1.51    0.60 
   8   2   7    1.87    0.65 
   9  -2   7    1.64    0.60 
   9  -2   7    0.83    0.35 
  -9   2   7    1.69    0.68 
  -9   2   7    1.62    0.89 
   9  -2   7    0.45    0.26 
   9   2   7    2.36    0.75 
   9   2   7    1.14    0.55 
   9   2   7    0.58    0.67 
  10  -2   7   19.73    2.27 
 -10   2   7   21.46    2.51 
  10   2   7   22.27    1.96 
  10   2   7   20.04    2.43 
   0   3   7  305.96   17.31 
   0   3   7  311.69   17.09 
   0   3  -7  311.97   17.03 
   0  -3   7  332.36   17.16 
  -1   3   7   12.31    1.26 
  -1   3   7   13.69    1.19 
   1  -3   7   12.68    1.21 
   1   3  -7   14.03    1.21 
  -1  -3   7   13.41    1.26 
   1   3   7   13.94    1.41 
   1   3   7   15.22    1.31 
  -1   3  -7   11.94    1.20 
  -2   3   7   32.63    2.17 
   2  -3   7   31.62    2.24 
  -2  -3  -7   31.51    2.31 
   2   3  -7   33.26    2.16 
  -2   3  -7   31.24    2.33 
   2   3   7   32.46    2.54 
  -2  -3   7   30.91    2.32 
   2   3   7   29.62    2.31 
  -3  -3  -7   -0.14    0.16 
   3   3  -7    0.11    0.14 
  -3   3   7    0.78    0.27 
   3  -3   7    0.09    0.21 
   3  -3   7    0.21    0.22 
  -3   3  -7    0.33    0.28 
   3   3   7    0.05    0.13 
   3   3   7   -0.01    0.19 
  -3  -3   7    0.18    0.23 
   4  -3   7    1.27    0.48 
   4   3  -7    1.71    0.41 
   4  -3   7    1.40    0.42 
  -4   3   7    1.97    0.44 
  -4  -3  -7    1.38    0.48 
  -4   3   7    1.35    0.45 
   4   3   7    1.42    0.44 
   4   3   7    0.66    0.28 
  -4  -3   7    1.62    0.50 
   4   3   7    3.01    0.89 
  -4   3  -7    2.41    0.69 
   5  -3   7    6.88    0.83 
   5  -3   7    7.55    1.07 
   5   3  -7    7.67    0.74 
  -5   3   7    6.74    0.72 
  -5   3   7    7.81    0.93 
  -5  -3  -7    8.21    1.13 
  -5  -3   7    5.88    1.14 
  -5  -3   7    6.91    1.21 
   5   3   7    8.39    1.05 
   5   3   7    6.63    1.01 
   5   3   7    8.04    1.24 
  -5   3  -7    7.08    1.12 
   6   3  -7   30.53    1.91 
   6  -3   7   31.12    2.12 
  -6   3   7   25.49    1.93 
   6  -3   7   30.65    2.23 
   6  -3   7   28.50    2.47 
  -6   3  -7   30.83    2.83 
  -6  -3   7   32.37    4.17 
   6   3   7   32.77    2.48 
  -6  -3   7   27.52    2.51 
   6   3   7   27.24    2.62 
   6   3   7   29.46    2.44 
  -7   3   7   13.57    1.20 
   7  -3   7   15.33    1.34 
  -7   3   7   13.74    1.54 
   7  -3   7   14.81    1.63 
   7   3  -7   13.89    0.93 
   7   3   7   13.03    2.09 
  -7   3  -7   12.63    1.86 
   7   3   7   12.44    1.75 
   7   3   7   13.49    1.52 
  -7  -3   7   13.80    1.98 
  -7  -3   7   12.64    1.61 
  -8   3   7   85.26    5.41 
   8  -3   7   90.96    6.04 
   8  -3   7   91.59    5.26 
  -8   3   7   86.68    5.96 
   8  -3   7  102.39    5.35 
   8   3   7   87.30    6.25 
   8   3   7   88.09    5.84 
   8   3   7   97.14    5.88 
   9  -3   7    5.40    1.21 
  -9   3   7    4.50    1.16 
   9   3   7    3.46    0.98 
   9   3   7    4.32    0.94 
  10  -3   7   15.39    1.95 
  10   3   7   15.72    2.10 
  10   3   7   16.70    1.75 
   0  -4   7    0.36    0.23 
   0   4  -7    0.11    0.22 
   0   4   7    1.74    0.49 
   1   4  -7   19.70    1.52 
  -1   4   7   15.83    1.44 
   1  -4   7   17.58    1.48 
  -1  -4   7   18.35    1.54 
  -1   4  -7   16.11    1.44 
   1   4   7   14.57    1.50 
  -2  -4  -7  111.06    6.45 
   2  -4   7  117.34    6.44 
   2   4  -7  107.20    6.29 
  -2   4   7   98.03    6.36 
   2   4   7  108.37    6.67 
  -2  -4   7  115.74    6.58 
  -2   4  -7  111.68    6.50 
   3   4  -7   93.90    5.44 
   3  -4   7   94.09    5.53 
  -3  -4  -7   92.73    5.71 
   3  -4   7   93.38    5.90 
  -3  -4   7   92.58    5.74 
   3   4   7   96.95    5.96 
  -3   4  -7   90.28    5.70 
  -4  -4  -7   96.83    6.14 
   4  -4   7  103.25    5.84 
   4   4  -7  110.03    5.80 
  -4   4   7   97.13    5.60 
  -4   4   7  100.91    5.71 
   4  -4   7   94.88    6.15 
   4   4   7   98.78    6.22 
  -4  -4   7   99.45    6.18 
   4   4   7  101.20    6.14 
   4   4   7   91.72    6.27 
  -4   4  -7   97.13    7.35 
   5   4  -7   45.41    2.81 
  -5   4   7   39.27    2.61 
  -5  -4  -7   43.83    3.31 
   5  -4   7   40.50    3.17 
   5  -4   7   46.59    2.87 
  -5   4   7   42.89    2.84 
  -5  -4   7   45.66    3.65 
   5   4   7   41.17    3.14 
  -5   4  -7   46.91    3.48 
   5   4   7   44.81    3.52 
   5   4   7   42.10    3.22 
  -5  -4   7   41.99    3.28 
   6  -4   7   39.30    3.03 
   6  -4   7   40.65    2.99 
   6   4  -7   40.34    2.55 
  -6   4   7   40.06    2.77 
  -6   4   7   33.58    2.35 
  -6  -4   7   38.94    3.52 
  -6   4  -7   42.60    3.40 
  -6  -4   7   39.01    3.18 
   6   4   7   40.63    3.10 
   6   4   7   42.37    3.64 
   6   4   7   38.61    3.34 
   7  -4   7    0.50    0.39 
   7  -4   7    0.70    0.32 
   7   4  -7    0.56    0.27 
  -7   4   7    0.23    0.27 
  -7   4   7    0.86    0.54 
   7  -4   7    0.35    0.27 
   7   4   7   -0.08    0.36 
   7   4   7    0.32    0.38 
  -7   4  -7    0.54    0.53 
   7   4   7   -0.20    0.28 
   8   4  -7    0.01    0.16 
   8   4  -7    0.02    0.13 
  -8   4   7    0.85    0.30 
   8  -4   7   -0.07    0.21 
   8  -4   7    0.35    0.41 
  -9   4   7    9.36    0.99 
  -9   4   7    9.02    1.34 
   9  -4   7    6.22    1.29 
   9   4   7    6.61    1.57 
   9   4   7    8.01    1.27 
  10  -4   7   28.35    2.77 
  10   4   7   33.20    3.29 
   0   5   7   57.80    3.92 
   0   5  -7   63.07    3.94 
   0  -5   7   64.38    3.98 
   1  -5   7  401.57   20.93 
  -1   5   7  367.02   20.78 
  -1  -5  -7  378.73   20.78 
   1   5  -7  395.66   20.87 
  -1  -5   7  412.46   21.04 
  -1   5  -7  383.93   20.91 
   1   5   7  369.12   21.03 
   2   5  -7  108.20    6.78 
  -2  -5  -7  114.00    6.52 
   2  -5   7  122.27    6.52 
  -2   5   7  104.19    6.27 
  -2   5  -7  106.94    6.54 
   2   5   7  105.69    6.72 
   2   5   7  105.08    6.75 
  -2  -5   7  118.37    6.69 
  -3  -5  -7   48.12    3.25 
   3  -5   7   47.98    3.07 
   3   5  -7   47.13    3.06 
  -3   5   7   43.72    2.86 
  -3  -5   7   47.13    3.33 
   3   5   7   45.50    3.36 
   3   5   7   44.93    3.42 
   4  -5   7   -0.04    0.20 
  -4   5   7    0.64    0.22 
   4  -5   7    0.30    0.26 
   4   5  -7   -0.08    0.18 
  -4  -5  -7    0.59    0.36 
  -4   5  -7    0.11    0.23 
   4   5   7    0.26    0.36 
  -4  -5   7    0.90    0.42 
   4   5   7    0.12    0.37 
   5   5  -7   62.14    3.80 
  -5  -5  -7   65.01    5.28 
  -5   5   7   56.75    3.45 
  -5   5   7   62.33    3.58 
   5  -5   7   61.18    3.75 
   5  -5   7   55.07    4.06 
  -5  -5   7   65.16    5.23 
   5   5   7   58.32    4.75 
   5   5   7   63.33    4.29 
   5   5   7   57.33    4.38 
  -5   5  -7   59.44    4.31 
  -5  -5   7   58.55    4.62 
   6  -5   7  102.10    5.61 
   6   5  -7   97.97    5.68 
  -6   5   7   94.97    5.62 
   6  -5   7   90.72    6.06 
  -6  -5   7   90.94    6.35 
   6   5   7   99.76    6.27 
  -6   5  -7  105.44    6.64 
   6   5   7   92.49    6.48 
  -6  -5   7  100.24    7.43 
   6   5   7   92.64    6.39 
   7  -5   7  149.01    7.71 
   7  -5   7  137.68    7.64 
   7  -5   7  129.22    8.31 
  -7   5   7  136.82    7.98 
   7   5  -7  132.40    7.78 
   7   5   7  125.74    8.73 
  -7   5  -7  152.93    9.12 
   7   5   7  142.91    8.55 
  -8   5   7   24.04    2.00 
   8  -5   7   21.57    2.17 
   8   5  -7   22.25    1.67 
   8   5   7   25.88    2.37 
  -8   5  -7   24.83    2.83 
   8   5   7   20.07    2.44 
  -9   5   7   42.51    3.21 
   9  -5   7   42.96    3.41 
   9   5   7   40.93    3.84 
   0   6  -7    0.29    0.22 
   0  -6   7    0.14    0.22 
   0   6   7    0.06    0.17 
  -1  -6  -7   29.72    2.14 
   1   6  -7   32.26    2.37 
  -1   6   7   28.66    2.09 
   1  -6   7   32.31    2.29 
   1   6   7   28.93    2.35 
  -1   6  -7   30.50    2.32 
  -1  -6   7   36.11    2.46 
   1   6   7   24.99    2.37 
   2  -6   7  105.30    5.86 
  -2  -6  -7   96.27    5.84 
  -2   6   7   92.03    5.43 
   2   6  -7  103.15    5.92 
  -2   6  -7   98.07    5.98 
   2   6   7   93.59    6.13 
  -2  -6   7  101.89    6.08 
   2   6   7   92.78    6.09 
   3  -6   7  156.52    8.83 
  -3  -6  -7  159.01    9.06 
   3   6  -7  162.32    8.96 
  -3   6  -7  152.52    9.10 
   3   6   7  151.50    9.29 
  -3  -6   7  160.18    9.24 
   3   6   7  150.31    9.32 
   4   6  -7   65.86    4.15 
   4  -6   7   67.33    4.02 
  -4  -6  -7   64.62    4.38 
   4  -6   7   63.73    4.40 
   4   6   7   63.17    4.55 
  -4   6  -7   65.68    4.44 
   4   6   7   62.86    4.61 
   5   6  -7   83.73    5.19 
   5  -6   7   81.36    5.42 
  -5  -6  -7   86.42    5.91 
  -5  -6   7   84.96    5.71 
   5   6   7   80.69    5.78 
   5   6   7   85.65    5.69 
  -5   6  -7   94.44    5.80 
   6  -6   7   43.54    3.25 
   6  -6   7   43.14    2.73 
   6   6  -7   40.24    2.92 
  -6   6  -7   49.91    3.76 
   6   6   7   41.50    3.60 
   6   6   7   41.94    3.40 
   7   6  -7    1.42    0.49 
   7  -6   7    1.13    0.31 
   7  -6   7    1.85    0.36 
   7  -6   7    1.06    0.60 
   7   6   7    4.26    1.22 
   7   6   7    1.61    0.66 
  -7   6  -7    1.48    0.80 
   8  -6   7    0.33    0.43 
   8   6  -7   -0.08    0.34 
   8   6   7    0.07    0.51 
  -8   6  -7    0.14    0.62 
   8   6   7    1.17    0.71 
   9  -6   7   15.39    1.72 
   9   6   7   12.81    1.82 
   9   6   7   14.85    2.11 
  -9   6  -7   16.21    2.40 
   0   7   7  148.89    9.36 
   0  -7   7  169.62    9.26 
   0   7  -7  160.96    9.23 
   0   7   7  159.19    9.10 
  -1   7   7    0.34    0.19 
   1   7  -7   -0.07    0.19 
   1  -7   7    0.65    0.33 
  -1   7   7    0.42    0.24 
   1   7   7    0.27    0.26 
  -1  -7   7    0.12    0.26 
  -1   7  -7    0.36    0.27 
   1   7   7    0.08    0.25 
   2   7  -7   31.79    2.38 
  -2  -7  -7   28.05    2.20 
   2  -7   7   29.12    2.21 
  -2   7   7   29.21    2.35 
  -2   7  -7   29.94    2.40 
   2   7   7   27.06    2.50 
  -2  -7   7   31.49    2.47 
   2   7   7   29.68    2.51 
  -3  -7  -7    0.57    0.38 
   3  -7   7    1.12    0.38 
   3   7  -7    0.60    0.33 
   3   7   7    0.59    0.39 
   3   7   7    0.71    0.46 
  -3   7  -7    0.42    0.36 
   4  -7   7   -0.05    0.26 
   4   7  -7    0.65    0.42 
   4  -7   7    0.38    0.29 
  -4  -7  -7    0.22    0.26 
  -4   7  -7    0.61    0.41 
   4   7   7    0.26    0.38 
   4   7   7   -0.05    0.31 
   5  -7   7    2.86    0.68 
   5  -7   7    0.79    0.46 
  -5   7   7    1.20    0.33 
   5   7  -7    0.79    0.39 
   5   7   7    0.97    0.55 
   5   7   7    0.42    0.39 
  -5   7  -7    1.39    0.61 
   6  -7   7   33.20    2.17 
   6   7  -7   33.76    2.54 
   6  -7   7   29.53    2.57 
  -6   7  -7   36.83    3.11 
   6   7   7   32.44    2.93 
   6   7   7   31.97    3.13 
   7   7  -7    2.17    0.62 
   7  -7   7    1.75    0.60 
  -7   7  -7    3.21    1.11 
   7   7   7    2.59    0.89 
   8   7  -7   60.03    4.14 
   8  -7   7   65.56    4.57 
  -8   7  -7   80.02    5.57 
   8   7   7   66.06    4.88 
   8   7   7   61.06    5.18 
   9   7  -7    1.66    0.52 
   9  -7   7    2.21    0.85 
   9   7   7    0.50    0.70 
   9   7   7    1.94    0.85 
  -9   7  -7    1.54    0.85 
   0   8  -7    0.66    0.38 
   0   8   7    1.30    0.43 
   1  -8   7    8.07    1.02 
  -1   8   7    6.45    1.02 
  -1  -8  -7    7.16    0.85 
  -1   8   7    7.67    0.75 
   1   8  -7    7.68    1.05 
  -1   8  -7    7.19    1.05 
   1   8   7    7.26    1.04 
  -1  -8   7    8.09    1.10 
   1   8   7    6.39    1.27 
  -2   8   7   15.56    1.61 
   2   8  -7   16.05    1.63 
  -2  -8  -7   18.20    1.56 
   2  -8   7   17.07    1.53 
  -2   8  -7   16.44    1.70 
  -2  -8   7   16.18    1.70 
   2   8   7   15.00    1.77 
   2   8   7   17.37    1.82 
  -3   8   7   21.70    1.89 
   3   8  -7   20.99    1.94 
  -3  -8  -7   21.43    1.92 
   3  -8   7   21.17    1.77 
   3   8   7   24.34    2.31 
  -3   8  -7   21.15    2.04 
   3   8   7   21.39    2.22 
   4  -8   7  159.31    8.32 
   4   8  -7  143.21    8.57 
   4  -8   7  142.56    8.71 
  -4  -8  -7  138.64    8.66 
  -4   8   7  138.76    8.31 
   4   8   7  144.34    9.17 
   4   8   7  138.41    8.96 
  -4   8  -7  156.59    8.94 
  -5   8   7   11.18    1.05 
   5   8  -7   11.17    1.34 
   5  -8   7   10.68    1.06 
   5  -8   7   10.56    1.33 
   5   8   7   12.00    1.61 
   5   8   7   12.46    1.74 
  -5   8  -7   12.19    1.61 
   6   8  -7   16.81    1.70 
   6  -8   7   15.05    1.64 
   6  -8   7   16.49    1.23 
  -6   8  -7   22.00    2.26 
   6   8   7   15.17    1.90 
   6   8   7   16.18    2.15 
   7   8  -7    0.07    0.41 
   7  -8   7    0.35    0.40 
  -7   8  -7    1.28    0.79 
   7   8   7   -0.08    0.36 
   7   8   7   -0.03    0.42 
   8   8  -7    2.36    0.65 
   8  -8   7    2.33    0.77 
  -8   8  -7    3.44    1.19 
   8   8   7    1.23    0.72 
   8   8   7    2.70    1.03 
   0   9   7   80.38    5.04 
   0   9  -7   87.00    5.44 
   0  -9   7   87.20    5.32 
   0   9   7   74.31    5.46 
  -1  -9  -7   23.48    1.80 
   1  -9   7   22.56    1.96 
   1   9  -7   20.58    2.02 
  -1   9   7   24.45    2.92 
   1   9   7   18.72    2.13 
  -1  -9   7   22.40    2.06 
   1   9   7   22.79    2.05 
  -1   9  -7   27.01    2.23 
   2   9  -7   36.60    2.90 
   2  -9   7   36.05    2.62 
  -2  -9  -7   32.68    2.54 
  -2   9   7   34.29    2.81 
  -2   9  -7   34.14    2.87 
   2   9   7   38.80    3.03 
   2   9   7   34.73    3.08 
   3   9  -7    3.53    0.82 
  -3   9   7    6.13    0.83 
   3  -9   7    4.05    0.77 
  -3  -9  -7    4.94    0.84 
  -3   9  -7    5.56    1.22 
   3   9   7    3.12    0.93 
   3   9   7    4.78    1.24 
  -4   9   7    1.67    0.54 
   4   9  -7   -0.09    0.30 
   4  -9   7    0.47    0.38 
   4  -9   7   -0.20    0.24 
   4   9   7    0.41    0.45 
   4   9   7   -0.11    0.30 
  -4   9  -7    0.54    0.42 
   5   9  -7    1.54    0.60 
   5  -9   7    1.80    0.68 
  -5   9   7    2.15    0.51 
   5  -9   7    1.70    0.46 
   5   9   7    1.46    0.77 
  -5   9  -7    1.69    0.63 
   5   9   7    0.74    0.53 
   6  -9   7   36.97    2.88 
   6   9  -7   34.28    2.88 
  -6   9   7   36.12    2.44 
  -6   9  -7   42.07    3.47 
   6   9   7   35.78    3.53 
   6   9   7   32.87    4.01 
   7   9  -7    2.01    0.72 
  -7   9  -7    4.09    1.25 
   7   9   7    3.81    1.27 
   7   9   7    2.84    0.82 
   8  -9   7   38.20    3.06 
   8   9  -7   33.41    2.93 
  -8   9  -7   47.44    4.15 
   8   9   7   41.09    3.62 
   8   9   7   38.22    3.87 
   0  10   7   -0.38    0.23 
   0 -10   7   -0.17    0.29 
   0  10  -7    0.97    0.53 
   1  10  -7   28.91    2.49 
  -1  10   7   25.75    2.49 
   1 -10   7   27.69    2.26 
  -1 -10  -7   29.07    2.10 
   1  10   7   25.67    2.61 
  -1  10  -7   26.08    2.45 
  -2  10   7   65.60    5.44 
  -2 -10  -7   69.05    4.49 
   2 -10   7   71.18    4.53 
   2  10  -7   70.76    4.85 
   2  10   7   71.84    4.99 
   2  10   7   68.97    5.17 
  -2  10  -7   72.54    4.95 
  -3 -10  -7  140.43    8.68 
  -3  10   7  134.32    8.62 
   3  10  -7  137.13    8.73 
   3 -10   7  147.36    8.34 
   3  10   7  137.26    9.15 
  -3  10  -7  156.21    9.01 
   3  10   7  156.19    9.30 
   4  10  -7   23.19    2.33 
   4 -10   7   25.38    1.99 
  -4  10   7   26.21    2.24 
   4 -10   7   26.63    2.38 
   4  10   7   26.03    2.78 
   4  10   7   26.46    2.73 
  -4  10  -7   28.30    2.63 
   5  10  -7   81.45    5.55 
   5 -10   7   86.00    5.48 
  -5  10   7   80.12    5.13 
  -5  10  -7   89.99    6.01 
   5  10   7   90.57    7.02 
   5  10   7   74.54    6.13 
  -6  10   7   31.77    2.30 
   6 -10   7   30.91    2.59 
   6  10  -7   29.46    2.94 
   6  10   7   34.48    3.52 
   6  10   7   30.80    3.14 
   7 -10   7    1.83    0.65 
   7  10  -7    1.84    0.76 
   7  10   7    1.08    0.89 
   7  10   7    1.83    1.01 
  -7  10  -7    3.78    1.18 
   0  11   7   35.44    3.30 
   0  11  -7   38.03    3.15 
   1  11  -7  104.15    6.60 
  -1 -11  -7   98.39    5.94 
  -1  11   7   92.55    6.67 
   1 -11   7  103.46    6.26 
   1  11   7   96.16    6.88 
  -1  11  -7  105.81    6.67 
  -2  11   7   35.16    3.13 
   2  11  -7   36.79    3.11 
  -2 -11  -7   36.07    2.69 
   2 -11   7   37.86    2.79 
   2  11   7   32.99    3.29 
  -2  11  -7   38.66    3.20 
   3 -11   7   13.40    1.39 
  -3 -11  -7   12.76    1.56 
  -3  11   7   13.71    1.66 
   3  11  -7   12.13    1.63 
   3  11   7   13.81    1.97 
  -3  11  -7   16.99    1.93 
   4 -11   7    0.09    0.33 
   4 -11   7   -0.21    0.38 
  -4  11   7   -0.22    0.45 
   4  11  -7   -0.08    0.42 
  -4  11  -7    0.26    0.52 
   4  11   7   -0.16    0.53 
   5  11  -7   11.33    1.62 
   5 -11   7   15.82    1.68 
  -5  11   7   14.29    1.52 
   5  11   7   11.50    1.93 
  -5  11  -7   16.49    2.02 
   6  11  -7   35.04    3.15 
  -6  11   7   37.68    2.81 
   6 -11   7   38.36    2.95 
   6  11   7   36.26    3.60 
  -6  11  -7   43.96    3.82 
   7  11  -7   32.92    3.01 
  -7  11   7   38.44    2.49 
   0  12   7    0.16    0.48 
   0  12  -7   -0.20    0.38 
  -1  12   7   -0.27    0.37 
   1  12  -7   -0.18    0.35 
  -1 -12  -7    0.42    0.34 
   1  12   7    0.84    0.63 
  -1  12  -7   -0.18    0.38 
  -2 -12  -7   23.34    1.99 
  -2  12   7   22.95    2.46 
   2 -12   7   24.43    2.16 
   2  12   7   20.53    2.58 
  -2  12  -7   22.51    2.43 
   3  12  -7    0.98    0.56 
   3 -12   7    1.11    0.52 
  -3 -12  -7    1.40    0.56 
  -3  12   7    0.46    0.46 
   3  12   7    0.65    0.88 
  -3  12  -7    0.86    0.65 
   4  12  -7   50.62    4.28 
   4 -12   7   65.44    4.32 
  -4  12   7   55.40    4.21 
  -4  12  -7   60.76    4.65 
   4  12   7   54.20    4.78 
  -5  12   7    0.44    0.57 
   5 -12   7   -0.36    0.40 
   5  12  -7    0.47    0.43 
   5  12   7   -0.90    0.51 
  -5  12  -7    0.01    0.56 
  -6  12   7   13.20    1.39 
   6  12  -7    9.73    1.74 
   6  12   7    8.68    2.02 
  -6  12  -7   13.08    2.03 
   0  13   7   82.00    6.26 
   0  13  -7   83.61    5.93 
  -1 -13  -7   13.15    1.35 
  -1  13   7   14.76    2.09 
   1  13  -7   14.39    1.94 
  -1  13  -7   18.55    2.17 
   1  13   7   15.27    2.25 
  -2 -13  -7    8.19    1.29 
   2 -13   7    6.05    1.10 
  -2  13   7    6.45    1.56 
   2  13  -7    5.05    1.19 
  -2  13  -7    7.14    1.51 
   2  13   7    7.13    1.77 
  -3  13   7    0.71    0.76 
   3 -13   7    1.77    0.43 
   3  13  -7   -0.17    0.42 
  -3  13  -7    0.57    0.47 
   3  13   7   -0.39    0.51 
  -4  13   7    1.48    0.58 
   4 -13   7    0.72    0.53 
   4  13  -7   -0.08    0.40 
   4 -13   7   -0.16    0.51 
  -4  13  -7    0.41    0.63 
   4  13   7   -0.03    0.66 
   5  13  -7    8.32    1.71 
  -5  13   7   10.93    1.56 
  -5  13  -7    6.73    1.59 
   5  13   7    4.89    1.47 
   0  14  -7   -0.95    0.42 
   1  14  -7   -0.52    0.53 
  -1  14   7    0.24    0.72 
   1  14   7   -0.96    0.66 
  -1  14  -7   -0.03    0.60 
   2  14  -7   17.37    2.20 
  -2  14   7   14.19    2.24 
  -2  14  -7   15.68    2.22 
   2  14   7   19.31    2.72 
  -3  14   7    2.62    0.76 
   3  14   7    3.57    1.24 
  -3  14  -7    1.61    0.86 
   0   0   8  194.25   10.61 
   0   0  -8  179.76   10.31 
  -1   0  -8  260.03   13.92 
  -1   0   8  257.15   14.39 
   1   0   8  247.51   13.94 
   1   0  -8  242.44   13.58 
  -2   0  -8   79.38    4.89 
   2   0   8   72.48    4.79 
   2   0  -8   72.95    4.38 
   2   0   8   89.78    5.49 
  -2   0   8   73.63    4.75 
   3   0  -8    6.17    0.56 
  -3   0   8    7.18    1.63 
  -3   0  -8    6.89    0.98 
   3   0   8    7.47    0.94 
   4   0   8   -0.15    0.17 
  -4   0   8    0.23    0.27 
  -5   0   8   77.17    5.11 
  -5   0   8   87.40    5.58 
   5   0   8   85.09    5.17 
   5   0   8   83.79    5.53 
  -6   0   8   76.44    5.12 
   6   0   8   84.28    5.20 
  -6   0   8   77.82    5.51 
   6   0   8   85.80    5.09 
   6   0   8   81.74    5.49 
   7   0   8  156.64    8.67 
   7   0   8  141.49    9.17 
  -7   0   8  150.41    9.34 
   7   0   8  157.38    8.81 
  -7   0   8  140.96    8.84 
   8   0   8   41.02    2.94 
  -8   0   8   43.20    3.27 
   8   0   8   40.48    3.03 
  -8   0   8   41.88    3.70 
   8   0   8   42.57    3.53 
   9   0   8   46.41    3.87 
  -9   0   8   42.86    3.78 
   9   0   8   46.21    3.23 
   9   0   8   46.30    3.13 
   0  -1   8   -0.05    0.16 
   0   1   8    0.56    0.32 
   0   1  -8    0.13    0.15 
   1   1  -8   15.68    1.30 
   1  -1   8   16.85    1.53 
  -1   1   8   16.44    1.51 
  -1   1  -8   17.26    1.50 
   1   1   8   16.88    1.56 
   1   1   8   17.61    1.74 
  -1  -1   8   17.04    1.53 
   2  -1   8  180.97   10.75 
  -2   1   8  183.93   10.75 
   2   1  -8  185.76   10.43 
   2  -1   8  225.55   11.72 
   2   1   8  190.58   10.87 
  -2  -1   8  186.77   10.77 
   2   1   8  188.36   11.21 
  -2   1  -8  194.84   10.87 
   3   1  -8   47.63    3.06 
   3  -1   8   65.07    4.75 
   3  -1   8   51.50    3.45 
  -3   1   8   49.84    3.40 
  -3  -1   8   49.22    3.43 
   3   1   8   50.32    3.52 
  -3   1  -8   50.75    3.64 
   3   1   8   60.70    4.56 
   4   1  -8   58.88    3.43 
  -4   1   8   53.03    3.77 
   4  -1   8   63.44    3.94 
   4  -1   8   60.30    4.28 
   4   1   8   60.25    4.00 
  -4  -1   8   58.75    3.95 
   4   1   8   71.62    4.74 
  -4   1  -8   62.01    4.28 
   5  -1   8   24.50    2.28 
  -5   1   8   21.60    1.92 
  -5   1   8   26.19    2.26 
   5  -1   8   25.66    2.01 
  -5  -1  -8   26.72    2.38 
  -5   1  -8   25.89    2.44 
   5   1   8   27.38    2.21 
  -5  -1   8   24.54    2.09 
   5   1   8   31.93    2.73 
   5   1   8   24.83    2.08 
  -5  -1   8   20.88    2.24 
  -6   1   8   58.71    4.08 
   6  -1   8   57.44    3.80 
   6  -1   8   53.54    4.04 
  -6  -1  -8   52.36    4.15 
   6  -1   8   57.11    3.64 
  -6   1   8   51.11    3.63 
   6   1   8   58.10    3.80 
   6   1   8   56.35    4.24 
  -6  -1   8   55.17    4.20 
  -6  -1   8   52.61    3.85 
   6   1   8   57.69    3.88 
   7  -1   8   -0.29    0.26 
   7  -1   8    0.59    0.41 
   7  -1   8   -0.18    0.20 
  -7   1   8    0.69    0.52 
  -7   1   8    0.88    0.41 
   7   1   8    0.20    0.31 
  -7  -1   8    0.12    0.34 
   7   1   8    0.15    0.32 
   7   1   8    0.10    0.36 
   8  -1   8    1.96    0.59 
  -8   1   8    3.43    0.93 
  -8   1   8    1.57    0.70 
   8  -1   8    1.09    0.51 
   8  -1   8    1.02    0.57 
   8   1   8    0.77    0.58 
   8   1   8    1.68    0.59 
   8   1   8    1.25    0.59 
  -8  -1   8    1.74    0.85 
   9  -1   8   12.66    1.82 
  -9   1   8   15.77    1.78 
   9  -1   8   12.86    1.36 
   9   1   8   15.00    1.57 
   9   1   8   15.36    1.97 
  10  -1   8   59.92    4.92 
  10   1   8   69.89    4.31 
  10   1   8   63.87    5.07 
   0   2   8   15.73    1.42 
   0   2   8   12.57    1.44 
   0   2  -8   14.35    1.30 
   0  -2   8   16.18    1.44 
  -1   2   8   77.17    4.96 
   1  -2   8   82.76    5.00 
   1   2  -8   78.21    4.76 
  -1   2  -8   76.31    4.89 
   1   2   8   82.74    5.27 
   1   2   8   83.48    5.05 
  -1  -2   8   85.32    5.03 
  -2   2   8  191.22   10.91 
   2  -2   8  194.13   10.94 
   2   2  -8  189.58   10.63 
   2   2   8  194.81   11.03 
  -2   2  -8  195.34   11.09 
   2   2   8  209.21   11.52 
  -2  -2   8  189.49   10.96 
   3  -2   8   18.32    1.87 
  -3   2   8   17.75    1.54 
   3   2  -8   17.93    1.34 
   3  -2   8   17.34    1.55 
  -3   2  -8   19.06    1.76 
   3   2   8   16.69    1.79 
   3   2   8   19.14    1.70 
  -3  -2   8   17.84    1.65 
   4  -2   8    2.04    0.70 
  -4  -2  -8    1.99    0.65 
  -4   2   8    2.72    0.61 
   4   2  -8    2.09    0.41 
   4  -2   8    4.49    0.81 
  -4  -2   8    2.66    0.70 
  -4   2  -8    1.75    0.57 
   4   2   8    3.32    0.77 
   4   2   8    2.29    0.80 
   5  -2   8    3.81    0.75 
  -5   2   8    4.04    0.87 
  -5   2   8    3.30    0.54 
   5   2  -8    3.56    0.45 
   5  -2   8    2.69    0.76 
  -5  -2   8    5.05    1.20 
   5   2   8    3.37    0.87 
   5   2   8    3.93    0.90 
   5   2   8    2.83    0.72 
  -5   2  -8    4.42    1.05 
  -5  -2   8    3.27    0.78 
   6  -2   8  201.31   10.76 
  -6   2   8  191.21   10.98 
   6  -2   8  191.29   10.55 
  -6   2   8  169.28   10.64 
   6  -2   8  182.38   11.05 
   6   2   8  195.75   10.86 
  -6  -2   8  183.06   10.97 
   6   2   8  194.80   10.96 
  -6   2  -8  189.91   11.48 
  -6  -2   8  175.40   11.34 
   6   2   8  195.23   11.48 
   7  -2   8    8.80    1.04 
  -7   2   8    6.85    1.04 
   7  -2   8   10.28    1.14 
   7  -2   8    7.30    1.22 
  -7   2   8    7.55    1.41 
   7   2   8   12.90    1.96 
   7   2   8    9.53    1.24 
  -7  -2   8    8.79    1.75 
  -7  -2   8    9.65    1.68 
   7   2   8    8.16    1.35 
   8  -2   8    8.55    1.04 
   8  -2   8    7.66    1.31 
   8  -2   8    9.09    1.07 
  -8   2   8   11.73    1.16 
  -8   2   8    7.63    1.54 
   8   2   8    7.22    1.49 
   8   2   8    8.92    1.24 
   8   2   8   11.16    1.22 
  -9   2   8    2.44    1.18 
  -9   2   8    8.16    1.23 
   9  -2   8    4.64    1.21 
   9  -2   8    4.14    0.75 
   9   2   8    5.18    1.00 
   9   2   8    7.59    1.62 
  10  -2   8   24.57    2.68 
  10   2   8   25.85    2.85 
  10   2   8   34.35    2.56 
   0  -3   8    0.12    0.20 
   0   3   8   -0.01    0.16 
   0   3   8    0.41    0.30 
   0   3  -8    0.08    0.16 
  -1   3   8   12.54    1.24 
   1  -3   8   12.82    1.27 
   1   3  -8   13.01    1.16 
  -1  -3   8   12.91    1.30 
  -1   3  -8   13.32    1.25 
   1   3   8   12.19    1.27 
   1   3   8   11.76    1.36 
  -2   3   8  239.07   13.43 
   2  -3   8  257.21   13.55 
   2   3  -8  234.25   13.28 
  -2  -3   8  267.58   13.73 
   2   3   8  251.52   13.67 
   2   3   8  225.84   13.80 
  -2   3  -8  237.29   13.58 
  -3  -3  -8   69.21    4.67 
   3  -3   8   73.67    4.54 
  -3   3   8   73.87    4.49 
   3   3  -8   73.30    4.32 
   3  -3   8   73.68    4.95 
   3   3   8   73.47    4.70 
   3   3   8   73.57    4.98 
  -3  -3   8   73.12    4.70 
  -4  -3  -8   12.01    1.38 
   4   3  -8   12.57    1.05 
   4  -3   8   11.04    1.39 
   4  -3   8   12.36    1.22 
  -4   3   8   10.94    1.11 
   4   3   8   10.15    1.31 
  -4  -3   8   10.88    1.30 
   4   3   8   13.51    1.37 
  -4   3  -8   13.03    1.49 
   4   3   8   13.39    1.57 
  -5   3   8   47.20    3.21 
   5   3  -8   44.63    2.82 
   5  -3   8   44.53    3.43 
   5  -3   8   44.41    3.03 
  -5   3   8   40.46    2.89 
   5   3   8   43.60    3.29 
   5   3   8   50.62    3.48 
   5   3   8   52.73    3.89 
  -5  -3   8   47.54    3.43 
  -5   3  -8   52.89    3.73 
  -5  -3   8   40.44    3.61 
   6  -3   8   88.97    6.03 
   6  -3   8   95.18    5.59 
  -6   3   8   93.28    5.84 
   6   3  -8   97.64    5.28 
  -6   3   8   85.48    5.44 
  -6   3  -8  105.65    6.62 
  -6  -3   8   95.27    6.26 
   6   3   8   91.72    6.39 
   6   3   8   95.32    6.48 
  -6  -3   8   89.66    6.47 
   6   3   8   96.31    6.05 
   7  -3   8    4.70    0.77 
  -7   3   8    3.34    0.72 
  -7   3   8    4.45    1.00 
   7  -3   8    3.16    0.84 
   7  -3   8    2.83    0.67 
  -7   3  -8    4.97    1.29 
   7   3   8    3.79    1.02 
   7   3   8    3.76    0.96 
  -7  -3   8    3.99    1.06 
   7   3   8    3.44    0.76 
   8  -3   8    2.71    0.92 
  -8   3   8    2.50    0.56 
   8  -3   8    3.01    0.63 
   8  -3   8    2.66    0.60 
  -8   3   8    3.42    0.85 
   8   3   8    3.21    1.37 
   8   3   8    2.91    0.83 
  -9   3   8    4.11    1.72 
   9  -3   8    1.80    0.76 
   9   3   8    1.65    0.67 
   9   3   8    1.33    0.68 
   0   4  -8   49.06    3.18 
   0  -4   8   48.77    3.27 
   0   4   8   43.23    3.26 
   1   4  -8   10.44    1.01 
  -1   4   8    6.94    0.98 
   1  -4   8    9.01    1.04 
  -1   4  -8    8.29    1.00 
   1   4   8    8.94    1.15 
   1   4   8    8.20    0.98 
  -1  -4   8    9.51    1.11 
   2   4  -8  111.54    6.38 
   2  -4   8  116.67    6.55 
  -2   4   8  109.60    6.39 
  -2   4   8  105.15    6.58 
  -2  -4   8  122.34    6.76 
  -2   4  -8  103.04    7.44 
   2   4   8  108.79    6.61 
   2   4   8  102.46    6.76 
   3  -4   8    0.69    0.44 
  -3   4   8    0.68    0.38 
   3   4  -8    0.44    0.28 
   3  -4   8    0.30    0.25 
  -3  -4  -8    0.72    0.37 
  -3   4  -8    0.40    0.28 
  -3  -4   8    0.42    0.34 
   3   4   8    0.48    0.34 
   3   4   8    0.36    0.29 
   4  -4   8    1.84    0.59 
  -4   4   8    2.69    0.56 
   4  -4   8    2.14    0.57 
  -4  -4  -8    2.39    0.68 
   4   4  -8    2.91    0.64 
   4   4   8    2.46    0.71 
   4   4   8    1.46    0.61 
  -4   4  -8    1.73    0.56 
  -4  -4   8    2.71    0.74 
   4   4   8    2.71    0.81 
   5  -4   8   10.88    1.36 
   5   4  -8    8.92    1.22 
  -5   4   8   10.09    0.98 
  -5  -4  -8    9.48    1.26 
  -5   4   8    9.63    1.05 
   5  -4   8   10.65    1.09 
  -5  -4   8   10.93    1.37 
  -5   4  -8    9.59    1.34 
   5   4   8    9.10    1.28 
   5   4   8   10.26    1.45 
   6  -4   8  125.04    6.91 
  -6   4   8  105.91    6.62 
  -6   4   8  120.04    7.00 
   6   4  -8  124.55    6.74 
   6  -4   8  117.72    7.41 
   6   4   8  121.25    7.80 
  -6  -4   8  105.66    7.46 
   6   4   8  107.31    7.23 
  -6   4  -8  138.38    7.99 
  -6  -4   8  115.69    7.95 
   6   4   8  129.35    7.52 
   7   4  -8   21.26    1.47 
  -7   4   8   20.33    1.89 
   7  -4   8   18.99    2.02 
   7  -4   8   19.65    1.63 
   7  -4   8   22.58    1.75 
  -7   4   8   19.72    1.50 
   7   4   8   18.44    2.01 
   7   4   8   22.42    2.32 
  -7   4  -8   23.20    2.55 
  -8   4   8   21.39    2.04 
  -8   4   8   22.52    1.67 
   8  -4   8   23.73    2.26 
   8  -4   8   20.07    2.19 
   8   4   8   21.06    2.43 
   8   4   8   22.00    2.22 
  -9   4   8    8.16    1.39 
   9  -4   8    6.36    1.38 
   9   4   8    6.02    1.57 
   9   4   8    6.24    1.37 
   0   5  -8    0.45    0.25 
   0  -5   8    0.58    0.33 
   1  -5   8   52.23    3.30 
  -1   5   8   45.50    3.22 
   1   5  -8   43.49    3.11 
  -1  -5   8   48.87    3.33 
  -1   5  -8   47.03    3.22 
   1   5   8   45.86    3.39 
  -2   5   8   76.97    4.76 
   2  -5   8   79.68    4.82 
   2   5  -8   75.78    4.71 
  -2  -5  -8   73.94    4.78 
  -2   5  -8   79.04    4.91 
  -2  -5   8   80.78    5.01 
   2   5   8   73.99    5.08 
  -3  -5  -8  185.25   10.73 
   3  -5   8  195.65   11.11 
  -3   5   8  175.70   10.45 
   3   5  -8  186.45   10.49 
   3  -5   8  197.57   10.59 
  -3   5  -8  183.90   10.79 
  -3  -5   8  198.47   10.93 
   3   5   8  183.85   11.01 
   3   5   8  183.92   11.07 
   4  -5   8   93.83    5.44 
  -4   5   8   89.03    5.14 
  -4  -5  -8   93.96    5.80 
   4   5  -8   91.68    5.39 
  -4   5   8   86.82    5.21 
   4  -5   8   89.04    5.84 
  -4   5  -8   93.63    5.87 
   4   5   8   86.93    5.86 
  -4  -5   8   92.44    5.90 
   4   5   8   86.15    5.98 
   4   5   8   87.04    5.83 
  -5   5   8   89.04    5.18 
   5  -5   8   91.17    5.39 
   5   5  -8   92.27    5.38 
  -5  -5  -8   86.86    6.22 
  -5   5   8   89.00    5.19 
   5  -5   8   86.41    5.79 
   5   5   8   85.77    6.07 
   5   5   8   93.41    5.96 
  -5   5  -8   95.14    6.10 
  -5  -5   8   94.21    6.04 
  -5  -5   8   83.42    6.26 
   5   5   8   91.30    5.82 
  -6   5   8   32.05    2.24 
   6   5  -8   38.88    2.54 
   6  -5   8   33.77    2.92 
  -6   5   8   37.03    2.48 
   6  -5   8   36.60    2.51 
   6   5   8   37.40    3.08 
  -6   5  -8   42.85    3.44 
   6   5   8   36.33    3.27 
  -7   5   8    1.70    0.41 
   7  -5   8    0.00    0.29 
   7   5  -8    0.84    0.24 
   7  -5   8    0.06    0.29 
  -7   5  -8    1.57    0.73 
   7   5   8    0.20    0.39 
   7   5   8    0.65    0.36 
  -8   5   8    0.23    0.36 
   8  -5   8    0.47    0.50 
   8  -5   8   -0.28    0.19 
   8   5   8   -0.39    0.39 
   8   5   8    0.04    0.42 
  -8   5  -8    1.31    0.63 
  -9   5   8   35.44    2.67 
   9  -5   8   35.30    3.08 
   9   5   8   34.75    3.49 
   9   5   8   34.98    3.07 
   0   6   8   71.58    4.78 
   0  -6   8   80.30    4.86 
   0   6  -8   74.83    4.77 
  -1   6   8   49.10    3.40 
   1  -6   8   56.80    3.59 
   1   6  -8   49.77    3.48 
   1   6   8   50.08    3.68 
  -1  -6   8   56.32    3.68 
  -1   6  -8   51.77    3.56 
   2   6  -8   64.51    4.20 
  -2   6   8   64.53    3.97 
   2  -6   8   69.31    4.24 
  -2  -6  -8   64.99    4.20 
  -2   6  -8   61.14    4.28 
  -2  -6   8   71.82    4.49 
   2   6   8   63.28    4.56 
  -3   6   8    1.06    0.25 
   3   6  -8    0.20    0.21 
  -3  -6  -8   -0.02    0.21 
   3  -6   8    0.24    0.26 
  -3  -6   8    0.47    0.42 
   3   6   8    0.49    0.40 
   3   6   8    0.72    0.43 
  -3   6  -8    0.43    0.30 
   4  -6   8    0.02    0.27 
  -4  -6  -8    0.62    0.37 
   4  -6   8    0.01    0.24 
   4   6  -8    0.29    0.26 
  -4   6  -8    0.54    0.35 
  -4  -6   8    0.61    0.45 
   4   6   8    0.30    0.35 
   4   6   8   -0.04    0.30 
   5  -6   8   25.52    1.99 
   5  -6   8   26.65    2.38 
   5   6  -8   26.63    2.09 
  -5   6   8   24.43    1.80 
   5   6   8   28.82    2.56 
  -5   6  -8   28.42    2.59 
   5   6   8   27.48    2.69 
   6  -6   8   80.15    4.63 
  -6   6   8   68.58    4.32 
   6  -6   8   73.57    5.13 
   6   6  -8   74.36    4.71 
   6   6   8   73.66    5.54 
   6   6   8   79.87    5.39 
  -6   6  -8   89.40    5.77 
   7  -6   8   47.19    3.82 
   7  -6   8   57.23    3.40 
   7   6  -8   50.73    3.42 
   7  -6   8   53.22    3.25 
   7   6   8   49.45    4.03 
  -7   6  -8   63.66    4.65 
   7   6   8   48.65    4.50 
   8   6  -8   27.69    2.04 
   8  -6   8   24.54    2.50 
   8   6   8   30.68    2.80 
   8   6   8   26.88    3.01 
  -8   6  -8   34.96    3.46 
   9  -6   8   14.64    1.84 
  -9   6  -8   15.89    2.86 
   9   6   8   15.90    2.33 
   9   6   8   17.90    2.07 
   0   7   8    0.40    0.28 
   0   7  -8    0.05    0.23 
   0  -7   8    1.10    0.47 
   0   7   8    0.09    0.19 
   1   7  -8    3.83    0.76 
  -1   7   8    3.55    0.60 
   1  -7   8    3.90    0.77 
   1   7   8    3.13    0.80 
  -1   7  -8    3.11    0.70 
   1   7   8    3.28    0.81 
  -1  -7   8    4.14    0.83 
  -2  -7  -8  156.79    8.95 
   2  -7   8  164.95    8.99 
   2   7  -8  163.10    9.05 
  -2   7   8  157.89    8.46 
  -2  -7   8  131.49    9.63 
  -2   7  -8  162.05    9.21 
   2   7   8  154.29    9.37 
   2   7   8  148.16    9.40 
  -3  -7  -8   22.61    1.97 
   3   7  -8   21.43    1.91 
   3  -7   8   23.15    1.86 
   3   7   8   23.58    2.32 
  -3   7  -8   24.04    2.14 
   3   7   8   19.94    2.18 
   4   7  -8   14.21    1.46 
   4  -7   8   16.38    1.41 
  -4  -7  -8   14.58    1.95 
   4  -7   8   13.89    1.66 
   4   7   8   13.61    1.72 
   4   7   8   14.20    1.81 
  -4   7  -8   14.60    1.71 
   5  -7   8   14.92    1.33 
   5  -7   8   13.37    1.60 
   5   7  -8   12.86    1.41 
  -5   7  -8   13.93    1.77 
   5   7   8   13.84    1.87 
   5   7   8   16.25    1.87 
   6   7  -8   50.12    3.49 
   6  -7   8   48.29    3.74 
   6   7   8   50.40    4.02 
   6   7   8   50.17    4.26 
  -6   7  -8   57.10    4.31 
   7  -7   8    0.89    0.56 
   7  -7   8    1.16    0.32 
   7   7  -8    1.09    0.49 
   7  -7   8    0.62    0.22 
  -7   7  -8    3.01    1.07 
   7   7   8    0.41    0.50 
   8   7  -8    2.16    0.61 
   8  -7   8    3.38    0.98 
   8   7   8    3.25    1.14 
   8   7   8    2.59    0.88 
  -8   7  -8    2.83    1.08 
   0   8  -8    9.84    1.24 
   0   8   8    8.43    1.31 
   0  -8   8   10.16    1.24 
   0   8   8   10.81    1.17 
  -1   8   8   76.87    4.64 
   1  -8   8   80.43    5.03 
   1   8  -8   78.83    5.09 
  -1   8   8   75.62    5.26 
  -1  -8  -8   79.07    4.80 
   1   8   8   77.19    5.14 
  -1  -8   8   84.08    5.28 
  -1   8  -8   75.68    5.09 
   1   8   8   73.99    5.36 
   2   8  -8  107.32    6.55 
  -2  -8  -8  104.95    6.37 
   2  -8   8  116.33    6.49 
  -2   8   8   96.00    6.58 
  -2   8  -8  114.86    6.75 
   2   8   8   96.04    6.83 
   2   8   8  104.38    6.83 
   3  -8   8   15.44    1.49 
   3   8  -8   16.62    1.66 
  -3  -8  -8   18.02    1.68 
  -3   8   8   14.71    1.54 
  -3   8  -8   16.59    1.78 
   3   8   8   13.42    1.77 
   3   8   8   15.96    1.90 
  -4   8   8    0.90    0.38 
   4  -8   8    0.42    0.39 
  -4  -8  -8    0.10    0.51 
   4   8  -8    0.39    0.33 
   4  -8   8    1.08    0.43 
  -4   8  -8    0.72    0.47 
   4   8   8    1.08    0.67 
   4   8   8    1.20    0.62 
  -5   8   8    5.45    0.74 
   5  -8   8    4.95    0.87 
   5   8  -8    4.75    0.92 
   5  -8   8    5.74    0.80 
   5   8   8    5.67    1.48 
  -5   8  -8    4.04    1.06 
   5   8   8    5.02    1.16 
  -6   8   8  100.95    6.17 
   6  -8   8  117.58    6.32 
   6  -8   8  105.47    6.92 
   6   8  -8  102.07    6.66 
   6   8   8  114.83    7.45 
  -6   8  -8  126.68    7.68 
   6   8   8  106.23    7.64 
   7  -8   8   16.41    1.85 
   7   8  -8   18.19    1.77 
  -7   8  -8   22.13    2.60 
   7   8   8   20.21    2.53 
   7   8   8   16.29    2.14 
   8  -8   8    4.32    1.12 
   8   8  -8    5.37    1.02 
  -8   8  -8    6.16    1.63 
   8   8   8    5.21    1.34 
   8   8   8    4.42    1.32 
   0  -9   8    0.25    0.35 
   0   9   8    0.30    0.36 
   0   9  -8   -0.30    0.22 
   0   9   8    0.80    0.32 
   1  -9   8    0.20    0.31 
  -1   9   8    0.22    0.35 
  -1  -9  -8    0.31    0.24 
  -1   9  -8    0.34    0.40 
   1   9   8    0.80    0.57 
   1   9   8    0.45    0.45 
   2  -9   8   96.70    5.80 
   2   9  -8   93.10    5.95 
  -2  -9  -8   87.49    5.65 
  -2   9   8   89.61    6.05 
   2   9   8   93.64    6.21 
   2   9   8   88.17    6.31 
  -2   9  -8   97.73    6.12 
   3  -9   8    0.26    0.33 
   3   9  -8    0.00    0.27 
  -3   9   8    0.19    0.36 
  -3  -9  -8    0.73    0.47 
   3   9   8    1.09    0.59 
   3   9   8    0.90    0.56 
  -3   9  -8    0.22    0.40 
   4   9  -8   23.74    2.21 
   4  -9   8   26.18    2.01 
   4  -9   8   23.26    2.28 
  -4   9   8   23.44    2.06 
   4   9   8   21.94    2.56 
   4   9   8   22.56    2.49 
  -4   9  -8   24.65    2.42 
  -5   9   8    1.00    0.48 
   5   9  -8   -0.07    0.43 
   5  -9   8    0.72    0.49 
   5  -9   8    0.19    0.33 
   5   9   8    0.38    0.56 
  -5   9  -8   -0.08    0.49 
   5   9   8   -0.21    0.33 
  -6   9   8   27.60    2.07 
   6  -9   8   33.49    2.72 
   6   9  -8   28.44    2.50 
   6   9   8   29.57    3.89 
   6   9   8   31.46    3.04 
   7  -9   8   -0.07    0.38 
   7   9  -8   -0.11    0.43 
   7   9   8    0.40    0.63 
  -7   9  -8    0.14    0.66 
   7   9   8    0.85    0.68 
   8  -9   8    0.61    0.63 
   8   9  -8   -0.38    0.44 
   8   9   8    1.64    0.98 
  -8   9  -8    0.11    1.02 
   8   9   8    0.21    0.62 
   0  10   8   57.87    4.73 
   0  10  -8   69.26    4.60 
   1 -10   8   71.54    4.58 
  -1  10   8   65.71    4.93 
  -1 -10  -8   66.51    4.24 
   1  10  -8   67.27    4.72 
   1  10   8   63.87    5.03 
   1  10   8   63.27    5.42 
  -1  10  -8   71.76    4.84 
  -2 -10  -8   26.02    2.25 
  -2  10   8   26.41    2.60 
   2  10  -8   26.06    2.48 
   2 -10   8   29.37    2.35 
   2  10   8   34.30    2.85 
   2  10   8   27.01    2.82 
  -2  10  -8   31.34    2.70 
   3  10  -8    1.40    0.61 
  -3  10   8    2.38    0.77 
   3 -10   8    2.13    0.62 
  -3 -10  -8    1.82    0.70 
  -3  10  -8    1.83    0.71 
   3  10   8    0.53    0.71 
   3  10   8    1.34    0.72 
  -4  10   8    0.59    0.42 
   4  10  -8    0.15    0.35 
   4 -10   8    0.27    0.23 
   4 -10   8   -0.03    0.33 
   4  10   8    0.42    0.56 
  -4  10  -8    0.20    0.46 
   4  10   8    0.26    0.52 
   5 -10   8   24.04    1.99 
   5  10  -8   26.89    2.52 
  -5  10   8   28.67    2.23 
   5 -10   8   27.88    2.54 
   5  10   8   26.27    2.87 
   5  10   8   29.64    3.17 
  -5  10  -8   33.85    3.03 
   6  10  -8   36.52    3.02 
  -6  10   8   36.92    2.60 
   6 -10   8   39.60    3.10 
  -6  10  -8   40.74    3.69 
   6  10   8   40.46    3.70 
   6  10   8   34.93    3.78 
   7 -10   8   54.63    4.15 
   7  10  -8   54.79    4.16 
   7  10   8   59.58    4.86 
  -7  10  -8   70.55    6.42 
   7  10   8   61.95    5.37 
   0  11   8    0.26    0.42 
   0  11  -8    0.03    0.38 
   1  11  -8   11.35    1.59 
  -1  11   8   13.39    1.67 
  -1 -11  -8   12.52    1.26 
  -1  11  -8   13.22    1.70 
   1  11   8   12.35    1.88 
   2  11  -8   31.49    2.84 
  -2 -11  -8   30.26    2.49 
   2 -11   8   33.57    2.63 
  -2  11   8   31.21    2.96 
   2  11   8   32.08    3.24 
  -2  11  -8   34.61    2.99 
   3 -11   8   48.17    3.30 
  -3  11   8   46.73    3.63 
   3  11  -8   44.39    3.63 
  -3  11  -8   45.97    3.81 
   3  11   8   45.83    3.99 
   3  11   8   44.64    4.11 
   4 -11   8   43.89    3.16 
  -4  11   8   42.78    3.54 
   4  11  -8   48.44    3.75 
   4 -11   8   51.62    3.84 
  -4  11  -8   50.75    4.08 
   4  11   8   46.99    4.24 
   4  11   8   46.97    4.22 
  -5  11   8   21.33    2.06 
   5 -11   8   25.29    2.32 
   5  11  -8   18.23    2.17 
   5  11   8   22.06    2.67 
  -5  11  -8   24.20    2.68 
   6 -11   8   19.30    1.99 
   6  11  -8   16.43    1.99 
  -6  11   8   19.86    1.78 
   6  11   8   18.64    2.47 
   6  11   8   13.87    2.29 
   0  12  -8   12.24    1.70 
   0  12   8   10.06    1.95 
   1  12  -8    9.85    2.59 
  -1  12   8   10.12    1.67 
   1  12   8   10.77    2.13 
  -1  12  -8    9.45    1.53 
  -2 -12  -8   37.08    2.88 
   2  12  -8   41.79    3.43 
  -2  12   8   34.79    3.38 
   2  12   8   36.22    3.69 
  -2  12  -8   45.38    3.61 
   3  12  -8    2.67    0.94 
   3 -12   8    2.72    1.11 
  -3  12  -8    3.45    0.99 
   3  12   8    2.09    1.03 
   4 -12   8    0.21    0.39 
   4 -12   8    0.79    0.48 
   4  12  -8    2.16    0.77 
  -4  12   8   -0.01    0.64 
   4  12   8    0.00    0.65 
   5  12  -8    0.18    0.62 
  -5  12   8    3.12    0.82 
   5 -12   8   -0.18    0.37 
   5 -12   8    0.13    0.49 
   5  12   8    0.73    0.76 
  -5  12  -8    1.66    0.70 
   0  13   8    0.95    0.88 
   0  13  -8   -0.22    0.55 
   1  13  -8    7.87    1.57 
  -1  13   8    5.17    1.42 
  -1  13  -8    8.40    1.57 
   1  13   8    5.40    1.79 
   2  13  -8   56.68    4.46 
  -2 -13  -8   53.87    3.82 
  -2  13   8   57.45    4.67 
   2  13   8   51.21    4.88 
  -2  13  -8   59.55    4.60 
   3  13  -8   34.47    3.15 
   3 -13   8   29.56    2.52 
  -3  13   8   31.37    3.09 
   3  13   8   31.60    3.55 
  -3  13  -8   36.25    3.33 
   4  13  -8    6.57    1.47 
   4 -13   8    4.90    1.21 
  -4  13   8    6.58    1.37 
   4  13   8    4.98    1.53 
  -4  13  -8    9.06    1.36 
   0  14   8   11.00    2.30 
   0  14  -8   12.13    1.88 
   1  14  -8    2.22    1.08 
  -1  14   8    2.36    1.26 
   1  14   8    0.50    0.92 
  -1  14  -8    4.01    1.28 
   2  14  -8   23.91    2.70 
  -2  14   8   23.19    2.90 
   2  14   8   24.71    3.20 
  -2  14  -8   27.75    2.90 
   0   0   9    0.36    0.32 
   0   0  -9    0.88    0.31 
   1   0   9    3.55    0.74 
  -1   0  -9    4.76    0.71 
  -1   0   9    4.40    0.88 
   1   0  -9    4.58    0.60 
   2   0   9   28.84    2.21 
   2   0  -9   24.36    1.72 
  -2   0  -9   25.03    2.09 
  -2   0   9   24.93    2.12 
  -3   0  -9   24.55    2.21 
  -3   0   9   21.53    1.95 
   3   0   9   27.39    2.58 
   3   0   9   22.25    1.98 
   4   0   9  221.41   12.81 
   4   0   9  220.36   12.22 
  -4   0   9  206.31   12.14 
  -5   0   9   10.50    1.25 
   5   0   9    9.64    1.20 
   5   0   9    9.91    1.40 
   6   0   9   20.21    1.93 
   6   0   9   20.25    1.79 
   6   0   9   19.15    2.08 
  -6   0   9   18.32    2.07 
  -6   0   9   18.77    1.86 
  -7   0   9    0.87    0.54 
   7   0   9    0.43    0.36 
  -7   0   9    1.49    1.11 
   7   0   9    1.71    0.57 
   7   0   9    0.49    0.43 
   8   0   9    3.22    1.05 
   8   0   9    3.15    1.32 
  -8   0   9    3.96    0.90 
   8   0   9    3.34    0.81 
   9   0   9    3.41    0.76 
   9   0   9    0.46    0.50 
   0   1   9   86.43    5.13 
   0  -1   9   77.55    5.03 
   0   1  -9   74.52    4.75 
   1   1  -9    0.42    0.26 
  -1   1   9    0.61    0.34 
   1  -1   9    0.84    0.39 
  -1   1  -9    0.49    0.27 
  -1  -1   9    0.46    0.32 
   1   1   9    0.64    0.41 
   1   1   9    0.47    0.37 
   2  -1   9  150.66    8.72 
   2   1  -9  137.95    8.26 
  -2   1   9  143.88    8.69 
   2  -1   9  175.68    9.67 
  -2   1  -9  158.88    8.89 
  -2  -1   9  155.57    8.78 
   2   1   9  131.57    9.53 
   2   1   9  144.74    8.74 
   3   1  -9    1.19    0.31 
   3  -1   9    1.29    0.59 
   3  -1   9    0.89    0.39 
  -3   1   9    1.43    0.51 
  -3  -1   9    1.59    0.48 
  -3   1  -9    0.99    0.44 
   3   1   9    0.59    0.52 
   3   1   9    0.50    0.30 
   4   1  -9    0.84    0.23 
  -4   1   9    0.69    0.39 
   4  -1   9    1.13    0.48 
   4  -1   9    0.30    0.35 
   4   1   9    0.58    0.43 
   4   1   9    1.02    0.45 
  -4   1  -9    0.54    0.41 
  -4  -1   9    1.37    0.50 
   5  -1   9    8.63    1.29 
  -5   1   9    6.79    1.12 
   5  -1   9    6.64    0.93 
   5   1   9    5.08    1.12 
   5   1   9    7.41    1.00 
  -5  -1   9    5.93    0.97 
   6  -1   9   64.26    4.79 
  -6   1   9   63.57    4.73 
   6  -1   9   72.22    4.58 
   6  -1   9   72.64    4.41 
  -6   1   9   63.29    4.37 
   6   1   9   69.27    4.46 
  -6  -1   9   65.68    4.59 
  -6  -1   9   68.11    4.99 
   6   1   9   66.40    4.90 
   6   1   9   68.02    4.59 
   7  -1   9    3.36    0.79 
   7  -1   9    3.98    1.08 
  -7   1   9    4.00    1.00 
  -7   1   9    4.29    0.87 
   7  -1   9    5.18    0.83 
   7   1   9    3.35    0.95 
  -7  -1   9    5.75    1.26 
  -7  -1   9    1.81    0.82 
   7   1   9    4.42    0.96 
   8  -1   9   54.59    3.80 
   8  -1   9   49.97    4.20 
   8  -1   9   57.79    3.67 
  -8   1   9   57.29    3.92 
   8   1   9   49.70    5.27 
   8   1   9   54.69    3.78 
  -8  -1   9   53.41    4.15 
   8   1   9   60.13    4.04 
   9  -1   9    0.50    0.41 
   9  -1   9    1.40    0.64 
  -9   1   9    1.59    0.79 
   9   1   9    0.17    0.48 
   9   1   9    0.02    0.50 
   0   2   9    0.29    0.25 
   0   2  -9    0.24    0.19 
   0  -2   9    0.32    0.28 
   1  -2   9   24.18    1.98 
   1   2  -9   20.82    1.69 
  -1   2   9   23.38    1.97 
   1   2   9   20.96    2.07 
   1   2   9   24.89    2.04 
  -1   2  -9   22.63    1.86 
  -1  -2   9   22.83    1.96 
   2   2  -9  398.95   21.16 
   2  -2   9  404.37   21.54 
  -2   2   9  391.40   21.51 
  -2   2  -9  377.24   21.99 
   2   2   9  409.39   21.65 
   2   2   9  349.51   22.32 
  -2  -2   9  433.62   21.68 
   3   2  -9   88.33    5.42 
   3  -2   9   97.27    6.34 
  -3   2   9   90.23    6.32 
   3  -2   9   97.21    5.83 
  -3  -2   9  100.62    6.00 
   3   2   9   94.71    5.95 
  -3   2  -9   98.34    6.01 
   3   2   9   93.41    6.29 
   4  -2   9   13.95    1.38 
   4   2  -9   12.81    1.08 
   4  -2   9   12.84    1.60 
  -4   2   9   14.97    1.68 
   4   2   9   12.66    1.45 
  -4  -2   9   14.52    1.54 
   4   2   9   14.11    1.77 
  -4   2  -9   14.00    1.58 
   5  -2   9   46.28    3.65 
  -5   2   9   43.70    3.18 
  -5   2   9   44.92    3.44 
   5   2  -9   47.82    2.83 
   5  -2   9   47.05    3.27 
   5   2   9   49.72    3.50 
   5   2   9   49.18    3.59 
  -5   2  -9   53.65    3.89 
   5   2   9   48.52    3.91 
  -5  -2   9   48.08    3.53 
  -6   2   9  126.21    8.00 
   6  -2   9  141.34    8.07 
  -6   2   9  134.19    8.42 
   6  -2   9  133.18    8.55 
  -6   2  -9  146.94    9.02 
   6   2   9  147.30    8.37 
   6   2   9  141.80    8.47 
  -6  -2   9  137.46    8.50 
  -6  -2   9  127.26    8.80 
   6   2   9  155.30    9.16 
   7  -2   9   -0.12    0.27 
  -7   2   9   -0.14    0.39 
  -7   2   9   -0.65    0.39 
   7  -2   9   -0.25    0.29 
   7  -2   9   -0.36    0.31 
   7   2   9    1.02    0.50 
   7   2   9    0.31    0.44 
  -7  -2   9    0.39    0.55 
   7   2   9    0.25    0.51 
   8  -2   9    2.39    0.55 
  -8   2   9    2.04    0.72 
   8  -2   9    1.82    0.75 
   8  -2   9    2.02    0.63 
   8   2   9    0.69    0.46 
   8   2   9    1.82    0.77 
   9  -2   9   20.07    2.32 
  -9   2   9   21.93    2.61 
   9  -2   9   18.49    1.71 
   9   2   9   18.65    2.33 
   9   2   9   20.16    2.01 
   0   3   9   36.16    2.59 
   0  -3   9   35.76    2.63 
   0   3  -9   32.87    2.40 
   0   3   9   30.31    2.67 
   1  -3   9   89.08    5.24 
  -1   3   9   76.69    5.32 
   1   3  -9   78.77    4.92 
  -1   3   9   85.49    5.17 
   1   3   9   77.54    5.15 
  -1  -3   9   91.04    5.33 
   1   3   9   79.48    5.40 
   2   3  -9  393.43   21.27 
  -2   3   9  407.82   21.56 
   2  -3   9  406.55   21.58 
  -2  -3   9  419.60   21.78 
  -2   3  -9  364.26   21.52 
   2   3   9  387.85   21.63 
   3   3  -9    4.07    0.59 
  -3   3   9    4.21    0.91 
   3  -3   9    4.68    1.03 
   3  -3   9    5.39    0.81 
   3   3   9    3.12    0.73 
   3   3   9    5.42    1.17 
  -3   3  -9    2.88    0.68 
  -3  -3   9    4.24    0.92 
   4  -3   9    0.30    0.41 
  -4   3   9    0.66    0.33 
   4  -3   9    0.62    0.33 
   4   3  -9    0.21    0.20 
  -4  -3  -9    1.11    0.52 
   4   3   9    0.48    0.38 
   4   3   9   -0.17    0.24 
  -4   3  -9    0.41    0.29 
  -4  -3   9   -0.07    0.30 
   5   3  -9   35.05    2.26 
   5  -3   9   32.25    2.48 
  -5   3   9   32.39    2.45 
   5  -3   9   33.34    2.90 
  -5   3  -9   39.49    3.13 
  -5  -3   9   36.45    2.93 
   5   3   9   33.18    2.83 
   5   3   9   32.35    2.98 
   5   3   9   36.66    2.96 
   6   3  -9  254.03   12.79 
   6  -3   9  232.11   13.76 
   6  -3   9  248.73   13.22 
  -6   3   9  234.92   13.46 
  -6   3   9  215.75   13.05 
  -6  -3   9  232.29   14.22 
   6   3   9  222.81   13.68 
  -6  -3   9  234.05   13.82 
   6   3   9  258.03   14.30 
   6   3   9  243.12   13.74 
   7  -3   9   54.65    4.34 
   7  -3   9   61.67    3.87 
  -7   3   9   51.21    3.76 
  -7   3   9   54.60    4.15 
   7  -3   9   66.26    4.05 
   7   3   9   61.92    4.35 
  -7   3  -9   68.81    5.08 
   7   3   9   62.32    4.70 
   8  -3   9    1.83    0.81 
  -8   3   9    1.28    0.66 
   8  -3   9    1.76    0.59 
   8  -3   9    2.81    0.65 
  -8   3   9    2.84    0.76 
   8   3   9    4.56    1.07 
   8   3   9    1.66    0.81 
  -9   3   9   25.95    2.08 
  -9   3   9   20.64    2.49 
   9  -3   9   22.09    2.43 
   9   3   9   23.99    2.53 
   9   3   9   20.69    2.57 
   0  -4   9   -0.09    0.23 
   0   4   9    1.46    0.49 
   0   4   9    0.52    0.29 
   0   4  -9    0.00    0.17 
   1   4  -9    3.19    0.64 
   1  -4   9    2.15    0.59 
  -1   4   9    2.65    0.78 
  -1   4   9    4.12    0.83 
   1   4   9    2.08    0.63 
  -1  -4   9    2.07    0.59 
   1   4   9    2.75    0.73 
  -1   4  -9    3.19    0.73 
  -2   4   9  143.01    8.14 
  -2   4   9  127.39    8.29 
   2  -4   9  152.00    8.26 
   2   4  -9  133.89    7.97 
  -2   4  -9  142.60    8.31 
  -2  -4   9  152.02    8.47 
   2   4   9  140.69    8.31 
   2   4   9  132.74    8.58 
   3  -4   9   11.78    1.51 
   3  -4   9   12.68    1.25 
   3   4  -9   10.18    1.04 
  -3   4  -9   10.42    1.28 
   3   4   9    7.81    1.26 
  -3  -4   9   11.55    1.36 
   3   4   9    8.59    1.20 
   4   4  -9   33.74    2.30 
   4  -4   9   33.19    2.45 
  -4   4   9   31.52    2.37 
   4  -4   9   30.93    2.75 
  -4  -4  -9   32.20    2.68 
   4   4   9   35.30    2.89 
  -4  -4   9   36.25    2.81 
   4   4   9   30.96    3.05 
   4   4   9   30.32    2.83 
  -4   4  -9   31.67    2.74 
  -5   4   9    3.13    0.63 
   5  -4   9    1.60    0.50 
  -5   4   9    2.24    0.62 
   5   4  -9    2.31    0.51 
   5  -4   9    3.10    0.93 
  -5  -4   9    2.29    0.75 
   5   4   9    1.34    0.66 
   5   4   9    2.22    0.78 
  -5   4  -9    2.18    0.77 
   5   4   9    1.48    0.53 
   6  -4   9   48.41    3.91 
   6  -4   9   53.85    3.51 
  -6   4   9   50.75    3.55 
   6   4  -9   52.23    3.64 
  -6   4   9   47.98    3.30 
  -6  -4   9   56.84    4.17 
  -6   4  -9   59.05    4.39 
   6   4   9   57.70    4.08 
   6   4   9   54.25    4.27 
   7  -4   9    2.34    0.60 
  -7   4   9    1.75    0.58 
   7  -4   9    0.96    0.47 
  -7   4   9    1.43    0.39 
   7   4  -9    1.38    0.30 
   7   4   9    0.62    0.68 
   7   4   9    0.88    0.56 
  -7   4  -9    1.48    0.80 
   8  -4   9    0.29    0.46 
   8  -4   9    0.22    0.28 
  -8   4   9   -0.14    0.39 
   8  -4   9    0.13    0.35 
  -8   4   9   -0.27    0.53 
   8   4   9   -0.44    0.42 
   8   4   9    0.39    0.40 
   9  -4   9    3.41    1.01 
   9   4   9    3.01    1.12 
   9   4   9    3.86    1.02 
   0  -5   9  248.94   12.91 
   0   5   9  206.04   12.86 
   0   5  -9  224.82   12.72 
   1  -5   9   27.24    2.16 
   1   5  -9   23.73    1.96 
  -1   5   9   22.64    2.10 
  -1  -5   9   28.86    2.26 
   1   5   9   24.20    2.24 
  -1   5  -9   24.08    2.06 
  -2   5   9   31.00    2.57 
  -2   5   9   33.59    2.50 
   2   5  -9   35.26    2.52 
   2  -5   9   38.27    2.70 
   2   5   9   33.35    2.88 
   2   5   9   35.08    2.71 
  -2  -5   9   38.96    2.87 
  -2   5  -9   34.19    2.66 
  -3  -5  -9    2.92    0.73 
   3   5  -9    3.13    0.61 
  -3   5   9    3.86    0.64 
  -3   5   9    2.50    0.66 
   3  -5   9    2.86    0.80 
   3  -5   9    5.02    0.76 
   3   5   9    2.66    0.73 
   3   5   9    3.22    0.90 
  -3   5  -9    4.41    0.90 
  -3  -5   9    4.39    0.97 
   4  -5   9    3.82    0.95 
   4   5  -9    3.37    0.64 
  -4   5   9    4.05    0.73 
  -4  -5  -9    4.40    1.01 
   4  -5   9    4.70    0.85 
  -4  -5   9    3.36    0.82 
   4   5   9    3.64    0.90 
  -4   5  -9    4.95    1.08 
   4   5   9    3.12    0.86 
   5  -5   9    0.28    0.27 
   5  -5   9    0.31    0.40 
  -5   5   9    0.62    0.32 
   5   5  -9    0.48    0.28 
  -5   5   9    0.66    0.41 
  -5  -5   9    2.08    0.59 
  -5   5  -9    0.18    0.36 
   5   5   9    0.57    0.46 
   5   5   9    0.36    0.47 
   6  -5   9   11.34    1.51 
  -6   5   9   10.36    1.00 
   6  -5   9   11.68    1.23 
  -6   5   9   11.30    1.14 
   6   5  -9   10.72    1.09 
   6   5   9   10.06    1.48 
  -6   5  -9   11.75    1.70 
   6   5   9   13.07    1.80 
  -7   5   9    3.11    0.56 
   7  -5   9    3.25    0.70 
   7   5  -9    2.99    0.60 
   7  -5   9    3.04    0.67 
   7  -5   9    2.28    0.83 
  -7   5   9    4.90    0.69 
   7   5   9    3.22    1.17 
  -7   5  -9    3.63    1.23 
   7   5   9    3.90    0.98 
   8  -5   9  116.94    6.37 
   8  -5   9   97.30    7.04 
   8   5   9  105.21    7.21 
  -8   5  -9  127.87    8.20 
   8   5   9  104.44    7.59 
   9  -5   9    1.62    0.68 
   9   5   9    0.76    0.67 
   9   5   9    1.60    0.63 
   0  -6   9    0.29    0.36 
   0   6   9    0.29    0.32 
   0   6  -9    0.09    0.25 
   1   6  -9    0.18    0.25 
   1  -6   9    0.26    0.28 
  -1   6   9    0.62    0.34 
  -1   6  -9   -0.20    0.15 
   1   6   9   -0.18    0.18 
  -1  -6   9   -0.26    0.25 
   2  -6   9   54.66    3.64 
   2   6  -9   53.58    3.57 
  -2   6   9   51.99    3.49 
   2   6   9   52.05    4.01 
  -2   6  -9   54.24    3.75 
   2   6   9   50.35    3.94 
   3   6  -9    0.54    0.30 
  -3  -6  -9    1.07    0.45 
  -3   6   9    0.21    0.27 
   3   6   9    0.67    0.54 
   3   6   9    0.76    0.49 
  -3  -6   9    0.95    0.56 
  -4  -6  -9   77.39    5.25 
  -4   6   9   82.84    4.58 
  -4   6   9   75.46    4.41 
   4  -6   9   82.17    5.47 
  -4   6   9   71.16    4.75 
   4  -6   9   79.70    4.94 
   4   6  -9   79.16    4.93 
  -4   6  -9   81.46    5.40 
  -4  -6   9   87.49    5.57 
   4   6   9   76.57    5.48 
   4   6   9   77.20    5.60 
   5   6  -9    0.96    0.42 
   5  -6   9    0.31    0.33 
  -5   6   9    0.46    0.36 
   5  -6   9    0.85    0.49 
   5   6   9    1.22    0.61 
  -5   6  -9    1.40    0.59 
   5   6   9    0.03    0.40 
   6   6  -9   27.97    2.17 
   6  -6   9   30.05    2.19 
   6  -6   9   24.87    2.51 
  -6   6   9   27.08    1.93 
  -6   6  -9   32.76    3.04 
   6   6   9   29.09    2.95 
   6   6   9   27.56    2.73 
   7  -6   9    0.18    0.44 
   7  -6   9    0.77    0.35 
   7  -6   9    1.70    0.47 
   7   6  -9    0.55    0.39 
   7   6   9    0.16    0.39 
  -7   6  -9    0.05    0.56 
   7   6   9    1.04    0.71 
   8  -6   9    0.54    0.26 
   8  -6   9    2.48    0.67 
   8   6  -9    1.43    0.46 
   8   6   9    1.04    0.58 
  -8   6  -9    1.58    1.00 
   8   6   9    3.05    1.16 
   9  -6   9    1.77    0.76 
   9   6   9    1.56    0.72 
   0  -7   9    6.37    0.95 
   0   7  -9    5.24    0.89 
   0   7   9    6.06    0.96 
  -1   7   9   37.60    2.77 
   1   7  -9   39.34    2.91 
   1  -7   9   42.57    2.99 
  -1   7  -9   36.74    2.91 
  -1  -7   9   37.95    3.36 
   1   7   9   36.43    3.23 
   1   7   9   39.74    3.14 
  -2  -7  -9  203.55   11.67 
   2   7  -9  210.96   11.72 
   2  -7   9  222.18   11.78 
  -2   7   9  200.60   11.28 
   2   7   9  202.73   12.17 
   2   7   9  196.36   12.21 
  -2   7  -9  205.60   11.88 
  -3  -7  -9    0.97    0.49 
   3  -7   9    0.67    0.39 
   3   7  -9    0.91    0.42 
   3   7   9    0.73    0.55 
  -3   7  -9    0.99    0.46 
   3   7   9    1.60    0.73 
   4  -7   9    0.14    0.27 
   4   7  -9   -0.02    0.25 
  -4  -7  -9   -0.20    0.49 
   4  -7   9    0.04    0.31 
   4   7   9    0.07    0.43 
   4   7   9   -0.29    0.22 
  -4   7  -9    0.37    0.44 
  -5   7   9   20.25    1.73 
   5  -7   9   19.88    2.14 
   5  -7   9   22.76    1.84 
   5   7  -9   21.64    1.88 
   5   7   9   19.55    2.25 
   5   7   9   19.22    2.35 
  -5   7  -9   23.78    2.39 
   6  -7   9  128.47    8.27 
   6  -7   9  137.33    7.66 
  -6   7   9  116.04    7.38 
   6   7  -9  127.08    7.79 
   6   7   9  136.19    8.61 
  -6   7  -9  151.95    8.99 
   6   7   9  140.73    9.00 
   7  -7   9   28.18    2.68 
   7  -7   9   31.99    2.20 
   7   7  -9   28.63    2.33 
  -7   7  -9   40.58    3.58 
   7   7   9   30.86    3.01 
   7   7   9   27.40    3.15 
   8   7  -9    4.08    0.79 
   8  -7   9    3.04    1.08 
   8   7   9    5.69    1.40 
   8   7   9    3.36    1.37 
  -8   7  -9    7.76    1.81 
   0   8   9    0.28    0.28 
   0   8  -9   -0.01    0.22 
   0   8   9    0.09    0.26 
   0  -8   9   -0.33    0.24 
  -1   8   9   14.77    2.16 
   1  -8   9   14.01    1.75 
   1   8  -9   11.27    1.39 
  -1   8   9   11.29    1.15 
  -1   8  -9   12.42    1.46 
  -1  -8   9   11.11    1.60 
   1   8   9   13.14    1.52 
   1   8   9    9.30    1.52 
  -2   8   9  232.16   12.92 
  -2  -8  -9  233.54   13.55 
  -2   8   9  231.35   13.99 
   2  -8   9  259.72   13.68 
   2   8  -9  254.29   13.76 
   2   8   9  227.67   14.24 
  -2   8  -9  250.82   13.93 
   2   8   9  247.75   14.19 
   3  -8   9   56.30    3.81 
  -3   8   9   58.20    4.08 
  -3  -8  -9   55.06    3.92 
   3   8  -9   53.76    3.89 
   3   8   9   56.30    4.42 
   3   8   9   59.53    4.50 
  -3   8  -9   55.79    4.14 
   4   8  -9   12.25    1.43 
   4  -8   9   13.54    1.69 
  -4   8   9   11.86    1.43 
   4  -8   9   13.69    1.37 
  -4   8  -9   15.00    1.79 
   4   8   9   12.70    1.84 
   4   8   9   12.61    1.80 
   5  -8   9   36.00    3.05 
  -5   8   9   34.56    2.58 
   5  -8   9   37.23    2.63 
   5   8  -9   31.88    2.70 
   5   8   9   36.43    3.49 
  -5   8  -9   38.42    3.31 
   5   8   9   35.05    3.26 
   6   8  -9   96.12    6.07 
  -6   8   9   93.70    6.29 
  -6   8   9   89.12    5.64 
   6  -8   9   93.80    6.40 
   6  -8   9  105.58    5.84 
   6   8   9  109.35    8.72 
   6   8   9  101.77    6.90 
   7  -8   9    0.09    0.27 
   7  -8   9    0.29    0.56 
   7   8  -9   -0.11    0.42 
  -7   8  -9    0.05    0.59 
   7   8   9   -0.01    0.77 
   7   8   9    0.29    0.51 
   8   8  -9    1.25    0.54 
  -8   8  -9    0.73    0.98 
   8   8   9    2.90    1.10 
   8   8   9    1.38    0.85 
   0   9   9    9.62    1.58 
   0   9  -9   13.37    1.53 
   0   9   9   12.60    1.36 
   1  -9   9    5.78    1.14 
  -1   9   9    3.26    1.01 
   1   9  -9    4.12    0.95 
  -1   9   9    4.13    0.61 
   1   9   9    3.86    1.08 
  -1   9  -9    5.07    1.13 
   1   9   9    6.00    1.56 
  -2  -9  -9   90.48    5.81 
   2   9  -9   94.85    6.06 
   2  -9   9  101.83    6.52 
  -2   9  -9   98.00    6.26 
   2   9   9   81.59    6.41 
   2   9   9   97.76    6.46 
   3  -9   9    0.32    0.39 
  -3   9   9    1.63    0.68 
   3   9  -9   -0.08    0.29 
  -3  -9  -9   -0.02    0.31 
  -3   9  -9    0.32    0.39 
   3   9   9    0.05    0.52 
   3   9   9   -0.56    0.33 
   4   9  -9    0.19    0.38 
  -4   9   9   -0.37    0.35 
   4  -9   9   -0.38    0.37 
   4  -9   9    0.06    0.40 
  -4   9  -9    0.21    0.46 
   4   9   9    0.92    0.70 
   4   9   9    0.49    0.55 
   5   9  -9    4.95    1.02 
   5  -9   9    7.75    1.26 
   5  -9   9    5.79    0.98 
   5   9   9    8.85    3.00 
   5   9   9    4.42    1.39 
  -5   9  -9    7.95    1.64 
   6  -9   9   60.61    4.45 
   6   9  -9   57.39    4.18 
  -6   9   9   55.75    3.72 
   6   9   9   62.31    5.24 
  -6   9  -9   69.80    5.11 
   6   9   9   60.85    4.93 
   7  -9   9    6.56    1.41 
   7   9  -9    6.72    1.46 
   7   9   9    6.17    1.41 
   7   9   9    5.97    1.71 
   0  10   9    0.32    0.29 
   0  10  -9    0.44    0.47 
   0  10   9   -0.08    0.50 
  -1  10   9    2.03    0.76 
   1  10  -9    1.95    0.75 
   1  10   9    1.82    0.71 
   1  10   9    0.91    0.60 
  -1  10  -9    2.28    0.75 
   2  10  -9   10.02    1.42 
   2 -10   9   11.46    1.30 
  -2 -10  -9   10.62    1.25 
  -2  10   9    9.83    1.80 
   2  10   9   13.51    1.75 
  -2  10  -9   10.62    1.55 
   2  10   9   10.81    2.12 
   3  10  -9    8.12    1.23 
   3  10   9    5.94    1.50 
  -3  10  -9    7.32    1.46 
   3  10   9    8.86    1.85 
   4 -10   9  100.28    6.03 
  -4  10   9   90.13    6.24 
   4  10  -9   96.04    6.33 
   4 -10   9   93.69    6.57 
   4  10   9  100.10    7.32 
   4  10   9  102.92    7.23 
  -4  10  -9  107.13    6.87 
  -5  10   9    6.19    1.01 
   5 -10   9    6.45    1.04 
   5 -10   9    3.68    1.03 
   5  10  -9    5.70    1.14 
  -5  10  -9    5.18    1.37 
   5  10   9    2.73    0.99 
   5  10   9    4.87    1.56 
   6  10  -9    8.34    1.34 
   6 -10   9    9.82    1.40 
  -6  10   9    8.40    1.08 
   6  10   9    4.79    1.39 
  -6  10  -9    9.58    2.75 
   6  10   9   10.35    2.20 
   7 -10   9    1.30    0.70 
   7  10  -9    0.94    0.65 
   7  10   9    1.21    0.93 
   7  10   9    0.37    0.88 
  -7  10  -9    1.43    0.95 
   0  11  -9   81.95    5.62 
   0  11   9   78.80    5.99 
  -1  11   9   10.05    1.58 
   1  11  -9    6.88    1.34 
  -1  11  -9    7.13    1.38 
   1  11   9    5.06    1.48 
  -2 -11  -9   18.77    1.82 
  -2  11   9   19.84    2.27 
   2  11  -9   20.42    2.19 
  -2  11  -9   20.24    2.25 
   2  11   9   17.27    2.43 
   2  11   9   19.20    2.21 
   3 -11   9    1.87    0.57 
   3  11  -9    0.17    0.40 
  -3 -11  -9   -0.13    0.42 
  -3  11   9    1.29    0.69 
   3  11   9    2.06    0.85 
  -3  11  -9    0.94    0.68 
   3  11   9    0.71    0.66 
   4 -11   9    3.27    0.70 
  -4  11   9    2.27    0.75 
   4  11  -9    1.72    0.76 
   4 -11   9    0.97    0.73 
   4  11   9    1.74    0.96 
   4  11   9    2.39    1.00 
  -4  11  -9    2.55    0.98 
   5 -11   9    1.33    0.44 
   5  11   9   -0.11    0.52 
   5  11   9    2.37    0.84 
  -5  11  -9    0.49    0.77 
   6  11  -9    8.37    1.52 
  -6  11   9   11.60    1.29 
   6 -11   9    8.58    1.45 
   6  11   9    7.51    1.94 
  -6  11  -9    9.83    1.98 
   6  11   9    6.72    1.64 
   0  12   9    0.02    0.59 
   0  12  -9    0.65    0.55 
   1  12  -9    2.68    0.95 
  -1  12   9    3.22    1.11 
  -1  12  -9    3.75    1.09 
   1  12   9    5.30    1.55 
  -2  12   9   75.77    5.74 
  -2 -12  -9   75.87    5.38 
   2  12  -9   74.38    5.42 
  -2  12  -9   81.90    5.72 
   3  12  -9   12.30    1.72 
  -3  12   9   14.29    1.86 
  -3  12  -9   12.75    1.92 
   3  12   9   14.58    2.24 
   4 -12   9    1.77    0.48 
  -4  12   9    2.70    1.00 
   4 -12   9    3.53    0.99 
   4  12  -9    2.44    0.95 
   4  12   9    1.39    1.03 
  -4  12  -9    3.53    1.05 
  -5  12   9    9.53    1.33 
   5  12  -9    4.93    1.20 
   5 -12   9    6.16    1.42 
  -5  12  -9    6.99    1.83 
   5  12   9    7.62    1.95 
   0  13  -9    7.22    1.51 
   0  13   9    8.95    2.00 
   1  13  -9   21.85    2.42 
  -1  13   9   20.54    2.66 
   1  13   9   19.14    2.82 
  -1  13  -9   21.20    2.47 
  -2  13   9   93.14    7.05 
   2  13  -9   97.94    6.78 
   2  13   9   99.54    7.59 
  -2  13  -9  107.51    7.12 
   3  13  -9    0.82    0.68 
  -3  13   9    0.48    0.76 
  -3  13  -9    0.97    0.85 
   3  13   9    1.21    0.87 
   4 -13   9    0.13    0.65 
   4  13  -9    0.10    0.54 
  -4  13  -9    0.04    0.67 
   0  14  -9   -0.14    0.62 
   0  14   9    1.00    0.78 
   1  14  -9    0.72    0.65 
  -1  14   9    0.47    1.11 
   1  14   9    0.28    0.93 
  -1  14  -9    0.91    0.67 
   0   0 -10  823.75   45.80 
   0   0  10  910.51   46.32 
   1   0 -10   36.04    2.41 
  -1   0 -10   37.71    2.82 
   1   0  10   34.70    2.79 
  -1   0  10   34.03    2.77 
   2   0  10   23.04    2.02 
   2   0 -10   19.54    1.53 
  -2   0 -10   22.04    1.93 
   2   0  10   22.28    2.38 
  -2   0  10   23.15    2.06 
  -3   0  10    2.83    0.78 
   3   0  10    3.61    0.80 
   3   0  10    3.65    1.06 
   4   0  10    0.87    0.63 
  -4   0  10    1.31    0.46 
   4   0  10    1.03    0.48 
   5   0  10    6.84    1.06 
  -5   0  10    6.83    1.11 
   5   0  10    8.20    1.33 
  -6   0  10    3.58    1.07 
   6   0  10    1.97    0.75 
   6   0  10    2.20    0.76 
  -6   0  10    2.32    0.72 
   6   0  10    2.20    0.62 
   7   0  10   21.27    1.91 
  -7   0  10   19.43    2.38 
   7   0  10   20.70    2.05 
   7   0  10   21.27    2.35 
  -8   0  10  207.15   12.82 
   8   0  10  228.66   12.66 
   8   0  10  220.31   13.25 
   9   0  10    6.78    1.48 
   9   0  10    7.43    1.20 
   0   1 -10    0.19    0.20 
   0   1  10    0.31    0.30 
   0  -1  10   -0.31    0.26 
  -1   1  10   15.81    1.65 
   1   1 -10   15.67    1.36 
   1  -1  10   16.34    1.63 
   1   1  10   15.56    1.63 
   1   1  10   17.44    2.49 
  -1  -1  10   17.70    1.75 
  -1   1 -10   14.44    1.50 
  -2   1  10    9.90    1.26 
   2  -1  10    9.15    1.16 
   2   1 -10    9.20    0.92 
   2  -1  10    8.95    1.41 
  -2  -1  10    9.89    1.28 
  -2   1 -10    9.70    1.22 
   2   1  10   10.02    1.23 
   2   1  10    9.47    1.41 
   3   1 -10   42.97    2.83 
  -3   1  10   48.17    3.41 
   3  -1  10   52.14    4.05 
   3  -1  10   44.60    3.31 
   3   1  10   48.11    3.83 
   3   1  10   45.97    3.39 
  -3   1 -10   44.63    3.39 
  -3  -1  10   47.24    3.45 
  -4   1  10  285.86   16.30 
   4  -1  10  270.93   16.70 
   4  -1  10  293.67   16.29 
   4   1 -10  296.81   15.63 
  -4   1 -10  307.96   16.71 
   4   1  10  293.45   16.92 
  -4  -1  10  289.78   16.46 
   4   1  10  307.58   16.43 
   5  -1  10   20.89    2.26 
  -5   1  10   20.60    2.00 
   5  -1  10   20.66    1.93 
   5   1  10   23.97    3.02 
   5   1  10   29.29    2.86 
  -5  -1  10   23.27    2.16 
   6  -1  10    6.56    1.41 
  -6   1  10    8.35    1.36 
   6  -1  10    9.51    1.15 
  -6   1  10    8.76    1.17 
  -6  -1  10    6.85    1.30 
   6   1  10    8.02    1.38 
   6   1  10    8.30    1.25 
  -6  -1  10    8.63    1.73 
   6   1  10    7.49    1.15 
   7  -1  10    0.33    0.43 
  -7   1  10    1.26    0.52 
   7  -1  10   -0.07    0.34 
   7  -1  10    0.16    0.38 
  -7   1  10   -0.54    0.43 
   7   1  10    0.12    0.31 
   7   1  10    0.21    0.35 
  -7  -1  10    0.24    0.58 
  -7  -1  10    1.27    0.90 
   8  -1  10    2.96    0.68 
   8  -1  10    1.49    0.61 
  -8   1  10    3.63    0.75 
  -8   1  10    3.26    0.97 
   8  -1  10    2.72    0.96 
   8   1  10    1.24    0.62 
   8   1  10    2.14    0.95 
   9  -1  10   10.42    1.69 
   9  -1  10   10.30    1.38 
   9   1  10   11.76    1.50 
   9   1  10    9.92    1.72 
   0  -2  10   27.28    2.30 
   0   2  10   24.75    2.39 
   0   2  10   27.32    2.30 
  -1   2  10   46.96    3.35 
   1   2 -10   43.42    3.02 
   1  -2  10   47.81    3.38 
   1   2  10   37.77    3.87 
   1   2  10   48.32    3.43 
  -1   2 -10   50.01    3.36 
  -1  -2  10   46.44    3.38 
   2  -2  10  133.82    7.66 
   2   2 -10  120.36    7.19 
  -2   2  10  129.00    7.65 
  -2  -2  10  135.35    7.78 
   2   2  10  117.12    7.92 
  -2   2 -10  118.51    7.50 
   2   2  10  131.75    7.74 
  -3   2  10    2.65    0.72 
   3  -2  10    3.31    0.73 
   3  -2  10    2.47    0.92 
   3   2 -10    2.24    0.48 
   3   2  10    1.97    0.74 
  -3   2 -10    2.72    0.78 
   3   2  10    2.07    0.60 
  -3  -2  10    2.27    0.67 
   4   2 -10    3.78    0.53 
  -4   2  10    4.10    0.86 
   4  -2  10    3.10    0.94 
   4  -2  10    4.32    0.89 
   4   2  10    2.28    0.61 
  -4   2 -10    2.69    0.76 
  -4  -2  10    5.16    1.04 
   4   2  10    5.19    1.20 
   5  -2  10   11.26    1.30 
   5  -2  10   10.85    1.51 
   5   2 -10   10.51    0.87 
  -5   2  10   10.10    1.24 
  -5   2 -10   10.11    1.51 
   5   2  10    9.33    1.28 
  -5  -2  10   12.21    1.36 
   5   2  10   11.39    1.46 
   5   2  10    9.10    1.47 
  -6   2  10  142.27    8.96 
   6  -2  10  157.63    9.00 
   6  -2  10  155.74    9.60 
  -6   2  10  159.87    9.44 
  -6  -2  10  148.99    9.44 
   6   2  10  178.23   10.37 
  -6  -2  10  135.13    9.68 
   6   2  10  163.69    9.47 
  -7   2  10   24.43    2.32 
   7  -2  10   23.59    2.10 
   7  -2  10   23.94    1.99 
  -7   2  10   18.76    1.87 
   7  -2  10   22.42    2.36 
  -7  -2  10   22.76    2.89 
   7   2  10   19.19    2.33 
   7   2  10   24.11    2.29 
   8  -2  10    8.44    1.42 
   8  -2  10    6.30    1.07 
  -8   2  10    6.17    1.51 
   8   2  10    6.98    1.64 
   8   2  10    8.18    1.30 
  -9   2  10    9.82    1.57 
   9  -2  10    6.53    1.03 
   9  -2  10    6.39    1.46 
   9   2  10    5.48    1.45 
   0  -3  10    0.19    0.25 
   0   3  10   -0.23    0.24 
   0   3 -10    0.48    0.26 
   0   3  10    0.27    0.31 
  -1   3  10    9.09    1.17 
   1  -3  10   11.25    1.27 
   1   3 -10    8.59    0.98 
  -1   3  10    7.67    1.20 
  -1   3 -10    9.65    1.12 
   1   3  10    7.65    1.55 
   1   3  10    9.85    1.22 
  -1  -3  10    9.88    1.26 
   2   3 -10  224.81   12.55 
  -2   3  10  230.82   12.90 
   2  -3  10  235.57   12.91 
   2   3  10  211.50   13.23 
  -2   3 -10  211.54   12.82 
   2   3  10  230.23   12.99 
  -2  -3  10  248.68   13.16 
   3  -3  10   29.50    2.77 
  -3   3  10   31.55    2.47 
   3   3 -10   31.09    2.84 
   3  -3  10   29.03    2.43 
  -3  -3  10   34.94    2.75 
   3   3  10   32.84    2.64 
   3   3  10   29.53    2.79 
  -3   3 -10   32.01    2.63 
   4  -3  10    6.93    1.23 
   4  -3  10    8.88    1.11 
  -4   3  10    9.31    1.15 
   4   3 -10    7.46    0.85 
   4   3  10    7.25    1.12 
  -4   3 -10    7.81    1.21 
  -4  -3  10   11.18    1.43 
   4   3  10    8.58    1.38 
   5   3 -10   20.63    1.53 
  -5   3  10   20.70    1.90 
   5  -3  10   17.82    2.08 
  -5   3  10   19.35    1.72 
   5  -3  10   19.81    1.80 
   5   3  10   25.35    2.99 
  -5   3 -10   22.97    2.30 
   5   3  10   20.68    2.14 
   5   3  10   19.80    2.24 
  -5  -3  10   21.96    2.18 
   6  -3  10   73.28    4.75 
   6  -3  10   70.32    5.25 
  -6   3  10   66.06    4.65 
   6   3 -10   81.55    4.31 
  -6   3  10   71.21    4.96 
   6   3  10   78.76    5.73 
  -6   3 -10   84.06    5.72 
  -6  -3  10   73.70    5.34 
   6   3  10   76.00    5.25 
   7  -3  10    0.64    0.45 
  -7   3  10   -0.20    0.37 
  -7   3  10    0.39    0.55 
   7  -3  10    0.30    0.50 
   7  -3  10    0.29    0.34 
   7   3  10    1.53    0.61 
   7   3  10    0.16    0.39 
  -8   3  10    3.52    0.77 
   8  -3  10    3.43    0.79 
   8  -3  10    2.76    0.97 
   8  -3  10    2.01    0.67 
   8   3  10    1.07    0.68 
   8   3  10    2.44    1.13 
   9  -3  10    9.60    1.15 
   9  -3  10    6.77    1.52 
  -9   3  10    6.01    1.51 
   9   3  10   10.24    1.45 
   9   3  10    9.63    1.66 
   0   4  10  250.64   15.54 
   0  -4  10  299.66   15.52 
   0   4  10  272.50   15.32 
   0   4 -10  274.25   15.17 
  -1   4  10   38.04    3.21 
   1   4 -10   38.74    2.84 
   1  -4  10   47.41    3.22 
  -1   4  10   41.18    3.03 
   1   4  10   38.73    3.48 
  -1   4 -10   40.23    2.97 
   1   4  10   43.49    3.14 
  -1  -4  10   45.41    3.27 
  -2   4  10   11.39    1.28 
   2   4 -10   12.08    1.19 
   2  -4  10   11.94    1.35 
  -2   4  10   10.60    1.37 
   2   4  10   10.51    1.32 
   2   4  10   10.90    1.51 
  -2   4 -10   11.35    1.33 
  -2  -4  10   12.51    1.49 
   3  -4  10    0.80    0.53 
   3  -4  10    1.42    0.47 
   3   4 -10    1.37    0.45 
  -3   4  10    1.28    0.51 
   3   4  10    1.24    0.66 
  -3  -4  10    1.18    0.57 
  -3   4 -10    1.28    0.55 
  -4   4  10    0.55    0.39 
   4  -4  10    0.25    0.33 
   4   4 -10    0.01    0.22 
   4  -4  10   -0.09    0.28 
   4   4  10    0.13    0.31 
  -4   4 -10   -0.02    0.29 
   4   4  10    0.20    0.38 
   4   4  10    0.32    0.43 
  -4  -4  10    0.32    0.46 
  -5   4  10   11.87    1.25 
   5  -4  10   11.17    1.54 
   5   4 -10   11.60    1.10 
  -5   4  10    9.39    1.20 
   5  -4  10    9.98    1.25 
  -5   4 -10   12.85    1.69 
  -5  -4  10   13.65    1.72 
   5   4  10   11.11    1.53 
   5   4  10   10.87    1.63 
  -6   4  10   27.69    2.23 
   6  -4  10   27.51    2.22 
   6   4 -10   30.31    2.32 
  -6   4  10   24.38    2.07 
   6  -4  10   28.29    2.68 
   6   4  10   25.70    2.76 
  -6   4 -10   30.70    2.94 
   6   4  10   27.04    2.62 
   7  -4  10   19.30    1.80 
   7   4 -10   19.25    1.35 
  -7   4  10   17.09    1.74 
  -7   4  10   18.24    1.62 
   7  -4  10   19.45    1.69 
   7  -4  10   16.30    2.03 
   7   4  10   19.50    2.12 
  -7   4 -10   22.11    2.60 
   7   4  10   19.66    3.43 
   8  -4  10   62.69    4.86 
  -8   4  10   58.64    4.44 
  -8   4  10   62.20    4.16 
   8  -4  10   72.57    4.34 
   8   4  10   73.79    4.97 
   8   4  10   64.77    5.28 
   9  -4  10    3.72    1.06 
   9   4  10    3.56    0.97 
   9   4  10    2.98    0.96 
   0   5 -10    0.21    0.30 
   0  -5  10    0.62    0.47 
   0   5  10    0.27    0.28 
   0   5  10    0.42    0.39 
  -1   5  10    6.62    0.97 
   1  -5  10    6.35    1.06 
   1   5 -10    8.24    0.98 
  -1   5  10    6.13    1.03 
  -1   5 -10    7.39    0.99 
  -1  -5  10    6.57    1.09 
   1   5  10    8.02    1.12 
   1   5  10    6.58    1.96 
   2   5 -10    8.79    1.04 
   2  -5  10    9.83    1.23 
  -2   5  10    8.26    1.12 
  -2   5  10    8.07    1.16 
   2   5  10   10.10    1.23 
  -2   5 -10    8.94    1.19 
   2   5  10    8.15    1.32 
  -2  -5  10   11.35    1.41 
  -3   5  10   20.29    2.00 
   3  -5  10   24.90    2.08 
   3  -5  10   26.08    2.51 
   3   5 -10   21.70    1.85 
  -3   5  10   22.94    1.94 
   3   5  10   20.72    2.29 
  -3  -5  10   27.46    2.41 
   3   5  10   21.83    2.34 
  -3   5 -10   23.48    2.18 
   4  -5  10  477.19   24.50 
  -4  -5 -10  430.47   24.73 
  -4   5  10  426.25   24.32 
   4  -5  10  431.45   24.99 
   4   5 -10  444.18   24.22 
  -4  -5  10  500.05   25.12 
   4   5  10  431.68   25.19 
   4   5  10  450.92   25.07 
  -4   5 -10  463.61   24.96 
  -5   5  10   15.31    1.36 
  -5   5  10   15.69    1.47 
   5  -5  10   15.15    1.52 
   5  -5  10   13.54    1.76 
   5   5 -10   16.20    1.43 
  -5   5 -10   15.90    1.97 
   5   5  10   14.30    1.85 
   5   5  10   18.29    2.16 
  -6   5  10    1.40    0.51 
   6   5 -10    1.52    0.47 
   6  -5  10    1.54    0.58 
   6  -5  10    1.75    0.71 
  -6   5 -10    3.09    0.98 
   6   5  10    1.23    0.83 
   6   5  10    1.77    0.73 
  -7   5  10    0.61    0.47 
   7  -5  10    1.95    0.47 
   7  -5  10    0.57    0.37 
   7  -5  10    0.53    0.61 
   7   5 -10    0.42    0.29 
  -7   5  10    0.62    0.40 
   7   5  10    1.41    0.70 
  -7   5 -10   -0.22    0.50 
   7   5  10    0.92    0.77 
   8  -5  10    4.40    1.11 
   8  -5  10    4.61    0.86 
  -8   5  10    5.88    0.90 
   8   5  10    3.31    1.06 
  -8   5 -10    5.02    1.96 
   8   5  10    5.58    1.50 
   0   6  10  369.54   21.69 
   0  -6  10  425.83   21.71 
   0   6 -10  380.58   21.40 
   1   6 -10   27.32    2.27 
  -1   6  10   29.10    2.41 
   1  -6  10   32.09    2.52 
   1   6  10   29.06    3.19 
  -1   6 -10   25.15    2.29 
   2  -6  10    0.84    0.41 
   2   6 -10    1.31    0.49 
  -2   6  10    0.77    0.36 
  -2   6  10    1.29    0.58 
   2   6  10    0.79    0.47 
   2   6  10    0.59    0.47 
   2   6  10    0.35    0.41 
  -2   6 -10    1.26    0.51 
   3   6 -10    0.70    0.38 
   3  -6  10    1.31    0.53 
  -3   6  10    2.01    0.57 
  -3   6  10    1.37    0.51 
   3   6  10    1.50    0.70 
  -3   6 -10    1.10    0.54 
   3   6  10    1.12    0.62 
  -3  -6  10    0.94    0.53 
   4  -6  10    0.35    0.46 
   4  -6  10    0.39    0.31 
  -4   6  10    1.17    0.42 
  -4   6  10    0.52    0.36 
   4   6 -10    0.41    0.32 
  -4   6  10    0.47    0.22 
   4   6  10   -0.20    0.36 
   4   6  10    0.70    0.55 
  -4   6 -10    0.12    0.36 
   5   6 -10    6.57    0.92 
   5  -6  10    5.42    1.04 
  -5   6  10    6.24    0.90 
  -5   6  10    6.23    0.63 
  -5   6  10    6.53    0.75 
   5  -6  10    5.52    1.19 
   5   6  10    7.31    1.60 
  -5   6 -10    5.43    1.29 
   5   6  10    9.14    1.48 
   6  -6  10    6.83    1.04 
  -6   6  10    4.86    0.83 
   6  -6  10    7.39    1.23 
   6   6 -10    5.37    0.85 
  -6   6 -10   10.70    1.69 
   6   6  10    5.40    1.41 
   6   6  10    6.61    1.47 
   7  -6  10   12.85    1.45 
   7  -6  10   13.08    1.81 
   7  -6  10   16.03    1.54 
   7   6 -10   15.79    1.42 
  -7   6  10   13.57    1.33 
   7   6  10   13.47    2.06 
   7   6  10   16.71    2.06 
  -7   6 -10   20.01    2.46 
   8  -6  10  104.20    7.08 
   8   6  10  113.45    7.39 
   8   6  10  103.02    7.72 
   0   7  10    0.30    0.45 
   0   7 -10    0.32    0.34 
   1  -7  10   10.07    1.33 
   1   7 -10    8.01    1.11 
  -1   7  10    7.03    1.04 
  -1  -7  10    6.23    1.23 
   1   7  10    8.11    1.31 
  -1   7 -10    7.65    1.12 
   1   7  10    7.39    1.47 
  -2   7  10  108.49    6.24 
   2   7 -10  103.42    6.41 
   2  -7  10  108.24    6.67 
   2   7  10  100.03    7.03 
  -2   7 -10  105.95    6.65 
   2   7  10   98.49    6.92 
  -3  -7 -10   23.40    2.16 
   3   7 -10   21.89    2.03 
  -3   7  10   24.04    1.65 
   3  -7  10   25.84    2.14 
   3   7  10   20.12    2.41 
   3   7  10   25.52    2.60 
  -3   7 -10   26.28    2.38 
   4  -7  10   24.11    2.04 
  -4   7  10   20.27    1.91 
   4  -7  10   22.80    2.42 
   4   7 -10   23.16    2.02 
   4   7  10   25.72    2.66 
   4   7  10   25.97    2.65 
  -4   7 -10   24.87    2.45 
   5   7 -10    9.40    1.22 
   5  -7  10   11.21    1.56 
  -5   7  10   11.27    1.20 
   5  -7  10   10.42    1.31 
   5   7  10   12.07    1.74 
   5   7  10   14.29    2.00 
  -5   7 -10   12.43    1.74 
   6   7 -10   39.83    3.00 
   6  -7  10   41.48    3.54 
  -6   7  10   40.79    2.80 
   6  -7  10   44.82    2.99 
   6   7  10   44.02    4.46 
   6   7  10   39.51    4.83 
  -6   7 -10   46.49    3.97 
   7  -7  10   -0.14    0.38 
   7   7 -10    0.21    0.38 
   7   7  10    0.66    0.76 
   7   7  10    0.94    0.62 
  -7   7 -10   -1.04    0.59 
   8   7 -10    0.55    0.45 
   8  -7  10    1.13    0.78 
  -8   7 -10    0.29    0.99 
   8   7  10    1.89    0.80 
   8   7  10    3.96    1.18 
   0   8  10    3.97    0.89 
   0   8 -10    2.05    0.66 
   0   8  10    2.65    0.96 
  -1   8  10   15.36    1.92 
  -1   8  10   16.01    1.52 
   1  -8  10   14.88    1.70 
   1   8 -10   14.73    1.66 
   1   8  10   17.67    1.86 
   1   8  10   15.02    2.00 
  -1   8 -10   16.23    1.76 
   2  -8  10  112.49    6.49 
  -2   8  10   98.40    5.81 
   2   8 -10   99.96    6.40 
  -2   8 -10  107.88    6.67 
   2   8  10  102.74    6.96 
   2   8  10   92.19    6.94 
  -3  -8 -10    2.09    0.72 
   3  -8  10    1.32    0.55 
   3   8 -10    1.31    0.52 
  -3   8 -10    1.18    0.62 
   3   8  10    1.35    0.68 
   3   8  10    0.70    0.62 
   4  -8  10    3.56    1.11 
   4   8 -10    3.93    0.94 
   4  -8  10    5.40    0.98 
   4   8  10    5.02    1.44 
  -4   8 -10    5.88    1.33 
   4   8  10    3.71    1.16 
   5   8 -10    3.03    0.79 
  -5   8  10    3.32    0.76 
   5  -8  10    2.94    0.72 
   5  -8  10    2.45    0.88 
  -5   8 -10    3.31    1.10 
   5   8  10    1.36    0.81 
   5   8  10    3.33    1.17 
   6  -8  10  134.93    8.42 
   6   8 -10  133.02    7.85 
   6  -8  10  146.54    7.72 
  -6   8  10  118.25    7.49 
  -6   8  10  112.38    7.41 
   6   8  10  134.72    9.13 
   6   8  10  140.43    8.85 
   7  -8  10   11.70    1.67 
   7   8 -10    8.92    1.21 
   7  -8  10    7.63    0.97 
   7   8  10   13.44    1.97 
  -7   8 -10   13.34    2.46 
   7   8  10   11.01    2.20 
   0   9  10   -0.10    0.31 
   0   9 -10   -0.22    0.30 
   0   9  10    0.75    0.54 
  -1   9  10    5.66    1.41 
  -1   9  10    4.36    0.73 
   1   9 -10    4.00    0.92 
   1   9  10    5.29    1.19 
  -1   9 -10    5.99    1.23 
   1   9  10    3.79    1.24 
   2   9 -10   28.20    2.45 
  -2   9  10   26.20    2.68 
   2   9  10   22.78    2.74 
  -2   9 -10   27.76    2.58 
   2   9  10   29.36    2.83 
   3   9 -10   11.81    1.49 
   3  -9  10   14.41    1.53 
  -3   9  10   11.79    1.64 
   3   9  10   13.37    1.88 
  -3   9 -10   14.58    1.82 
   3   9  10   13.54    1.99 
   4   9 -10   65.91    4.75 
   4  -9  10   72.30    5.27 
  -4   9  10   66.46    4.82 
  -4   9 -10   72.42    5.29 
   4   9  10   75.14    5.65 
   4   9  10   75.23    5.71 
   5  -9  10    6.00    1.37 
  -5   9  10    7.12    1.09 
   5   9 -10    4.85    1.06 
   5  -9  10    6.69    0.99 
   5   9  10    4.80    1.47 
  -5   9 -10    7.17    1.52 
   5   9  10    7.48    1.67 
   6   9 -10   16.89    3.16 
   6  -9  10   17.30    2.04 
  -6   9  10   15.34    1.30 
  -6   9  10   12.69    1.34 
   6   9  10   14.37    2.16 
   6   9  10   15.30    2.92 
   7   9 -10    0.57    0.52 
   7  -9  10   -0.68    0.77 
   7  -9  10   -0.84    0.38 
   7   9  10    0.17    0.82 
   7   9  10   -0.32    0.52 
  -7   9 -10    1.93    1.04 
   0  10 -10  331.40   17.99 
   0  10  10  307.90   18.53 
   0  10  10  308.36   17.49 
   1  10 -10    8.70    1.36 
  -1  10  10   13.44    1.66 
   1  10  10    8.28    1.77 
  -1  10 -10    9.45    1.46 
  -2  10  10    5.09    1.28 
   2  10 -10    4.82    1.09 
  -2  10 -10    5.47    1.18 
   2  10  10    8.39    1.70 
   2  10  10    3.73    1.19 
   3  10 -10    0.60    0.48 
  -3  10  10    0.48    0.49 
  -3  10 -10    0.79    0.55 
   3  10  10    0.66    0.59 
   3  10  10    1.06    0.54 
   4  10 -10    0.33    0.51 
  -4  10  10    1.06    0.61 
   4 -10  10    0.73    0.52 
   4 -10  10    0.82    0.61 
  -4  10 -10    0.41    0.60 
   4  10  10    0.85    0.66 
   4  10  10   -0.05    0.74 
  -5  10  10    3.22    0.75 
   5 -10  10    1.64    0.84 
   5 -10  10    4.15    0.83 
   5  10 -10    2.09    0.85 
   5  10  10    4.86    1.30 
   5  10  10    3.49    1.21 
  -5  10 -10    1.09    1.22 
   6 -10  10    1.92    0.52 
   6  10 -10    0.23    0.62 
   6 -10  10    1.45    0.78 
  -6  10  10    0.97    0.53 
   6  10  10    0.63    0.72 
  -6  10 -10    1.19    0.89 
   6  10  10    1.90    1.01 
   0  11 -10   -0.39    0.51 
   0  11  10    0.53    0.75 
  -1  11  10    2.07    0.79 
   1  11 -10    2.40    0.97 
   1  11  10    2.10    0.95 
  -1  11 -10    1.94    0.86 
   1  11  10    2.73    0.86 
  -2  11  10    1.43    0.66 
   2  11 -10    1.24    0.70 
  -2  11 -10    1.27    0.98 
   2  11  10    0.81    0.73 
   2  11  10    1.85    0.87 
   3  11 -10    5.76    1.29 
  -3  11  10    5.67    1.33 
   3  11  10    5.68    1.63 
   3  11  10    6.75    1.64 
  -3  11 -10    6.34    1.63 
  -4  11  10  144.82   10.00 
   4 -11  10  164.28    9.71 
   4  11 -10  165.21   10.15 
   4 -11  10  174.82   10.58 
   4  11  10  176.02   11.19 
  -4  11 -10  179.11   10.78 
   4  11  10  168.12   11.12 
   5 -11  10    7.93    1.77 
   5  11 -10    5.24    1.25 
  -5  11  10    7.08    1.24 
   5  11  10    4.06    1.55 
   5  11  10    4.19    1.26 
  -5  11 -10    5.68    1.46 
   0  12 -10   28.50    2.84 
   0  12  10   31.52    3.43 
   1  12 -10    7.11    1.38 
  -1  12  10    8.34    1.87 
  -1  12 -10    8.26    1.58 
   1  12  10    7.05    1.89 
  -2  12  10   22.79    2.61 
   2  12 -10   21.78    2.42 
   2  12  10   25.25    3.11 
  -2  12 -10   21.22    2.51 
  -3  12  10    1.04    0.82 
   3  12 -10    0.46    0.56 
  -3  12 -10    0.78    0.74 
   3  12  10    0.70    0.80 
   4  12 -10    0.79    0.66 
  -4  12  10    0.60    0.72 
   4 -12  10   -0.63    0.69 
   4 -12  10   -0.09    0.53 
   4  12  10    0.51    0.77 
   4  12  10    0.98    1.26 
  -4  12 -10   -0.54    0.65 
   0  13 -10   -0.16    0.46 
   0  13  10    1.16    1.73 
  -1  13  10   -0.56    0.77 
   1  13 -10    0.57    0.72 
   1  13  10    1.51    1.02 
  -1  13 -10    0.78    0.82 
  -2  13  10   77.84    6.09 
   2  13 -10   75.00    5.70 
   2  13  10   77.92    6.62 
  -2  13 -10   87.04    6.12 
  -3  13  10    3.09    1.04 
   3  13 -10    4.94    1.21 
  -3  13 -10    3.34    1.04 
   3  13  10    2.77    1.43 
   0   0  11    3.42    0.82 
   1   0  11   15.62    1.64 
  -1   0 -11   13.30    1.37 
  -1   0  11   17.38    1.72 
   1   0 -11   12.59    1.21 
   1   0  11   12.99    1.74 
   2   0 -11   13.89    1.21 
   2   0  11   14.67    1.88 
  -2   0  11   17.86    1.81 
   2   0  11   15.77    1.69 
  -2   0 -11   15.40    1.58 
   3   0  11   72.36    5.00 
   3   0  11   82.43    5.80 
  -3   0  11   72.82    5.08 
   4   0  11  506.38   30.34 
   4   0  11  535.23   29.45 
  -4   0  11  548.17   28.97 
  -5   0  11   42.81    3.42 
   5   0  11   48.83    3.97 
   5   0  11   41.82    3.27 
   6   0  11    1.22    0.57 
  -6   0  11    0.57    0.90 
  -6   0  11    1.69    0.58 
   6   0  11    1.52    0.76 
  -7   0  11    2.93    0.82 
  -7   0  11    3.85    1.08 
   7   0  11    1.51    0.70 
   7   0  11    1.36    0.75 
   8   0  11   19.97    2.11 
   8   0  11   21.09    2.44 
   9   0  11    7.70    1.64 
   9   0  11    5.24    1.18 
   0   1  11  417.71   22.57 
   0  -1  11  415.51   22.59 
   0   1 -11  394.01   22.07 
   1   1 -11   26.14    2.08 
  -1   1  11   26.44    2.39 
   1  -1  11   32.70    2.53 
   1   1  11   25.32    2.34 
  -1   1 -11   25.61    2.14 
   1   1  11   24.19    2.52 
  -1  -1  11   28.18    2.45 
   2   1 -11    8.15    0.86 
   2  -1  11    7.18    1.10 
  -2   1  11    7.24    1.16 
   2  -1  11    7.29    1.28 
   2   1  11    5.42    1.23 
  -2   1 -11    7.51    1.06 
  -2  -1  11   10.70    1.36 
   2   1  11    7.81    1.18 
  -3   1  11    5.68    1.14 
   3  -1  11    4.71    0.96 
   3   1 -11    3.94    0.57 
   3  -1  11    3.39    0.88 
   3   1  11    4.89    1.03 
  -3  -1  11    4.30    1.01 
   3   1  11    3.54    0.96 
  -3   1 -11    3.28    0.81 
   4  -1  11   16.93    1.77 
   4  -1  11   14.54    1.91 
   4   1 -11   16.72    1.21 
  -4   1  11   19.22    1.84 
  -4   1 -11   16.49    1.86 
  -4  -1  11   15.34    1.83 
   4   1  11   15.94    1.75 
   4   1  11   16.01    2.05 
   5  -1  11    2.60    1.01 
  -5   1  11    4.08    1.01 
   5   1  11    3.84    1.11 
   5   1  11    2.79    1.07 
  -5  -1  11    3.68    0.91 
  -6   1  11    3.12    0.89 
   6  -1  11    3.42    1.04 
   6  -1  11    2.38    0.65 
  -6   1  11    3.09    1.02 
  -6  -1  11    0.92    0.70 
   6   1  11    1.37    0.58 
  -6  -1  11    1.93    0.82 
   6   1  11    2.18    0.82 
   7  -1  11    4.02    1.19 
   7  -1  11    3.80    0.99 
  -7   1  11    2.43    1.02 
   7   1  11    3.68    0.95 
  -7  -1  11    3.43    1.05 
   7   1  11    3.15    1.19 
   8  -1  11  165.86   10.42 
  -8   1  11  138.92    9.77 
   8  -1  11  175.78    9.83 
   8   1  11  159.61   10.45 
   8   1  11  172.84    9.96 
   9  -1  11    1.51    0.72 
   9  -1  11    1.47    0.80 
   9   1  11    1.83    0.74 
   9   1  11    1.54    0.75 
   0   2  11   -0.33    0.26 
   0   2  11    0.07    0.21 
   0   2 -11   -0.11    0.19 
   0  -2  11    0.20    0.30 
   1   2 -11    3.78    0.75 
   1  -2  11    4.55    1.03 
  -1   2  11    3.66    0.91 
  -1  -2  11    2.57    0.71 
   1   2  11    2.07    0.82 
  -1   2 -11    3.42    0.76 
   1   2  11    4.29    0.95 
   2  -2  11   95.59    5.92 
  -2   2  11   92.05    5.90 
   2   2 -11   87.56    5.72 
   2   2  11   85.87    6.16 
   2   2  11   93.67    5.95 
  -2  -2  11   95.82    6.05 
  -2   2 -11   87.32    5.72 
  -3   2  11    9.87    1.33 
   3   2 -11    9.70    1.00 
   3  -2  11   10.30    1.31 
   3  -2  11    9.78    1.60 
  -3   2 -11    9.49    1.29 
   3   2  11   12.80    1.83 
  -3  -2  11   11.48    1.52 
   3   2  11   11.16    1.60 
   4  -2  11   69.30    5.08 
   4   2 -11   66.36    4.03 
   4  -2  11   68.76    4.55 
  -4   2  11   65.32    4.56 
  -4   2 -11   70.86    4.87 
   4   2  11   62.14    5.00 
   4   2  11   69.60    4.70 
  -4  -2  11   70.91    4.89 
   5  -2  11    5.14    1.23 
   5   2 -11    4.99    0.57 
  -5   2  11    6.33    1.02 
   5  -2  11    6.63    1.03 
  -5   2 -11    3.19    0.90 
   5   2  11    6.37    1.52 
  -5  -2  11    8.58    1.39 
   6  -2  11   60.04    4.48 
   6  -2  11   57.20    3.85 
  -6   2  11   49.03    4.03 
  -6   2  11   52.58    3.86 
  -6  -2  11   61.89    4.45 
   6   2  11   53.73    4.19 
   6   2  11   53.48    4.42 
   7  -2  11    0.44    0.44 
  -7   2  11    0.28    0.52 
   7  -2  11    0.30    0.53 
   7  -2  11   -0.08    0.44 
  -7   2  11    1.06    0.73 
   7   2  11    0.11    0.65 
   8  -2  11    3.93    0.97 
   8  -2  11    4.76    1.15 
  -8   2  11    1.53    1.12 
   8  -2  11    3.20    1.02 
   8   2  11    5.67    1.54 
   8   2  11    4.64    1.39 
   9  -2  11    2.13    0.75 
   9  -2  11    0.81    0.78 
   9   2  11    2.07    0.87 
   9   2  11    2.36    1.01 
   0   3  11   32.31    4.12 
   0  -3  11   30.36    2.67 
   0   3 -11   32.60    2.46 
   0   3  11   34.29    2.74 
   1  -3  11   16.58    1.70 
  -1   3  11   15.11    1.79 
   1   3 -11   14.27    1.41 
  -1   3  11   17.21    1.71 
  -1  -3  11   17.29    1.82 
   1   3  11   16.11    1.70 
   1   3  11   14.44    1.82 
  -1   3 -11   14.28    1.52 
  -2   3  11  128.82    7.52 
   2  -3  11  131.81    7.53 
   2   3 -11  113.83    7.01 
  -2  -3  11  131.43    7.75 
  -2   3 -11  120.53    7.41 
   2   3  11  117.03    7.51 
   2   3  11  107.41    7.75 
   3  -3  11    0.08    0.30 
   3  -3  11   -0.17    0.30 
  -3   3  11   -0.46    0.26 
   3   3 -11    0.16    0.20 
   3   3  11    0.01    0.35 
  -3  -3  11    0.33    0.44 
  -3   3 -11    0.40    0.40 
  -4   3  11    3.00    0.79 
   4  -3  11    5.19    0.85 
   4  -3  11    2.84    0.70 
   4   3  11    1.76    0.69 
  -4   3 -11    2.49    0.77 
  -4  -3  11    3.71    1.02 
  -5   3  11    8.32    1.05 
   5  -3  11    4.61    1.29 
   5   3 -11    5.36    0.67 
   5   3  11    6.25    1.43 
  -5  -3  11    5.63    1.20 
   5   3  11    4.24    1.03 
  -5   3 -11    5.61    1.33 
  -6   3  11   39.07    3.30 
  -6   3  11   45.47    3.61 
   6  -3  11   46.75    3.92 
   6   3 -11   48.74    2.85 
   6  -3  11   49.70    3.41 
   6   3  11   48.46    4.15 
  -6   3 -11   53.76    4.26 
   6   3  11   54.29    3.99 
   7  -3  11   13.85    1.51 
   7  -3  11   11.81    1.80 
  -7   3  11   15.80    1.44 
   7  -3  11   13.09    1.58 
  -7   3  11   11.33    1.62 
   7   3  11   11.99    1.71 
   7   3  11   13.68    1.99 
   8  -3  11   42.48    3.06 
  -8   3  11   37.29    3.28 
   8  -3  11   39.94    3.60 
   8  -3  11   41.46    3.12 
  -8   3  11   36.76    3.01 
   8   3  11   37.86    3.77 
   8   3  11   42.66    3.47 
   9  -3  11    3.29    0.88 
   9  -3  11    3.34    1.14 
   9   3  11    4.14    1.17 
   9   3  11    6.06    1.39 
   0   4  11    0.63    0.51 
   0  -4  11    0.61    0.37 
   0   4 -11    0.07    0.21 
   0   4  11    0.59    0.45 
   1  -4  11    0.95    0.42 
   1   4 -11    1.94    0.59 
  -1   4  11    1.06    0.57 
  -1   4  11    1.10    0.50 
  -1   4 -11    0.95    0.40 
  -1  -4  11    1.36    0.68 
   1   4  11    2.31    0.57 
   1   4  11    1.99    0.78 
  -2   4  11    4.19    1.04 
   2  -4  11    6.18    1.17 
  -2   4  11    5.15    1.02 
   2   4 -11    4.24    0.71 
   2   4  11    2.56    1.03 
   2   4  11    3.30    0.97 
  -2   4 -11    4.64    0.96 
  -3   4  11    7.01    0.99 
   3  -4  11    7.34    1.08 
   3   4 -11    6.39    0.85 
   3  -4  11    7.12    1.52 
   3   4  11    6.35    1.40 
  -3  -4  11    9.33    1.65 
  -3   4 -11    6.35    1.07 
   4  -4  11  237.75   13.41 
  -4   4  11  235.68   13.31 
   4   4 -11  217.43   12.92 
   4  -4  11  227.14   13.87 
  -4  -4  11  264.40   14.00 
  -4   4 -11  245.80   13.78 
   4   4  11  221.06   13.99 
   5   4 -11    4.04    0.73 
   5  -4  11    3.70    1.11 
  -5   4  11    4.47    0.98 
  -5   4  11    4.68    1.01 
  -5   4 -11    4.52    1.16 
   5   4  11    5.03    1.34 
   5   4  11    2.67    0.87 
   6  -4  11   14.20    1.94 
   6   4 -11   18.04    1.40 
  -6   4  11   15.24    1.56 
  -6   4  11   15.73    1.71 
   6  -4  11   16.40    1.93 
  -6   4 -11   17.70    2.22 
   6   4  11   15.35    2.14 
   6   4  11   20.31    2.20 
  -7   4  11    0.42    0.52 
   7   4 -11    0.37    0.18 
  -7   4  11    0.68    0.52 
   7  -4  11    0.43    0.44 
   7  -4  11    0.27    0.41 
   7   4  11    0.06    0.57 
   7   4  11   -0.13    0.44 
  -7   4 -11    0.36    0.60 
   8  -4  11   10.74    1.17 
   8  -4  11   11.22    1.76 
  -8   4  11   12.12    1.56 
   8  -4  11   13.49    1.51 
   8   4  11   13.53    2.04 
   8   4  11   11.90    1.81 
   0   5  11  485.00   26.87 
   0   5  11  487.83   26.47 
   0  -5  11  484.62   27.73 
   0   5 -11  482.26   26.25 
  -1   5  11   61.95    4.35 
   1   5 -11   66.36    4.25 
   1  -5  11   74.94    6.02 
  -1   5  11   63.15    4.63 
   1   5  11   58.72    4.70 
  -1   5 -11   67.91    4.47 
   1   5  11   60.60    4.63 
  -2   5  11    2.01    0.66 
   2  -5  11    2.37    0.88 
   2   5 -11    2.48    0.60 
  -2   5  11    1.84    0.60 
  -2  -5  11    1.92    0.70 
  -2   5 -11    2.68    0.79 
   2   5  11    3.66    0.89 
   2   5  11    2.56    0.83 
  -3   5  11   10.49    1.30 
   3   5 -11    9.98    1.17 
   3  -5  11   12.44    1.74 
   3  -5  11   14.69    2.87 
  -3   5  11   10.74    1.33 
   3   5  11    9.63    1.57 
  -3  -5  11   11.47    1.60 
  -3   5 -11   11.97    1.49 
   4  -5  11   12.23    1.78 
  -4   5  11   13.71    1.47 
   4   5 -11   13.86    1.36 
  -4   5 -11   13.97    1.75 
   4   5  11   13.35    1.83 
   4   5  11   11.39    1.79 
   5   5 -11   11.17    1.18 
  -5   5  11   10.04    1.14 
  -5   5  11    9.93    1.22 
   5  -5  11   12.57    1.70 
   5  -5  11   12.82    2.01 
  -5   5 -11   10.61    1.62 
   5   5  11   10.83    1.73 
   5   5  11   10.48    1.62 
   6   5 -11   15.66    1.47 
  -6   5  11   16.78    1.54 
  -6   5  11   20.05    1.58 
   6  -5  11   15.45    2.04 
   6   5  11   16.35    2.28 
   6   5  11   19.58    2.22 
  -6   5 -11   21.91    2.43 
   7  -5  11   23.22    2.08 
  -7   5  11   18.13    1.73 
   7   5 -11   22.06    1.64 
   7  -5  11   20.46    1.91 
   7  -5  11   15.59    2.48 
   7   5  11   23.59    2.53 
  -7   5 -11   26.80    2.92 
   7   5  11   23.52    2.76 
   8  -5  11  251.86   12.58 
  -8   5  11  189.48   12.24 
  -8   5  11  193.30   12.12 
   8  -5  11  226.14   13.35 
   8   5  11  222.16   13.87 
   8   5  11  244.94   13.46 
   0  -6  11   -0.07    0.33 
   0   6  11   -0.10    0.28 
   0   6  11   -0.26    0.25 
   0   6 -11    0.18    0.31 
   1  -6  11    2.82    0.75 
  -1   6  11    2.90    0.75 
  -1   6  11    4.39    1.08 
   1   6 -11    4.16    0.87 
  -1   6 -11    3.82    0.89 
   1   6  11    3.17    0.88 
   1   6  11    5.64    1.34 
   2  -6  11    2.67    0.82 
   2   6 -11    1.15    0.45 
  -2   6  11    2.56    0.65 
  -2   6  11    0.90    0.48 
   2   6  11    1.47    0.70 
   2   6  11    1.04    0.54 
  -2   6 -11    1.33    0.49 
   3  -6  11   23.94    2.50 
   3  -6  11   22.69    2.09 
   3   6 -11   18.47    1.81 
  -3   6  11   24.31    1.99 
  -3   6  11   20.99    1.98 
   3   6  11   20.15    2.39 
   3   6  11   22.33    2.50 
  -3   6 -11   21.69    2.18 
   4  -6  11  264.06   15.50 
   4   6 -11  266.30   14.64 
  -4   6  11  259.39   14.65 
  -4   6  11  245.00   14.69 
   4  -6  11  276.62   14.86 
  -4   6 -11  279.49   15.40 
   4   6  11  254.51   15.51 
   4   6  11  263.02   15.75 
  -5   6  11   11.33    1.17 
  -5   6  11   11.03    1.36 
  -5   6  11   11.45    1.06 
   5  -6  11   13.57    1.80 
   5   6 -11   12.36    1.31 
  -5   6 -11   16.24    1.98 
   5   6  11   12.91    1.95 
   5   6  11   12.31    1.83 
   6   6 -11    5.17    0.88 
   6  -6  11    7.31    1.04 
  -6   6  11    8.40    0.88 
   6  -6  11    4.18    1.24 
  -6   6  11    8.04    0.64 
  -6   6 -11    9.44    1.91 
   7  -6  11    0.43    0.71 
   7   6 -11    0.75    0.41 
   7  -6  11    1.16    0.54 
  -7   6  11    1.28    0.50 
   7   6  11   -0.34    0.40 
   7   6  11   -0.07    0.48 
   8  -6  11    9.65    1.19 
   8  -6  11   13.05    1.69 
   8   6  11   12.40    1.94 
  -8   6 -11   14.10    2.13 
   8   6  11   14.17    2.14 
   0   7  11   55.40    4.14 
   0   7 -11   51.53    3.80 
  -1   7  11    1.66    0.53 
   1   7 -11    2.22    0.63 
  -1   7  11    3.15    0.85 
   1   7  11    2.40    0.97 
   1   7  11    2.90    0.77 
  -1   7 -11    2.20    0.67 
   2   7 -11   60.06    4.01 
   2  -7  11   50.19    4.01 
  -2   7  11   52.93    3.93 
  -2   7  11   58.17    3.95 
  -2   7 -11   60.36    4.25 
   2   7  11   65.20    4.77 
   2   7  11   58.14    4.72 
  -3   7  11    0.17    0.33 
  -3   7  11    0.41    0.31 
   3   7 -11    0.38    0.36 
   3  -7  11   -0.14    0.35 
  -3   7 -11    0.68    0.46 
   3   7  11   -0.34    0.34 
   3   7  11    0.25    0.47 
   4  -7  11    3.97    1.15 
   4  -7  11    5.96    0.96 
   4   7 -11    4.62    0.95 
  -4   7  11    5.80    0.86 
   4   7  11    5.55    1.46 
   4   7  11    3.71    1.18 
  -4   7 -11    5.27    1.24 
   5   7 -11    0.98    0.47 
   5  -7  11    0.83    0.57 
   5  -7  11    1.00    0.73 
   5   7  11    0.39    0.55 
  -5   7 -11    1.07    0.70 
   5   7  11    1.22    0.83 
   6  -7  11   21.09    2.42 
  -6   7  11   21.31    1.80 
   6  -7  11   25.92    2.00 
   6   7 -11   19.50    1.86 
  -6   7 -11   24.86    2.77 
   6   7  11   18.41    2.59 
   6   7  11   21.19    2.59 
   7  -7  11    4.08    1.02 
   7   7 -11    3.54    0.84 
   7   7  11    3.44    1.26 
  -7   7 -11    3.77    1.32 
   7   7  11    4.63    1.40 
   0   8 -11   -0.02    0.31 
   0   8  11    0.39    0.44 
   0   8  11   -0.09    0.42 
  -1   8  11    4.78    0.97 
   1   8 -11    3.40    0.84 
  -1   8 -11    3.56    0.86 
   1   8  11    4.86    1.25 
   1   8  11    3.42    1.10 
  -2   8  11   87.78    5.31 
   2   8 -11   84.47    5.71 
   2   8  11   89.98    6.38 
  -2   8 -11   91.73    6.01 
   2   8  11   91.35    6.56 
   3   8 -11   14.18    1.59 
  -3   8  11   13.23    1.52 
   3   8  11   16.99    2.21 
   3   8  11   13.30    2.05 
   4  -8  11   14.89    1.68 
  -4   8  11   16.11    1.68 
   4   8 -11   15.75    1.71 
   4  -8  11   14.50    1.97 
  -4   8 -11   17.73    2.09 
   4   8  11   16.67    2.33 
   4   8  11   17.29    2.29 
   5  -8  11    6.66    1.48 
   5  -8  11    9.79    1.22 
   5   8 -11    6.93    1.11 
  -5   8 -11    7.02    1.60 
   5   8  11    7.83    1.79 
   5   8  11    6.47    1.54 
   6  -8  11   45.92    3.89 
   6   8 -11   41.26    3.25 
   6  -8  11   47.25    3.22 
  -6   8  11   43.24    3.04 
  -6   8 -11   56.83    5.15 
   6   8  11   42.91    4.32 
   6   8  11   46.30    4.16 
   7   8 -11   -0.22    0.40 
   7  -8  11   -0.85    0.47 
   7  -8  11    0.52    0.47 
   7  -8  11    0.33    0.61 
   7   8  11    0.53    0.72 
   7   8  11    0.02    0.51 
   0   9  11  102.89    6.41 
   0   9 -11   98.86    6.45 
   0   9  11   92.62    7.01 
  -1   9  11    0.86    0.61 
   1   9 -11    1.30    0.64 
  -1   9  11    1.92    0.61 
  -1   9 -11    1.79    0.72 
   1   9  11    1.27    0.69 
   1   9  11    0.73    0.77 
  -2   9  11   18.55    1.32 
   2   9 -11   19.60    2.01 
  -2   9  11   18.06    2.28 
  -2   9 -11   20.27    2.17 
   2   9  11   17.71    2.24 
   2   9  11   21.25    2.63 
  -3   9  11    1.24    0.65 
   3   9 -11   -0.30    0.31 
   3   9  11    0.45    0.54 
   3   9  11    0.17    0.65 
  -3   9 -11    1.29    0.66 
   4   9 -11    5.03    1.12 
   4  -9  11    3.63    1.09 
  -4   9  11    5.14    1.28 
  -4   9  11    7.08    1.01 
  -4   9 -11    6.49    1.41 
   4   9  11    7.76    1.81 
   4   9  11    3.85    1.61 
   5  -9  11    0.72    0.52 
   5  -9  11   -0.15    0.51 
   5   9 -11   -0.76    0.70 
  -5   9  11    0.70    0.51 
  -5   9  11    0.36    0.48 
   5   9  11   -0.11    0.43 
   5   9  11   -0.57    0.69 
  -5   9 -11    0.36    0.80 
   6   9 -11    3.05    0.83 
  -6   9  11    2.44    0.73 
   6  -9  11    5.76    2.01 
   6   9  11    4.23    1.42 
   6   9  11    6.40    1.81 
  -6   9 -11    3.95    1.38 
   0  10  11    1.86    0.70 
   0  10 -11    0.19    0.37 
   0  10  11    1.11    0.60 
   1  10 -11    4.40    1.13 
  -1  10  11    4.16    1.25 
  -1  10  11    4.63    0.71 
  -1  10 -11    4.49    1.04 
   1  10  11    4.70    1.44 
   1  10  11    5.65    1.29 
  -2  10  11    3.23    1.12 
   2  10 -11    3.27    1.12 
  -2  10 -11    3.33    0.97 
   2  10  11    3.43    1.24 
   2  10  11    4.70    1.34 
   3  10 -11   27.73    2.57 
  -3  10  11   23.38    2.73 
  -3  10 -11   32.31    3.87 
   3  10  11   27.58    3.05 
   4 -10  11  235.39   13.89 
  -4  10  11  199.90   13.24 
   4  10 -11  223.08   13.22 
   4  10  11  229.21   14.33 
  -4  10 -11  252.39   14.02 
   4  10  11  229.19   14.41 
  -5  10  11   13.21    1.67 
   5 -10  11   15.25    2.22 
  -5  10  11   16.99    1.72 
   5  10 -11   15.32    1.84 
   5 -10  11   17.02    1.71 
   5  10  11   13.86    2.34 
   5  10  11   15.34    2.54 
  -5  10 -11   16.30    2.32 
  -6  10  11    2.44    0.70 
   6 -10  11    1.81    0.94 
   6  10 -11    0.44    0.59 
   6  10  11    0.02    0.91 
  -6  10 -11   -0.04    0.81 
   6  10  11    2.11    0.84 
   0  11  11  137.56    8.88 
   0  11 -11  166.52    9.67 
   0  11  11  157.32   10.40 
   1  11 -11   16.31    2.04 
  -1  11  11   18.79    2.52 
  -1  11 -11   17.04    2.11 
   1  11  11   18.25    2.04 
   1  11  11   17.09    2.58 
   2  11 -11    1.68    0.76 
  -2  11  11    0.83    0.82 
   2  11  11    2.18    0.93 
  -2  11 -11    3.16    1.03 
  -3  11  11    3.14    1.09 
   3  11 -11    3.73    1.07 
   3  11  11    2.53    1.16 
  -3  11 -11    2.99    1.03 
   3  11  11    3.86    1.40 
   4  11 -11    4.82    1.12 
  -4  11  11    5.09    1.16 
   4 -11  11    3.98    2.05 
  -4  11 -11    4.36    1.35 
   4  11  11    4.16    2.34 
   4  11  11    3.00    1.23 
   5 -11  11    3.78    1.03 
  -5  11  11    1.94    0.96 
   5  11 -11    3.37    0.98 
  -5  11 -11    2.56    1.14 
   5  11  11    3.04    1.24 
   5  11  11    4.13    1.31 
   0  12 -11   -0.69    0.41 
   0  12  11    1.84    0.99 
   1  12 -11    0.73    0.64 
  -1  12  11    1.49    0.76 
  -1  12 -11    0.28    0.59 
   1  12  11   -0.92    0.77 
  -2  12  11   20.20    2.62 
   2  12 -11   19.16    2.27 
   2  12  11   16.78    2.76 
  -2  12 -11   22.42    2.55 
   2  12  11   18.26    2.31 
   3  12 -11    0.38    0.62 
  -3  12  11    2.57    0.81 
   3  12  11    2.05    1.02 
  -3  12 -11    0.69    0.79 
   3  12  11    0.56    0.89 
   4 -12  11   40.24    3.53 
   4  12 -11   26.71    2.87 
  -4  12  11   28.96    3.03 
   4  12  11   35.54    3.98 
   4  12  11   33.02    3.72 
  -4  12 -11   33.81    3.38 
   0  13 -11    3.75    1.18 
   0  13  11    4.86    1.53 
   1  13 -11    8.52    1.76 
  -1  13  11    3.95    2.29 
   1  13  11    8.25    2.19 
  -1  13 -11    8.23    1.79 
   2  13 -11   47.63    4.12 
  -2  13 -11   51.68    4.40 
   0   0  12  417.18   22.16 
   0   0 -12  378.55   21.48 
   1   0 -12   24.09    1.89 
   1   0  12   23.04    2.55 
   1   0  12   25.30    2.36 
  -1   0  12   26.85    2.45 
  -1   0 -12   25.17    2.09 
  -2   0  12    5.03    1.18 
   2   0  12    2.66    0.92 
   3   0  12    0.29    0.41 
   3   0  12    0.79    0.52 
  -3   0  12    0.88    0.57 
   4   0  12    0.14    0.58 
  -4   0  12    0.95    0.54 
   5   0  12   20.32    2.55 
  -5   0  12   17.98    2.10 
  -6   0  12    5.18    1.22 
   6   0  12    3.79    1.14 
  -6   0  12    4.52    1.35 
   7   0  12   19.12    2.15 
   7   0  12   20.44    2.45 
   8   0  12  131.34    8.91 
   0  -1  12   -0.07    0.40 
   0   1 -12    0.22    0.25 
   1   1 -12    0.61    0.30 
   1  -1  12    0.98    0.47 
  -1   1  12    1.00    0.57 
   1   1  12    0.38    0.42 
  -1   1 -12    0.49    0.38 
  -1  -1  12    2.01    0.55 
   1   1  12    0.43    0.50 
  -2   1  12    8.39    1.48 
   2   1 -12    6.52    0.93 
   2  -1  12    4.57    1.10 
   2  -1  12    5.75    1.66 
   2   1  12    5.37    1.29 
  -2   1 -12    6.24    0.97 
   3  -1  12    3.04    0.98 
   3   1 -12    2.52    0.54 
   3  -1  12    3.47    0.91 
  -3  -1  12    3.42    0.84 
   3   1  12    3.76    1.18 
   4  -1  12  236.55   13.21 
  -4   1  12  211.48   12.29 
   4  -1  12  177.06   12.02 
  -4   1 -12  212.64   12.40 
  -4  -1  12  212.35   12.73 
   4   1  12  211.62   12.84 
  -5   1  12    0.38    0.45 
   5  -1  12    0.79    0.55 
  -5  -1  12    1.30    0.77 
   5   1  12    0.36    0.39 
  -6   1  12    7.67    1.94 
  -6   1  12   14.84    1.83 
   6  -1  12    9.51    1.62 
   6   1  12   11.23    1.77 
   6   1  12   10.69    1.58 
  -6  -1  12   11.63    1.68 
  -7   1  12    0.22    0.56 
   7  -1  12   -0.13    0.32 
   7  -1  12   -0.18    0.38 
  -7   1  12    2.15    0.90 
   7   1  12    0.27    0.48 
   7   1  12    0.60    0.54 
   8  -1  12    4.00    1.31 
   8  -1  12    3.88    1.02 
   8   1  12    4.44    1.13 
   8   1  12    2.98    1.14 
   0   2  12  163.23   10.83 
   0   2  12  188.56   10.70 
   0   2 -12  171.03   10.17 
   0  -2  12  192.79   10.82 
  -1   2  12  199.80   11.42 
   1   2 -12  185.00   10.84 
   1   2  12  205.91   11.48 
   1   2  12  171.87   11.60 
  -1  -2  12  208.82   11.59 
  -1   2 -12  188.05   11.03 
   2  -2  12   39.14    3.70 
  -2   2  12   36.81    2.97 
   2  -2  12   32.02    3.30 
   2   2 -12   32.63    2.41 
   2   2  12   28.52    3.00 
  -2  -2  12   35.65    3.05 
  -2   2 -12   34.01    2.76 
   3   2 -12   21.90    1.72 
   3  -2  12   25.52    2.76 
   3  -2  12   21.28    2.13 
  -3   2  12   22.53    2.17 
   3   2  12   20.84    2.45 
  -3   2 -12   21.96    2.16 
   4  -2  12    0.44    0.52 
  -4   2  12   -0.42    0.36 
   4   2 -12    0.60    0.25 
   4  -2  12    1.15    0.37 
  -4  -2  12   -0.29    0.42 
   4   2  12    0.60    0.57 
   5   2 -12   25.55    1.68 
   5  -2  12   23.44    2.62 
  -5   2  12   21.39    2.26 
  -5  -2  12   29.89    2.75 
  -5   2 -12   26.22    2.63 
   5   2  12   24.59    2.74 
  -6   2  12   27.68    2.59 
   6  -2  12   28.41    2.91 
  -6   2  12   26.48    2.66 
   6   2  12   31.61    2.92 
   6   2  12   29.56    3.07 
  -7   2  12   58.90    4.89 
  -7   2  12   66.90    5.74 
   7  -2  12   65.44    5.18 
   7  -2  12   71.37    4.86 
   7   2  12   67.68    5.43 
   7   2  12   70.60    5.07 
   8  -2  12   63.21    4.95 
  -8   2  12   50.68    4.17 
   8  -2  12   60.93    4.35 
   8   2  12   61.28    4.61 
   8   2  12   60.40    5.02 
   0   3 -12    0.16    0.22 
   0   3  12    0.09    0.43 
  -1   3  12   34.36    3.17 
   1   3 -12   37.66    2.72 
  -1   3  12   38.22    3.08 
  -1   3 -12   38.22    2.88 
   1   3  12   33.21    3.23 
  -1  -3  12   37.50    3.44 
   1   3  12   36.39    3.95 
  -2   3  12   44.80    3.37 
   2  -3  12   44.13    3.39 
   2   3 -12   40.60    2.94 
  -2   3 -12   39.28    3.19 
  -2  -3  12   52.50    3.72 
   2   3  12   37.25    3.57 
  -3   3  12  178.29   10.46 
   3  -3  12  169.81   10.95 
   3   3 -12  170.77    9.92 
   3  -3  12  178.59   10.43 
   3   3  12  166.37   10.95 
  -3   3 -12  175.20   10.47 
  -3  -3  12  196.49   10.94 
   4   3 -12   93.41    5.73 
   4  -3  12   83.80    6.09 
  -4   3  12  103.68    6.32 
   4  -3  12   97.56    6.79 
  -4   3 -12  107.99    6.63 
  -4  -3  12  109.62    6.85 
   4   3  12   91.76    6.79 
  -5   3  12   96.77    6.40 
   5  -3  12   99.23    6.99 
   5   3  12   98.80    7.18 
  -5   3 -12  111.42    7.06 
   5   3  12  105.15    7.02 
  -6   3  12   15.58    1.85 
  -6   3  12   14.18    1.92 
   6  -3  12   19.03    2.31 
   6   3 -12   19.90    1.31 
   6   3  12   18.56    2.18 
   6   3  12   19.43    2.44 
  -6   3 -12   22.93    2.52 
  -7   3  12    4.92    1.14 
   7  -3  12    2.88    0.93 
   7  -3  12    3.44    1.05 
   7   3  12    1.15    0.85 
   7   3  12    2.94    1.01 
   8  -3  12    0.93    0.75 
   8  -3  12    2.65    0.77 
  -8   3  12    1.61    0.92 
   8   3  12   -0.09    0.63 
   8   3  12    0.82    0.63 
   0   4  12  258.14   14.63 
   0   4 -12  256.07   14.29 
   0   4  12  250.28   15.00 
  -1   4  12   18.83    1.98 
   1   4 -12   19.93    1.81 
   1  -4  12   25.94    2.30 
  -1   4  12   18.66    2.18 
   1   4  12   20.62    2.05 
  -1   4 -12   20.61    1.93 
   1   4  12   19.73    2.30 
  -2   4  12    8.93    1.35 
  -2   4  12   12.40    1.54 
   2  -4  12   12.28    1.54 
   2   4 -12   10.53    1.20 
   2   4  12   11.21    1.47 
  -2  -4  12   11.42    1.65 
   2   4  12   13.57    1.85 
  -2   4 -12   11.16    1.41 
   3  -4  12    2.35    0.89 
   3   4 -12    2.51    0.63 
   3  -4  12    2.06    0.64 
  -3   4  12    2.85    0.80 
  -3   4 -12    2.04    0.68 
   3   4  12    2.42    0.93 
  -3  -4  12    2.12    0.81 
  -4   4  12    1.41    0.57 
   4   4 -12    1.33    0.46 
   4  -4  12    2.39    0.87 
   4  -4  12    1.14    0.75 
  -4   4 -12    1.47    0.67 
   4   4  12    1.09    0.73 
  -5   4  12    1.98    0.51 
   5   4 -12    0.12    0.29 
   5  -4  12    1.40    0.76 
  -5   4 -12    0.56    0.56 
   5   4  12    1.01    0.61 
   5   4  12    0.87    0.52 
   6  -4  12   10.91    1.71 
   6   4 -12   10.59    1.04 
  -6   4  12   10.39    1.35 
  -6   4  12   11.08    1.37 
  -6   4 -12   12.72    1.89 
   6   4  12   10.61    1.70 
   6   4  12    9.89    2.74 
  -7   4  12    4.61    0.99 
   7  -4  12    3.00    1.02 
  -7   4 -12    2.81    1.14 
   7   4  12    2.41    1.05 
   7   4  12    2.75    1.04 
   8  -4  12   87.70    5.40 
  -8   4  12   67.23    5.23 
   8  -4  12   81.77    6.03 
  -8   4  12   74.36    5.07 
   8   4  12   82.99    6.45 
   8   4  12   91.68    6.10 
   0   5  12    0.12    0.38 
   0   5 -12    1.48    0.57 
   0   5  12    0.38    0.47 
   1   5 -12    6.46    0.95 
  -1   5  12    5.63    1.44 
  -1   5  12    7.30    1.12 
   1  -5  12    7.22    1.65 
   1   5  12    4.62    1.03 
   1   5  12    4.70    1.25 
  -1   5 -12    6.28    1.01 
   2  -5  12    4.19    1.10 
  -2   5  12    2.67    0.75 
   2   5 -12    2.43    0.67 
  -2   5  12    3.64    1.01 
   2   5  12    3.32    1.10 
   2   5  12    1.81    0.51 
  -2   5 -12    3.73    0.88 
  -3   5  12   25.11    2.30 
   3  -5  12   23.12    2.64 
  -3   5  12   25.22    2.42 
   3   5 -12   24.72    2.06 
   3   5  12   24.68    2.74 
  -3   5 -12   26.55    2.47 
   4  -5  12  202.47   12.62 
  -4   5  12  206.07   11.95 
  -4   5  12  201.61   12.08 
   4   5 -12  194.72   11.58 
   4   5  12  222.54   12.86 
   4   5  12  198.82   12.79 
  -4   5 -12  226.39   12.53 
  -5   5  12   13.08    1.84 
  -5   5  12   16.83    1.57 
   5   5 -12   12.50    1.32 
   5  -5  12   12.91    1.88 
  -5   5 -12   16.13    2.02 
   5   5  12   12.89    2.03 
   5   5  12   14.54    1.98 
   6   5 -12    3.49    0.69 
   6  -5  12    3.14    1.07 
   6   5  12    1.33    0.85 
  -6   5 -12    3.26    1.09 
   6   5  12    3.36    1.32 
  -7   5  12    0.71    0.50 
   7  -5  12    0.72    0.53 
   7   5 -12    0.05    0.25 
  -7   5  12    2.48    0.60 
  -7   5 -12   -0.27    0.60 
   7   5  12    0.41    0.67 
   8  -5  12    4.60    0.98 
   8  -5  12    3.57    1.08 
   8   5  12    4.24    1.31 
   8   5  12    3.02    1.08 
   0   6  12  197.95   12.48 
   0   6 -12  222.64   12.43 
   0   6  12  227.99   13.08 
   1   6 -12    0.20    0.34 
  -1   6  12    0.50    0.50 
  -1   6 -12    0.53    0.44 
   1   6  12    0.21    0.32 
   1   6  12    0.90    0.65 
  -2   6  12    5.76    1.16 
  -2   6  12    5.77    1.30 
   2   6 -12    7.23    1.03 
  -2   6 -12    6.92    1.36 
   2   6  12    7.32    1.66 
  -3   6  12   -0.55    0.30 
   3  -6  12    0.05    0.24 
  -3   6  12   -0.05    0.38 
   3   6 -12   -0.12    0.23 
   3   6  12    0.01    0.46 
  -3   6 -12   -0.07    0.32 
   3   6  12    0.27    0.47 
   4   6 -12    0.76    0.42 
  -4   6  12    3.04    0.74 
  -4   6  12    1.92    0.69 
   4  -6  12    1.28    0.61 
   4   6  12    0.46    0.53 
  -4   6 -12    1.02    0.67 
   4   6  12    0.83    0.62 
   5  -6  12    2.46    0.86 
  -5   6  12    2.58    0.76 
   5   6 -12    1.60    0.50 
  -5   6  12    3.54    0.61 
  -5   6  12    2.41    0.68 
   5   6  12    1.72    0.86 
  -5   6 -12    0.27    0.60 
   5   6  12    0.86    0.64 
   6   6 -12    7.90    1.02 
   6  -6  12   10.86    2.58 
  -6   6  12    6.44    0.87 
  -6   6  12    6.03    0.78 
   6   6  12    8.24    1.94 
   6   6  12    8.06    1.82 
  -6   6 -12    6.94    2.07 
   7   6 -12    2.25    0.61 
   7  -6  12    1.13    0.72 
   7  -6  12    3.38    0.88 
  -7   6 -12    2.59    1.10 
   7   6  12    1.29    0.78 
   7   6  12    2.87    1.14 
   0   7  12   -0.12    0.36 
   0   7  12    0.67    0.41 
   0   7 -12   -0.10    0.27 
  -1   7  12   13.58    1.66 
  -1   7  12   13.45    1.78 
   1   7 -12   16.48    1.72 
  -1   7 -12   18.52    1.87 
   1   7  12   18.60    2.21 
   2   7 -12   20.55    1.95 
  -2   7  12   18.19    1.99 
  -2   7  12   22.32    2.07 
   2   7  12   19.30    2.50 
   2   7  12   20.24    2.49 
  -2   7 -12   20.28    2.11 
  -3   7  12   78.98    4.96 
  -3   7  12   71.01    5.06 
   3   7 -12   75.69    5.06 
   3   7  12   82.23    6.09 
   3   7  12   77.70    6.02 
  -3   7 -12   82.87    5.55 
   4  -7  12   74.56    5.80 
  -4   7  12   79.37    5.19 
  -4   7  12   71.50    4.48 
  -4   7  12   76.58    4.62 
   4   7 -12   78.44    5.09 
   4   7  12   85.36    6.18 
  -4   7 -12   89.46    5.88 
   4   7  12   80.16    6.20 
   5   7 -12   43.56    3.23 
  -5   7  12   46.70    3.21 
   5  -7  12   43.73    3.90 
   5   7  12   37.45    4.03 
   5   7  12   47.68    4.18 
  -5   7 -12   48.45    4.05 
   6  -7  12   14.40    2.03 
   6   7 -12   14.83    1.54 
  -6   7  12   15.76    1.54 
  -6   7 -12   17.44    2.37 
   6   7  12   14.05    2.19 
   6   7  12   16.69    2.48 
   7  -7  12    4.18    0.76 
  -7   7 -12    2.04    1.01 
   0   8  12   76.01    5.46 
   0   8 -12   76.66    5.21 
   0   8  12   76.97    6.05 
  -1   8  12  140.07    8.44 
   1   8 -12  136.64    8.39 
   1   8  12  124.34    9.20 
  -1   8 -12  138.33    8.54 
   1   8  12  145.17    9.06 
  -2   8  12   26.35    2.17 
  -2   8  12   23.99    2.35 
   2   8 -12   27.11    2.40 
   2   8  12   26.41    3.04 
   2   8  12   27.56    2.98 
  -2   8 -12   29.12    2.67 
   3   8 -12   16.05    1.71 
  -3   8  12   14.20    1.74 
  -3   8  12   15.47    1.18 
   3   8  12   17.10    2.36 
   3   8  12   18.30    2.41 
  -3   8 -12   16.14    1.99 
   4   8  12    2.48    0.68 
  -5   8  12   19.42    1.88 
   5   8 -12   15.75    1.77 
   5  -8  12   16.65    2.23 
  -5   8 -12   21.43    2.58 
   5   8  12   21.56    2.80 
   5   8  12   19.57    2.59 
   6  -8  12   29.45    3.10 
  -6   8  12   32.09    2.38 
   6   8 -12   28.13    2.49 
   6   8  12   27.60    3.26 
   6   8  12   31.35    3.66 
  -6   8 -12   39.45    3.68 
   0   9  12    1.33    0.83 
   0   9  12    0.39    0.48 
   0   9 -12   -0.04    0.38 
   1   9 -12    2.54    0.80 
  -1   9  12    4.19    1.08 
  -1   9  12    4.65    0.97 
  -1   9 -12    2.41    0.80 
   1   9  12    5.23    1.36 
   1   9  12    1.68    0.98 
  -2   9  12    7.26    0.86 
   2   9 -12    8.64    1.34 
  -2   9  12    9.73    2.01 
  -2   9 -12    9.43    1.50 
   2   9  12    7.93    1.76 
   2   9  12    5.54    1.60 
  -3   9  12   14.13    2.00 
  -3   9  12   11.45    1.71 
   3   9 -12   14.45    1.72 
   3   9  12   14.06    2.20 
   3   9  12   15.49    2.37 
  -3   9 -12   15.21    2.26 
   4  -9  12   82.00    6.24 
  -4   9  12   77.78    5.89 
   4   9 -12   73.47    5.90 
  -4   9 -12   92.33    6.31 
   4   9  12   92.37    6.79 
   4   9  12   93.20    6.92 
   5  -9  12    5.83    1.50 
  -5   9  12    6.23    1.29 
  -5   9  12   11.18    1.34 
   5   9 -12    8.37    1.26 
  -5   9 -12    8.03    1.84 
   5   9  12    6.28    1.72 
   5   9  12    8.63    2.02 
   6  -9  12   10.76    1.64 
  -6   9  12    5.03    1.12 
   6   9 -12    6.57    1.23 
   6   9  12   11.17    2.45 
   6   9  12    6.53    1.78 
  -6   9 -12    7.81    1.86 
   0  10 -12  165.57    9.73 
   0  10  12  159.07   10.71 
   0  10  12  145.54    9.37 
  -1  10  12    8.05    1.06 
   1  10 -12    9.03    1.44 
  -1  10  12    8.35    1.95 
  -1  10 -12   11.25    1.61 
   1  10  12    8.35    2.12 
   1  10  12    9.78    1.82 
  -2  10  12    3.71    1.24 
   2  10 -12    3.32    0.86 
  -2  10 -12    4.75    1.27 
   2  10  12    1.45    0.81 
   2  10  12    3.06    1.22 
   3  10 -12    0.10    0.45 
  -3  10  12    1.93    0.76 
   3  10  12    0.58    0.90 
   3  10  12   -0.73    0.67 
  -3  10 -12   -0.53    0.49 
   4 -10  12    0.35    0.62 
   4  10 -12    0.47    0.53 
  -4  10  12    1.23    0.87 
   4  10  12    0.60    1.08 
  -4  10 -12    0.25    0.63 
   4  10  12    0.97    0.97 
   5  10 -12    6.13    1.25 
   5 -10  12    7.04    1.67 
  -5  10  12    7.33    1.79 
  -5  10 -12    7.87    1.79 
   5  10  12    6.71    1.79 
   5  10  12    4.63    1.47 
   0  11  12    0.34    0.90 
   0  11 -12   -0.17    0.54 
  -1  11  12    1.44    1.12 
   1  11 -12    1.86    0.84 
  -1  11 -12    2.29    0.85 
   1  11  12    2.02    0.85 
   1  11  12    0.84    0.77 
   2  11 -12    4.86    1.24 
  -2  11  12    4.10    1.48 
   2  11  12    2.40    1.16 
   2  11  12    4.52    1.29 
  -2  11 -12    2.98    0.99 
  -3  11  12    6.31    1.68 
   3  11 -12    5.01    1.18 
   3  11  12    6.44    1.90 
  -3  11 -12    8.85    1.94 
   4 -11  12  101.93    6.85 
  -4  11  12   77.86    6.03 
   4  11 -12   81.61    5.97 
  -4  11 -12  105.06    6.91 
   4  11  12   79.26    6.99 
   4  11  12   90.30    7.22 
   0  12  12   57.38    6.35 
   0  12 -12   60.44    4.73 
  -1  12  12   31.00    3.46 
   1  12 -12   29.67    2.96 
  -1  12 -12   28.72    3.01 
   1  12  12   28.25    3.57 
  -2  12  12   11.23    2.28 
   2  12 -12    9.28    1.77 
   2  12  12    8.80    2.28 
   2  12  12   11.83    1.88 
  -2  12 -12    8.86    1.76 
  -3  12  12    5.77    1.23 
   3  12 -12    3.59    1.13 
   3  12  12    9.31    1.55 
  -3  12 -12    6.61    1.66 
   0   0  13   -0.26    0.35 
   1   0  13    8.94    1.50 
  -1   0  13   11.99    2.41 
   2   0  13  134.20    8.88 
  -3   0  13   26.31    2.93 
   3   0  13   29.18    3.02 
   4   0  13   13.46    1.96 
   5   0  13   18.34    2.41 
  -5   0  13   16.52    2.15 
   7   0  13    1.26    0.91 
   8   0  13   -0.79    0.41 
   8   0  13   -0.09    0.86 
   0  -1  13   43.05    3.49 
   0   1 -13   34.84    2.83 
   0   1  13   46.86    3.47 
  -1   1  13   -0.23    0.54 
   1   1 -13    0.99    0.39 
   1   1  13    1.10    0.55 
  -1  -1  13    1.61    0.72 
   2  -1  13   83.05    6.22 
   2   1 -13   82.42    5.13 
  -2   1  13   94.56    6.03 
  -2   1 -13   81.63    5.54 
  -2  -1  13   99.06    6.19 
   2   1  13   76.25    6.07 
  -3   1  13    2.36    0.72 
   3  -1  13    2.09    0.85 
  -3  -1  13    0.43    0.63 
   3   1  13    1.35    0.78 
  -3   1 -13    1.03    0.52 
   4  -1  13    0.45    0.52 
  -4  -1  13    1.44    0.61 
   4   1  13    0.61    0.62 
   5  -1  13    8.48    1.84 
  -5   1  13    9.28    1.47 
   5   1  13    7.96    1.77 
  -5  -1  13   13.05    2.05 
  -6   1  13   61.58    5.18 
  -6   1  13   81.50    5.34 
   6   1  13   63.14    6.39 
   6   1  13   79.59    5.49 
   7  -1  13    6.18    1.57 
   7  -1  13    4.70    1.19 
   7   1  13    4.30    1.09 
   7   1  13    6.22    1.66 
   8  -1  13   18.26    2.52 
   8  -1  13   18.87    2.14 
   8   1  13   19.29    2.33 
   8   1  13   23.53    2.74 
   0   2 -13   -0.01    0.21 
   0   2  13    0.25    0.35 
   0   2  13    0.55    0.46 
   1   2 -13   27.82    2.23 
  -1   2  13   30.58    3.21 
   1   2  13   25.09    2.79 
  -1  -2  13   32.70    2.88 
  -1   2 -13   28.67    2.39 
   1   2  13   29.63    2.69 
  -2   2  13   58.46    4.25 
   2   2 -13   53.17    3.61 
   2  -2  13   68.97    5.49 
  -2   2 -13   56.54    4.01 
   2   2  13   50.08    4.45 
  -2  -2  13   52.03    4.31 
   3  -2  13  151.68   10.09 
  -3   2  13  170.02    9.64 
   3   2 -13  146.64    8.77 
  -3   2 -13  162.18    9.50 
   3   2  13  145.12    9.98 
  -3  -2  13  160.25    9.89 
   4  -2  13   73.97    5.81 
   4   2 -13   79.79    5.31 
  -4   2  13   73.21    5.34 
   4   2  13   72.94    5.84 
  -4   2 -13   77.56    5.48 
  -4  -2  13   91.34    6.30 
   5  -2  13   72.42    5.64 
   5   2  13   71.85    5.73 
  -5   2 -13   78.27    5.54 
  -6   2  13   20.99    2.90 
  -6   2  13   27.31    2.57 
   6   2  13   24.49    2.87 
   6   2  13   26.70    2.78 
  -7   2  13    2.12    0.92 
   7  -2  13    0.44    0.59 
   7  -2  13   -0.10    0.55 
   7   2  13   -0.12    0.67 
   7   2  13   -0.25    0.46 
   8  -2  13   -0.56    0.45 
   8  -2  13    1.09    0.63 
   8   2  13    0.41    0.69 
   8   2  13    0.37    0.81 
   0   3 -13  104.58    6.31 
   0   3  13   92.99    6.90 
   0   3  13  105.95    6.73 
   1   3 -13  125.77    7.58 
  -1   3  13  117.59    8.22 
  -1   3 -13  130.24    7.77 
   1   3  13  117.57    8.38 
   1   3  13  132.04    8.11 
  -1  -3  13  142.81    8.41 
   2  -3  13   34.32    3.40 
  -2   3  13   42.07    3.17 
   2   3 -13   36.58    2.69 
  -2   3 -13   34.04    2.89 
   2   3  13   33.93    3.41 
   3   3 -13    6.43    0.89 
  -3   3  13    9.18    1.36 
   3  -3  13    6.06    1.42 
   3   3  13    5.98    1.54 
  -3   3 -13    7.37    1.19 
   4  -3  13   -0.17    0.33 
   4   3 -13   -0.07    0.20 
  -4   3  13    0.35    0.47 
   4   3  13   -0.17    0.41 
  -4   3 -13    0.16    0.38 
   5   3 -13   55.91    3.49 
  -5   3  13   58.69    4.15 
   5  -3  13   54.36    4.62 
  -5   3 -13   59.45    4.57 
   5   3  13   53.68    4.77 
   6  -3  13   38.64    3.79 
  -6   3  13   35.46    3.20 
  -6   3 -13   42.01    3.80 
   6   3  13   36.24    3.71 
  -7   3  13   86.72    6.54 
   7  -3  13  103.99    7.37 
   7   3  13  119.80    7.47 
   7   3  13  109.76    7.74 
   8  -3  13   43.13    4.00 
   8  -3  13   46.48    3.65 
   8   3  13   46.58    3.97 
   8   3  13   41.16    4.18 
   0   4  13    0.23    0.39 
   0   4  13    0.94    0.52 
   0   4 -13    0.81    0.41 
   1   4 -13    3.67    0.86 
  -1   4  13    3.02    0.95 
  -1   4  13    2.57    0.78 
  -1   4 -13    2.21    0.67 
   1   4  13    2.59    0.90 
   1   4  13    1.92    0.83 
  -2   4  13   75.49    5.53 
   2   4 -13   73.02    4.83 
  -2   4  13   70.55    5.36 
  -2   4 -13   83.48    5.37 
   2   4  13   78.59    5.87 
   3  -4  13   14.34    2.04 
  -3   4  13   17.10    1.85 
   3   4 -13   14.81    1.49 
  -3   4 -13   17.68    1.92 
   3   4  13   13.16    1.99 
   4   4 -13   34.26    2.62 
  -4   4  13   37.83    3.07 
   4  -4  13   37.40    3.54 
  -4   4 -13   39.72    3.33 
   4   4  13   36.58    3.61 
   5  -4  13    2.88    1.07 
   5   4 -13    2.40    0.59 
  -5   4 -13    2.14    0.80 
   5   4  13    3.12    1.02 
   5   4  13    2.92    1.08 
  -6   4  13   43.84    2.91 
   6   4 -13   36.66    2.46 
   6  -4  13   36.57    3.59 
  -6   4  13   31.32    2.93 
   6   4  13   35.88    3.78 
   6   4  13   38.26    3.58 
  -6   4 -13   41.37    4.79 
  -7   4  13    3.75    0.80 
   7  -4  13    1.17    0.82 
   7   4  13   -0.22    0.68 
   7   4  13    2.19    1.00 
  -7   4 -13    1.74    0.94 
   8  -4  13    0.11    0.58 
   8   4  13   -0.22    0.55 
   8   4  13    2.38    0.97 
   0   5  13   12.29    1.70 
   0   5  13   14.32    2.01 
   0   5 -13   14.36    1.56 
  -1   5  13   37.02    3.40 
   1   5 -13   39.43    2.99 
  -1   5  13   40.13    3.25 
  -1   5 -13   37.81    3.08 
   1   5  13   41.40    3.75 
   2   5 -13   81.50    5.31 
  -2   5  13   96.44    6.03 
  -2   5  13   74.43    5.78 
   2   5  13   84.79    6.26 
  -2   5 -13   85.13    5.69 
  -3   5  13    5.49    1.34 
  -3   5  13    8.73    1.38 
   3  -5  13    6.81    1.71 
   3   5 -13    5.54    0.93 
   3   5  13    5.08    1.33 
  -3   5 -13    7.91    1.29 
  -4   5  13    1.63    0.43 
   4   5  13    0.10    0.57 
  -4   5 -13    0.67    0.59 
   4   5  13    0.10    0.52 
   5  -5  13    0.70    0.62 
  -5   5  13    2.83    0.72 
   5   5 -13    0.72    0.42 
  -5   5  13    1.04    0.61 
   5   5  13    0.05    0.57 
   5   5  13    2.59    1.18 
  -5   5 -13    2.38    0.87 
  -6   5  13   80.20    5.37 
   6   5 -13   85.19    5.11 
  -6   5  13   70.20    5.24 
   6  -5  13   85.25    6.28 
  -6   5 -13  104.28    6.71 
   6   5  13   86.46    6.69 
   6   5  13   86.63    6.36 
   7  -5  13    5.11    1.48 
  -7   5 -13    3.73    1.34 
   7   5  13    5.16    1.53 
   7   5  13    5.50    1.46 
   0   6  13    0.25    0.47 
   0   6 -13    0.08    0.30 
   1   6 -13    0.59    0.40 
  -1   6  13    1.38    0.48 
  -1   6  13    0.29    0.67 
   1   6  13    0.16    0.58 
  -1   6 -13    0.01    0.32 
  -2   6  13   81.92    5.72 
  -2   6  13   77.35    5.47 
   2   6 -13   78.68    5.21 
  -2   6 -13   83.54    5.57 
   2   6  13   82.39    6.23 
  -3   6  13    2.43    0.74 
  -3   6  13    1.52    0.70 
   3   6 -13    0.16    0.38 
   3  -6  13   -0.06    0.41 
   3   6  13    0.20    0.64 
  -3   6 -13    0.52    0.46 
   3   6  13    1.44    0.76 
   4  -6  13   20.19    2.52 
  -4   6  13   21.51    2.12 
  -4   6  13   24.20    2.66 
   4   6 -13   21.75    1.94 
   4   6  13   23.89    2.80 
   4   6  13   20.83    2.76 
  -4   6 -13   20.79    2.42 
  -5   6  13    2.75    0.55 
  -5   6  13    1.71    0.65 
   5   6 -13    1.57    0.48 
   5  -6  13    1.01    0.80 
  -5   6  13    3.80    0.81 
  -5   6 -13    1.29    1.33 
   5   6  13    0.62    0.68 
   5   6  13    1.41    1.56 
  -6   6  13   31.91    2.42 
  -6   6  13   42.27    2.85 
  -6   6  13   32.38    2.61 
   6   6 -13   34.75    2.64 
   6  -6  13   34.51    3.49 
  -6   6 -13   47.18    3.95 
   6   6  13   39.09    3.71 
   6   6  13   37.74    3.96 
   7   6 -13    1.08    0.45 
   7  -6  13    1.14    0.83 
  -7   6 -13    2.10    1.08 
   7   6  13    3.48    1.24 
   0   7  13   62.83    4.92 
   0   7 -13   63.71    4.51 
  -1   7  13   59.16    4.64 
   1   7 -13   58.95    4.27 
   1   7  13   64.81    5.05 
  -1   7 -13   60.05    4.39 
  -2   7  13   30.97    2.78 
   2   7 -13   30.98    2.64 
  -2   7  13   28.94    2.66 
   2   7  13   32.83    3.35 
  -2   7 -13   32.59    2.88 
   2   7  13   33.16    3.51 
  -3   7  13    0.83    0.62 
   3   7 -13    1.17    0.57 
   3  -7  13    3.53    1.18 
  -3   7  13    1.19    0.60 
   3   7  13    2.13    0.88 
  -3   7 -13    1.09    0.59 
   3   7  13    0.91    0.75 
  -4   7  13    1.83    0.68 
   4   7 -13   -0.08    0.29 
  -4   7  13    0.19    0.37 
   4  -7  13   -0.06    0.38 
   4   7  13    0.16    0.72 
  -4   7 -13    0.15    0.55 
   4   7  13    0.14    1.06 
   5  -7  13   33.69    3.45 
   5   7 -13   34.46    2.75 
  -5   7  13   33.78    3.83 
   5   7  13   35.55    3.85 
  -5   7 -13   40.74    3.66 
   5   7  13   33.76    3.57 
   6  -7  13   33.54    3.48 
   6   7 -13   32.10    2.70 
  -6   7  13   39.43    2.65 
   6   7  13   35.99    3.99 
   6   7  13   35.43    3.70 
  -6   7 -13   41.65    3.83 
   0   8  13   -0.60    0.36 
   0   8 -13   -0.14    0.35 
   1   8 -13   19.12    2.07 
   1   8  13   21.81    2.83 
  -1   8 -13   21.88    2.28 
   1   8  13   22.22    2.59 
  -2   8  13   24.81    2.28 
   2   8 -13   25.95    2.41 
   2   8  13   25.04    2.93 
  -2   8 -13   26.69    2.61 
   2   8  13   29.76    3.36 
   3   8 -13  102.05    6.55 
  -3   8  13   91.66    5.93 
  -3   8  13   88.94    7.81 
   3  -8  13  115.86    7.66 
  -3   8 -13  127.74    9.54 
   3   8  13   98.54    7.63 
   3   8  13  109.79    7.81 
  -4   8  13   63.73    4.45 
   4  -8  13   52.36    6.03 
   4   8 -13   59.05    4.34 
   4   8  13   69.43    5.71 
   4   8  13   64.89    5.54 
  -4   8 -13   67.37    5.09 
   5   8 -13   61.06    4.68 
   5  -8  13   62.73    4.98 
  -5   8  13   47.28    3.94 
   5   8  13   59.41    5.22 
   5   8  13   62.35    5.54 
  -5   8 -13   63.65    5.05 
   6   8 -13   18.12    2.10 
   6  -8  13   14.59    2.07 
  -6   8 -13   17.45    2.98 
   6   8  13   14.19    2.93 
   6   8  13   13.45    2.26 
   0   9  13   40.15    4.11 
   0   9  13   34.55    3.24 
   0   9 -13   36.65    3.93 
  -1   9  13    5.08    1.54 
  -1   9  13    6.29    1.28 
   1   9 -13    7.21    1.58 
  -1   9 -13    7.09    1.37 
   1   9  13    8.37    2.14 
   1   9  13    7.56    1.75 
  -2   9  13   29.60    3.37 
   2   9 -13   26.82    2.63 
  -2   9  13   27.72    2.19 
   2   9  13   35.19    3.76 
   2   9  13   33.36    3.44 
  -2   9 -13   32.79    2.98 
   3   9 -13   -0.46    0.34 
  -3   9  13    0.69    0.63 
   3   9  13   -0.61    0.71 
   3   9  13    1.57    0.67 
  -3   9 -13    0.06    0.55 
   4  -9  13   -0.47    0.54 
  -4   9  13    0.68    0.74 
   4   9 -13   -0.01    0.43 
  -4   9 -13    0.56    0.69 
   4   9  13    0.85    0.96 
  -5   9  13   10.38    1.59 
   5  -9  13    9.89    2.13 
   5   9 -13    8.88    1.43 
   5   9  13    9.28    2.18 
   5   9  13   16.07    2.26 
  -5   9 -13    9.94    2.09 
   0  10  13   -0.15    0.55 
   0  10 -13    0.47    0.55 
   0  10  13    0.02    0.73 
   1  10 -13    3.52    1.05 
  -1  10  13    4.67    0.94 
  -1  10  13    2.82    1.17 
  -1  10 -13    2.65    0.96 
   1  10  13    4.71    1.83 
   1  10  13    3.55    1.25 
   2  10 -13   53.82    4.30 
  -2  10  13   54.84    5.01 
  -2  10 -13   64.93    4.79 
   2  10  13   57.33    5.44 
   2  10  13   59.83    5.03 
  -3  10  13   11.21    2.23 
   3  10 -13   14.75    1.81 
   3  10  13   13.53    2.78 
  -3  10 -13   16.82    2.20 
   3  10  13   13.78    2.75 
   4  10 -13   10.15    1.59 
  -4  10  13   12.73    1.91 
   4 -10  13   11.57    2.06 
   4  10  13   10.74    2.56 
  -4  10 -13   12.77    2.05 
   4  10  13   14.42    2.82 
   0  11  13   13.44    2.90 
   0  11 -13   13.14    1.80 
   0  11  13   10.65    1.47 
  -1  11  13    9.39    2.29 
   1  11 -13   10.56    1.68 
   1  11  13   10.89    1.81 
   1  11  13   14.24    2.88 
  -1  11 -13   11.50    1.83 
  -2  11  13   36.17    3.86 
   2  11 -13   37.17    3.33 
  -2  11 -13   41.15    3.67 
   2  11  13   34.98    4.17 
   2  11  13   38.59    3.71 
  -3  11  13    3.00    1.24 
   3  11 -13    2.32    0.89 
  -3  11 -13    1.78    0.96 
   3  11  13    4.23    1.61 
   3  11  13    3.64    1.33 
   0  12  13    1.15    1.11 
   0  12 -13    0.07    0.60 
  -1  12  13    2.21    1.77 
   1  12 -13    5.20    1.34 
  -1  12 -13    5.44    1.38 
   1  12  13    3.22    1.62 
   1  12  13    3.65    1.14 
   0   0  14   39.69    3.47 
  -1   0  14   30.95    2.91 
   1   0  14   27.67    2.98 
   2   0  14  224.64   14.79 
  -2   0  14  267.97   14.75 
   3   0  14    1.04    0.76 
  -3   0  14    2.96    1.00 
   4   0  14   -0.20    0.43 
  -4   0  14    0.48    0.63 
   5   0  14   21.48    2.91 
   6   0  14  178.03   11.54 
   7   0  14   18.84    2.58 
   7   0  14   20.20    2.42 
   8   0  14    3.67    1.27 
   0   1  14    0.81    0.44 
   0   1 -14    0.11    0.21 
   0   1  14    0.00    0.36 
   0  -1  14    0.62    0.56 
   1   1 -14    0.46    0.32 
  -1   1  14   -0.68    0.46 
   1  -1  14    0.66    0.61 
  -1  -1  14   -0.71    0.50 
   1   1  14    0.46    0.40 
  -1   1 -14    0.22    0.28 
   2  -1  14  176.49   11.62 
   2   1 -14  175.34   10.33 
  -2   1  14  197.61   11.41 
   2   1  14  167.76   11.52 
  -2  -1  14  203.15   11.59 
  -2   1 -14  187.80   10.85 
  -3   1  14    3.32    1.08 
   3  -1  14    1.93    0.90 
   3   1  14    1.16    0.81 
   4  -1  14    2.65    0.94 
  -4   1  14    4.52    1.13 
   4   1  14    2.97    1.11 
  -5   1  14    2.68    1.60 
   5  -1  14    1.52    0.87 
   5   1  14    0.61    0.57 
   6  -1  14   65.79    5.40 
   6   1  14   65.87    5.45 
   7  -1  14   -0.07    0.62 
   7   1  14    0.95    0.68 
   7   1  14   -0.68    0.47 
   0   2  14   85.41    5.83 
   0   2  14   77.25    6.00 
   0   2 -14   84.70    5.31 
   1   2 -14   30.04    2.38 
  -1   2  14   30.83    2.96 
  -1   2 -14   31.76    2.59 
   1   2  14   28.87    3.10 
   2  -2  14   42.04    3.83 
   2   2 -14   37.48    2.73 
  -2   2  14   34.13    3.22 
   2   2  14   39.46    3.70 
  -2   2 -14   38.08    3.07 
   3  -2  14    5.41    1.75 
   3   2 -14    3.13    0.67 
  -3   2  14    5.09    1.10 
  -3   2 -14    2.82    0.78 
   3   2  14    3.58    1.23 
   4   2 -14    1.40    0.41 
   4  -2  14    0.52    0.58 
  -4   2  14    1.60    0.59 
   4   2  14    1.27    0.85 
  -4   2 -14    0.93    0.52 
  -5   2  14    0.60    0.80 
   5  -2  14    1.68    1.14 
   5   2  14    1.11    0.73 
  -6   2  14   19.57    2.49 
   6  -2  14   24.69    2.87 
   6   2  14   21.97    2.85 
   6   2  14   25.62    2.79 
   7  -2  14   10.46    1.72 
   7  -2  14    9.67    1.84 
   7   2  14    6.15    1.64 
   7   2  14    8.99    1.91 
   0   3  14   -0.31    0.41 
   0   3 -14    2.50    0.65 
   0   3  14   -0.23    0.39 
   1   3 -14    5.78    1.05 
  -1   3  14    3.67    1.03 
  -1   3  14    4.36    1.30 
   1   3  14    6.44    1.63 
  -1   3 -14    3.57    0.83 
   2  -3  14   25.32    2.88 
  -2   3  14   22.46    2.46 
   2   3 -14   27.72    2.18 
   2   3  14   24.62    2.86 
  -2   3 -14   28.34    2.45 
   3  -3  14   25.32    2.88 
   3   3 -14   23.59    1.96 
  -3   3  14   24.80    2.52 
  -3   3 -14   24.67    2.41 
   3   3  14   22.99    2.83 
  -4   3  14   89.21    6.54 
   4   3 -14   99.10    5.86 
   4  -3  14   97.30    7.13 
  -4   3 -14  114.06    6.89 
   4   3  14   94.88    7.22 
   5   3 -14   18.55    1.46 
  -5   3  14   14.74    2.05 
  -5   3 -14   20.05    2.32 
  -6   3  14   25.14    2.21 
  -6   3  14   21.17    2.91 
   6  -3  14   14.88    2.33 
   6   3  14   19.14    2.65 
   6   3  14   22.49    2.65 
   7  -3  14    1.07    0.78 
  -7   3  14    1.82    1.03 
   7   3  14    2.08    0.93 
   7   3  14    1.26    0.95 
   0   4 -14    4.54    0.96 
   0   4  14    2.51    1.05 
  -1   4  14    1.31    0.66 
   1   4 -14    0.14    0.32 
  -1   4  14    0.84    0.58 
   1   4  14    0.37    0.60 
  -1   4 -14    0.04    0.29 
  -2   4  14   99.42    7.08 
  -2   4  14  111.09    7.01 
   2   4 -14   99.04    6.37 
  -2   4 -14  106.03    6.76 
   2   4  14  106.38    7.56 
  -3   4  14    0.90    0.55 
  -3   4  14    1.42    0.59 
   3   4 -14   -0.07    0.29 
  -3   4 -14    0.53    0.50 
   3   4  14   -0.28    0.53 
   4   4 -14   -0.20    0.25 
  -4   4  14   -0.13    0.56 
   4  -4  14    0.25    0.53 
  -4   4 -14    0.11    0.40 
   4   4  14   -0.18    0.52 
   5   4 -14    0.94    0.45 
  -5   4  14    2.57    0.83 
   5  -4  14    1.42    0.78 
  -5   4 -14    1.35    0.99 
   5   4  14    2.00    1.02 
   5   4  14    0.53    0.59 
  -6   4  14   69.31    5.39 
   6   4 -14   80.77    4.78 
  -6   4  14   74.22    5.50 
   6  -4  14   87.36    6.38 
  -6   4 -14   99.86    6.56 
   6   4  14   81.42    6.58 
   6   4  14   86.83    6.33 
   7  -4  14    0.11    0.81 
   7   4  14    0.45    0.87 
   7   4  14   -0.35    0.67 
   0   5 -14    0.06    0.28 
   0   5  14   -0.03    0.49 
  -1   5  14    6.81    1.58 
   1   5 -14    4.74    0.96 
   1   5  14    6.14    1.64 
  -1   5 -14    4.76    1.07 
  -2   5  14  226.41   12.82 
  -2   5  14  209.13   12.93 
   2   5 -14  200.58   12.17 
   2   5  14  218.28   13.51 
  -2   5 -14  217.23   12.63 
   3  -5  14   26.16    2.94 
  -3   5  14   24.44    2.43 
  -3   5  14   25.36    2.54 
   3   5 -14   21.92    2.07 
   3   5  14   23.36    2.93 
  -3   5 -14   28.30    2.64 
  -4   5  14    9.33    1.49 
   4  -5  14   10.78    1.86 
  -4   5  14   10.06    1.52 
   4   5 -14   10.17    1.23 
   4   5  14   12.49    2.06 
  -4   5 -14    9.47    1.53 
   4   5  14    8.00    1.76 
  -5   5  14   10.05    1.58 
  -5   5  14   11.28    1.77 
   5   5 -14   11.78    1.31 
   5  -5  14   14.30    2.10 
  -5   5 -14   16.20    2.09 
   5   5  14   14.48    2.34 
   5   5  14   12.95    2.12 
   6  -5  14   94.05    6.95 
  -6   5  14   80.52    5.82 
  -6   5  14   85.88    5.95 
   6   5 -14   94.24    5.57 
  -6   5 -14  114.66    7.28 
   6   5  14   97.27    7.39 
   6   5  14   94.37    7.02 
   7  -5  14   -0.37    0.50 
  -7   5 -14   -0.35    0.73 
   7   5  14    0.53    0.75 
   0   6 -14    3.01    0.77 
   1   6 -14    3.26    0.88 
  -1   6  14    3.41    1.17 
  -1   6 -14    2.71    0.89 
   1   6  14    3.13    1.21 
   2   6 -14  125.78    7.76 
  -2   6  14  127.07    8.38 
  -2   6 -14  127.62    8.15 
   2   6  14  130.61    8.98 
   3   6 -14   -0.15    0.30 
   3  -6  14    0.61    0.58 
  -3   6  14    0.84    0.69 
  -3   6  14    1.58    0.67 
   3   6  14   -0.14    0.59 
  -3   6 -14   -0.22    0.40 
  -4   6  14   -0.79    0.45 
  -4   6  14    1.88    0.71 
   4   6 -14    0.39    0.40 
   4  -6  14   -0.23    0.71 
   4   6  14    0.12    0.69 
  -4   6 -14    0.13    0.56 
   4   6  14   -0.03    0.67 
   5   6 -14    4.05    0.84 
  -5   6  14    4.70    1.24 
  -5   6  14    2.95    0.86 
   5  -6  14    4.15    1.42 
  -5   6  14    4.43    1.02 
  -5   6 -14    5.05    1.41 
   5   6  14    4.50    1.41 
   5   6  14    5.57    1.61 
   6  -6  14   95.39    6.87 
   6   6 -14   94.99    5.55 
  -6   6  14   83.81    5.51 
  -6   6  14   82.51    5.27 
  -6   6  14   78.09    5.69 
   6   6  14  103.59    7.18 
   6   6  14   94.69    7.32 
   0   7 -14    0.37    0.40 
   0   7  14   -0.60    0.49 
  -1   7  14    2.37    1.00 
   1   7 -14    2.15    0.71 
  -1   7 -14    2.59    0.81 
   1   7  14    3.77    1.27 
  -2   7  14   35.46    3.20 
   2   7 -14   34.85    2.92 
  -2   7 -14   37.76    3.26 
   2   7  14   37.01    3.79 
   2   7  14   35.24    3.87 
  -3   7  14    9.92    1.50 
   3   7 -14   13.11    1.53 
   3   7  14   12.83    2.20 
   3   7  14   11.25    2.66 
  -3   7 -14   13.04    1.88 
  -4   7  14   44.56    3.39 
   4   7 -14   49.29    3.60 
   4  -7  14   46.81    4.40 
   4   7  14   54.67    6.15 
   4   7  14   50.80    4.73 
  -4   7 -14   54.41    4.36 
   5  -7  14    7.36    1.72 
   5   7 -14    5.34    1.02 
  -5   7  14    5.71    0.71 
   5   7  14    5.23    1.71 
  -5   7 -14    5.00    1.37 
   5   7  14    7.51    1.90 
   6   7 -14   16.21    1.68 
   6  -7  14   17.36    2.37 
  -6   7 -14   20.43    2.66 
   6   7  14   12.96    2.76 
   6   7  14   15.62    2.55 
   0   8 -14   90.66    7.13 
   0   8  14   95.76    6.81 
  -1   8  14   25.97    2.66 
   1   8  14   29.89    3.55 
  -1   8 -14   24.69    2.63 
   1   8  14   24.99    2.96 
  -2   8  14   12.30    1.59 
   2   8  14   10.24    2.26 
  -2   8 -14   14.46    1.87 
   2   8  14   13.98    2.20 
  -3   8  14    5.44    0.86 
   3   8 -14    4.22    1.05 
   3  -8  14    3.53    1.42 
   3   8  14    6.61    1.56 
  -3   8 -14    4.88    1.32 
   3   8  14    3.52    1.30 
   4   8 -14    1.85    0.70 
   4  -8  14    1.61    0.95 
   4   8  14    1.31    0.96 
  -4   8 -14    2.82    1.12 
   4   8  14    1.24    0.94 
   5  -8  14    3.10    1.21 
  -5   8 -14    3.30    1.29 
   5   8  14    2.33    0.93 
   0   9  14    1.17    0.84 
   0   9 -14   -0.03    0.48 
   0   9  14    0.36    0.75 
   1   9 -14    0.17    0.48 
  -1   9  14    0.45    0.58 
  -1   9  14   -1.30    0.64 
   1   9  14    0.96    0.91 
  -1   9 -14    0.18    0.50 
   1   9  14    0.80    0.84 
   2   9 -14   54.30    4.10 
  -2   9  14   57.25    5.07 
  -2   9  14   46.49    3.55 
   2   9  14   57.63    5.35 
   2   9  14   57.39    5.03 
  -2   9 -14   55.79    4.42 
   3   9 -14    0.38    0.52 
   3  -9  14    0.62    0.67 
   3   9  14    0.04    0.79 
   3   9  14    2.16    1.24 
  -3   9 -14    0.39    0.67 
   4   9 -14   14.92    1.86 
   4  -9  14   16.01    2.39 
   4   9  14   21.91    3.07 
   4   9  14   19.01    2.74 
  -4   9 -14   15.51    2.30 
   0  10  14    9.84    2.42 
   0  10 -14   10.05    1.64 
   0  10  14   11.35    1.69 
   1  10 -14    6.46    1.43 
  -1  10  14    7.24    2.00 
  -1  10  14    7.47    1.35 
   1  10  14   12.24    1.95 
   1  10  14    8.11    2.53 
  -1  10 -14   10.79    1.67 
   2  10 -14  103.67    6.97 
  -2  10  14   97.97    7.83 
  -2  10 -14  110.96    7.37 
   2  10  14  106.57    7.83 
   2  10  14  105.64    8.42 
  -3  10  14   -0.38    0.76 
   3  10 -14    0.54    0.64 
   3 -10  14    1.18    0.86 
  -3  10 -14   -0.74    0.52 
   3  10  14   -0.33    0.96 
   3  10  14    1.54    1.28 
   0  11  14   -0.22    0.60 
   0  11 -14   -0.19    0.50 
   0  11  14   -0.61    0.56 
  -1  11  14    0.59    1.36 
   1  11 -14    1.19    0.75 
   1  11  14    3.43    1.27 
  -1  11 -14    0.79    0.87 
   2  11 -14   89.01    6.19 
  -2  11  14   86.80    6.97 
   2  11  14   96.31    6.88 
   2  11  14   85.10    7.46 
  -2  11 -14   85.22    6.45 
   1   0  15    4.71    1.43 
   2   0  15  200.97   12.74 
   3   0  15   20.29    2.62 
   4   0  15    7.91    1.84 
   5   0  15   13.13    2.16 
   6   0  15   83.10    6.57 
   7   0  15   -0.32    0.56 
   7   0  15   -0.60    0.57 
   0   1  15   13.90    2.03 
   0   1 -15   12.66    1.41 
   1  -1  15   17.98    2.44 
   1   1 -15   19.40    1.73 
   1   1  15   15.78    2.27 
  -1   1 -15   20.14    1.91 
   2  -1  15   78.02    6.12 
   2   1  15   79.10    6.15 
   3  -1  15    0.78    0.78 
   3   1  15    1.69    0.89 
   4  -1  15    3.56    1.32 
   4   1  15    3.43    1.27 
   5  -1  15    5.81    1.65 
   5   1  15    7.77    1.84 
   6  -1  15  108.39    8.03 
   6   1  15  112.94    8.18 
   7  -1  15    9.10    1.89 
   7  -1  15   12.04    2.12 
   7   1  15   10.74    2.09 
   7   1  15   13.96    2.12 
   0   2  15    0.05    0.42 
   0   2 -15    0.23    0.31 
   1   2 -15    3.62    0.80 
  -1   2  15    3.72    1.16 
   1   2  15    3.16    1.19 
  -1   2 -15    3.03    0.78 
   2  -2  15    6.31    1.54 
   2   2 -15    7.10    0.98 
   2   2  15    6.12    1.74 
  -2   2 -15    7.68    1.20 
   3   2 -15   16.82    1.54 
   3  -2  15   19.57    2.52 
  -3   2 -15   16.70    1.95 
   3   2  15   18.73    2.52 
   4  -2  15  148.62   10.85 
  -4   2 -15  147.83    9.23 
   4   2  15  140.18    9.90 
   5  -2  15   12.50    2.12 
   5   2  15   14.30    2.79 
   6  -2  15    4.89    1.60 
   6   2  15    4.85    1.63 
   6   2  15    4.18    1.27 
   7  -2  15   -0.31    0.61 
   7   2  15   -0.39    0.71 
   7   2  15   -0.07    0.56 
   0   3  15  238.80   14.96 
   0   3 -15  253.68   14.03 
   1   3 -15   16.08    1.66 
  -1   3  15   17.42    2.26 
   1   3  15   17.32    2.38 
  -1   3 -15   17.67    1.84 
  -2   3  15    1.04    0.67 
   2  -3  15    2.84    0.96 
   2   3 -15    2.21    0.59 
  -2   3 -15    1.74    0.71 
   2   3  15    1.79    0.99 
   3  -3  15    1.19    0.89 
   3   3 -15    0.80    0.39 
   3   3  15    0.58    0.76 
  -3   3 -15    1.51    0.70 
   4  -3  15    0.24    0.74 
   4   3 -15   -0.03    0.29 
   4   3  15   -1.04    0.51 
  -4   3 -15    0.72    0.61 
   5  -3  15    4.80    1.51 
   5   3 -15    6.81    0.79 
  -5   3 -15    7.18    1.54 
   5   3  15    6.45    1.74 
   6  -3  15    8.37    1.88 
  -6   3  15   11.57    1.73 
   6   3  15    6.71    1.76 
   6   3  15    8.89    1.91 
   7  -3  15   10.36    2.13 
   7   3  15   12.08    2.61 
   7   3  15    7.67    1.82 
   0   4  15    0.83    0.69 
   0   4 -15    0.13    0.33 
   1   4 -15    3.99    0.95 
  -1   4  15    3.46    1.21 
  -1   4 -15    4.52    1.11 
   1   4  15    5.05    1.61 
   2   4 -15   75.75    5.09 
   2  -4  15   80.21    6.28 
  -2   4  15   71.36    5.73 
   2   4  15   74.91    6.21 
  -2   4 -15   92.09    5.63 
   3  -4  15   15.82    2.32 
   3   4 -15   17.12    1.65 
  -3   4  15   14.58    1.96 
  -3   4 -15   16.48    1.97 
   3   4  15   16.08    2.43 
   4  -4  15   17.55    2.38 
   4   4 -15   17.94    1.64 
  -4   4 -15   16.60    2.19 
   4   4  15   18.55    3.09 
   5   4 -15    8.59    1.04 
   5  -4  15   13.22    1.88 
   5   4  15    6.71    1.78 
  -5   4 -15   10.92    1.74 
   5   4  15    9.17    1.92 
   6  -4  15   23.24    2.99 
  -6   4 -15   27.00    3.06 
   6   4  15   28.48    3.45 
   6   4  15   23.09    2.91 
   0   5 -15    3.78    0.93 
   0   5  15    6.05    1.76 
   1   5 -15   13.99    1.66 
  -1   5  15   15.44    2.14 
   1   5  15   11.94    2.11 
  -1   5 -15   15.38    1.76 
   2   5 -15  118.44    7.54 
  -2   5  15  118.85    8.25 
   2   5  15  127.98    8.89 
  -2   5 -15  130.52    8.00 
  -3   5  15    1.57    0.85 
   3   5 -15    0.68    0.45 
   3  -5  15    0.65    1.02 
   3   5  15    1.33    0.98 
  -3   5 -15    1.55    0.96 
   4   5 -15    1.35    0.56 
  -4   5  15    2.76    1.03 
   4  -5  15    2.59    1.12 
   4   5  15    2.43    1.44 
  -4   5 -15    4.17    1.10 
   4   5  15    2.40    1.04 
   5  -5  15    5.43    1.61 
  -5   5  15    4.00    1.12 
   5   5 -15    5.16    0.94 
   5   5  15    6.20    1.63 
   5   5  15    6.61    1.91 
  -5   5 -15    5.42    1.37 
  -6   5  15  128.88    8.72 
   6  -5  15  158.46   10.05 
   6   5 -15  131.53    8.10 
  -6   5  15  121.30    8.51 
   6   5  15  170.70   10.27 
   6   5  15  172.51   10.73 
   0   6 -15   -0.32    0.24 
   0   6  15    1.08    0.80 
   1   6 -15    3.73    0.94 
  -1   6  15    3.78    1.25 
   1   6  15    3.61    1.45 
  -1   6 -15    1.68    0.68 
   2   6 -15   98.46    6.47 
  -2   6  15   99.64    7.13 
   2   6  15  108.86    7.81 
   3  -6  15   11.72    2.03 
  -3   6  15   12.39    1.69 
   3   6 -15   11.61    1.47 
   3   6  15   16.39    2.19 
  -3   6 -15   11.65    1.74 
   4  -6  15    2.98    1.18 
  -4   6  15    6.14    1.26 
   4   6 -15    2.08    0.70 
   4   6  15    2.72    1.08 
  -4   6 -15    3.46    1.05 
   4   6  15    6.66    2.01 
   5  -6  15    8.90    2.20 
   5   6 -15    6.39    1.07 
  -5   6 -15    8.68    1.75 
   5   6  15    6.04    1.84 
   5   6  15    5.91    1.60 
   6  -6  15   37.89    3.99 
   6   6 -15   40.11    2.96 
  -6   6 -15   47.41    4.32 
   6   6  15   44.91    4.60 
   6   6  15   39.78    4.23 
   0   7 -15  116.52    8.47 
   0   7  15  128.58    8.64 
  -1   7  15    8.22    1.87 
   1   7  15   12.22    2.47 
  -1   7 -15    9.76    1.53 
  -2   7  15    6.39    1.53 
   2   7 -15    4.22    1.29 
  -2   7 -15    5.77    1.40 
   2   7  15    6.32    1.69 
   3   7 -15    1.50    0.83 
   3  -7  15    1.44    0.83 
   3   7  15    1.13    0.97 
   3   7  15    1.78    1.01 
  -3   7 -15    0.34    0.58 
  -4   7  15    1.00    0.65 
   4  -7  15   -0.15    0.55 
   4   7 -15    0.00    0.67 
   4   7  15    0.01    0.64 
  -4   7 -15    1.14    0.80 
   4   7  15    1.68    1.18 
   5  -7  15    3.53    1.49 
   5   7 -15    4.09    1.62 
  -5   7  15    2.38    0.69 
   5   7  15    3.86    1.56 
   5   7  15    6.07    1.98 
  -5   7 -15    2.81    1.08 
   0   8 -15    0.63    0.56 
   0   8  15   -0.53    0.55 
  -1   8  15    1.81    0.65 
   1   8 -15    0.99    0.63 
   1   8  15    2.61    1.23 
  -1   8 -15    3.06    0.98 
   1   8  15    2.71    1.33 
  -2   8  15    0.82    0.72 
   2   8 -15    0.74    0.58 
   2   8  15    2.14    0.96 
   2   8  15    1.34    1.07 
  -2   8 -15    0.76    0.67 
   3   8 -15    9.79    1.41 
   3  -8  15    8.52    1.87 
  -3   8  15    7.01    1.16 
   3   8  15    8.88    2.29 
  -3   8 -15    8.98    1.79 
   3   8  15    7.21    2.34 
   4   8 -15  131.70    8.70 
   4  -8  15  139.86    9.89 
  -4   8 -15  151.24    9.72 
   4   8  15  151.72   10.43 
   4   8  15  149.91   10.52 
   0   9  15   32.46    4.25 
   0   9  15   46.97    3.98 
   0   9 -15   42.42    3.60 
  -1   9  15    8.60    1.41 
   1   9 -15    5.83    1.29 
  -1   9  15    9.81    2.37 
   1   9  15   11.80    2.39 
  -1   9 -15    5.53    1.28 
   1   9  15    7.99    2.02 
  -2   9  15   17.05    1.82 
   2   9 -15   18.45    2.11 
  -2   9 -15   20.72    2.46 
   2   9  15   20.08    3.16 
   2   9  15   21.29    2.73 
   3  -9  15    1.06    0.98 
   3   9 -15    0.94    0.64 
   3   9  15    0.94    1.14 
   3   9  15    1.57    1.17 
  -3   9 -15    1.12    0.81 
   4  -9  15    0.62    0.92 
   4   9 -15    1.41    0.58 
  -4   9 -15    2.25    1.07 
   4   9  15    0.30    0.83 
   0  10 -15    0.17    0.50 
   0  10  15   -1.57    0.73 
   0  10  15   -0.96    0.60 
   1  10 -15    2.41    0.91 
  -1  10  15    1.59    0.75 
  -1  10  15    0.72    0.97 
   1  10  15   -1.11    0.92 
   1  10  15    1.32    0.99 
  -1  10 -15    1.61    0.76 
   2  10 -15   98.20    6.96 
  -2  10  15   99.62    7.98 
  -2  10 -15  110.14    7.45 
   2  10  15  108.32    8.76 
   2  10  15  112.41    7.90 
   0   0  16   12.69    2.04 
   1   0  16    1.42    0.81 
   2   0  16   76.37    6.12 
   3   0  16   -0.64    0.53 
   4   0  16    3.60    1.30 
   5   0  16    1.98    0.95 
   6   0  16   41.56    4.25 
   0   1  16    0.11    0.48 
   1  -1  16    2.59    0.99 
   1   1  16    1.95    0.89 
   2  -1  16   30.63    3.39 
   2   1  16   30.24    3.38 
   3  -1  16    7.88    2.37 
   3   1  16    5.51    1.57 
   4  -1  16   64.09    5.39 
   4   1  16   56.77    5.29 
   5  -1  16    2.99    1.34 
   5   1  16    2.26    1.22 
   6  -1  16   21.05    2.87 
   6   1  16   20.60    2.91 
   0   2 -16  249.62   13.67 
   0   2  16  227.62   14.66 
   1  -2  16   64.29    5.36 
  -1   2  16   57.45    4.97 
   1   2 -16   62.41    4.19 
  -1   2 -16   61.73    4.37 
   1   2  16   60.20    5.18 
   2   2 -16    1.45    0.53 
   2  -2  16    0.13    0.56 
   2   2  16    1.20    0.97 
  -2   2 -16    1.73    0.68 
   3  -2  16    5.15    1.92 
  -3   2 -16    6.28    1.26 
   3   2  16    5.41    1.64 
   4  -2  16    5.69    1.62 
   4   2  16    7.64    1.95 
   5  -2  16   10.58    2.31 
   5   2  16   12.12    2.64 
   6  -2  16    4.52    1.53 
   6   2  16    3.78    1.36 
   6   2  16    2.04    1.04 
   0   3  16   -0.59    0.45 
   0   3 -16    0.12    0.41 
   1   3 -16   13.74    1.53 
  -1   3  16   12.68    1.96 
   1   3  16   13.48    2.20 
  -1   3 -16   13.54    1.66 
   2   3 -16    2.94    0.75 
  -2   3  16    3.15    1.03 
   2  -3  16    2.76    1.16 
   2   3  16    3.61    1.37 
  -2   3 -16    2.76    0.90 
   3  -3  16   55.52    5.06 
   3   3 -16   55.33    3.80 
   3   3  16   60.78    5.29 
   4   3 -16  237.70   13.31 
   4  -3  16  232.18   15.05 
  -4   3 -16  255.42   14.43 
   4   3  16  235.85   15.23 
   5  -3  16   36.57    3.93 
   5   3  16   39.91    4.20 
   6  -3  16    3.95    1.14 
   6   3  16    2.10    1.10 
   6   3  16    1.45    0.98 
   0   4  16   67.21    5.60 
   0   4 -16   70.84    4.82 
   1   4 -16   13.55    1.58 
  -1   4  16   14.34    2.02 
  -1   4 -16   12.49    1.61 
   1   4  16   13.31    2.19 
   2  -4  16   26.02    3.14 
   2   4 -16   25.02    2.22 
  -2   4  16   21.68    2.66 
   2   4  16   23.03    3.07 
  -2   4 -16   30.22    2.76 
   3  -4  16   -0.07    0.54 
  -3   4  16    1.09    0.82 
   3   4 -16    1.16    0.49 
   3   4  16    0.18    0.59 
  -3   4 -16    1.26    0.64 
   4   4 -16    2.61    0.70 
  -4   4  16    2.51    0.88 
   4  -4  16    2.18    1.16 
  -4   4 -16    1.72    0.86 
   4   4  16    2.13    1.21 
   5  -4  16    6.54    1.84 
  -5   4 -16    2.56    1.03 
   5   4  16    3.04    1.27 
   5   4  16    2.10    1.17 
   6  -4  16    9.07    2.07 
   6   4  16   12.63    1.98 
   6   4  16   12.71    2.18 
   0   5 -16    0.70    0.49 
   0   5  16    1.55    0.69 
   1   5 -16    0.16    0.46 
  -1   5  16    0.54    0.70 
  -1   5 -16   -0.02    0.46 
   1   5  16   -0.51    0.58 
   2  -5  16   67.33    5.62 
  -2   5  16   60.13    5.04 
   2   5 -16   60.55    4.38 
  -2   5 -16   64.96    4.76 
   2   5  16   64.53    5.60 
   3  -5  16    1.59    1.00 
  -3   5  16    2.26    1.07 
   3   5 -16    1.38    0.59 
  -3   5 -16    1.58    0.76 
   3   5  16    0.90    1.75 
   4  -5  16   14.70    2.23 
   4   5 -16   11.56    1.37 
  -4   5  16   11.30    1.69 
  -4   5 -16   13.75    1.96 
   4   5  16   10.80    2.61 
   5   5 -16    0.46    0.46 
   5  -5  16   -0.61    0.81 
  -5   5 -16    0.75    0.63 
   5   5  16    0.20    0.68 
   5   5  16    1.97    1.15 
   0   6  16   35.25    3.61 
   0   6 -16   31.07    2.89 
  -1   6  16    0.79    0.89 
   1   6  16    2.35    1.18 
  -1   6 -16    1.51    0.69 
   2   6 -16   38.04    3.31 
  -2   6  16   34.91    3.58 
   2   6  16   38.94    4.12 
  -2   6 -16   38.75    3.40 
  -3   6  16    0.01    0.66 
   3  -6  16    0.51    0.74 
   3   6 -16    0.25    0.43 
  -3   6 -16    0.01    0.43 
   4   6 -16    0.66    0.55 
   4  -6  16    0.00    0.82 
  -4   6  16    0.93    0.78 
   4   6  16    2.31    1.23 
  -4   6 -16    0.74    0.70 
   4   6  16    3.48    1.37 
   5  -6  16    0.48    0.93 
   5   6 -16    0.46    0.55 
  -5   6  16    0.84    0.72 
  -5   6 -16    0.15    0.53 
   5   6  16   -0.69    0.71 
   0   7  16    1.51    0.63 
   0   7 -16   -0.31    0.39 
   1   7 -16    8.89    1.42 
  -1   7  16   10.64    2.08 
  -1   7 -16    7.87    1.58 
   1   7  16    8.96    2.12 
   2   7 -16    1.28    0.72 
  -2   7  16    1.59    0.88 
  -2   7 -16    0.31    0.63 
   2   7  16    2.05    0.81 
  -3   7  16   24.83    2.66 
   3   7 -16   23.05    2.38 
   3  -7  16   31.29    3.44 
   3   7  16   29.15    3.82 
  -3   7 -16   26.40    2.88 
   3   7  16   33.76    3.79 
   4  -7  16  127.32    9.54 
   4   7 -16  132.87    8.38 
   4   7  16  138.49   10.08 
   4   7  16  138.93   10.16 
  -4   7 -16  152.21    9.41 
   0   8  16  202.73   12.65 
   0   8 -16  190.46   11.84 
   1   8 -16   44.68    3.70 
  -1   8  16   41.21    3.93 
   1   8  16   56.70    5.13 
   1   8  16   42.40    4.41 
  -1   8 -16   45.95    3.88 
  -2   8  16   -0.92    0.71 
   2   8 -16    0.60    0.59 
   2   8  16    0.74    0.97 
   2   8  16    0.69    0.90 
  -2   8 -16    0.03    0.54 
   3  -8  16    3.98    1.47 
  -3   8  16    4.21    1.23 
   3   8 -16    4.60    1.12 
   3   8  16    8.38    2.03 
  -3   8 -16    4.08    1.23 
   3   8  16    3.18    1.46 
   0   9 -16   -0.03    0.46 
   0   9  16    0.13    0.98 
   0   9  16    0.62    0.80 
   1   9 -16    2.21    0.88 
  -1   9  16    3.88    1.25 
   1   9  16    4.12    1.14 
  -1   9 -16    3.20    1.14 
  -2   9  16   10.63    1.44 
   2   9 -16    6.04    1.32 
   2   9  16    9.81    3.09 
  -2   9 -16    8.90    1.95 
   2   9  16    9.43    2.72 
   0   0  17    0.63    0.57 
   1   0  17   16.62    2.46 
   2   0  17   19.96    2.95 
   3   0  17   76.55    6.34 
   4   0  17   75.74    6.39 
   5   0  17   41.89    4.41 
   6   0  17   14.16    2.46 
   0   1  17  119.02    8.48 
  -1   1  17   15.10    2.28 
   1  -1  17   18.08    2.89 
   1   1  17   15.94    2.43 
   2  -1  17    9.89    2.29 
   3  -1  17    2.49    1.03 
   3   1  17    3.68    1.39 
   4  -1  17    0.60    0.88 
   4   1  17   -0.23    0.76 
   5  -1  17   -0.66    0.78 
   5   1  17    0.30    0.70 
   6  -1  17    6.29    1.71 
   6   1  17    6.36    1.71 
   0   2 -17    0.30    0.40 
   0   2  17    0.35    0.54 
   1   2 -17    3.19    0.81 
   1  -2  17    2.45    1.13 
  -1   2  17    4.84    1.35 
  -1   2 -17    4.40    1.01 
   1   2  17    5.96    1.70 
   2  -2  17    1.15    0.87 
  -2   2  17    1.06    0.76 
   2   2  17    1.27    0.88 
   3  -2  17   17.05    2.58 
   3   2  17   16.41    2.59 
   4  -2  17  161.89   11.14 
   4   2  17  165.04   11.32 
   5  -2  17    8.06    1.83 
   5   2  17   10.93    2.42 
   0   3 -17  196.37   11.18 
   0   3  17  181.14   12.18 
  -1   3  17   12.70    2.13 
   1   3 -17   16.49    1.74 
   1   3  17   15.65    2.40 
  -1   3 -17   17.40    1.92 
   2   3 -17    1.69    0.58 
  -2   3  17    0.36    0.60 
   2  -3  17    0.68    0.70 
  -2   3 -17    2.08    0.81 
   2   3  17   -0.60    0.60 
  -3   3  17   -0.14    0.39 
   3   3 -17    0.76    0.43 
   3  -3  17   -0.53    0.85 
  -3   3 -17    0.08    0.43 
   3   3  17    0.90    0.80 
   4  -3  17    2.19    1.16 
   4   3  17   -0.07    0.87 
  -4   3 -17    1.43    0.77 
   5  -3  17   12.47    2.23 
   5   3  17   16.12    2.38 
   0   4  17   -0.17    0.65 
   0   4 -17    0.55    0.49 
   1   4 -17   -0.17    0.32 
  -1   4  17    1.01    0.85 
   1   4  17    2.25    0.83 
  -1   4 -17    0.54    0.54 
  -2   4  17    4.76    1.50 
   2   4 -17    6.73    1.09 
   2  -4  17    4.98    1.51 
  -2   4 -17    6.29    1.38 
   2   4  17   10.40    3.27 
   3   4 -17    1.38    0.56 
  -3   4  17    0.81    0.81 
   3  -4  17    2.28    1.06 
  -3   4 -17    2.58    0.92 
   3   4  17    4.50    1.72 
  -4   4  17   83.95    6.74 
   4   4 -17  106.03    6.12 
   4  -4  17   97.38    7.64 
   4   4  17  101.00    7.94 
  -4   4 -17  107.69    7.11 
   5  -4  17    2.77    1.21 
  -5   4  17    2.69    0.78 
  -5   4 -17    1.93    0.96 
   5   4  17    2.70    1.40 
   5   4  17    3.49    1.35 
   0   5 -17   73.12    5.15 
   0   5  17   73.34    6.08 
  -1   5  17   65.25    5.69 
   1   5 -17   72.47    5.12 
  -1   5 -17   76.12    5.24 
   1   5  17   75.12    6.16 
   2  -5  17    8.94    2.06 
   2   5 -17   11.88    1.81 
  -2   5  17   11.80    1.94 
  -2   5 -17   13.13    1.76 
   3  -5  17    6.27    1.65 
   3   5 -17    7.28    1.14 
   3   5  17   10.50    2.37 
  -3   5 -17    7.31    1.48 
  -4   5  17    0.66    0.66 
   4  -5  17   -0.12    0.82 
   4   5 -17    0.50    0.37 
  -4   5 -17   -0.27    0.59 
   0   6  17   -0.66    0.72 
   0   6 -17   -0.48    0.40 
  -1   6  17    4.62    1.51 
   1   6 -17    3.36    0.85 
  -1   6 -17    3.96    1.05 
   1   6  17    3.61    1.50 
   2  -6  17    7.82    2.00 
   2   6 -17   11.42    1.57 
  -2   6  17   15.66    1.93 
  -2   6 -17    9.57    1.58 
   2   6  17   11.27    2.78 
   3  -6  17   18.84    2.73 
  -3   6  17   22.23    2.56 
   3   6 -17   19.22    2.03 
  -3   6 -17   20.74    2.45 
   3   6  17   22.13    3.07 
  -4   6  17   59.97    5.16 
   4  -6  17   73.58    6.23 
   4   6 -17   72.52    4.93 
  -4   6 -17   81.65    5.88 
   4   6  17   78.54    6.66 
   4   6  17   86.11    6.89 
   0   7  17  132.01    9.47 
   0   7 -17  136.24    8.63 
   1   7 -17    5.05    1.19 
  -1   7  17    6.78    1.81 
   1   7  17    6.02    1.63 
  -1   7 -17    5.39    1.38 
   2   7 -17    1.01    0.63 
  -2   7  17    2.21    0.96 
  -2   7 -17    2.36    1.02 
   2   7  17    2.00    1.06 
   3  -7  17    0.34    0.77 
  -3   7  17    0.10    0.69 
   3   7 -17    0.46    0.51 
   3   7  17   -0.25    0.78 
   3   7  17    2.13    1.33 
  -3   7 -17    0.12    0.62 
   0   8  17   -0.47    0.72 
   0   8 -17   -0.06    0.46 
   1   8 -17    3.09    0.94 
  -1   8  17    4.58    1.14 
   1   8  17    7.03    2.26 
  -1   8 -17    3.16    1.04 
   1   8  17    4.66    1.78 
  -2   8  17    2.35    1.16 
   2   8 -17    0.84    0.74 
   2   8  17    1.14    1.22 
  -2   8 -17    1.54    0.85 
   0   0  18  113.01    8.26 
   1   0  18   94.11    7.31 
   2   0  18    8.87    2.12 
   3   0  18    3.04    1.08 
   4   0  18    1.42    1.09 
   5   0  18   45.68    4.68 
   0   1  18    0.58    0.85 
   0  -1  18   -0.51    0.50 
   1  -1  18    4.78    1.46 
  -1   1  18    5.73    1.78 
   1   1  18    6.22    1.71 
   2  -1  18    6.05    1.74 
   2   1  18    8.94    2.24 
   3  -1  18   38.41    4.11 
   3   1  18   31.71    3.83 
   4  -1  18   71.33    6.25 
   4   1  18   73.41    6.33 
   5  -1  18   16.33    2.80 
   5   1  18   24.80    3.14 
   0   2  18   47.28    5.87 
  -1   2  18    6.44    1.73 
   1  -2  18    8.58    2.09 
   1   2  18    6.35    1.82 
  -2   2  18   21.23    2.73 
   2  -2  18   25.62    3.21 
   2   2  18   24.97    3.21 
   3  -2  18    3.31    1.50 
   3   2  18    4.86    1.31 
   4  -2  18    0.86    0.74 
   4   2  18   -1.22    0.77 
   0   3  18   -0.23    0.55 
   0   3 -18   -0.12    0.35 
   1  -3  18    1.07    0.86 
  -1   3  18   -0.49    0.49 
   1   3 -18    0.86    0.51 
  -1   3 -18    0.40    0.46 
   1   3  18    1.14    0.98 
  -2   3  18   26.81    3.04 
   2  -3  18   24.40    3.32 
   2   3 -18   32.63    2.55 
   2   3  18   31.89    3.69 
  -2   3 -18   29.49    2.79 
   3  -3  18    3.37    1.37 
  -3   3  18    5.10    1.21 
   3   3  18    2.30    1.36 
  -3   3 -18    4.41    1.17 
   4  -3  18   37.24    3.98 
  -4   3  18   26.48    3.09 
   4   3  18   30.50    3.81 
   0   4 -18   86.20    5.62 
   0   4  18   73.66    6.30 
   1   4 -18    9.79    1.44 
  -1   4  18   13.81    1.99 
  -1   4 -18   10.85    1.60 
   1   4  18    9.60    2.22 
  -2   4  18   12.18    1.94 
   2  -4  18   13.02    2.23 
  -2   4 -18   12.06    1.77 
   2   4  18   15.61    2.39 
   3  -4  18   -0.30    0.71 
  -3   4  18   -0.04    0.64 
   3   4 -18   -0.21    0.39 
  -3   4 -18    0.33    0.53 
   3   4  18   -0.96    0.72 
   4   4 -18    0.15    0.38 
   4  -4  18    1.25    0.64 
   4   4  18   -0.08    0.92 
  -4   4 -18    0.43    0.51 
   0   5  18   -0.39    0.73 
   0   5 -18    0.24    0.50 
   1   5 -18   19.11    2.06 
  -1   5  18   19.81    2.70 
   1   5  18   19.23    2.73 
  -1   5 -18   20.13    2.19 
   2   5 -18    6.59    1.22 
   2  -5  18    3.95    1.28 
  -2   5  18    6.04    1.70 
   2   5  18    8.07    2.08 
  -2   5 -18    6.00    1.31 
  -3   5  18   70.53    6.17 
   3  -5  18   85.85    7.01 
   3   5 -18   91.00    5.71 
   3   5  18   95.66    7.47 
  -3   5 -18   93.42    6.41 
   0   6  18   81.66    6.65 
   0   6 -18   85.26    5.89 
  -1   6  18   29.95    3.52 
   1   6 -18   28.74    2.77 
   1   6  18   29.56    3.59 
  -1   6 -18   37.30    3.17 
   2  -6  18    8.04    1.99 
  -2   6  18    5.89    1.79 
   2   6 -18    8.82    1.39 
  -2   6 -18    6.33    1.37 
   2   6  18    8.74    2.01 
   0   7 -18    0.09    0.53 
   0   7  18    1.52    0.91 
   1   7 -18    0.28    0.50 
  -1   7  18    0.73    0.95 
   1   7  18    0.56    1.04 
  -1   7 -18   -0.55    0.41 
   0   0  19   -0.26    0.57 
   1   0  19    7.71    2.14 
  -1   0  19    7.09    1.91 
   2   0  19   12.94    2.75 
   3   0  19   42.96    4.52 
   0   1  19   25.68    3.19 
   0  -1  19   24.71    3.05 
   1  -1  19   17.07    2.67 
  -1   1  19   19.93    2.55 
   1   1  19   18.30    2.80 
  -2   1  19   34.84    3.65 
   2  -1  19   35.93    4.00 
   2   1  19   33.61    3.87 
   3  -1  19    2.67    1.24 
   3   1  19    3.47    1.64 
   0  -2  19    0.69    0.78 
   0   2  19    1.33    0.68 
   1  -2  19    0.03    0.77 
  -1   2  19    0.72    0.70 
   1   2  19   -0.84    0.84 
   2  -2  19  102.00    7.84 
  -2   2  19   86.91    7.08 
   2   2  19  106.14    7.95 
  -3   2  19    0.02    0.56 
   3  -2  19   -0.30    0.61 
   3   2  19    2.00    1.46 
   0   3 -19   11.89    1.58 
   0   3  19   12.62    2.01 
   1   3 -19    0.42    0.39 
  -1   3  19   -0.54    0.51 
   1  -3  19    1.15    0.97 
  -1   3 -19   -0.40    0.35 
  -2   3  19   88.71    7.29 
   2  -3  19  106.73    8.13 
   2   3  19  114.89    8.28 
   3  -3  19    0.19    0.59 
  -3   3  19    1.24    0.85 
   3   3  19    0.50    1.14 
   0   4 -19    0.06    0.40 
   0   4  19    0.43    0.83 
   1  -4  19    0.39    0.84 
  -1   4  19    0.89    1.09 
   1   4 -19    1.60    0.66 
   1   4  19    2.53    1.26 
  -1   4 -19    2.28    0.94 
   2   4 -19   41.86    3.17 
  -2   4  19   32.84    4.47 
   2  -4  19   32.21    3.97 
  -2   4 -19   38.56    3.44 
   2   4  19   41.67    4.26 
   0   5  19   55.49    5.22 
   0   5 -19   58.46    4.42 
  -1   5  19   39.54    4.16 
   1   5 -19   40.81    3.33 
   1  -5  19   38.94    4.28 
  -1   5 -19   40.61    3.51 
   1   5  19   33.36    4.15 
   0   0  20   85.37    6.97 
   1   0  20    2.82    1.34 
  -1   0  20    5.46    1.74 
   0  -1  20   -0.58    0.66 
  -1   1  20    0.67    0.58 
   1   1  20    0.72    0.92 
   0   2  20    4.33    1.32 
   0  -2  20    3.29    1.54 
  -1   2  20    1.36    1.16 
   1  -2  20    3.44    0.90 
   1   2  20    1.75    0.91 
   0   0   0    0.00    0.00 
;
_shelx_hkl_checksum              21629
loop_
_space_group_symop_operation_xyz
'x, y, z'
'-x+1/2, -y, z+1/2'
'-x, y+1/2, -z'
'x+1/2, -y+1/2, -z+1/2'
'-x, -y, -z'
'x-1/2, y, -z-1/2'
'x, -y-1/2, z'
'-x-1/2, y-1/2, z-1/2'
loop_
_atom_site_label
_atom_site_type_symbol
_atom_site_fract_x
_atom_site_fract_y
_atom_site_fract_z
_atom_site_U_iso_or_equiv
_atom_site_adp_type
_atom_site_occupancy
_atom_site_site_symmetry_order
_atom_site_calc_flag
_atom_site_refinement_flags_posn
_atom_site_refinement_flags_adp
_atom_site_refinement_flags_occupancy
_atom_site_disorder_assembly
_atom_site_disorder_group
Pb1 Pb 1.06465(2) 0.750000 0.75013(2) 0.00943(7) Uani 1 2 d S T P . .
I1 I 0.81799(3) 0.55687(2) 0.84986(2) 0.01174(7) Uani 1 1 d . . . . .
I2 I 0.82133(4) 0.750000 0.57175(3) 0.01423(9) Uani 1 2 d S T P . .
S1 S 0.26553(16) 0.750000 0.34892(10) 0.0101(2) Uani 1 2 d S T P . .
O1 O 0.3069(5) 0.750000 0.2499(3) 0.0170(9) Uani 1 2 d S T P . .
C1 C 0.4472(7) 0.750000 0.4198(4) 0.0144(11) Uani 1 2 d S T P . .
H1A H 0.417(8) 0.750000 0.487(5) 0.021(17) Uiso 1 2 d S . P . .
H1B H 0.506(6) 0.679(4) 0.404(4) 0.029(14) Uiso 1 1 d . . . . .
C2 C 0.1442(5) 0.6239(4) 0.3830(3) 0.0152(8) Uani 1 1 d . . . . .
H2A H 0.124957 0.626273 0.451287 0.023 Uiso 1 1 calc R U . . .
H2B H 0.206979 0.550284 0.366574 0.023 Uiso 1 1 calc R U . . .
H2C H 0.033006 0.624869 0.350318 0.023 Uiso 1 1 calc R U . . .
loop_
_atom_site_aniso_label
_atom_site_aniso_U_11
_atom_site_aniso_U_22
_atom_site_aniso_U_33
_atom_site_aniso_U_23
_atom_site_aniso_U_13
_atom_site_aniso_U_12
Pb1 0.00696(10) 0.01295(11) 0.00839(12) 0.000 -0.00051(6) 0.000
I1 0.01476(13) 0.01017(12) 0.01029(14) 0.00062(8) 0.00001(9) 0.00009(8)
I2 0.00850(15) 0.0279(2) 0.00631(18) 0.000 -0.00010(12) 0.000
S1 0.0110(5) 0.0116(6) 0.0076(7) 0.000 0.0009(4) 0.000
O1 0.025(2) 0.019(2) 0.007(2) 0.000 0.0045(15) 0.000
C1 0.012(2) 0.017(3) 0.015(3) 0.000 -0.003(2) 0.000
C2 0.0205(18) 0.0167(18) 0.008(2) -0.0014(15) 0.0005(14) -0.0079(15)
loop_
_atom_type_symbol
_atom_type_description
_atom_type_scat_dispersion_real
_atom_type_scat_dispersion_imag
_atom_type_scat_source
C C 0.0033 0.0016 'International Tables Vol C Tables 4.2.6.8 and 6.1.1.4'
H H 0.0000 0.0000 'International Tables Vol C Tables 4.2.6.8 and 6.1.1.4'
I I -0.4742 1.8119 'International Tables Vol C Tables 4.2.6.8 and 6.1.1.4'
O O 0.0106 0.0060 'International Tables Vol C Tables 4.2.6.8 and 6.1.1.4'
Pb Pb -3.3944 10.1111 'International Tables Vol C Tables 4.2.6.8 and 6.1.1.4'
S S 0.1246 0.1234 'International Tables Vol C Tables 4.2.6.8 and 6.1.1.4'
loop_
_geom_angle_atom_site_label_1
_geom_angle_atom_site_label_2
_geom_angle_atom_site_label_3
_geom_angle
_geom_angle_site_symmetry_1
_geom_angle_site_symmetry_3
_geom_angle_publ_flag
I2 Pb1 I1 89.814(8) . . ?
I2 Pb1 I1 89.814(8) . 7_575 ?
I1 Pb1 I1 84.031(9) . 7_575 ?
I2 Pb1 I2 178.481(11) . 6_657 ?
I1 Pb1 I2 91.315(8) . 6_657 ?
I1 Pb1 I2 91.314(8) 7_575 6_657 ?
I2 Pb1 I1 90.683(8) . 4_566 ?
I1 Pb1 I1 179.282(8) . 4_566 ?
I1 Pb1 I1 96.489(7) 7_575 4_566 ?
I2 Pb1 I1 88.179(7) 6_657 4_566 ?
I2 Pb1 I1 90.683(8) . 6_657 ?
I1 Pb1 I1 96.489(7) . 6_657 ?
I1 Pb1 I1 179.281(8) 7_575 6_657 ?
I2 Pb1 I1 88.179(8) 6_657 6_657 ?
I1 Pb1 I1 82.987(9) 4_566 6_657 ?
Pb1 I1 Pb1 74.089(6) . 6_557 ?
Pb1 I2 Pb1 74.970(8) . 6_557 ?
O1 S1 C1 112.6(3) . . ?
O1 S1 C2 112.86(17) . 7_575 ?
C1 S1 C2 106.05(18) . 7_575 ?
O1 S1 C2 112.86(17) . . ?
C1 S1 C2 106.04(18) . . ?
C2 S1 C2 105.8(3) 7_575 . ?
S1 C1 H1A 112(4) . . ?
S1 C1 H1B 105(3) . . ?
H1A C1 H1B 110(4) . . ?
S1 C1 H1B 105(3) . 7_575 ?
H1A C1 H1B 110(4) . 7_575 ?
H1B C1 H1B 114(6) . 7_575 ?
S1 C2 H2A 109.5 . . ?
S1 C2 H2B 109.5 . . ?
H2A C2 H2B 109.5 . . ?
S1 C2 H2C 109.5 . . ?
H2A C2 H2C 109.5 . . ?
H2B C2 H2C 109.5 . . ?
loop_
_geom_bond_atom_site_label_1
_geom_bond_atom_site_label_2
_geom_bond_distance
_geom_bond_site_symmetry_2
_geom_bond_publ_flag
Pb1 I2 3.1572(4) . ?
Pb1 I1 3.2035(3) . ?
Pb1 I1 3.2035(3) 7_575 ?
Pb1 I2 3.2175(4) 6_657 ?
Pb1 I1 3.2363(3) 4_566 ?
Pb1 I1 3.2363(3) 6_657 ?
S1 O1 1.441(4) . ?
S1 C1 1.732(5) . ?
S1 C2 1.755(4) 7_575 ?
S1 C2 1.755(4) . ?
C1 H1A 0.99(7) . ?
C1 H1B 0.94(5) . ?
C1 H1B 0.94(5) 7_575 ?
C2 H2A 0.9800 . ?
C2 H2B 0.9800 . ?
C2 H2C 0.9800 . ?
