#------------------------------------------------------------------------------
#$Date: 2021-07-04 12:32:55 +0300 (Sun, 04 Jul 2021) $
#$Revision: 266977 $
#$URL: file:///home/coder/svn-repositories/cod/cif/7/12/85/7128590.cif $
#------------------------------------------------------------------------------
#
# This file is available in the Crystallography Open Database (COD),
# http://www.crystallography.net/
#
# All data on this site have been placed in the public domain by the
# contributors.
#
data_7128590
loop_
_publ_author_name
'\/Lukasik, Beata'
'Kowalska, Justyna'
'Frankowski, Sebastian'
'Albrecht, \/Lukasz'
_publ_section_title
;
 Vinylogous hydrazone strategy for the organocatalytic alkylation of
 heteroaromatic derivatives.
;
_journal_issue                   51
_journal_name_full
'Chemical communications (Cambridge, England)'
_journal_page_first              6312
_journal_page_last               6315
_journal_paper_doi               10.1039/d1cc01923f
_journal_volume                  57
_journal_year                    2021
_chemical_absolute_configuration ad
_chemical_formula_moiety         'C20 H25 N3 O2'
_chemical_formula_sum            'C20 H25 N3 O2'
_chemical_formula_weight         339.43
_chemical_melting_point          368
_chemical_name_systematic
;
(S,E)-methyl 5-(5-((E)-(2,2-dimethylhydrazono)methyl)-1-methyl-1H-pyrrol-2-yl)-5-phenylpent-2-enoate
;
_space_group_IT_number           1
_space_group_name_Hall           'P 1'
_space_group_name_H-M_alt        'P 1'
_symmetry_cell_setting           triclinic
_symmetry_Int_Tables_number      1
_symmetry_space_group_name_Hall  'P 1'
_symmetry_space_group_name_H-M   'P 1'
_atom_sites_solution_hydrogens   geom
_atom_sites_solution_primary     difmap
_atom_sites_solution_secondary   difmap
_audit_update_record
;
2021-02-24 deposited with the CCDC.	2021-06-02 downloaded from the CCDC.
;
_cell_angle_alpha                91.537(2)
_cell_angle_beta                 93.551(2)
_cell_angle_gamma                91.604(2)
_cell_formula_units_Z            1
_cell_length_a                   6.4512(1)
_cell_length_b                   8.5325(2)
_cell_length_c                   8.7429(2)
_cell_measurement_reflns_used    8522
_cell_measurement_temperature    293
_cell_measurement_theta_max      78.583
_cell_measurement_theta_min      5.069
_cell_volume                     479.943(17)
_computing_cell_refinement       'CrysAlisPro 1.171.41.96a (Rigaku OD, 2021)'
_computing_data_collection       'CrysAlisPro 1.171.41.96a (Rigaku OD, 2021)'
_computing_data_reduction        'CrysAlisPro 1.171.41.96a (Rigaku OD, 2021)'
_diffrn_ambient_temperature      293
_diffrn_detector                 'Hybrid Pixel Array Detector'
_diffrn_detector_area_resol_mean 5.8140
_diffrn_detector_type            'Pilatus 300K'
_diffrn_measured_fraction_theta_full 0.995
_diffrn_measured_fraction_theta_max 0.995
_diffrn_measurement_device       'four-circle diffractometer'
_diffrn_measurement_device_type  'XtaLAB Synergy, Dualflex, Pilatus 300K'
_diffrn_measurement_method       '\w scans'
_diffrn_radiation_monochromator  mirror
_diffrn_radiation_probe          x-ray
_diffrn_radiation_type           'Cu K\a'
_diffrn_radiation_wavelength     1.54184
_diffrn_reflns_av_R_equivalents  0.0126
_diffrn_reflns_av_unetI/netI     0.0109
_diffrn_reflns_limit_h_max       7
_diffrn_reflns_limit_h_min       -7
_diffrn_reflns_limit_k_max       10
_diffrn_reflns_limit_k_min       -10
_diffrn_reflns_limit_l_max       10
_diffrn_reflns_limit_l_min       -9
_diffrn_reflns_number            9488
_diffrn_reflns_theta_full        66.60
_diffrn_reflns_theta_max         66.60
_diffrn_reflns_theta_min         5.07
_diffrn_source_type              'PhotonJet (Cu) X-ray Source'
_exptl_absorpt_coefficient_mu    0.613
_exptl_absorpt_correction_T_max  1.000
_exptl_absorpt_correction_T_min  0.310
_exptl_absorpt_correction_type   gaussian
_exptl_absorpt_process_details
;
CrysAlisPro 1.171.41.96a (Rigaku Oxford Diffraction, 2021)
Numerical absorption correction based on gaussian integration over
a multifaceted crystal model
Empirical absorption correction using spherical harmonics,
implemented in SCALE3 ABSPACK scaling algorithm.

Empirical correction (ABSPACK) includes:
- Absorption correction using spherical harmonics
- Frame scaling
- Detector area scaling
;
_exptl_crystal_colour            Colourless
_exptl_crystal_density_diffrn    1.174
_exptl_crystal_description       Plate
_exptl_crystal_F_000             182
_exptl_crystal_size_max          0.52
_exptl_crystal_size_mid          0.39
_exptl_crystal_size_min          0.11
_refine_diff_density_max         0.224
_refine_diff_density_min         -0.178
_refine_diff_density_rms         0.020
_refine_ls_abs_structure_details
;
 Flack x determined using 1485 quotients [(I+)-(I-)]/[(I+)+(I-)]
 (Parsons, Flack and Wagner, Acta Cryst. B69 (2013) 249-259).
;
_refine_ls_abs_structure_Flack   -0.02(6)
_refine_ls_extinction_coef       0.047(6)
_refine_ls_extinction_expression Fc^*^=kFc[1+0.001xFc^2^\l^3^/sin(2\q)]^-1/4^
_refine_ls_extinction_method     'SHELXL-2018/3 (Sheldrick 2018)'
_refine_ls_goodness_of_fit_ref   1.045
_refine_ls_hydrogen_treatment    constr
_refine_ls_matrix_type           full
_refine_ls_number_parameters     231
_refine_ls_number_reflns         3227
_refine_ls_number_restraints     3
_refine_ls_restrained_S_all      1.044
_refine_ls_R_factor_all          0.0350
_refine_ls_R_factor_gt           0.0348
_refine_ls_shift/su_max          0.000
_refine_ls_shift/su_mean         0.000
_refine_ls_structure_factor_coef Fsqd
_refine_ls_weighting_details
'w=1/[\s^2^(Fo^2^)+(0.0461P)^2^+0.0559P] where P=(Fo^2^+2Fc^2^)/3'
_refine_ls_weighting_scheme      calc
_refine_ls_wR_factor_gt          0.0924
_refine_ls_wR_factor_ref         0.0926
_reflns_number_gt                3193
_reflns_number_total             3227
_reflns_threshold_expression     I>2\s(I)
_cod_data_source_file            d1cc01923f2.cif
_cod_data_source_block           blu25b
_cod_database_code               7128590
_diffrn_radiati_diffrn_source    'micro-focus sealed X-ray tube'
_shelx_res_file
;
TITL blu25b in P1
    BLU25B_auto.res
    created by SHELXL-2018/3 at 00:53:02 on 25-Feb-2021
CELL 1.54184 6.4512 8.5325 8.7429 91.537 93.551 91.604
ZERR 1 0.0001 0.0002 0.0002 0.002 0.002 0.002
LATT -1
SFAC C H N O
UNIT 20 25 3 2
L.S. 50
PLAN  4
ACTA
LIST 4
fmap 2
SHEL 100 0.84
SIZE 0.52 0.39 0.11
WGHT    0.046100    0.055900
EXTI    0.046775
FVAR      31.10153
O1    4   -0.085467    0.273700   -0.090775    11.00000    0.08583    0.11556 =
         0.07914   -0.01793   -0.00060    0.00160
O2    4   -0.262252    0.383453    0.088109    11.00000    0.07234    0.22244 =
         0.08295   -0.02051    0.00359    0.02112
N1    3    0.574314    0.631912    0.705409    11.00000    0.05373    0.04695 =
         0.05942    0.00156    0.01117    0.00025
N2    3    1.016686    0.833426    0.907896    11.00000    0.06887    0.07404 =
         0.07990   -0.00498    0.00069   -0.01084
N3    3    1.092523    0.883983    1.051701    11.00000    0.09713    0.12911 =
         0.08941   -0.01730   -0.00411   -0.03385
C1    1   -0.272023    0.209958   -0.168394    11.00000    0.10271    0.12855 =
         0.10448   -0.02093   -0.03028    0.00443
AFIX 137
H1A   2   -0.238368    0.126485   -0.237531    11.00000   -1.50000
H1B   2   -0.340216    0.290643   -0.225108    11.00000   -1.50000
H1C   2   -0.362658    0.169977   -0.094622    11.00000   -1.50000
AFIX   0
C2    1   -0.102332    0.356732    0.037616    11.00000    0.07386    0.08760 =
         0.06052    0.01312    0.00497    0.01153
C3    1    0.102763    0.411109    0.104097    11.00000    0.07397    0.07749 =
         0.06385    0.00648    0.01449   -0.00275
AFIX  43
H3    2    0.219147    0.389862    0.050268    11.00000   -1.20000
AFIX   0
C4    1    0.128564    0.487054    0.233887    11.00000    0.07412    0.08961 =
         0.06982    0.00310   -0.00045    0.02191
AFIX  43
H4    2    0.010060    0.503141    0.286949    11.00000   -1.20000
AFIX   0
C5    1    0.328405    0.551570    0.307446    11.00000    0.08755    0.06043 =
         0.07000    0.00977   -0.00529    0.00551
AFIX  23
H5A   2    0.333394    0.664565    0.297680    11.00000   -1.20000
H5B   2    0.442563    0.509220    0.253869    11.00000   -1.20000
AFIX   0
C6    1    0.356770    0.512655    0.478022    11.00000    0.05772    0.04822 =
         0.06150    0.00115    0.00609    0.00500
AFIX  13
H6    2    0.235844    0.550984    0.528606    11.00000   -1.20000
AFIX   0
C7    1    0.546612    0.598225    0.550781    11.00000    0.05962    0.04158 =
         0.06044    0.00214    0.00955    0.00262
C8    1    0.719118    0.655274    0.483449    11.00000    0.07351    0.05967 =
         0.06778   -0.00192    0.01928   -0.00519
AFIX  43
H8    2    0.741997    0.649067    0.379507    11.00000   -1.20000
AFIX   0
C9    1    0.854606    0.724537    0.599266    11.00000    0.05989    0.05989 =
         0.08552    0.00075    0.01975   -0.00898
AFIX  43
H9    2    0.983846    0.771353    0.585709    11.00000   -1.20000
AFIX   0
C10   1    0.762910    0.711103    0.736333    11.00000    0.05416    0.04526 =
         0.07093    0.00098    0.00807   -0.00118
C11   1    0.425007    0.594343    0.818015    11.00000    0.06350    0.07224 =
         0.06570   -0.00220    0.01509   -0.00916
AFIX 137
H11A  2    0.497234    0.580028    0.915747    11.00000   -1.50000
H11B  2    0.348776    0.499576    0.786243    11.00000   -1.50000
H11C  2    0.330495    0.678636    0.826354    11.00000   -1.50000
AFIX   0
C12   1    0.834936    0.768667    0.888340    11.00000    0.06456    0.05721 =
         0.07246    0.00215    0.00755   -0.00127
AFIX  43
H12   2    0.750740    0.758801    0.970332    11.00000   -1.20000
AFIX   0
C13   1    1.275752    0.979907    1.048606    11.00000    0.08668    0.08913 =
         0.11904   -0.01671   -0.01732   -0.01566
AFIX 137
H13A  2    1.343845    0.987732    1.149424    11.00000   -1.50000
H13B  2    1.239763    1.082629    1.015687    11.00000   -1.50000
H13C  2    1.367447    0.934170    0.978617    11.00000   -1.50000
AFIX   0
C14   1    0.953322    0.911358    1.169108    11.00000    0.11562    0.12220 =
         0.06838   -0.00303    0.00220   -0.01722
AFIX 137
H14A  2    1.028962    0.956702    1.258269    11.00000   -1.50000
H14B  2    0.888263    0.813809    1.194811    11.00000   -1.50000
H14C  2    0.848896    0.982018    1.133396    11.00000   -1.50000
AFIX   0
C15   1    0.362914    0.336003    0.498704    11.00000    0.05744    0.04817 =
         0.05411   -0.00139   -0.00136    0.00033
C16   1    0.519035    0.248683    0.440638    11.00000    0.07281    0.05543 =
         0.06846   -0.00263    0.00757    0.00728
AFIX  43
H16   2    0.620383    0.297924    0.386149    11.00000   -1.20000
AFIX   0
C17   1    0.526208    0.088825    0.462680    11.00000    0.09994    0.05695 =
         0.08396   -0.01253   -0.00596    0.01724
AFIX  43
H17   2    0.631355    0.031348    0.422207    11.00000   -1.20000
AFIX   0
C18   1    0.378113    0.014500    0.544384    11.00000    0.12382    0.04759 =
         0.08395    0.00148   -0.01276   -0.00587
AFIX  43
H18   2    0.384453   -0.092581    0.560607    11.00000   -1.20000
AFIX   0
C19   1    0.222367    0.098782    0.601255    11.00000    0.11050    0.06178 =
         0.09603    0.00519    0.01259   -0.02627
AFIX  43
H19   2    0.121652    0.048788    0.655755    11.00000   -1.20000
AFIX   0
C20   1    0.213213    0.259114    0.578242    11.00000    0.07305    0.05988 =
         0.08578   -0.00260    0.01478   -0.01097
AFIX  43
H20   2    0.105461    0.315319    0.616650    11.00000   -1.20000
AFIX   0
HKLF 4




REM  blu25b in P1
REM wR2 = 0.0926, GooF = S = 1.045, Restrained GooF = 1.044 for all data
REM R1 = 0.0348 for 3193 Fo > 4sig(Fo) and 0.0350 for all 3227 data
REM 231 parameters refined using 3 restraints

END

WGHT      0.0459      0.0561

REM Highest difference peak  0.224,  deepest hole -0.178,  1-sigma level  0.020
Q1    1   1.0335  0.9732  1.0277  11.00000  0.05    0.22
Q2    1  -0.2163  0.2763  0.1203  11.00000  0.05    0.16
Q3    1   1.1144  0.8581  1.0481  11.00000  0.05    0.10
Q4    1  -0.3971  0.2581 -0.1091  11.00000  0.05    0.10
;
_shelx_res_checksum              18678
_shelx_hkl_file
;
  -8  -2   1 124.112 14.2665  70
  -8  -2   1 96.4473 13.9381  79
  -8  -1   0 707.831 29.0268  79
  -7  -5   2 215.703 19.6238  69
  -7  -5   2 252.029 18.4408  70
  -7  -4  -2 146.344 19.3290  79
  -7  -4  -1 539.038 32.5268  79
  -7  -4   0 774.302 47.4203  29
  -7  -4   0 857.122 41.3997  79
  -7  -4   1 518.427 36.0628  79
  -7  -4   1 536.030 34.4044  70
  -7  -4   2 1707.30 57.4327  79
  -7  -4   2 1673.71 55.9902  70
  -7  -4   3 455.398 30.8242  70
  -7  -4   4 440.410 25.4393  70
  -7  -3  -2 397.809 34.1223  55
  -7  -3  -1 673.184 48.5777  29
  -7  -3   0 117.870 31.9342  29
  -7  -3   0 161.156 31.5364  79
  -7  -3   1 121.613 30.9418  79
  -7  -3   2 666.221 45.6508  79
  -7  -3   3 39.8587 24.6339  70
  -7  -3   3 62.2624 27.0588  79
  -7  -3   4 390.364 29.5649  70
  -7  -3   4 322.466 28.4472  69
  -7  -3   5 277.125 21.9431  78
  -7  -2  -3 212.467 28.4068  55
  -7  -2  -2 530.811 40.6798  29
  -7  -2  -2 519.036 42.6729  55
  -7  -2  -1 1834.56 76.9605  29
  -7  -2  -1 1783.35 74.2841  55
  -7  -2   0 269.803 39.5706  29
  -7  -2   1 894.520 55.9415  79
  -7  -2   2 81.3614 32.9275  79
  -7  -2   3 178.708 33.7147  79
  -7  -2   4 275.851 30.2268  70
  -7  -1  -3 213.931 30.7573  55
  -7  -1  -2 3557.88 104.114  55
  -7  -1  -1 3228.07 102.973  55
  -7  -1   0 7901.62 166.469  55
  -7  -1   1 212.534 37.7531  79
  -7  -1   2 427.874 44.1534  79
  -7  -1   3 823.641 53.7626  79
  -7  -1   3 701.318 47.9195  61
  -7   0  -3 314.422 33.9727  55
  -7   0  -2 740.291 52.2854  55
  -7   0  -1 2624.49 91.9911  55
  -7   0   0 376.387 44.5202  55
  -7   0   1 3108.22 94.2832  79
  -7   0   1 3143.46 97.6803  55
  -7   0   2 3002.33 91.2414  79
  -7   0   2 2950.51 97.0878  61
  -7   0   3 2568.96 58.4654  72
  -7   0   3 2583.66 85.3335  61
  -7   0   4 550.060 38.8904  61
  -7   0   4 500.047 31.2859  72
  -7   0   5 463.928 28.4457  72
  -7   1  -3 2873.58 80.3617  55
  -7   1  -2 2622.39 85.8323  55
  -7   1  -1 5150.68 126.650  55
  -7   1  -1 5216.99 106.934  44
  -7   1   0 3531.05 106.499  55
  -7   1   1 3531.06 105.650  61
  -7   1   2 3825.94 107.365  61
  -7   1   3 3570.20 98.9797  61
  -7   1   3 3443.55 73.4241  72
  -7   1   4 1212.14 46.4950  72
  -7   1   4 1324.10 54.4349  61
  -7   1   5 115.023 20.2136  72
  -7   2  -3 895.464 39.9675  44
  -7   2  -2 429.667 32.5795  44
  -7   2  -1 1009.65 49.4301  61
  -7   2  -1 1119.75 50.4360  44
  -7   2   0 2713.14 74.6508  34
  -7   2   0 2703.65 78.3905  44
  -7   2   1 2218.58 78.4276  61
  -7   2   2 4496.57 111.200  61
  -7   2   3 38.2516 25.6162  61
  -7   2   3 18.7452 17.9154  72
  -7   2   4 737.494 40.1397  61
  -7   2   4 634.967 35.3580  72
  -7   2   5 336.975 24.5387  72
  -7   3  -3 2670.90 64.2684  44
  -7   3  -2 89.4718 22.1409  44
  -7   3  -1 121.300 24.0410  34
  -7   3  -1 108.312 24.2280  44
  -7   3   0 303.040 28.9602  61
  -7   3   0 271.213 30.0163  44
  -7   3   2 5031.46 106.394  61
  -7   3   3 3770.81 87.3554  61
  -7   3   4 986.243 36.2040  72
  -7   3   4 1114.05 42.7020  61
  -7   4  -2 683.406 33.8122  34
  -7   4  -2 650.345 33.9303  44
  -7   4  -1 1237.46 46.9774  34
  -7   4  -1 1209.33 47.4418  44
  -7   4   0 1420.80 51.6605  34
  -7   4   0 1504.27 55.4733  44
  -7   4   1 7646.48 134.493  44
  -6  -6  -1 1132.07 55.1389  29
  -6  -6   0 822.762 48.0020  29
  -6  -6   0 765.294 29.1239  70
  -6  -6   1 63.1105 19.1734  70
  -6  -6   2 566.496 34.1946  70
  -6  -6   2 559.867 36.2667  69
  -6  -6   3 522.944 33.7356  69
  -6  -6   3 574.539 34.2338  70
  -6  -6   4 465.972 28.6652  70
  -6  -6   4 440.673 28.8539  69
  -6  -5  -3 409.630 39.6972  29
  -6  -5  -3 435.726 38.5560  55
  -6  -5  -2 552.601 49.9099  29
  -6  -5  -1 1719.93 83.5947  29
  -6  -5  -1 1575.47 50.6915  70
  -6  -5   0 2438.99 99.0006  29
  -6  -5   0 2415.88 72.7011  70
  -6  -5   1 1836.18 84.5870  29
  -6  -5   1 1937.87 69.5254  70
  -6  -5   2 494.743 42.3756  70
  -6  -5   3 1314.97 59.8562  70
  -6  -5   4 490.375 39.6558  70
  -6  -5   4 438.556 38.8254  69
  -6  -5   5 1397.47 52.1900  69
  -6  -5   5 1273.04 49.2427  70
  -6  -4  -4 164.013 30.9493  55
  -6  -4  -3 136.865 35.4979  29
  -6  -4  -3 78.0066 31.8684  55
  -6  -4  -2 65.5352 35.9828  29
  -6  -4  -2 32.4693 33.8353  55
  -6  -4  -1 440.289 55.2280  29
  -6  -4   0 895.239 72.0864  29
  -6  -4   0 1002.03 62.6619  55
  -6  -4   1 89.3329 43.3644  29
  -6  -4   1 94.1415 36.5172  79
  -6  -4   2 519.413 56.3534  29
  -6  -4   2 502.881 49.6503  79
  -6  -4   3 1746.53 77.4136  70
  -6  -4   3 1761.71 79.1297  79
  -6  -4   4 1483.01 69.6266  79
  -6  -4   4 1417.61 66.3462  70
  -6  -4   5 4900.14 110.564  70
  -6  -4   5 4738.00 112.189  69
  -6  -4   6 54.8424 20.5380  78
  -6  -3  -5 280.355 33.5899  55
  -6  -3  -4 656.447 48.7190  29
  -6  -3  -4 644.680 53.7166  55
  -6  -3  -3 2034.22 92.6519  29
  -6  -3  -2 1233.36 79.7828  29
  -6  -3  -2 1281.77 79.3045  55
  -6  -3  -1 150.317 45.1804  29
  -6  -3  -1 185.610 44.4505  55
  -6  -3   0 8339.60 214.791  29
  -6  -3   1 9711.85 231.156  29
  -6  -3   1 9443.16 198.633  55
  -6  -3   2 472.828 59.3259  29
  -6  -3   2 525.258 55.5664  79
  -6  -3   3 5768.34 150.090  79
  -6  -3   4 1010.00 66.0334  79
  -6  -3   5 2254.28 78.4449  70
  -6  -3   5 2261.16 80.7582  69
  -6  -3   6 851.235 47.2148  78
  -6  -3   7 839.551 34.9352  78
  -6  -2  -5 760.364 50.1987  55
  -6  -2  -4 117.051 28.8257  24
  -6  -2  -4 171.635 31.5562  29
  -6  -2  -4 95.9153 36.6302  55
  -6  -2  -3 1952.69 74.0032  24
  -6  -2  -3 1968.57 91.8890  29
  -6  -2  -3 1936.51 96.6685  55
  -6  -2  -2 3198.50 121.590  29
  -6  -2  -2 3021.50 124.455  55
  -6  -2  -1 2137.40 107.399  29
  -6  -2  -1 2014.70 102.342  55
  -6  -2   0 7271.83 197.845  29
  -6  -2   0 7430.96 186.310  55
  -6  -2   1 10948.3 245.069  29
  -6  -2   2 6779.15 188.127  29
  -6  -2   2 6788.61 156.567  55
  -6  -2   3 5208.66 147.682  79
  -6  -2   3 5125.35 122.242  72
  -6  -2   4 5905.45 157.663  79
  -6  -2   4 6148.60 144.729  61
  -6  -2   5 470.859 44.6407  72
  -6  -2   6 98.8304 28.5174  72
  -6  -2   7 406.005 30.8552  78
  -6  -1  -5 199.123 29.2703  23
  -6  -1  -5 165.675 30.0804  24
  -6  -1  -4 322.399 39.6595  24
  -6  -1  -4 289.057 33.4068  29
  -6  -1  -4 298.148 44.2133  55
  -6  -1  -3 1551.84 77.7580  29
  -6  -1  -3 1759.19 92.3125  55
  -6  -1  -2 6650.83 145.783  24
  -6  -1  -2 6154.28 176.459  55
  -6  -1  -1 8957.84 168.843  24
  -6  -1  -1 9300.20 215.972  29
  -6  -1  -1 9207.70 215.451  55
  -6  -1   0 2768.31 118.943  29
  -6  -1   0 2702.64 111.318  55
  -6  -1   1 649.921 66.5418  29
  -6  -1   1 643.034 60.8866  55
  -6  -1   2 11535.2 198.605  72
  -6  -1   3 3189.50 104.500  72
  -6  -1   3 3085.13 113.738  79
  -6  -1   4 8404.61 187.266  79
  -6  -1   4 8052.99 175.707  61
  -6  -1   5 2334.97 89.5244  72
  -6  -1   5 2197.26 77.9849  61
  -6  -1   6 491.312 45.6100  72
  -6  -1   7 3354.54 81.5185  72
  -6  -1   7 3326.32 77.9599  78
  -6   0  -6 553.635 34.5739  24
  -6   0  -5 566.331 43.1703  24
  -6   0  -5 544.046 40.8218  55
  -6   0  -5 559.993 38.4847  48
  -6   0  -4 1214.09 63.3667  24
  -6   0  -4 1169.72 68.5735  55
  -6   0  -4 1126.82 53.7156  48
  -6   0  -3 12819.7 229.170  24
  -6   0  -3 13186.9 224.132  29
  -6   0  -3 13543.8 260.776  55
  -6   0  -3 13290.9 206.290  48
  -6   0  -2 2699.78 94.6662  24
  -6   0  -2 2760.56 102.389  29
  -6   0  -2 2570.97 109.767  55
  -6   0  -1 5116.78 149.437  29
  -6   0  -1 5463.36 161.605  55
  -6   0   0 15551.9 291.220  29
  -6   0   0 16255.6 291.821  55
  -6   0   1 44676.6 598.305  29
  -6   0   1 43685.8 576.989  55
  -6   0   1 44482.7 517.485  44
  -6   0   2 42551.7 534.990  72
  -6   0   2 42860.3 543.472  55
  -6   0   3 6255.91 153.548  79
  -6   0   3 6043.14 159.638  72
  -6   0   4 2848.13 102.913  61
  -6   0   4 3127.40 105.262  79
  -6   0   5 935.326 66.6520  72
  -6   0   6 1054.84 64.2190  72
  -6   0   7 1741.57 62.2373  72
  -6   1  -6 640.132 35.6094  24
  -6   1  -6 605.723 32.0601  48
  -6   1  -5 250.663 33.4556  24
  -6   1  -5 211.196 27.3307  55
  -6   1  -5 231.543 30.5504  48
  -6   1  -4 5555.73 132.351  24
  -6   1  -3 8447.47 173.197  24
  -6   1  -3 8288.14 154.944  48
  -6   1  -3 8394.38 188.379  55
  -6   1  -2 1868.91 78.8221  24
  -6   1  -2 1774.27 64.9967  48
  -6   1  -2 1763.88 88.9675  55
  -6   1  -1 4237.42 135.757  55
  -6   1   0 5029.20 147.253  55
  -6   1   1 22448.6 347.420  55
  -6   1   1 21930.6 307.033  44
  -6   1   2 2605.96 83.2758  34
  -6   1   2 2762.22 96.6474  79
  -6   1   2 2864.97 106.315  72
  -6   1   2 2844.54 90.0957  44
  -6   1   3 16923.4 305.122  72
  -6   1   3 17293.1 288.287  61
  -6   1   3 17204.9 268.573  79
  -6   1   4 13067.2 218.926  79
  -6   1   4 13138.9 231.807  61
  -6   1   5 88.4668 30.6230  61
  -6   1   5 78.7976 39.9436  72
  -6   1   6 5424.26 143.525  72
  -6   1   7 150.871 29.4213  72
  -6   1   8 289.009 17.4697  72
  -6   2  -5 1971.40 63.3497  62
  -6   2  -5 1969.12 61.9952  48
  -6   2  -4 4040.67 104.762  55
  -6   2  -4 4137.59 99.8228  48
  -6   2  -3 342.201 35.8134  62
  -6   2  -2 669.998 41.9679  62
  -6   2  -2 797.715 59.5150  55
  -6   2  -2 672.294 44.2511  48
  -6   2  -1 4177.79 104.966  15
  -6   2  -1 4161.81 128.361  55
  -6   2   0 2887.33 91.5167  44
  -6   2   0 2919.62 108.075  55
  -6   2   1 25370.8 364.924  72
  -6   2   1 26877.4 354.868  44
  -6   2   2 9222.14 171.848  34
  -6   2   2 9471.77 209.281  72
  -6   2   2 9365.23 196.402  61
  -6   2   3 708.426 68.9954  72
  -6   2   3 699.002 58.5756  61
  -6   2   3 737.003 51.6217  44
  -6   2   4 3291.85 104.257  61
  -6   2   4 3227.79 127.150  72
  -6   2   5 2945.15 116.445  72
  -6   2   5 2908.20 88.2119  61
  -6   2   6 2356.03 94.1960  72
  -6   2   6 2417.19 68.6930  61
  -6   2   7 5.76826 22.9781  72
  -6   3  -5 1118.91 49.5418  15
  -6   3  -5 1134.31 45.6088  62
  -6   3  -4 4451.97 108.198  15
  -6   3  -4 4390.71 100.500  48
  -6   3  -3 576.417 43.5939  15
  -6   3  -3 545.858 39.5720  62
  -6   3  -2 3217.85 85.3096  62
  -6   3  -2 3000.27 83.0808  61
  -6   3  -1 4728.34 110.408  15
  -6   3  -1 4516.60 116.298  61
  -6   3   0 10203.3 194.742  61
  -6   3   0 10614.1 189.987  44
  -6   3   1 12736.3 213.912  34
  -6   3   1 12380.0 227.183  72
  -6   3   1 12548.3 224.050  61
  -6   3   1 12719.6 215.893  44
  -6   3   2 3414.74 109.070  61
  -6   3   2 3560.01 126.139  72
  -6   3   2 3445.21 103.137  44
  -6   3   3 2520.17 85.1396  34
  -6   3   3 2645.58 92.6382  61
  -6   3   3 2714.19 116.400  72
  -6   3   4 668.041 49.4846  61
  -6   3   4 656.802 66.7584  72
  -6   3   5 4329.79 138.083  72
  -6   3   5 4222.35 101.542  61
  -6   3   6 882.162 57.8006  72
  -6   3   6 818.988 39.7204  61
  -6   3   7 596.019 35.4743  72
  -6   4  -5 3527.89 78.1396  15
  -6   4  -4 1243.74 52.5516  15
  -6   4  -4 1218.35 48.9243  62
  -6   4  -4 1136.70 48.5215  44
  -6   4  -3 386.428 37.4749  15
  -6   4  -3 418.980 37.9722  44
  -6   4  -2 2928.18 79.8843  62
  -6   4  -2 2794.85 85.9258  44
  -6   4  -1 76.8402 26.7836  15
  -6   4  -1 90.3908 23.8756  61
  -6   4  -1 89.8616 32.6055  44
  -6   4   0 17434.3 260.195  34
  -6   4   0 16552.0 245.695  61
  -6   4   0 17246.5 261.272  44
  -6   4   1 654.658 50.3692  34
  -6   4   1 557.406 45.5177  61
  -6   4   1 624.153 50.8154  72
  -6   4   2 1657.89 71.8658  34
  -6   4   2 1650.29 85.3870  72
  -6   4   2 1724.20 71.6729  61
  -6   4   2 1835.23 76.6454  44
  -6   4   3 2068.35 98.5144  72
  -6   4   3 2095.27 75.2056  61
  -6   4   3 2057.58 79.6808  44
  -6   4   4 3849.07 130.782  72
  -6   4   4 4017.91 98.9440  61
  -6   4   5 2380.57 96.3047  72
  -6   4   5 2358.59 68.3586  61
  -6   4   6 1178.20 56.5443  72
  -6   5  -4 979.712 41.5146  15
  -6   5  -3 3187.95 80.9761  15
  -6   5  -3 3180.66 79.4297  34
  -6   5  -3 3200.74 79.7480  44
  -6   5  -2 4976.39 110.670  34
  -6   5  -2 5232.87 111.013  44
  -6   5  -1 664.818 43.3521  18
  -6   5  -1 630.616 40.2622  15
  -6   5  -1 635.556 43.7802  34
  -6   5  -1 667.513 45.8486  44
  -6   5   0 1888.37 71.7893  34
  -6   5   0 1908.99 72.5013  44
  -6   5   1 833.433 51.6204  34
  -6   5   1 774.721 39.8676  61
  -6   5   1 790.125 47.4601  72
  -6   5   1 770.830 50.2857  44
  -6   5   2 134.591 31.2019  34
  -6   5   2 112.095 24.7633  61
  -6   5   2 91.1501 32.1360  44
  -6   5   3 969.944 64.5273  72
  -6   5   4 2044.76 60.0912  61
  -6   5   4 1963.59 84.2191  72
  -6   5   5 972.717 53.8979  72
  -6   5   6 422.802 26.4644  72
  -6   6  -2 425.828 32.1502  18
  -6   6  -2 364.859 29.4711  34
  -6   6  -1 2092.34 67.3043  18
  -6   6  -1 2052.30 65.3210  34
  -6   6  -1 2048.27 65.3518  44
  -6   6   0 52.5315 24.9366  34
  -6   6   0 65.1912 26.3456  44
  -6   6   1 1194.83 54.1836  34
  -6   6   1 1137.73 54.2967  44
  -6   6   2 268.556 30.1800  72
  -6   6   3 250.297 30.8155  72
  -5  -7  -2 2111.78 76.5261  29
  -5  -7  -2 2090.59 86.0570  25
  -5  -7  -1 2719.49 106.643  25
  -5  -7   0 1712.29 48.9822  69
  -5  -7   1 445.091 31.8969  70
  -5  -7   1 390.057 31.2816  69
  -5  -7   2 124.421 26.3273  69
  -5  -7   3 929.841 46.0175  70
  -5  -7   4 65.4471 23.2205  69
  -5  -7   5 2378.26 58.1474  69
  -5  -6  -4 795.496 52.1655  56
  -5  -6  -3 1654.86 79.3618  56
  -5  -6  -2 2749.49 118.296  25
  -5  -6  -2 2425.94 61.4979  79
  -5  -6  -2 2758.30 102.952  56
  -5  -6  -1 2034.29 62.7216  79
  -5  -6  -1 2009.51 58.5187  70
  -5  -6   0 4855.19 149.221  29
  -5  -6   0 4955.56 170.639  25
  -5  -6   0 4680.35 108.983  70
  -5  -6   0 4589.28 103.348  79
  -5  -6   1 4561.58 105.216  79
  -5  -6   2 1741.26 64.6383  79
  -5  -6   2 1762.34 73.2552  70
  -5  -6   3 1028.86 60.2000  70
  -5  -6   4 1527.80 66.8037  70
  -5  -6   4 1531.08 69.5636  69
  -5  -6   5 6186.76 126.069  70
  -5  -6   5 6379.66 131.590  69
  -5  -6   6 51.7780 23.1517  69
  -5  -5  -5 138.122 24.8709  32
  -5  -5  -5 162.797 32.7949  56
  -5  -5  -4 113.713 29.7613  25
  -5  -5  -4 132.295 28.5067  32
  -5  -5  -4 70.6522 37.0236  56
  -5  -5  -3 97.7658 39.7650  25
  -5  -5  -3 80.1936 28.2650  32
  -5  -5  -3 114.780 42.3668  56
  -5  -5  -2 4334.69 159.605  25
  -5  -5  -2 4045.28 88.2746  70
  -5  -5  -2 4128.10 145.126  56
  -5  -5  -1 899.499 82.3821  25
  -5  -5   0 1856.99 115.838  25
  -5  -5   1 9925.42 236.212  29
  -5  -5   1 9726.47 190.470  79
  -5  -5   1 9957.91 259.360  25
  -5  -5   2 2166.39 89.7180  70
  -5  -5   3 1124.61 69.1535  29
  -5  -5   3 1016.24 67.1290  70
  -5  -5   4 3644.99 114.713  70
  -5  -5   5 2779.36 93.3549  70
  -5  -5   5 2698.03 96.4505  69
  -5  -5   6 354.999 36.4556  70
  -5  -5   6 346.914 39.4150  69
  -5  -5   7 912.097 31.3704  78
  -5  -5   7 850.631 39.9828  69
  -5  -4  -6 213.295 29.4584  32
  -5  -4  -5 757.963 51.7986  32
  -5  -4  -5 672.152 59.3999  56
  -5  -4  -4 1061.13 65.5494  32
  -5  -4  -4 1141.48 84.5054  56
  -5  -4  -3 1070.81 79.2317  25
  -5  -4  -3 1120.89 69.3280  32
  -5  -4  -3 975.402 81.7430  56
  -5  -4  -2 17160.3 341.365  25
  -5  -4  -2 16937.3 338.839  56
  -5  -4  -1 4956.78 179.258  25
  -5  -4  -1 5155.34 136.093  32
  -5  -4  -1 4746.87 165.643  56
  -5  -4   0 7788.79 229.050  25
  -5  -4   1 14318.0 319.813  25
  -5  -4   1 14325.2 304.166  29
  -5  -4   1 14147.6 264.787  55
  -5  -4   2 32459.5 505.093  29
  -5  -4   2 32408.8 451.652  79
  -5  -4   3 2082.21 94.1478  79
  -5  -4   4 18911.8 315.765  79
  -5  -4   4 19239.9 307.146  70
  -5  -4   5 677.078 57.2988  70
  -5  -4   6 463.414 46.2122  69
  -5  -4   6 428.266 42.0259  70
  -5  -4   7 442.132 37.7995  69
  -5  -4   7 581.475 39.1705  78
  -5  -4   8 87.3546 14.6415  78
  -5  -3  -6 320.977 37.8276  24
  -5  -3  -6 314.872 37.9739  32
  -5  -3  -5 2776.60 101.421  24
  -5  -3  -5 2716.76 101.702  32
  -5  -3  -5 2629.26 113.146  56
  -5  -3  -4 3061.34 101.785  23
  -5  -3  -4 3024.76 122.378  27
  -5  -3  -4 3004.41 113.558  32
  -5  -3  -4 2868.82 130.779  56
  -5  -3  -3 13208.7 275.055  25
  -5  -3  -3 13315.9 228.580  23
  -5  -3  -3 13496.3 247.634  24
  -5  -3  -3 13339.8 257.328  32
  -5  -3  -3 13102.3 293.157  56
  -5  -3  -2 1799.09 70.9638  23
  -5  -3  -2 1767.40 78.3253  24
  -5  -3  -2 1837.35 90.3283  32
  -5  -3  -2 1705.02 105.044  56
  -5  -3  -1 4286.53 158.702  25
  -5  -3  -1 3936.29 106.151  24
  -5  -3  -1 3781.11 92.6072  23
  -5  -3  -1 4139.45 127.929  32
  -5  -3  -1 3944.48 148.482  56
  -5  -3   0 7976.65 225.727  25
  -5  -3   1 3457.60 143.193  29
  -5  -3   1 3736.29 127.702  55
  -5  -3   2 26661.4 437.596  29
  -5  -3   2 26901.6 358.145  72
  -5  -3   2 26739.0 387.328  55
  -5  -3   3 6140.62 180.129  29
  -5  -3   3 5808.24 158.403  79
  -5  -3   4 5299.47 139.728  72
  -5  -3   4 5464.20 155.096  79
  -5  -3   5 7306.30 167.215  70
  -5  -3   5 6978.69 174.653  79
  -5  -3   5 6882.19 159.505  72
  -5  -3   6 192.239 39.6784  69
  -5  -3   6 139.301 36.5206  72
  -5  -3   7 4715.33 115.246  78
  -5  -3   8 586.373 33.6968  78
  -5  -2  -7 2315.05 69.9082  23
  -5  -2  -7 2211.71 72.0178  24
  -5  -2  -7 2271.23 70.9302  32
  -5  -2  -6 639.031 52.7515  24
  -5  -2  -6 622.500 49.2807  23
  -5  -2  -6 599.803 50.2066  32
  -5  -2  -5 1660.00 80.7047  23
  -5  -2  -5 1667.97 86.4619  24
  -5  -2  -5 1583.15 82.6807  32
  -5  -2  -5 1627.48 89.7897  56
  -5  -2  -4 695.629 62.4105  24
  -5  -2  -4 704.039 59.8460  23
  -5  -2  -4 776.917 65.6678  32
  -5  -2  -4 705.694 71.9836  56
  -5  -2  -3 26529.7 407.171  32
  -5  -2  -3 27040.7 446.312  56
  -5  -2  -2 15732.9 266.095  24
  -5  -2  -2 15297.8 252.039  23
  -5  -2  -2 15712.0 279.075  32
  -5  -2  -2 15145.2 309.813  56
  -5  -2  -1 5106.06 124.624  24
  -5  -2  -1 4791.78 117.399  23
  -5  -2  -1 5124.81 144.657  32
  -5  -2  -1 4833.53 161.548  56
  -5  -2   0 352.445 33.7998  24
  -5  -2   1 44151.3 627.076  29
  -5  -2   1 45585.3 532.123  72
  -5  -2   2 8549.41 177.034  72
  -5  -2   2 8501.60 187.054  55
  -5  -2   3 38102.5 530.899  29
  -5  -2   3 36607.0 462.673  55
  -5  -2   4 14126.3 263.599  72
  -5  -2   4 13967.9 266.893  79
  -5  -2   5 241.680 47.7786  79
  -5  -2   5 205.938 47.3416  72
  -5  -2   5 237.209 33.9261  61
  -5  -2   6 2133.88 79.3189  70
  -5  -2   6 2180.56 93.0291  72
  -5  -2   6 2148.51 84.8925  69
  -5  -2   7 425.819 45.7673  72
  -5  -2   7 420.126 45.7319  78
  -5  -2   8 1283.91 52.7673  78
  -5  -1  -7 1784.96 64.3906  23
  -5  -1  -7 1740.26 66.5161  24
  -5  -1  -6 1223.68 69.5186  24
  -5  -1  -6 1300.94 68.3542  23
  -5  -1  -6 1316.80 68.0357  32
  -5  -1  -6 1242.64 67.4418  55
  -5  -1  -5 1180.00 71.0639  23
  -5  -1  -5 1105.85 72.3929  24
  -5  -1  -5 1097.84 69.7079  32
  -5  -1  -4 28100.2 417.664  24
  -5  -1  -4 28452.9 406.417  23
  -5  -1  -4 27206.4 415.380  32
  -5  -1  -3 6341.28 156.422  23
  -5  -1  -3 6502.93 166.937  24
  -5  -1  -3 6543.17 168.225  32
  -5  -1  -3 6451.95 189.443  56
  -5  -1  -2 1658.07 79.7703  24
  -5  -1  -2 1445.19 80.9169  32
  -5  -1  -1 7266.81 157.892  24
  -5  -1  -1 7679.95 154.179  23
  -5  -1  -1 7579.55 175.902  32
  -5  -1  -1 7544.30 139.726  48
  -5  -1   0 10340.8 182.765  24
  -5  -1   0 10667.4 235.882  29
  -5  -1   0 10447.3 229.492  55
  -5  -1   1 61106.5 764.277  29
  -5  -1   1 60250.1 698.163  72
  -5  -1   1 60084.0 741.830  55
  -5  -1   2 56131.6 708.098  29
  -5  -1   2 55696.0 676.290  72
  -5  -1   2 54043.2 595.206  44
  -5  -1   3 18684.2 329.786  29
  -5  -1   3 18784.8 309.454  79
  -5  -1   3 18645.0 286.667  55
  -5  -1   4 4262.07 134.871  79
  -5  -1   4 4340.07 144.216  72
  -5  -1   5 6686.81 153.085  61
  -5  -1   5 6465.14 126.990  67
  -5  -1   5 6891.64 186.213  72
  -5  -1   5 7078.56 173.591  79
  -5  -1   6 4728.93 106.250  67
  -5  -1   6 5091.14 154.963  72
  -5  -1   7 2093.93 89.9171  72
  -5  -1   7 2067.50 80.7704  78
  -5  -1   8 348.096 34.8073  72
  -5  -1   8 325.635 32.9333  78
  -5   0  -7 148.599 29.6348  24
  -5   0  -7 176.889 29.5706  23
  -5   0  -7 157.537 24.7884  32
  -5   0  -7 134.248 29.9425  48
  -5   0  -6 114.159 36.1201  23
  -5   0  -6 132.639 35.7934  24
  -5   0  -6 120.873 29.2128  55
  -5   0  -5 179.141 44.5212  23
  -5   0  -5 131.242 45.0968  24
  -5   0  -5 119.387 38.9597  32
  -5   0  -5 115.097 38.4575  55
  -5   0  -4 19451.5 310.046  23
  -5   0  -4 18757.8 320.235  24
  -5   0  -4 18644.4 296.545  29
  -5   0  -4 19147.6 314.501  32
  -5   0  -3 3735.03 124.864  24
  -5   0  -3 3811.89 119.286  23
  -5   0  -3 3930.33 125.187  32
  -5   0  -3 3775.51 122.308  29
  -5   0  -2 2851.70 102.027  24
  -5   0  -2 2818.81 98.0693  23
  -5   0  -2 2704.55 106.362  29
  -5   0  -2 2898.00 107.407  32
  -5   0  -1 2548.70 86.9800  23
  -5   0  -1 2059.67 80.9709  24
  -5   0  -1 2252.42 73.6031  48
  -5   0  -1 1739.86 98.0226  55
  -5   0   0 37507.7 520.417  29
  -5   0   0 37087.4 425.856  48
  -5   0   0 36979.2 517.904  55
  -5   0   1 91256.2 1042.99  29
  -5   0   1 90795.0 1011.55  72
  -5   0   1 89877.5 1028.51  55
  -5   0   2 14752.6 277.242  29
  -5   0   2 14456.3 274.236  72
  -5   0   2 14320.2 251.982  55
  -5   0   2 14804.5 217.725  44
  -5   0   3 40480.9 507.958  79
  -5   0   3 40422.9 464.483  44
  -5   0   4 16125.0 315.654  72
  -5   0   4 15511.8 269.765  61
  -5   0   4 15965.1 272.691  79
  -5   0   5 35982.8 462.342  67
  -5   0   5 37353.5 547.221  72
  -5   0   5 37049.5 487.225  79
  -5   0   6 2802.06 94.9366  67
  -5   0   6 3078.06 92.8138  61
  -5   0   6 3020.15 130.320  72
  -5   0   7 1919.03 92.5297  72
  -5   0   7 1819.51 67.1697  67
  -5   0   7 1983.67 72.8909  78
  -5   0   8 362.762 37.8124  72
  -5   1  -7 227.118 29.4888  23
  -5   1  -7 248.750 30.3525  24
  -5   1  -7 227.625 26.3595  33
  -5   1  -7 248.722 29.8979  48
  -5   1  -6 2564.18 89.8896  23
  -5   1  -6 2709.70 94.9540  24
  -5   1  -6 2427.86 89.7487  48
  -5   1  -5 26959.5 378.746  23
  -5   1  -5 25932.0 387.335  24
  -5   1  -5 26933.2 381.172  55
  -5   1  -4 5007.09 145.017  24
  -5   1  -4 5040.72 136.080  23
  -5   1  -4 5056.69 139.407  32
  -5   1  -3 1431.11 77.0274  24
  -5   1  -3 1462.91 77.5376  32
  -5   1  -3 1496.21 67.6352  29
  -5   1  -3 1407.05 73.0765  48
  -5   1  -3 1415.98 83.3257  55
  -5   1  -2 10418.0 197.140  23
  -5   1  -2 10618.2 204.968  24
  -5   1  -2 9953.44 203.793  29
  -5   1  -2 10292.9 166.385  33
  -5   1  -2 10474.6 226.766  55
  -5   1  -1 17502.7 268.916  24
  -5   1  -1 17239.7 222.960  33
  -5   1  -1 16511.5 284.146  29
  -5   1  -1 16983.2 247.760  48
  -5   1  -1 16493.9 298.771  55
  -5   1   0 67988.9 768.518  24
  -5   1   0 68468.2 728.339  62
  -5   1   0 68843.7 734.935  48
  -5   1   0 68001.3 814.380  55
  -5   1   1 5522.16 152.543  29
  -5   1   1 5867.40 156.880  72
  -5   1   1 5781.62 150.338  55
  -5   1   2 11445.7 247.034  72
  -5   1   2 11213.6 214.316  55
  -5   1   2 10867.0 187.347  44
  -5   1   3 11274.5 190.458  34
  -5   1   3 11162.2 204.694  79
  -5   1   3 11613.3 198.969  44
  -5   1   4 488.576 47.4853  67
  -5   1   4 466.283 53.5894  61
  -5   1   4 549.619 49.9220  79
  -5   1   4 536.915 71.5294  72
  -5   1   5 2376.51 123.582  72
  -5   1   5 2597.58 101.000  67
  -5   1   5 2644.69 95.5352  61
  -5   1   6 5903.47 152.267  67
  -5   1   6 5863.09 132.661  78
  -5   1   6 5940.94 187.181  72
  -5   1   7 512.302 59.8781  72
  -5   1   7 455.070 43.5272  67
  -5   1   8 96.5331 30.6745  72
  -5   1   8 46.9982 18.9490  67
  -5   2  -7 802.654 38.1735  33
  -5   2  -7 864.337 43.1200  48
  -5   2  -6 2285.42 80.2705  23
  -5   2  -6 2230.98 80.3103  24
  -5   2  -6 2244.16 72.7021  33
  -5   2  -6 2278.98 81.4107  48
  -5   2  -5 3312.88 104.747  23
  -5   2  -5 3307.74 108.987  24
  -5   2  -5 3385.77 95.1639  33
  -5   2  -5 3230.33 93.3989  55
  -5   2  -5 3257.36 106.734  48
  -5   2  -4 533.641 52.4184  23
  -5   2  -4 502.090 51.7872  24
  -5   2  -4 511.340 46.6669  33
  -5   2  -4 567.531 53.5977  48
  -5   2  -4 497.544 49.7284  55
  -5   2  -3 4708.37 133.870  23
  -5   2  -3 4893.36 95.8160  22
  -5   2  -3 4930.97 136.762  24
  -5   2  -3 5216.13 130.873  48
  -5   2  -2 22212.1 331.129  24
  -5   2  -2 21918.2 266.491  22
  -5   2  -2 23015.5 296.056  33
  -5   2  -2 22444.6 279.806  58
  -5   2  -2 22351.0 352.449  55
  -5   2  -2 21398.7 316.556  48
  -5   2  -1 3434.40 82.0647  33
  -5   2  -1 3337.39 103.454  24
  -5   2  -1 3405.42 92.7809  62
  -5   2  -1 3368.23 74.5899  58
  -5   2  -1 3350.23 118.336  55
  -5   2   0 13022.0 206.817  15
  -5   2   0 13131.8 193.879  62
  -5   2   0 12683.9 240.258  55
  -5   2   1 5927.14 115.010  15
  -5   2   1 5985.83 129.700  44
  -5   2   1 6095.07 153.322  55
  -5   2   2 4860.25 111.767  18
  -5   2   2 4886.66 114.229  79
  -5   2   2 4813.05 120.043  44
  -5   2   3 4551.85 115.428  34
  -5   2   3 4705.41 114.377  79
  -5   2   3 4422.61 131.412  61
  -5   2   4 13521.4 231.800  34
  -5   2   4 13420.2 220.846  79
  -5   2   4 13747.5 243.871  61
  -5   2   4 13750.7 239.793  44
  -5   2   5 4345.05 141.915  67
  -5   2   5 4451.69 171.794  72
  -5   2   5 4418.57 121.339  61
  -5   2   6 8500.80 229.530  72
  -5   2   6 8137.08 192.253  67
  -5   2   6 8464.70 162.704  61
  -5   2   7 665.476 50.0765  67
  -5   2   7 779.647 65.6956  72
  -5   2   8 391.580 39.1322  72
  -5   2   8 326.895 28.3505  67
  -5   3  -7 1985.32 53.8189  33
  -5   3  -7 2014.86 58.5782  15
  -5   3  -7 1951.10 57.7282  62
  -5   3  -7 2029.48 56.9244  48
  -5   3  -6 2174.46 68.2155  33
  -5   3  -6 2155.59 77.2858  15
  -5   3  -6 2169.40 75.4070  62
  -5   3  -6 2250.67 73.3673  48
  -5   3  -5 2726.59 90.1961  24
  -5   3  -5 2568.16 68.5826  22
  -5   3  -5 2749.52 83.3211  33
  -5   3  -5 2561.01 86.6511  48
  -5   3  -4 1202.45 67.0527  24
  -5   3  -4 1213.94 49.6564  22
  -5   3  -4 1257.76 60.2722  33
  -5   3  -4 1190.46 58.5716  55
  -5   3  -4 1156.06 64.5767  48
  -5   3  -3 5759.09 143.375  24
  -5   3  -3 5705.12 108.782  22
  -5   3  -3 5792.15 125.513  33
  -5   3  -3 5610.81 117.261  58
  -5   3  -3 5857.90 137.267  48
  -5   3  -3 5613.42 140.077  55
  -5   3  -2 11903.8 173.960  22
  -5   3  -2 11624.8 204.113  62
  -5   3  -2 11742.8 180.722  58
  -5   3  -2 11941.0 204.633  48
  -5   3  -2 11925.6 223.961  55
  -5   3  -1 26510.4 332.490  33
  -5   3  -1 26935.8 322.298  22
  -5   3  -1 26764.3 347.666  62
  -5   3  -1 25777.3 382.089  55
  -5   3  -1 26640.2 323.709  58
  -5   3  -1 26433.9 350.469  48
  -5   3   0 3366.02 94.6573  15
  -5   3   0 3285.70 87.7297  62
  -5   3   0 3371.46 111.886  55
  -5   3   1 1621.19 59.9858  15
  -5   3   1 1631.75 77.4238  61
  -5   3   1 1483.66 69.2444  44
  -5   3   2 1572.73 69.4066  34
  -5   3   2 1612.33 67.5797  18
  -5   3   2 1541.82 56.1458  15
  -5   3   2 1646.08 79.6720  61
  -5   3   2 1569.13 72.5067  44
  -5   3   3 4439.48 121.617  34
  -5   3   3 4838.55 126.698  18
  -5   3   3 4871.42 132.135  61
  -5   3   3 4819.54 148.465  68
  -5   3   3 5004.03 129.277  44
  -5   3   4 2057.49 84.1690  61
  -5   3   4 2003.75 99.9386  68
  -5   3   5 13548.2 230.157  61
  -5   3   6 1196.16 58.0386  61
  -5   3   6 1262.02 76.8244  67
  -5   3   6 1119.49 90.4705  72
  -5   3   7 461.229 52.8624  72
  -5   3   7 329.129 39.9819  67
  -5   3   8 1783.63 52.8752  67
  -5   3   8 2178.38 68.8684  72
  -5   4  -6 2052.40 60.1187  33
  -5   4  -6 2072.97 66.5929  15
  -5   4  -6 2159.92 65.9082  62
  -5   4  -6 2065.83 63.9758  48
  -5   4  -6 2024.61 57.7376  58
  -5   4  -5 1549.65 59.9255  33
  -5   4  -5 1467.49 51.4818  22
  -5   4  -5 1511.76 67.5637  15
  -5   4  -5 1484.10 65.2177  62
  -5   4  -5 1508.09 55.8571  58
  -5   4  -5 1511.86 64.2230  48
  -5   4  -4 1337.49 59.8281  33
  -5   4  -4 1412.55 70.9131  15
  -5   4  -4 1363.25 53.1046  22
  -5   4  -4 1398.18 67.3798  62
  -5   4  -4 1391.60 66.6790  48
  -5   4  -3 9945.24 170.767  33
  -5   4  -3 9461.57 156.878  22
  -5   4  -3 9823.10 191.695  15
  -5   4  -3 9914.87 184.006  62
  -5   4  -3 9420.88 181.903  48
  -5   4  -2 5431.68 120.084  33
  -5   4  -2 5462.37 137.292  15
  -5   4  -2 5253.00 111.023  22
  -5   4  -2 5330.75 127.501  62
  -5   4  -2 5244.45 113.897  58
  -5   4  -1 6869.37 147.285  15
  -5   4  -1 6674.99 131.480  22
  -5   4  -1 6646.10 137.099  61
  -5   4  -1 6810.43 132.721  58
  -5   4   0 40.1145 28.6402  61
  -5   4   0 20.0082 32.8205  44
  -5   4   1 3625.25 95.5711  15
  -5   4   1 3694.89 107.799  34
  -5   4   1 3560.78 107.715  44
  -5   4   2 4541.77 121.420  34
  -5   4   2 4335.75 119.692  18
  -5   4   2 4454.13 141.940  68
  -5   4   2 4590.00 124.081  61
  -5   4   2 4335.46 121.950  44
  -5   4   3 101.351 35.9563  34
  -5   4   3 130.346 31.4132  18
  -5   4   3 161.453 43.8712  68
  -5   4   3 235.859 41.4609  61
  -5   4   4 1807.93 76.7103  61
  -5   4   4 1673.72 95.6458  68
  -5   4   5 1574.12 68.7320  61
  -5   4   5 1617.19 91.3616  68
  -5   4   6 1256.33 73.2828  67
  -5   4   6 1291.36 57.0102  61
  -5   4   6 1349.03 89.9222  72
  -5   4   7 267.092 33.5624  67
  -5   4   7 277.395 44.1811  72
  -5   4   8 495.830 27.2309  72
  -5   5  -6 1375.77 47.3215  15
  -5   5  -6 1493.14 48.2577  62
  -5   5  -5 3853.13 87.9411  33
  -5   5  -5 3751.31 93.5932  15
  -5   5  -5 3614.57 79.5001  22
  -5   5  -5 3670.26 91.0359  62
  -5   5  -5 3576.46 79.3554  44
  -5   5  -5 3761.17 84.1200  58
  -5   5  -4 11141.2 181.323  33
  -5   5  -4 11207.8 172.290  22
  -5   5  -4 11501.3 196.692  15
  -5   5  -4 11524.9 190.903  62
  -5   5  -4 11301.7 177.127  58
  -5   5  -3 13138.4 225.783  15
  -5   5  -3 13304.6 203.016  22
  -5   5  -3 13358.8 212.242  44
  -5   5  -2 6496.04 144.098  15
  -5   5  -2 6272.17 130.160  22
  -5   5  -2 6410.54 138.241  62
  -5   5  -2 6064.12 128.340  58
  -5   5  -2 6293.46 137.115  44
  -5   5  -1 1415.18 68.6478  15
  -5   5  -1 1376.78 68.0860  44
  -5   5   0 1859.03 77.4874  34
  -5   5   0 1677.98 62.0633  61
  -5   5   0 1779.58 77.7601  44
  -5   5   1 643.264 51.4702  34
  -5   5   1 626.389 49.7701  18
  -5   5   1 658.374 46.8360  15
  -5   5   1 646.396 44.6139  61
  -5   5   1 494.511 51.9455  68
  -5   5   1 549.884 52.3826  44
  -5   5   2 12776.4 225.551  34
  -5   5   2 12439.5 256.404  68
  -5   5   2 12347.6 226.201  44
  -5   5   3 4951.47 131.961  34
  -5   5   3 4753.82 132.845  18
  -5   5   3 4638.98 153.666  68
  -5   5   3 4858.75 118.156  61
  -5   5   3 4960.81 132.295  44
  -5   5   4 6703.71 138.660  61
  -5   5   4 6288.20 180.256  68
  -5   5   5 2008.12 69.7184  61
  -5   5   5 1893.31 91.0795  68
  -5   5   6 998.877 56.7075  67
  -5   5   6 1056.69 71.3654  72
  -5   5   7 1118.35 51.8477  72
  -5   5   7 969.459 38.2135  67
  -5   6  -5 338.397 29.2062  15
  -5   6  -4 4681.76 93.0781  34
  -5   6  -4 4717.28 91.9830  44
  -5   6  -3 2976.88 88.5082  15
  -5   6  -3 2955.00 80.0578  44
  -5   6  -2 336.310 38.7941  15
  -5   6  -2 339.545 35.4508  34
  -5   6  -1 4224.69 110.286  15
  -5   6  -1 4197.79 109.016  34
  -5   6  -1 4175.32 110.229  44
  -5   6   0 37.5569 29.7677  18
  -5   6   0 30.7189 29.2909  34
  -5   6   0 48.6756 31.8187  44
  -5   6   1 2625.65 89.4370  34
  -5   6   1 2378.07 91.2730  18
  -5   6   1 2293.97 66.3050  61
  -5   6   1 2381.53 95.9526  68
  -5   6   1 2465.51 89.2225  44
  -5   6   2 1996.24 84.1807  34
  -5   6   2 2074.12 85.4504  18
  -5   6   2 2085.93 66.8970  61
  -5   6   2 2006.69 93.0110  68
  -5   6   2 2052.95 83.7881  44
  -5   6   3 3360.05 87.5941  61
  -5   6   3 3580.34 121.785  68
  -5   6   4 88.4654 35.3931  68
  -5   6   5 1028.87 56.1701  68
  -5   6   6 324.547 36.5029  72
  -5   6   6 276.010 24.3372  67
  -5   7  -3 123.067 23.6360  18
  -5   7  -3 135.900 26.4360  15
  -5   7  -2 754.005 46.4660  18
  -5   7  -2 784.458 41.3655  34
  -5   7  -2 802.269 39.8398  44
  -5   7  -1 59.0133 27.2008  18
  -5   7  -1 59.9493 24.9250  44
  -5   7   0 96.1032 28.6322  34
  -5   7   0 153.683 32.2026  18
  -5   7   1 1216.70 58.8334  68
  -5   7   1 1220.96 63.1207  18
  -5   7   2 3063.51 95.2408  68
  -5   7   3 3290.75 96.2414  68
  -5   7   4 336.489 31.5538  68
  -5   8   0 284.785 30.6119  18
  -4  -8  -2 852.325 60.7117  25
  -4  -8  -1 2229.41 97.7869  25
  -4  -8   0 470.902 56.1067  41
  -4  -8   0 625.573 55.2559  25
  -4  -8   1 2909.92 120.881  41
  -4  -8   2 2044.74 100.751  41
  -4  -8   2 1899.23 54.0855  69
  -4  -8   3 32.6737 19.7096  69
  -4  -8   4 302.049 26.2947  69
  -4  -7  -4 1333.44 68.6399  56
  -4  -7  -3 4963.39 155.765  25
  -4  -7  -2 9859.14 240.751  25
  -4  -7  -1 2636.67 124.367  41
  -4  -7  -1 2368.84 123.549  25
  -4  -7   0 7460.13 221.040  41
  -4  -7   0 6847.30 131.849  70
  -4  -7   0 7192.68 212.922  25
  -4  -7   1 15476.5 334.417  41
  -4  -7   1 14707.3 231.342  69
  -4  -7   1 14753.5 231.526  70
  -4  -7   1 14874.9 314.338  25
  -4  -7   2 2350.18 128.085  41
  -4  -7   2 2176.52 81.6272  69
  -4  -7   3 2517.75 126.594  41
  -4  -7   3 2578.12 90.6609  70
  -4  -7   4 6860.43 148.662  69
  -4  -7   4 6893.09 148.134  70
  -4  -7   5 2488.75 81.5813  69
  -4  -6  -5 6.09170 22.5879  25
  -4  -6  -5 25.2612 32.7919  56
  -4  -6  -4 488.624 47.9758  27
  -4  -6  -4 617.216 62.7588  56
  -4  -6  -3 1728.93 104.624  25
  -4  -6  -3 1831.69 82.3949  27
  -4  -6  -3 1763.43 101.851  56
  -4  -6  -2 14726.9 325.346  25
  -4  -6  -2 14241.8 297.949  41
  -4  -6  -1 39220.4 603.838  25
  -4  -6  -1 38430.7 545.459  56
  -4  -6   0 4033.13 169.102  41
  -4  -6   0 3858.39 163.299  25
  -4  -6   0 3789.32 106.220  70
  -4  -6   0 3801.04 97.7990  79
  -4  -6   0 3822.90 128.789  56
  -4  -6   1 12887.3 319.424  41
  -4  -6   1 12368.9 203.932  79
  -4  -6   1 12338.9 303.437  25
  -4  -6   2 15554.9 278.926  29
  -4  -6   2 14323.6 352.572  41
  -4  -6   2 14637.4 234.622  79
  -4  -6   2 15178.0 257.884  70
  -4  -6   2 15277.0 331.253  25
  -4  -6   3 2903.05 149.332  41
  -4  -6   3 2975.13 106.073  70
  -4  -6   4 10018.9 263.917  41
  -4  -6   4 10059.3 207.730  69
  -4  -6   4 10478.5 204.571  70
  -4  -6   5 4561.37 129.235  69
  -4  -6   5 4563.97 125.795  70
  -4  -6   5 4205.19 99.0342  78
  -4  -6   6 1374.60 67.4410  69
  -4  -6   6 1242.91 44.5216  78
  -4  -5  -6 151.219 30.9015  32
  -4  -5  -6 188.964 37.1392  27
  -4  -5  -6 187.934 38.6781  56
  -4  -5  -5 38.0942 28.0346  25
  -4  -5  -5 63.0348 38.5881  27
  -4  -5  -5 72.8110 32.6685  32
  -4  -5  -5 37.4812 37.6341  56
  -4  -5  -4 1720.48 100.381  25
  -4  -5  -4 1670.19 89.5763  27
  -4  -5  -4 1686.39 104.962  56
  -4  -5  -3 17111.4 352.130  25
  -4  -5  -3 15985.8 301.123  27
  -4  -5  -3 16556.8 283.605  32
  -4  -5  -3 17169.8 346.602  56
  -4  -5  -2 10377.9 251.649  41
  -4  -5  -2 10296.3 221.527  27
  -4  -5  -2 10441.5 202.994  32
  -4  -5  -2 10405.2 270.504  25
  -4  -5  -2 9746.09 164.578  70
  -4  -5  -2 10359.0 256.830  56
  -4  -5  -1 2105.64 122.894  25
  -4  -5  -1 1967.28 77.6219  32
  -4  -5   0 19713.3 400.505  41
  -4  -5   0 19461.0 343.995  56
  -4  -5   1 14542.2 332.135  25
  -4  -5   1 14742.4 341.977  41
  -4  -5   1 14190.9 262.900  56
  -4  -5   2 32953.6 564.111  41
  -4  -5   2 34090.5 441.249  79
  -4  -5   2 33674.3 550.609  25
  -4  -5   3 22561.2 447.490  41
  -4  -5   3 22882.5 361.890  29
  -4  -5   3 22925.1 344.030  79
  -4  -5   3 23003.3 350.862  70
  -4  -5   4 5465.71 144.591  79
  -4  -5   4 5239.12 150.184  70
  -4  -5   5 4476.61 131.257  70
  -4  -5   5 4274.79 134.661  69
  -4  -5   6 331.731 50.2325  69
  -4  -5   6 311.410 44.3406  70
  -4  -5   7 631.956 50.3942  69
  -4  -4  -7 310.508 38.5462  27
  -4  -4  -7 297.680 36.0456  32
  -4  -4  -7 297.075 37.6256  56
  -4  -4  -6 1475.60 77.3423  32
  -4  -4  -6 1513.98 82.2911  27
  -4  -4  -6 1466.14 87.3220  56
  -4  -4  -5 6921.06 173.895  25
  -4  -4  -5 7650.44 199.394  27
  -4  -4  -5 7674.17 185.516  32
  -4  -4  -5 7188.99 211.877  56
  -4  -4  -4 918.632 74.9715  25
  -4  -4  -4 839.477 74.0537  27
  -4  -4  -4 774.486 67.4176  32
  -4  -4  -4 886.030 82.1048  56
  -4  -4  -3 37326.2 518.305  32
  -4  -4  -3 37939.6 542.426  27
  -4  -4  -3 37917.7 581.300  56
  -4  -4  -2 7575.59 218.547  25
  -4  -4  -2 7182.59 201.193  41
  -4  -4  -2 7631.44 190.696  27
  -4  -4  -2 7319.19 210.360  56
  -4  -4  -1 4860.76 173.470  25
  -4  -4  -1 4667.35 128.689  32
  -4  -4  -1 4446.28 155.310  56
  -4  -4   0 3315.11 144.673  25
  -4  -4   0 3388.02 149.654  41
  -4  -4   1 31138.6 507.177  25
  -4  -4   1 30403.8 515.949  41
  -4  -4   1 31005.5 448.320  56
  -4  -4   2 5718.53 189.702  25
  -4  -4   2 5804.23 173.418  29
  -4  -4   2 5365.93 193.810  41
  -4  -4   2 5555.47 135.388  55
  -4  -4   3 34463.3 565.809  41
  -4  -4   3 35190.1 472.304  79
  -4  -4   4 22440.6 349.190  70
  -4  -4   4 22399.9 353.411  79
  -4  -4   4 23035.6 335.812  72
  -4  -4   5 12820.5 241.784  70
  -4  -4   6 8773.09 184.988  70
  -4  -4   6 8549.99 194.661  69
  -4  -4   7 2738.26 98.1792  69
  -4  -4   7 2790.05 92.4196  78
  -4  -4   8 805.080 43.1735  78
  -4  -3  -8 327.401 33.1238  24
  -4  -3  -7 252.117 38.3368  27
  -4  -3  -7 251.134 40.3141  32
  -4  -3  -7 236.222 36.4265  56
  -4  -3  -6 1389.17 84.6390  27
  -4  -3  -6 1274.98 78.6469  32
  -4  -3  -6 1300.11 82.5310  56
  -4  -3  -5 1420.67 85.6797  32
  -4  -3  -5 1350.63 86.4135  27
  -4  -3  -5 1220.92 90.9031  56
  -4  -3  -4 23085.3 390.302  25
  -4  -3  -4 24400.0 384.147  32
  -4  -3  -4 24043.7 399.709  27
  -4  -3  -4 24030.5 428.377  56
  -4  -3  -3 52518.6 699.662  25
  -4  -3  -3 52895.6 666.062  32
  -4  -3  -3 52928.2 686.283  27
  -4  -3  -2 4489.94 155.744  25
  -4  -3  -2 4475.63 141.917  27
  -4  -3  -2 4332.20 131.953  32
  -4  -3  -2 4337.29 154.678  56
  -4  -3  -1 25072.0 426.657  25
  -4  -3  -1 24997.4 337.031  23
  -4  -3  -1 25607.3 389.540  27
  -4  -3  -1 26518.9 370.360  32
  -4  -3  -1 25769.8 412.102  56
  -4  -3   0 6051.63 119.445  24
  -4  -3   0 5795.71 180.369  25
  -4  -3   0 5725.38 186.370  41
  -4  -3   0 6284.05 167.258  56
  -4  -3   1 41590.0 604.949  41
  -4  -3   1 38497.1 588.063  25
  -4  -3   1 41906.0 483.011  72
  -4  -3   1 39542.7 538.163  56
  -4  -3   2 52209.4 699.743  25
  -4  -3   2 51173.1 715.774  41
  -4  -3   2 51048.0 666.581  29
  -4  -3   2 51334.4 617.687  55
  -4  -3   3 32635.7 530.567  41
  -4  -3   3 34183.2 481.170  29
  -4  -3   3 33080.1 441.480  72
  -4  -3   3 32459.6 445.328  79
  -4  -3   4 13179.5 246.395  74
  -4  -3   4 13130.8 246.755  79
  -4  -3   4 12996.7 240.911  72
  -4  -3   5 5770.72 157.084  74
  -4  -3   5 5876.40 150.807  70
  -4  -3   5 5870.58 153.353  72
  -4  -3   5 5851.94 158.287  79
  -4  -3   6 664.112 60.4756  69
  -4  -3   6 836.551 63.3557  72
  -4  -3   7 584.244 52.5014  72
  -4  -3   7 508.966 51.9481  78
  -4  -3   8 835.826 52.4652  78
  -4  -3   9 66.3825 20.1083  78
  -4  -2  -8 1601.10 64.3584  23
  -4  -2  -8 1588.19 65.8576  24
  -4  -2  -8 1531.90 60.2374  32
  -4  -2  -7 5927.41 147.139  32
  -4  -2  -7 5796.17 150.318  27
  -4  -2  -7 5430.14 140.269  56
  -4  -2  -6 623.005 61.3166  32
  -4  -2  -6 526.874 62.4536  27
  -4  -2  -5 1933.33 95.3949  32
  -4  -2  -5 1935.22 101.572  27
  -4  -2  -5 1888.85 105.221  56
  -4  -2  -4 45921.5 592.953  25
  -4  -2  -4 46617.7 621.205  27
  -4  -2  -4 46664.2 644.740  56
  -4  -2  -3 3049.18 116.264  25
  -4  -2  -3 2931.93 117.813  27
  -4  -2  -3 3056.88 110.651  32
  -4  -2  -3 2938.92 126.075  56
  -4  -2  -2 21101.6 327.481  32
  -4  -2  -2 21745.5 343.867  27
  -4  -2  -2 20949.4 362.800  56
  -4  -2  -1 21922.4 367.003  25
  -4  -2  -1 21730.3 303.136  23
  -4  -2  -1 21843.3 338.507  27
  -4  -2  -1 22205.1 324.689  32
  -4  -2  -1 21102.7 358.243  56
  -4  -2   0 43994.4 513.554  24
  -4  -2   0 44152.6 503.833  23
  -4  -2   0 45635.0 603.868  25
  -4  -2   0 43667.9 1159.30   9
  -4  -2   0 45168.4 542.574  32
  -4  -2   0 44727.9 581.126  56
  -4  -2   1 48627.1 634.027  25
  -4  -2   1 48086.2 551.641  72
  -4  -2   2 72265.5 842.133  29
  -4  -2   2 69338.0 803.241  72
  -4  -2   2 71339.3 800.508  55
  -4  -2   3 2384.02 98.6971  29
  -4  -2   3 2346.10 96.0626  72
  -4  -2   3 2248.53 87.1430  79
  -4  -2   3 2204.99 73.6633  55
  -4  -2   4 2506.12 77.7572  67
  -4  -2   4 2598.64 107.525  72
  -4  -2   4 2744.09 100.010  79
  -4  -2   5 13207.0 225.050  67
  -4  -2   5 13373.0 243.848  74
  -4  -2   5 13971.0 268.703  72
  -4  -2   5 13890.9 262.027  79
  -4  -2   5 13788.3 220.563  61
  -4  -2   6 3440.70 125.830  72
  -4  -2   6 3240.89 100.860  67
  -4  -2   6 3417.88 104.770  70
  -4  -2   7 3112.93 101.224  69
  -4  -2   7 3408.05 115.353  72
  -4  -2   7 3258.88 112.435  78
  -4  -2   8 814.682 55.3173  78
  -4  -2   8 854.959 53.1626  72
  -4  -2   9 215.919 28.6364  78
  -4  -1  -8 1581.67 66.6051  24
  -4  -1  -8 1564.84 64.6293  23
  -4  -1  -8 1470.93 58.9716  32
  -4  -1  -7 3340.28 114.420  23
  -4  -1  -7 3235.98 109.334  27
  -4  -1  -7 3273.98 107.325  32
  -4  -1  -6 411.011 54.9804  27
  -4  -1  -6 409.169 55.2358  32
  -4  -1  -6 387.866 51.9118  56
  -4  -1  -5 60416.7 741.005  27
  -4  -1  -5 60228.5 724.184  32
  -4  -1  -4 18535.0 324.239  27
  -4  -1  -4 19240.5 316.741  32
  -4  -1  -4 18843.5 344.628  56
  -4  -1  -3 13873.3 248.714  25
  -4  -1  -3 13592.6 248.353  32
  -4  -1  -3 13995.7 262.375  27
  -4  -1  -3 14191.7 278.001  56
  -4  -1  -2 1125.66 63.6782  23
  -4  -1  -2 1169.25 69.5419  25
  -4  -1  -2 1093.37 71.2660  27
  -4  -1  -2 1098.23 63.8151  32
  -4  -1  -2 1140.74 74.5784  56
  -4  -1  -1 6850.18 377.304   8
  -4  -1  -1 6766.91 148.726  32
  -4  -1  -1 6682.71 170.425  56
  -4  -1   0 150186. 1539.76  23
  -4  -1   0 156168. 1634.26  25
  -4  -1   0 152334. 1547.84  24
  -4  -1   0 152260. 1574.25  32
  -4  -1   0 154358. 1613.21  56
  -4  -1   1 59470.0 639.882  24
  -4  -1   1 59594.7 712.060  29
  -4  -1   2 2649.29 100.405  29
  -4  -1   2 2635.29 98.6057  72
  -4  -1   2 2748.25 62.6666  44
  -4  -1   3 31251.1 438.279  29
  -4  -1   3 32006.2 453.313  72
  -4  -1   3 30850.8 390.981  55
  -4  -1   4 11696.3 211.503  67
  -4  -1   4 12109.5 252.084  72
  -4  -1   4 11914.9 223.963  79
  -4  -1   5 23273.7 329.952  61
  -4  -1   5 23397.3 392.669  72
  -4  -1   5 23099.3 354.569  67
  -4  -1   5 24064.9 361.481  79
  -4  -1   6 19597.5 327.033  67
  -4  -1   6 20400.1 281.081  61
  -4  -1   6 19242.5 287.871  70
  -4  -1   6 20417.4 362.702  72
  -4  -1   6 20079.4 300.026  69
  -4  -1   7 2942.84 120.555  72
  -4  -1   7 3314.67 110.990  78
  -4  -1   8 1347.04 65.1785  67
  -4  -1   8 1336.25 68.6536  72
  -4  -1   8 1258.04 63.5796  78
  -4  -1   9 1436.54 52.6106  78
  -4   0  -8 543.063 42.7305  24
  -4   0  -8 592.796 42.8156  23
  -4   0  -8 535.176 34.8164  32
  -4   0  -7 1440.69 76.6898  23
  -4   0  -7 1400.95 77.1587  24
  -4   0  -7 1308.69 67.2061  32
  -4   0  -6 6377.49 177.196  24
  -4   0  -6 6364.82 170.663  23
  -4   0  -6 6176.24 161.420  27
  -4   0  -5 14485.5 264.155  32
  -4   0  -5 14476.5 273.760  27
  -4   0  -5 14594.5 280.271  56
  -4   0  -4 2459.52 98.6032  32
  -4   0  -4 2344.97 101.281  27
  -4   0  -4 2355.76 104.906  56
  -4   0  -3 34647.0 463.757  23
  -4   0  -3 35125.8 475.261  27
  -4   0  -3 34267.1 460.477  32
  -4   0  -3 35090.2 496.460  56
  -4   0  -2 800.115 55.4864  24
  -4   0  -2 830.063 54.5517  32
  -4   0  -2 785.975 63.0155  56
  -4   0  -1 19550.6 277.782  23
  -4   0  -1 19970.2 285.838  24
  -4   0  -1 19585.5 288.336  32
  -4   0   0 15897.9 190.523  33
  -4   0   0 15944.6 261.955  29
  -4   0   0 15894.5 241.515  32
  -4   0   0 15834.2 210.969  48
  -4   0   1 1437.50 86.8827   3
  -4   0   1 1586.49 115.403   8
  -4   0   1 2039.80 60.8972  24
  -4   0   1 1929.65 81.6838  29
  -4   0   1 1821.10 75.8636  55
  -4   0   1 1896.24 47.8261  48
  -4   0   2 2093.67 85.5918  29
  -4   0   2 2017.00 91.1617  72
  -4   0   2 1993.26 58.9111  44
  -4   0   2 1989.28 74.0928  55
  -4   0   3 3397.11 77.2117  34
  -4   0   3 3644.06 101.105  79
  -4   0   3 3448.55 126.563  72
  -4   0   3 3426.23 81.9508  44
  -4   0   4 8253.01 185.724  67
  -4   0   4 8113.29 169.533  61
  -4   0   4 8178.77 213.773  72
  -4   0   4 8657.35 172.008  79
  -4   0   5 5502.51 159.627  67
  -4   0   5 5517.14 179.058  72
  -4   0   5 5598.90 142.271  79
  -4   0   6 282.201 60.7698  72
  -4   0   6 256.694 37.0395  61
  -4   0   7 2335.68 88.6807  78
  -4   0   7 2294.05 105.323  67
  -4   0   7 2454.80 115.168  72
  -4   0   8 1132.73 70.9237  67
  -4   0   8 1151.81 71.2308  72
  -4   0   8 1233.79 59.5940  78
  -4   0   9 2322.89 71.2484  67
  -4   1  -8 172.211 27.1349  24
  -4   1  -8 148.074 28.4420  48
  -4   1  -7 6728.14 157.118  24
  -4   1  -7 6849.85 156.638  23
  -4   1  -7 6411.66 136.692  32
  -4   1  -6 10839.8 220.499  23
  -4   1  -6 10613.7 223.465  24
  -4   1  -6 10482.0 202.678  32
  -4   1  -6 10457.7 192.651  55
  -4   1  -5 4168.96 134.217  23
  -4   1  -5 4106.46 134.898  24
  -4   1  -5 4235.03 128.908  55
  -4   1  -4 18286.4 301.313  23
  -4   1  -4 18248.1 306.813  24
  -4   1  -4 18067.5 288.693  32
  -4   1  -3 20907.3 315.903  23
  -4   1  -3 20348.4 297.028  29
  -4   1  -3 20963.7 310.460  32
  -4   1  -2 9230.84 179.103  24
  -4   1  -2 8625.96 170.563  23
  -4   1  -2 8729.17 494.550  12
  -4   1  -2 8692.13 171.345  29
  -4   1  -2 8822.65 172.653  32
  -4   1  -1 145534. 1489.06  23
  -4   1  -1 144729. 2492.05  12
  -4   1  -1 143796. 1497.11  24
  -4   1  -1 145786. 1502.98  32
  -4   1  -1 145616. 1512.74  29
  -4   1  -1 144234. 1533.51  55
  -4   1   0 5272.05 423.198  12
  -4   1   0 5569.44 116.669  24
  -4   1   0 5023.94 129.629  29
  -4   1   0 5725.00 93.9297  33
  -4   1   0 5258.79 135.779  55
  -4   1   0 5846.68 87.3108  58
  -4   1   0 5544.36 105.784  48
  -4   1   1 10051.1 189.974  29
  -4   1   1 9623.93 311.099   3
  -4   1   1 9933.15 137.211  62
  -4   1   1 9802.53 185.234  55
  -4   1   2 49311.4 580.271  55
  -4   1   3 25802.3 323.838  34
  -4   1   3 24824.2 333.837  79
  -4   1   3 25259.8 376.801  68
  -4   1   3 25730.0 331.155  44
  -4   1   4 39646.7 470.713  34
  -4   1   4 39173.1 493.486  61
  -4   1   4 38360.0 483.959  79
  -4   1   4 38585.0 544.004  68
  -4   1   4 39613.9 480.314  44
  -4   1   5 27489.4 375.314  61
  -4   1   6 37809.7 591.883  72
  -4   1   7 8772.27 221.246  67
  -4   1   7 9054.23 230.730  72
  -4   1   7 8481.00 158.864  61
  -4   1   8 8984.06 202.330  67
  -4   1   8 9052.51 199.528  72
  -4   1   9 1221.47 55.5729  67
  -4   2  -8 360.659 27.0453  24
  -4   2  -8 376.927 29.5058  23
  -4   2  -8 426.165 35.0882  48
  -4   2  -7 2879.04 98.1469  48
  -4   2  -6 2008.61 86.4209  23
  -4   2  -6 2044.70 89.1386  24
  -4   2  -6 2020.21 74.6048  32
  -4   2  -5 5365.46 147.458  24
  -4   2  -5 5192.83 142.344  23
  -4   2  -5 5146.97 129.434  32
  -4   2  -5 5006.69 125.538  55
  -4   2  -4 7512.83 171.463  23
  -4   2  -4 7532.35 173.639  24
  -4   2  -4 7479.66 160.338  32
  -4   2  -4 7619.55 169.316  55
  -4   2  -3 30434.0 417.878  24
  -4   2  -3 30863.1 411.582  23
  -4   2  -2 5070.33 125.221  24
  -4   2  -2 5003.30 121.796  23
  -4   2  -2 4783.05 119.394  32
  -4   2  -2 4770.41 109.421  29
  -4   2  -2 4691.71 129.780  55
  -4   2  -2 4904.12 121.203  48
  -4   2  -1 6269.28 101.014  22
  -4   2  -1 6141.95 132.702  24
  -4   2  -1 6221.34 93.5015  39
  -4   2  -1 6219.80 131.874  29
  -4   2  -1 6381.35 127.230  48
  -4   2  -1 6243.33 148.282  55
  -4   2   0 5215.28 93.9942  33
  -4   2   0 5072.27 113.018  24
  -4   2   0 4895.64 262.055   3
  -4   2   0 5138.69 87.6778  22
  -4   2   0 4894.97 100.887  62
  -4   2   0 5085.73 127.151  55
  -4   2   0 4849.27 88.2605  58
  -4   2   1 16815.9 228.023  15
  -4   2   1 16595.2 481.815   3
  -4   2   1 17753.2 220.899  62
  -4   2   1 16844.2 263.113  55
  -4   2   2 17754.8 228.517  15
  -4   2   2 17676.7 296.809  68
  -4   2   2 18227.9 273.030  55
  -4   2   2 18453.7 250.866  44
  -4   2   3 22384.3 306.641  18
  -4   2   3 21529.2 328.360  61
  -4   2   3 22591.7 372.106  68
  -4   2   3 23145.0 300.065  79
  -4   2   3 22203.3 309.433  44
  -4   2   4 4261.98 114.722  34
  -4   2   4 4294.10 118.446  61
  -4   2   4 4215.11 151.549  68
  -4   2   4 4236.31 106.290  79
  -4   2   5 4123.48 116.962  61
  -4   2   6 11261.0 189.677  78
  -4   2   6 11250.2 200.229  61
  -4   2   7 948.901 86.3712  72
  -4   2   7 934.150 80.7323  67
  -4   2   8 6951.01 176.001  67
  -4   2   8 6611.47 166.336  72
  -4   2   9 272.932 31.9321  67
  -4   3  -8 1944.81 51.8877  22
  -4   3  -8 1952.63 56.0526  33
  -4   3  -7 2587.64 74.3860  24
  -4   3  -7 2652.67 81.6915  33
  -4   3  -7 2540.48 82.3480  48
  -4   3  -6 4373.47 123.570  48
  -4   3  -5 9805.22 190.056  23
  -4   3  -5 9446.59 193.162  24
  -4   3  -5 9622.29 196.858  48
  -4   3  -4 5078.41 134.576  24
  -4   3  -4 4917.09 131.922  23
  -4   3  -4 4851.97 118.623  55
  -4   3  -4 5030.48 135.606  48
  -4   3  -3 2879.17 97.1856  24
  -4   3  -3 2811.29 95.3717  23
  -4   3  -3 2750.85 88.5380  33
  -4   3  -3 2915.68 93.5078  55
  -4   3  -3 2740.31 96.9354  48
  -4   3  -2 27970.2 369.989  24
  -4   3  -2 27996.9 349.406  33
  -4   3  -2 27924.0 364.483  48
  -4   3  -1 12403.4 166.340  39
  -4   3  -1 12498.5 186.495  33
  -4   3  -1 12640.0 175.170  22
  -4   3  -1 12427.0 206.498  24
  -4   3  -1 12186.0 198.430  62
  -4   3  -1 12525.3 215.847  55
  -4   3  -1 12358.3 196.508  48
  -4   3  -1 12410.0 179.386  58
  -4   3   0 1544.26 50.7839  22
  -4   3   0 1514.44 50.0369  58
  -4   3   0 1427.02 67.7902  55
  -4   3   0 1596.30 58.7299  48
  -4   3   1 14547.8 240.710  61
  -4   3   1 14643.2 225.688  44
  -4   3   2 2566.41 85.9658  42
  -4   3   2 2690.11 71.8580  15
  -4   3   2 2573.37 109.229  68
  -4   3   2 2563.74 90.1642  61
  -4   3   2 2619.05 83.1703  44
  -4   3   3 28209.5 375.956  34
  -4   3   3 27533.9 390.738  42
  -4   3   3 28960.5 386.904  18
  -4   3   3 29657.8 389.977  61
  -4   3   3 29027.7 462.637  68
  -4   3   3 27960.1 379.064  44
  -4   3   4 56.5637 33.6570  34
  -4   3   4 123.138 45.9537  68
  -4   3   4 43.8947 31.5972  44
  -4   3   5 1698.94 76.1816  61
  -4   3   5 1544.23 79.3416  49
  -4   3   6 1210.92 62.4880  61
  -4   3   6 1154.19 94.8689  68
  -4   3   7 5675.90 182.029  67
  -4   3   7 5520.70 182.229  72
  -4   3   8 1907.81 89.6435  67
  -4   3   8 1914.61 85.8945  72
  -4   3   9-0.89074 19.6023  67
  -4   4  -7 561.738 38.3545  33
  -4   4  -7 547.604 33.6058  22
  -4   4  -7 473.857 36.1530  15
  -4   4  -7 546.034 38.8228  62
  -4   4  -7 558.527 37.3620  58
  -4   4  -6 5768.94 127.715  33
  -4   4  -6 5891.93 135.526  15
  -4   4  -6 5668.71 117.151  22
  -4   4  -6 5798.79 133.348  62
  -4   4  -6 5761.69 128.128  48
  -4   4  -5 3856.04 106.906  33
  -4   4  -5 3662.00 113.449  15
  -4   4  -5 3627.38 103.714  24
  -4   4  -5 3961.96 115.093  62
  -4   4  -5 3882.83 111.397  48
  -4   4  -4 4150.48 113.214  33
  -4   4  -4 4005.88 102.413  22
  -4   4  -4 4632.20 121.635  24
  -4   4  -4 4450.23 121.754  62
  -4   4  -4 4382.98 119.662  48
  -4   4  -3 5171.84 121.649  33
  -4   4  -3 4951.96 110.401  22
  -4   4  -3 5273.75 129.353  62
  -4   4  -3 5263.68 117.293  58
  -4   4  -3 5216.56 127.333  48
  -4   4  -2 5968.39 111.294  39
  -4   4  -2 6037.92 127.671  33
  -4   4  -2 5905.72 141.561  15
  -4   4  -2 6198.73 136.934  62
  -4   4  -2 6124.84 122.899  58
  -4   4  -2 5700.59 133.197  48
  -4   4  -1 2780.36 71.5580  39
  -4   4  -1 2805.21 82.4310  33
  -4   4  -1 2856.34 92.0239  15
  -4   4  -1 2634.18 75.0152  22
  -4   4  -1 2837.02 81.0307  61
  -4   4  -1 2849.53 87.2125  62
  -4   4   0 3006.99 79.2655  39
  -4   4   0 2940.61 88.2442  15
  -4   4   0 3139.96 84.9382  22
  -4   4   0 2933.89 83.8145  62
  -4   4   0 3003.68 87.7759  61
  -4   4   0 2795.70 79.0154  58
  -4   4   1 263.106 31.6262  39
  -4   4   1 279.826 38.9863  44
  -4   4   2 7016.95 162.641  42
  -4   4   2 6934.64 146.907  34
  -4   4   2 6760.54 147.345  18
  -4   4   2 7003.98 138.223  15
  -4   4   2 6995.28 149.725  61
  -4   4   2 6947.34 149.566  44
  -4   4   3 33061.7 469.145  42
  -4   4   3 32753.9 438.672  34
  -4   4   3 34199.5 434.245  61
  -4   4   3 33426.6 535.201  68
  -4   4   3 33040.2 440.307  44
  -4   4   4 5830.28 138.793  61
  -4   4   5 2837.73 143.477  68
  -4   4   5 2788.62 96.3361  61
  -4   4   6 3231.21 98.3480  61
  -4   4   6 3374.23 150.982  68
  -4   4   7 8466.50 218.433  72
  -4   4   8 293.510 41.5351  67
  -4   4   9 286.406 20.3656  67
  -4   5  -7 235.432 24.1586  22
  -4   5  -7 254.105 25.4744  33
  -4   5  -7 239.164 25.4128  58
  -4   5  -6 2941.10 80.2103  33
  -4   5  -6 2988.18 84.9841  15
  -4   5  -6 3021.04 76.0500  22
  -4   5  -6 3077.40 85.9202  62
  -4   5  -6 2934.06 79.4624  58
  -4   5  -5 8986.56 162.941  33
  -4   5  -5 8713.68 153.399  22
  -4   5  -5 8923.10 173.934  15
  -4   5  -5 8850.08 170.462  62
  -4   5  -5 9048.00 165.813  48
  -4   5  -5 8831.81 158.556  58
  -4   5  -4 3362.54 98.7268  33
  -4   5  -4 3694.07 95.4433  22
  -4   5  -4 3590.38 110.369  15
  -4   5  -4 3555.11 105.990  62
  -4   5  -4 3509.75 104.300  48
  -4   5  -4 3558.66 97.7100  58
  -4   5  -3 9454.43 158.775  39
  -4   5  -3 9554.45 174.204  33
  -4   5  -3 9440.68 166.394  22
  -4   5  -3 9206.83 188.028  15
  -4   5  -3 9940.79 184.496  62
  -4   5  -3 9310.20 168.806  58
  -4   5  -2 8096.41 147.054  39
  -4   5  -2 8189.42 157.063  33
  -4   5  -2 7932.80 168.160  15
  -4   5  -2 7848.54 149.816  22
  -4   5  -2 8445.50 166.615  62
  -4   5  -2 8264.07 154.848  58
  -4   5  -1 14312.4 217.505  39
  -4   5  -1 14377.3 236.644  15
  -4   5  -1 14977.7 233.913  62
  -4   5  -1 13930.0 197.471  61
  -4   5  -1 14278.2 228.067  44
  -4   5  -1 14262.6 224.433  58
  -4   5   0 3077.78 92.2252  39
  -4   5   0 2914.74 93.8957  15
  -4   5   0 3021.92 94.0215  44
  -4   5   1 5390.38 133.821  39
  -4   5   1 5551.90 140.697  42
  -4   5   1 5398.37 134.176  34
  -4   5   1 5588.15 137.283  18
  -4   5   1 5450.37 122.568  61
  -4   5   1 5246.19 131.846  44
  -4   5   2 21638.1 322.633  18
  -4   5   2 20956.7 315.738  34
  -4   5   2 21101.9 341.298  42
  -4   5   2 20448.7 319.713  39
  -4   5   2 20946.6 317.844  44
  -4   5   3 2425.91 96.2737  34
  -4   5   3 2485.91 107.794  42
  -4   5   3 2491.90 99.7829  18
  -4   5   3 2519.02 86.4898  61
  -4   5   3 2256.85 97.6350  44
  -4   5   4 420.206 45.1018  61
  -4   5   4 321.865 66.8232  68
  -4   5   5 8261.87 165.762  61
  -4   5   5 8887.69 247.179  68
  -4   5   6 9192.30 239.913  68
  -4   5   7 6005.22 159.720  72
  -4   5   8 64.8431 22.7789  67
  -4   6  -6 301.729 28.2002  15
  -4   6  -6 304.507 28.3755  22
  -4   6  -6 354.615 30.3693  62
  -4   6  -6 311.828 29.7031  58
  -4   6  -5 358.088 34.3419  22
  -4   6  -5 317.782 35.4738  15
  -4   6  -5 381.239 37.5880  62
  -4   6  -5 346.121 35.9177  58
  -4   6  -4 10809.4 178.174  22
  -4   6  -4 10631.6 192.690  15
  -4   6  -4 10570.6 187.674  62
  -4   6  -4 10389.6 178.509  58
  -4   6  -4 10329.6 164.966  44
  -4   6  -3 3671.47 95.3992  39
  -4   6  -3 3635.86 99.6022  22
  -4   6  -3 3684.44 110.047  15
  -4   6  -3 3512.80 105.485  62
  -4   6  -3 3592.16 101.256  58
  -4   6  -3 3537.89 93.3005  44
  -4   6  -2 6983.01 143.781  39
  -4   6  -2 7108.88 159.296  15
  -4   6  -2 7144.16 150.882  22
  -4   6  -2 7551.74 155.934  62
  -4   6  -2 7210.24 150.887  58
  -4   6  -1 7435.26 161.922  15
  -4   6  -1 7709.71 157.924  39
  -4   6  -1 7706.87 157.212  44
  -4   6   0 7052.19 156.696  39
  -4   6   0 6858.46 150.967  34
  -4   6   0 6756.36 154.751  15
  -4   6   0 7016.80 157.544  18
  -4   6   0 6623.60 118.644  61
  -4   6   1 8454.84 177.671  34
  -4   6   1 8872.24 186.646  39
  -4   6   1 8596.61 187.081  18
  -4   6   1 8782.88 151.606  61
  -4   6   1 8483.11 175.254  44
  -4   6   2 8109.45 179.936  34
  -4   6   2 8200.71 194.998  42
  -4   6   2 8150.89 153.582  61
  -4   6   2 8369.82 177.668  44
  -4   6   3 1952.64 96.2832  42
  -4   6   3 1963.60 117.343  68
  -4   6   3 1990.46 94.9682  18
  -4   6   4 3134.35 142.033  68
  -4   6   5 2629.35 123.522  68
  -4   6   6 5239.65 152.741  68
  -4   6   7 1019.35 53.5434  72
  -4   7  -5 704.479 34.7741  18
  -4   7  -5 757.926 39.9758  22
  -4   7  -4 166.071 29.8144  22
  -4   7  -4 153.680 28.9722  15
  -4   7  -4 161.299 26.3282  39
  -4   7  -3 606.526 46.3304  15
  -4   7  -3 601.025 45.9328  22
  -4   7  -3 507.255 34.7001  34
  -4   7  -3 521.195 41.4719  39
  -4   7  -3 507.099 33.0025  44
  -4   7  -2 4768.45 124.866  15
  -4   7  -2 4768.49 122.672  18
  -4   7  -2 4829.05 119.736  39
  -4   7  -2 4864.05 111.954  34
  -4   7  -2 4844.44 108.456  44
  -4   7  -1 4463.12 122.690  18
  -4   7  -1 4452.74 121.578  15
  -4   7  -1 4377.77 120.274  39
  -4   7  -1 4407.89 110.162  44
  -4   7   0 6381.73 152.444  18
  -4   7   0 6457.52 145.822  34
  -4   7   0 6472.97 162.011  42
  -4   7   1 656.993 57.3852  18
  -4   7   1 711.744 55.7092  34
  -4   7   1 654.113 52.4773  44
  -4   7   2 161.685 42.2691  42
  -4   7   2 235.976 45.6133  18
  -4   7   3 580.756 67.3515  68
  -4   7   4 4330.54 146.797  68
  -4   7   5 2379.59 99.3902  68
  -4   7   6 6540.17 136.435  68
  -4   8  -3 150.059 26.9347  42
  -4   8  -2 961.231 53.4645  42
  -4   8  -2 951.474 51.5315  18
  -4   8  -1 2917.21 96.7009  42
  -4   8  -1 3000.68 93.0959  18
  -4   8   0 3940.15 117.441  42
  -4   8   0 3947.11 112.814  18
  -4   8   1 533.570 48.8345  18
  -4   8   2 1884.54 81.9029  42
  -4   8   2 2014.37 93.7026  68
  -4   8   3 3871.64 123.455  68
  -4   8   4 4349.50 117.754  68
  -4   8   5 1678.61 58.9897  68
  -4   9  -1 2319.90 61.5757  68
  -4   9   0 1463.85 56.2996  68
  -4   9   1 38.1696 22.9833  68
  -3  -9  -2 2618.04 92.5642  25
  -3  -9  -1 1585.47 76.0037  25
  -3  -9   0 247.560 43.0480  41
  -3  -9   0 280.898 39.5786  25
  -3  -9   1 4807.58 146.579  41
  -3  -9   2 3955.44 129.970  41
  -3  -9   3 1622.56 77.2428  41
  -3  -8  -4 53.7732 29.8841  25
  -3  -8  -3 72.4097 37.9115  25
  -3  -8  -2 6759.60 177.703  41
  -3  -8  -2 6867.66 192.752  25
  -3  -8  -1 8190.17 219.059  25
  -3  -8   0 4565.06 168.362  41
  -3  -8   0 4355.68 157.912  25
  -3  -8   1 8215.53 230.558  41
  -3  -8   2 6404.62 201.030  41
  -3  -8   2 6354.09 125.110  69
  -3  -8   3 4688.10 166.728  41
  -3  -8   3 4614.96 109.611  69
  -3  -8   4 5935.68 125.464  69
  -3  -7  -5 343.024 44.7839  25
  -3  -7  -5 331.723 44.5132  56
  -3  -7  -4 492.428 61.4245  25
  -3  -7  -4 498.826 57.2055  56
  -3  -7  -3 2541.01 124.824  25
  -3  -7  -3 2338.83 100.477  41
  -3  -7  -3 2304.86 114.761  56
  -3  -7  -2 17095.4 341.154  41
  -3  -7  -2 16678.6 322.606  56
  -3  -7  -1 6544.05 207.454  25
  -3  -7  -1 6019.56 203.064  41
  -3  -7  -1 6131.21 172.354  56
  -3  -7   0 3289.38 152.874  41
  -3  -7   0 3065.47 146.089  25
  -3  -7   0 2904.75 83.4104  69
  -3  -7   0 2917.37 88.5376  70
  -3  -7   1 2385.16 137.121  41
  -3  -7   1 2507.11 127.956  25
  -3  -7   1 2278.36 81.3097  69
  -3  -7   1 2342.14 86.5250  70
  -3  -7   1 2274.91 114.972  50
  -3  -7   2 447.008 74.8165  41
  -3  -7   2 496.340 66.1088  25
  -3  -7   2 401.818 44.4101  69
  -3  -7   3 17736.2 381.720  41
  -3  -7   3 18129.0 290.782  70
  -3  -7   3 17851.2 363.764  50
  -3  -7   4 3199.32 145.130  41
  -3  -7   4 3193.10 108.928  69
  -3  -7   4 3222.30 143.959  50
  -3  -7   5 6031.99 147.119  69
  -3  -7   6 2293.34 100.737  74
  -3  -7   6 2579.50 87.8097  69
  -3  -6  -6 2147.99 82.6321  25
  -3  -6  -6 2297.39 89.8569  27
  -3  -6  -6 2277.35 100.863  56
  -3  -6  -5 1222.08 66.6612  32
  -3  -6  -5 1234.27 74.5318  27
  -3  -6  -5 1108.11 77.7933  25
  -3  -6  -5 1231.82 83.5845  63
  -3  -6  -5 1221.50 89.0425  56
  -3  -6  -4 519.480 66.4062  25
  -3  -6  -4 580.291 51.4489  32
  -3  -6  -4 588.215 67.7292  63
  -3  -6  -3 24300.8 350.441  32
  -3  -6  -3 24577.1 378.022  27
  -3  -6  -3 24855.6 443.738  25
  -3  -6  -3 24245.0 413.979  63
  -3  -6  -2 32159.2 517.508  41
  -3  -6  -2 33606.3 454.637  27
  -3  -6  -2 32529.8 420.700  32
  -3  -6  -2 32217.3 536.749  25
  -3  -6  -2 32342.9 500.717  63
  -3  -6  -1 36754.2 580.698  41
  -3  -6  -1 36714.6 584.212  25
  -3  -6  -1 35460.9 435.613  70
  -3  -6  -1 35171.9 543.061  59
  -3  -6  -1 36343.9 541.153  56
  -3  -6   0 27612.2 497.663  41
  -3  -6   0 28295.3 492.038  25
  -3  -6   0 28561.0 374.077  70
  -3  -6   0 28603.8 479.158  59
  -3  -6   0 28093.9 430.632  56
  -3  -6   1 46785.8 703.109  25
  -3  -6   1 47771.6 715.687  41
  -3  -6   1 46326.6 663.075  50
  -3  -6   1 46762.8 585.144  56
  -3  -6   2 41032.5 653.887  41
  -3  -6   2 41490.3 544.552  29
  -3  -6   2 40298.4 621.037  25
  -3  -6   2 40649.3 490.870  79
  -3  -6   2 42230.7 528.730  70
  -3  -6   2 42424.7 630.458  50
  -3  -6   3 69687.8 941.053  41
  -3  -6   3 69620.0 886.960  25
  -3  -6   3 68119.7 808.591  70
  -3  -6   3 69246.2 925.179  50
  -3  -6   4 1336.10 106.984  41
  -3  -6   4 1224.81 74.5085  70
  -3  -6   4 1304.67 78.3823  69
  -3  -6   4 1292.11 105.606  50
  -3  -6   5 6979.52 210.133  41
  -3  -6   5 7147.77 140.570  78
  -3  -6   5 7148.32 174.645  70
  -3  -6   5 7285.32 180.384  69
  -3  -6   5 6972.21 222.659  50
  -3  -6   6 2682.88 104.625  69
  -3  -6   6 2617.46 72.6076  78
  -3  -6   6 2614.48 126.620  74
  -3  -6   7 315.390 50.4141  74
  -3  -5  -7 1345.91 65.9646  32
  -3  -5  -7 1371.20 72.4934  27
  -3  -5  -7 1333.11 74.1737  56
  -3  -5  -6 925.966 65.4461  32
  -3  -5  -6 1000.73 72.1451  27
  -3  -5  -6 871.423 67.5616  14
  -3  -5  -6 844.613 59.3509  25
  -3  -5  -6 990.908 74.6651  63
  -3  -5  -6 906.693 76.3251  56
  -3  -5  -5 1559.34 94.1270  27
  -3  -5  -5 1356.10 80.3389  32
  -3  -5  -5 1281.41 88.2972  63
  -3  -5  -5 1077.03 80.9146  25
  -3  -5  -5 1311.33 87.3910  14
  -3  -5  -4 45218.0 597.021  32
  -3  -5  -4 45317.0 638.406  63
  -3  -5  -4 46032.2 626.890  14
  -3  -5  -3 51016.9 658.162  27
  -3  -5  -3 49696.2 659.249  41
  -3  -5  -3 49625.0 671.693  14
  -3  -5  -3 49563.3 680.453  63
  -3  -5  -2 97.3235 35.0821  32
  -3  -5  -2 101.339 43.1027  41
  -3  -5  -2 155.658 52.8869  25
  -3  -5  -2 189.450 54.7351  63
  -3  -5  -2 158.476 36.5230  59
  -3  -5  -1 1750.95 107.353  25
  -3  -5  -1 1776.73 71.9152  32
  -3  -5  -1 1957.15 83.5159  27
  -3  -5  -1 1847.38 105.515  41
  -3  -5  -1 1743.42 95.2879  63
  -3  -5  -1 1785.18 92.6479  59
  -3  -5   0 2155.69 117.906  25
  -3  -5   0 2180.52 79.6911  27
  -3  -5   0 2099.62 115.788  41
  -3  -5   0 2278.66 110.487  59
  -3  -5   0 2305.54 106.129  50
  -3  -5   0 2069.90 98.3944  56
  -3  -5   1 82612.7 1017.69  25
  -3  -5   1 80472.8 1023.56  41
  -3  -5   1 81141.7 1013.97  59
  -3  -5   1 81036.5 927.131  56
  -3  -5   2 17350.1 346.463  25
  -3  -5   2 16928.7 271.187  70
  -3  -5   2 17133.3 256.895  79
  -3  -5   2 16603.3 340.840  50
  -3  -5   3 4274.36 174.833  41
  -3  -5   3 4123.62 123.387  29
  -3  -5   3 4355.46 117.762  79
  -3  -5   3 4411.10 125.808  70
  -3  -5   3 4434.00 171.737  50
  -3  -5   4 23529.7 441.250  41
  -3  -5   4 23512.4 356.138  70
  -3  -5   4 23788.1 441.792  50
  -3  -5   5 6933.07 210.098  41
  -3  -5   5 6691.66 174.529  69
  -3  -5   5 6782.77 167.674  70
  -3  -5   5 6757.82 221.934  50
  -3  -5   6 8926.64 178.918  78
  -3  -5   6 9081.33 195.945  70
  -3  -5   6 9050.73 204.521  69
  -3  -5   7 1450.14 93.3409  74
  -3  -5   7 1412.43 63.6837  78
  -3  -5   7 1514.95 79.1109  69
  -3  -5   8 1427.74 51.1091  78
  -3  -4  -8 30.5283 24.3421  32
  -3  -4  -8 21.4446 24.1898  27
  -3  -4  -7 1096.67 68.8259  32
  -3  -4  -7 1147.02 75.0033  27
  -3  -4  -7 1020.01 66.8622  63
  -3  -4  -6 1498.31 94.0287  27
  -3  -4  -6 1543.32 84.7758  32
  -3  -4  -6 1496.60 87.3906  14
  -3  -4  -6 1247.09 69.8938  25
  -3  -4  -6 1432.29 88.0320  63
  -3  -4  -6 1496.09 95.8765  56
  -3  -4  -5 4039.27 142.485  25
  -3  -4  -5 3965.85 136.197  32
  -3  -4  -5 3973.64 146.137  63
  -3  -4  -5 3795.33 138.116  14
  -3  -4  -4 40877.9 545.100  32
  -3  -4  -4 40129.9 570.283  63
  -3  -4  -4 40747.6 559.631  14
  -3  -4  -3 27879.3 416.178  41
  -3  -4  -3 28549.8 409.712  32
  -3  -4  -3 28418.5 438.466  63
  -3  -4  -3 28405.4 429.537  14
  -3  -4  -2 8878.54 196.354  27
  -3  -4  -2 8393.16 195.581  14
  -3  -4  -2 8378.63 201.539  63
  -3  -4  -1 23945.7 396.453  41
  -3  -4  -1 23436.4 396.090  25
  -3  -4  -1 23468.2 333.191  32
  -3  -4  -1 22570.6 375.364  63
  -3  -4  -1 24688.3 363.176  59
  -3  -4   0 4679.91 336.100   4
  -3  -4   0 4962.68 158.195  25
  -3  -4   0 4993.95 159.537  41
  -3  -4   0 5007.64 123.661  27
  -3  -4   0 4954.14 112.691  32
  -3  -4   0 4968.57 147.611  59
  -3  -4   0 4766.47 142.345  50
  -3  -4   1 24647.3 411.057  25
  -3  -4   1 24263.8 414.857  41
  -3  -4   1 25085.5 400.796  50
  -3  -4   2 58769.4 774.014  25
  -3  -4   2 59245.1 783.675  41
  -3  -4   2 60616.5 775.711  50
  -3  -4   2 60605.0 678.653  56
  -3  -4   3 203.474 36.6558  29
  -3  -4   3 251.458 54.2735  41
  -3  -4   3 182.608 46.9993  25
  -3  -4   3 186.143 34.2026  72
  -3  -4   3 189.983 35.4446  79
  -3  -4   3 234.079 53.9388  50
  -3  -4   4 167.586 49.7982  41
  -3  -4   4 183.604 32.3581  29
  -3  -4   4 155.675 38.2809  72
  -3  -4   4 161.586 39.5020  70
  -3  -4   4 178.626 55.5509  50
  -3  -4   5 10441.3 250.407  41
  -3  -4   5 9886.81 204.428  70
  -3  -4   5 10530.3 201.163  72
  -3  -4   5 9797.04 213.461  69
  -3  -4   5 9804.27 263.806  50
  -3  -4   6 1026.73 66.9609  78
  -3  -4   6 1005.63 66.2732  70
  -3  -4   6 995.861 72.9666  69
  -3  -4   7 2353.50 90.9071  78
  -3  -4   7 2028.22 94.6477  69
  -3  -4   8 411.726 40.6002  78
  -3  -3  -8 651.556 50.7334  27
  -3  -3  -8 648.948 51.4862  32
  -3  -3  -8 549.830 40.4033  56
  -3  -3  -7 1202.66 78.8606  27
  -3  -3  -7 1039.52 70.6591  32
  -3  -3  -7 1068.79 67.5714  14
  -3  -3  -7 1056.77 66.9849  63
  -3  -3  -7 1079.64 73.5165  56
  -3  -3  -6 15161.7 286.415  32
  -3  -3  -6 14826.7 296.319  27
  -3  -3  -6 14974.1 308.739  56
  -3  -3  -5 69636.8 833.024  14
  -3  -3  -5 68610.0 826.076  25
  -3  -3  -5 68653.4 843.164  63
  -3  -3  -5 66414.1 888.816  56
  -3  -3  -4 25725.5 407.813  25
  -3  -3  -4 26863.1 409.805  63
  -3  -3  -4 26780.4 398.153  14
  -3  -3  -3 11207.2 215.250  32
  -3  -3  -3 11007.7 211.525  41
  -3  -3  -3 11542.1 230.468  63
  -3  -3  -3 11221.2 222.350  14
  -3  -3  -2 1391.50 68.2464  32
  -3  -3  -2 1401.80 80.2474  25
  -3  -3  -2 1456.67 74.8811  41
  -3  -3  -2 1415.65 74.3046  14
  -3  -3  -2 1348.24 75.8467  63
  -3  -3  -1 29445.6 442.952  41
  -3  -3  -1 31383.7 449.679  25
  -3  -3  -1 32418.7 418.914  27
  -3  -3  -1 29676.2 1034.79   9
  -3  -3  -1 32080.3 435.694  63
  -3  -3  -1 31532.5 445.098  56
  -3  -3   0 96582.3 1222.14   3
  -3  -3   0 96306.8 1714.92   6
  -3  -3   0 92284.4 1787.10   9
  -3  -3   0 90276.9 936.012  23
  -3  -3   0 93848.8 1659.14   4
  -3  -3   0 89984.2 1038.87  25
  -3  -3   0 91555.0 969.912  32
  -3  -3   0 92474.5 1045.25  41
  -3  -3   0 89649.6 1010.91  56
  -3  -3   1 113755. 1821.43   9
  -3  -3   1 113322. 1709.80   4
  -3  -3   1 114367. 1255.11  25
  -3  -3   1 110711. 1162.92  32
  -3  -3   1 114103. 1263.47  41
  -3  -3   1 114210. 1245.95  50
  -3  -3   1 113609. 1203.85  56
  -3  -3   2 20989.8 350.151  41
  -3  -3   2 21361.7 659.487   6
  -3  -3   2 21234.5 340.475  25
  -3  -3   2 21103.8 284.166  72
  -3  -3   2 21322.1 346.656  50
  -3  -3   3 21198.2 365.227  41
  -3  -3   3 21267.1 345.886  25
  -3  -3   3 20972.4 301.192  79
  -3  -3   3 21472.2 305.878  72
  -3  -3   4 8784.37 178.902  29
  -3  -3   4 8051.65 209.744  41
  -3  -3   4 8133.54 150.460  67
  -3  -3   4 8448.47 176.775  72
  -3  -3   4 8379.48 173.238  79
  -3  -3   4 8677.96 218.953  50
  -3  -3   5 19748.5 311.022  72
  -3  -3   5 19756.0 302.993  70
  -3  -3   5 19514.2 355.885  74
  -3  -3   5 18870.5 364.809  50
  -3  -3   6 5304.74 147.839  69
  -3  -3   6 5609.56 145.673  72
  -3  -3   6 5319.41 133.579  67
  -3  -3   6 5025.17 172.223  74
  -3  -3   7 17649.8 294.200  78
  -3  -3   7 17997.5 284.188  72
  -3  -3   7 17749.2 302.114  69
  -3  -3   8 588.817 51.8374  78
  -3  -3   9 4491.40 100.297  78
  -3  -2  -9 241.753 30.8395  23
  -3  -2  -8 1247.11 68.0830  32
  -3  -2  -7 4385.57 136.196  32
  -3  -2  -7 4492.58 144.542  27
  -3  -2  -7 4294.56 136.997  56
  -3  -2  -6 8169.31 196.409  32
  -3  -2  -6 8005.54 202.450  27
  -3  -2  -6 7810.79 182.223  14
  -3  -2  -6 7834.72 187.288  63
  -3  -2  -5 19145.6 297.331  25
  -3  -2  -5 19451.8 351.950  56
  -3  -2  -4 10059.6 203.942  25
  -3  -2  -4 10182.5 202.443  14
  -3  -2  -4 9970.26 206.572  63
  -3  -2  -4 10314.7 234.999  56
  -3  -2  -3 49479.3 595.909  32
  -3  -2  -3 47795.3 605.340  27
  -3  -2  -3 50192.0 598.415  14
  -3  -2  -3 49406.6 612.719  25
  -3  -2  -3 48649.2 605.314  63
  -3  -2  -3 49456.4 638.231  56
  -3  -2  -2 113738. 1190.94  32
  -3  -2  -2 113986. 1213.52  41
  -3  -2  -2 115965. 1204.68  27
  -3  -2  -2 115875. 1878.68   8
  -3  -2  -2 107888. 1199.31  14
  -3  -2  -2 113384. 2247.94   9
  -3  -2  -2 111395. 1207.08  63
  -3  -2  -2 109013. 1232.66  56
  -3  -2  -1 92043.2 975.408  32
  -3  -2  -1 90772.6 986.316  27
  -3  -2  -1 91783.7 1016.63  25
  -3  -2  -1 91933.8 999.537  63
  -3  -2  -1 90342.7 1011.67  56
  -3  -2   0 156526. 1647.45  25
  -3  -2   0 157034. 2382.92   9
  -3  -2   0 157835. 1568.55  23
  -3  -2   0 159038. 1592.72  32
  -3  -2   0 159375. 1658.12  41
  -3  -2   0 154645. 1604.90  27
  -3  -2   0 154574. 1629.23  56
  -3  -2   1 5608.67 289.689   9
  -3  -2   1 5485.48 292.675   4
  -3  -2   1 5398.75 140.889  25
  -3  -2   1 5546.06 147.182  41
  -3  -2   2 106677. 1496.79   4
  -3  -2   2 103027. 1669.89   6
  -3  -2   2 107083. 1162.95  25
  -3  -2   2 104652. 1179.47  41
  -3  -2   2 105945. 1168.45  50
  -3  -2   3 3265.08 118.142  41
  -3  -2   3 2993.88 95.7996  29
  -3  -2   3 2885.79 200.683   6
  -3  -2   3 3230.12 172.836   1
  -3  -2   3 2902.29 86.4329  79
  -3  -2   3 3533.43 106.721  72
  -3  -2   3 3220.79 116.678  50
  -3  -2   3 3052.45 71.6128  55
  -3  -2   4 13703.2 228.113  79
  -3  -2   4 13845.7 248.899  72
  -3  -2   4 13483.4 224.966  67
  -3  -2   5 1564.55 82.6723  72
  -3  -2   5 1540.53 56.1476  61
  -3  -2   5 1507.51 68.0398  70
  -3  -2   5 1521.07 85.5918  74
  -3  -2   5 1648.78 78.3014  79
  -3  -2   6 18662.0 314.009  67
  -3  -2   6 18986.3 324.115  72
  -3  -2   6 19073.1 347.666  74
  -3  -2   6 19412.9 285.673  70
  -3  -2   7 3334.33 116.039  67
  -3  -2   7 3460.91 116.408  72
  -3  -2   7 3415.09 117.080  78
  -3  -2   7 3408.77 111.865  69
  -3  -2   8 2169.25 86.9440  67
  -3  -2   8 2255.89 91.2016  78
  -3  -2   9 4708.98 110.812  78
  -3  -1  -9 804.020 45.6368  23
  -3  -1  -9 750.224 42.4974  24
  -3  -1  -8 6100.38 143.262  27
  -3  -1  -7 5741.98 155.468  32
  -3  -1  -7 5540.37 147.435  56
  -3  -1  -6 85061.6 998.473  32
  -3  -1  -6 87389.4 1010.82  27
  -3  -1  -6 86923.7 962.292  14
  -3  -1  -6 86737.3 969.434  63
  -3  -1  -6 85414.3 1015.55  56
  -3  -1  -5 34845.6 488.543  27
  -3  -1  -5 35250.2 478.831  32
  -3  -1  -5 35383.7 458.503  14
  -3  -1  -5 34736.4 466.284  63
  -3  -1  -4 9151.81 187.893  32
  -3  -1  -4 9336.69 197.940  27
  -3  -1  -4 9327.77 173.109  25
  -3  -1  -4 9421.61 178.567  14
  -3  -1  -4 8801.79 183.554  63
  -3  -1  -4 9077.02 209.632  56
  -3  -1  -3 35597.6 449.585  25
  -3  -1  -3 35228.9 446.659  32
  -3  -1  -3 34349.0 459.899  27
  -3  -1  -3 36019.0 481.825  56
  -3  -1  -2 19883.6 291.595  27
  -3  -1  -2 20111.5 282.813  32
  -3  -1  -2 20706.3 823.043   9
  -3  -1  -2 20670.6 297.848  25
  -3  -1  -2 20588.5 293.303  63
  -3  -1  -2 20441.4 310.213  56
  -3  -1  -1 370449. 4490.73   4
  -3  -1  -1 372810. 4312.68   8
  -3  -1  -1 373299. 4644.08   9
  -3  -1  -1 370604. 3652.62  25
  -3  -1  -1 367117. 3633.01  27
  -3  -1  -1 365843. 3620.01  32
  -3  -1  -1 371717. 3652.54  56
  -3  -1   0 101717. 1043.85  23
  -3  -1   0 103224. 1435.39   8
  -3  -1   0 99937.3 1633.66   4
  -3  -1   0 105056. 1104.79  25
  -3  -1   0 100466. 1052.75  24
  -3  -1   0 103670. 1117.20  41
  -3  -1   0 103854. 1072.78  27
  -3  -1   0 102705. 1059.75  32
  -3  -1   0 103170. 1091.52  56
  -3  -1   1 17672.9 215.664  24
  -3  -1   1 17790.4 274.970  25
  -3  -1   1 17685.3 283.027  41
  -3  -1   1 18019.9 235.685  32
  -3  -1   1 17832.5 253.893  56
  -3  -1   2 14243.3 440.764   4
  -3  -1   2 14453.6 228.580  29
  -3  -1   2 14345.1 251.498  41
  -3  -1   2 14554.2 209.872  55
  -3  -1   3 128718. 1750.92   1
  -3  -1   3 128495. 1344.08  29
  -3  -1   3 128832. 1300.70  55
  -3  -1   4 6803.26 171.289  72
  -3  -1   4 7095.81 146.176  79
  -3  -1   4 7011.29 158.450  67
  -3  -1   5 808.823 61.3947  74
  -3  -1   5 734.749 65.2032  72
  -3  -1   5 952.996 59.5885  79
  -3  -1   6 13455.1 268.884  74
  -3  -1   6 14082.0 275.537  67
  -3  -1   6 13486.1 213.310  70
  -3  -1   6 13972.7 201.893  61
  -3  -1   6 13644.2 276.729  72
  -3  -1   6 13371.5 229.125  69
  -3  -1   6 13891.3 211.149  75
  -3  -1   7 240.297 50.3269  67
  -3  -1   7 237.512 44.0901  78
  -3  -1   7 231.421 51.8217  72
  -3  -1   7 236.857 33.9579  75
  -3  -1   7 214.776 50.0612  74
  -3  -1   7 263.782 37.8730  69
  -3  -1   8 5072.74 147.971  67
  -3  -1   8 5136.29 134.190  78
  -3  -1   9 1085.31 55.5490  78
  -3  -1   9 1061.03 59.3827  67
  -3   0  -9 382.365 30.7140  24
  -3   0  -9 357.283 32.9131  23
  -3   0  -8 7036.06 149.059  32
  -3   0  -8 7065.38 142.790  27
  -3   0  -7 5286.98 142.714  32
  -3   0  -7 5202.04 142.026  27
  -3   0  -6 33116.5 466.058  27
  -3   0  -6 33068.3 459.672  56
  -3   0  -5 50741.2 630.981  32
  -3   0  -5 52244.8 651.663  56
  -3   0  -4 13619.6 230.741  32
  -3   0  -4 13192.7 238.015  27
  -3   0  -3 103530. 1085.40  25
  -3   0  -3 105330. 1115.60  27
  -3   0  -3 102545. 1104.64  32
  -3   0  -3 104825. 1135.36  56
  -3   0  -2 64003.2 1103.87  12
  -3   0  -2 60858.2 1422.74   9
  -3   0  -2 62379.8 687.359  25
  -3   0  -2 61551.3 1320.90   4
  -3   0  -2 61977.5 695.614  27
  -3   0  -2 61127.5 683.427  32
  -3   0  -2 61017.2 711.360  56
  -3   0  -1 67126.5 755.777  25
  -3   0  -1 69369.5 1252.49  12
  -3   0  -1 64323.6 1286.51   4
  -3   0  -1 71029.8 737.419  23
  -3   0  -1 67485.3 1390.25   9
  -3   0  -1 68052.0 748.449  27
  -3   0  -1 67921.2 736.351  32
  -3   0  -1 69058.2 766.362  56
  -3   0   0 11016.2 162.149  24
  -3   0   0 11178.4 441.943   4
  -3   0   0 11141.7 157.374  23
  -3   0   0 11219.6 167.760  32
  -3   0   0 10512.3 183.070  56
  -3   0   1 31579.2 720.584   4
  -3   0   1 29796.9 462.239   3
  -3   0   1 30001.2 340.652  24
  -3   0   1 30430.3 381.393  29
  -3   0   1 31026.2 376.798  55
  -3   0   2 10350.5 186.949  29
  -3   0   2 10913.6 174.935  55
  -3   0   3 124963. 1755.65   1
  -3   0   3 121937. 1216.06  34
  -3   0   3 120498. 1234.81  55
  -3   0   3 121401. 1222.15  44
  -3   0   4 59405.1 668.950  79
  -3   0   4 59283.9 662.090  61
  -3   0   5 7192.34 162.241  74
  -3   0   5 6759.48 147.029  73
  -3   0   5 7097.77 127.228  75
  -3   0   5 6847.60 188.063  72
  -3   0   5 6715.83 136.722  61
  -3   0   6 8355.13 191.682  74
  -3   0   6 8193.67 177.010  73
  -3   0   6 8652.63 220.528  72
  -3   0   6 8563.60 218.500  67
  -3   0   6 8281.09 152.797  61
  -3   0   6 8279.92 152.817  69
  -3   0   6 8503.23 154.082  75
  -3   0   7 42426.9 614.734  67
  -3   0   7 43204.8 604.494  72
  -3   0   7 42325.9 491.795  61
  -3   0   7 43251.7 538.641  78
  -3   0   7 42354.4 567.126  74
  -3   0   8 3658.26 137.196  67
  -3   0   8 3484.79 114.704  74
  -3   0   8 3609.70 105.242  78
  -3   0   9 4790.75 132.067  67
  -3   1  -9 77.7520 23.1486  48
  -3   1  -8 7836.61 162.466  24
  -3   1  -7 6453.11 165.752  23
  -3   1  -7 6053.70 143.128  32
  -3   1  -6 9426.21 191.019  32
  -3   1  -6 9487.42 192.247  27
  -3   1  -5 11831.0 220.429  27
  -3   1  -5 11751.6 213.643  32
  -3   1  -4 9542.09 193.510  56
  -3   1  -3 16079.2 545.677  12
  -3   1  -3 16153.8 233.871  32
  -3   1  -2 157559. 1657.86  23
  -3   1  -2 165853. 2332.78  12
  -3   1  -2 162725. 1663.35  24
  -3   1  -2 160484. 2381.74   4
  -3   1  -2 164831. 1660.21  27
  -3   1  -2 163594. 1648.22  32
  -3   1  -2 165689. 1675.34  56
  -3   1  -1 44820.6 501.210  23
  -3   1  -1 44782.1 507.844  24
  -3   1  -1 44083.4 984.440   4
  -3   1  -1 44494.5 502.447  32
  -3   1   0 32268.1 897.502  12
  -3   1   0 31625.9 364.240  24
  -3   1   0 31570.9 359.651  23
  -3   1   0 31553.8 759.076   4
  -3   1   0 29986.5 380.162  29
  -3   1   0 31012.6 339.513  33
  -3   1   0 32145.4 371.393  32
  -3   1   0 32313.7 389.498  55
  -3   1   1 36159.3 1021.10  12
  -3   1   1 36942.8 609.832   3
  -3   1   1 34886.6 791.491   4
  -3   1   1 37565.4 406.807  24
  -3   1   1 37225.8 435.954  29
  -3   1   1 36549.8 433.381  55
  -3   1   1 35735.9 391.608  48
  -3   1   2 147421. 2047.86   1
  -3   1   2 152241. 1535.48  55
  -3   1   2 152286. 1509.95  44
  -3   1   3 69055.4 724.169  18
  -3   1   3 68499.3 724.341  34
  -3   1   3 69245.9 760.690  49
  -3   1   4 33827.1 414.920  61
  -3   1   4 33538.8 412.078  79
  -3   1   4 34722.0 422.092  73
  -3   1   4 33473.9 449.758  49
  -3   1   4 33394.9 410.162  44
  -3   1   5 9617.24 180.116  74
  -3   1   5 9522.99 171.128  61
  -3   1   5 9570.64 183.809  73
  -3   1   5 9388.39 232.228  68
  -3   1   5 9019.37 209.936  49
  -3   1   6 16715.4 336.325  72
  -3   1   6 16371.9 268.902  74
  -3   1   6 15982.5 271.465  73
  -3   1   7 54661.3 624.175  61
  -3   1   7 55205.7 761.508  67
  -3   1   7 54811.6 670.293  73
  -3   1   7 54741.4 744.228  72
  -3   1   8 7935.02 193.712  72
  -3   1   8 7730.82 212.710  67
  -3   1   9 4377.02 131.755  67
  -3   1  10 1547.88 52.4621  67
  -3   2  -8 1944.97 66.1268  24
  -3   2  -8 2107.34 71.4790  23
  -3   2  -7 9510.88 189.555  24
  -3   2  -7 9331.00 189.359  23
  -3   2  -6 11734.4 225.930  23
  -3   2  -6 11609.1 200.462  32
  -3   2  -5 13773.2 247.075  23
  -3   2  -5 13799.5 223.919  32
  -3   2  -5 13289.8 215.771  55
  -3   2  -4 7588.19 165.841  24
  -3   2  -4 7537.07 163.224  23
  -3   2  -4 7480.31 146.888  32
  -3   2  -4 7541.09 152.901  55
  -3   2  -3 39094.5 482.079  24
  -3   2  -3 39355.5 476.789  23
  -3   2  -3 38577.0 459.416  32
  -3   2  -3 38725.6 476.984  55
  -3   2  -2 6694.97 373.478   4
  -3   2  -2 6980.79 136.820  24
  -3   2  -2 7017.86 132.544  23
  -3   2  -2 6833.17 116.581  29
  -3   2  -1 22407.5 283.585  23
  -3   2  -1 23127.1 669.053   4
  -3   2  -1 21592.6 285.456  24
  -3   2  -1 22673.8 279.958  29
  -3   2  -1 22086.0 284.034  48
  -3   2  -1 22411.6 300.881  55
  -3   2   0 76225.2 1330.23   4
  -3   2   0 78859.9 790.182  22
  -3   2   0 78517.7 823.189  24
  -3   2   0 79189.7 830.148  29
  -3   2   0 78711.0 811.391  48
  -3   2   0 77825.8 794.011  58
  -3   2   0 79187.7 843.551  55
  -3   2   1 18564.3 760.493  12
  -3   2   1 18879.5 227.486  22
  -3   2   1 19048.2 461.982   3
  -3   2   1 18127.1 228.456  15
  -3   2   1 18967.3 224.906  62
  -3   2   1 18545.4 223.271  58
  -3   2   1 18146.3 252.317  55
  -3   2   2 183960. 2438.09   1
  -3   2   2 184420. 1795.26  15
  -3   2   2 182443. 1824.84  42
  -3   2   2 180026. 1832.00  55
  -3   2   2 181921. 1810.42  44
  -3   2   2 181840. 1834.77  49
  -3   2   3 71722.6 789.722  42
  -3   2   3 71114.5 762.692  34
  -3   2   3 72286.2 1322.98   8
  -3   2   3 69599.7 769.875  18
  -3   2   3 71298.9 778.275  61
  -3   2   3 71282.4 806.525  49
  -3   2   3 72750.5 765.905  44
  -3   2   4 7941.43 152.887  73
  -3   2   4 7616.41 150.991  61
  -3   2   4 7497.63 199.945  68
  -3   2   4 7417.74 177.329  49
  -3   2   4 7349.49 152.304  44
  -3   2   5 12259.3 204.830  61
  -3   2   5 12139.1 285.219  68
  -3   2   5 12576.9 221.249  73
  -3   2   5 12255.0 260.531  49
  -3   2   6 6504.20 161.790  73
  -3   2   6 6955.06 140.104  78
  -3   2   6 6749.55 145.245  61
  -3   2   6 6575.06 215.073  68
  -3   2   7 19341.4 318.736  73
  -3   2   7 19987.8 379.000  72
  -3   2   7 19989.6 277.799  78
  -3   2   8 3274.03 122.764  72
  -3   2   8 3377.46 143.317  67
  -3   2   9 82.9715 36.6154  67
  -3   2  10 408.144 28.3765  67
  -3   3  -8 2182.68 63.1705  15
  -3   3  -8 2195.14 68.1950  48
  -3   3  -7 5801.73 124.762  24
  -3   3  -7 5835.47 127.684  23
  -3   3  -6 12352.0 218.263  24
  -3   3  -6 12493.0 219.140  23
  -3   3  -5 22264.5 290.644  32
  -3   3  -4 7519.51 159.112  23
  -3   3  -4 7945.71 163.846  24
  -3   3  -4 8108.91 141.791  32
  -3   3  -4 7859.58 141.288  55
  -3   3  -3 7294.26 143.232  23
  -3   3  -3 7130.64 147.420  24
  -3   3  -3 7057.62 137.597  55
  -3   3  -3 7332.32 150.287  48
  -3   3  -2 15564.9 226.123  24
  -3   3  -2 15592.5 223.872  23
  -3   3  -2 15014.3 224.666  55
  -3   3  -1 3578.39 73.2767  22
  -3   3  -1 3632.81 88.0173  24
  -3   3  -1 3769.16 81.3886  33
  -3   3  -1 3665.97 87.2288  48
  -3   3  -1 3766.31 93.7014  55
  -3   3   0 31053.9 349.438  39
  -3   3   0 32260.3 359.677  33
  -3   3   0 31052.9 374.693  15
  -3   3   0 32661.0 371.047  62
  -3   3   0 31851.4 388.942  55
  -3   3   0 31230.8 367.377  48
  -3   3   1 38613.6 428.036  39
  -3   3   1 36992.2 1175.85  12
  -3   3   1 37539.1 877.500   1
  -3   3   1 36380.0 781.124   3
  -3   3   1 38555.6 425.415  22
  -3   3   1 37443.8 440.312  61
  -3   3   1 34996.8 424.959  44
  -3   3   2 34808.0 424.134  39
  -3   3   2 34376.8 430.186  42
  -3   3   2 34300.2 406.070  34
  -3   3   2 34333.5 393.975  15
  -3   3   2 34595.0 418.010  61
  -3   3   2 34524.5 408.302  44
  -3   3   3 19937.6 306.710  42
  -3   3   3 19549.3 294.023  39
  -3   3   3 19989.6 276.138  34
  -3   3   3 19317.8 717.885   8
  -3   3   3 19807.4 264.605  73
  -3   3   3 19735.8 279.890  61
  -3   3   3 19375.1 275.611  44
  -3   3   3 20503.8 319.599  49
  -3   3   4 3633.98 112.982  39
  -3   3   4 3691.15 106.371  34
  -3   3   4 3844.98 150.722  68
  -3   3   4 4155.10 105.818  73
  -3   3   4 3851.08 103.431  61
  -3   3   4 3724.49 132.659  49
  -3   3   5 23834.9 328.604  61
  -3   3   5 23386.0 438.364  68
  -3   3   5 23444.0 294.243  78
  -3   3   5 24351.4 412.795  49
  -3   3   6 30164.4 393.617  61
  -3   3   6 28880.8 352.038  78
  -3   3   6 29998.7 525.338  68
  -3   3   6 29607.8 414.494  73
  -3   3   7 3093.93 107.224  73
  -3   3   7 3043.63 147.409  68
  -3   3   8 5046.98 169.632  67
  -3   3   9 173.175 37.3828  67
  -3   3  10 871.057 30.5884  67
  -3   4  -8 711.856 39.1924  33
  -3   4  -8 727.704 36.2596  62
  -3   4  -8 700.020 32.6486  48
  -3   4  -7 903.834 49.0089  15
  -3   4  -7 996.933 54.9908  33
  -3   4  -7 996.186 50.9648  48
  -3   4  -6 425.015 36.9490  24
  -3   4  -6 365.101 46.2887  33
  -3   4  -6 353.975 44.7253  48
  -3   4  -5 2896.77 88.9952  24
  -3   4  -5 3024.52 98.9217  48
  -3   4  -4 25169.2 337.042  24
  -3   4  -4 24727.3 337.454  33
  -3   4  -4 24266.8 346.408  48
  -3   4  -3 2244.76 77.2530  24
  -3   4  -3 2206.86 77.6142  33
  -3   4  -3 2261.93 78.1295  48
  -3   4  -2 6548.57 126.872  33
  -3   4  -2 6250.66 118.305  22
  -3   4  -2 6424.64 134.896  62
  -3   4  -2 6431.09 122.942  58
  -3   4  -2 6710.93 131.862  48
  -3   4  -1 7972.11 137.940  33
  -3   4  -1 8099.09 132.450  22
  -3   4  -1 8152.81 152.701  15
  -3   4  -1 8031.92 146.838  62
  -3   4  -1 7990.05 130.763  61
  -3   4  -1 7512.95 144.173  48
  -3   4  -1 8114.74 135.210  58
  -3   4   0 35717.6 408.969  39
  -3   4   0 35552.0 411.522  22
  -3   4   0 36088.2 1155.77  11
  -3   4   0 35468.4 428.533  15
  -3   4   0 35106.9 416.674  61
  -3   4   0 37325.9 424.509  62
  -3   4   0 35696.0 412.921  58
  -3   4   1 22510.9 299.095  15
  -3   4   1 23448.3 304.706  39
  -3   4   1 23203.3 300.878  44
  -3   4   2 17617.2 260.945  34
  -3   4   2 19394.9 288.120  39
  -3   4   2 18419.6 268.172  18
  -3   4   2 18807.7 260.788  61
  -3   4   2 17612.9 261.507  44
  -3   4   3 4137.79 125.506  39
  -3   4   3 4418.24 136.827  42
  -3   4   3 3985.31 110.415  34
  -3   4   3 4140.80 115.543  18
  -3   4   3 4285.17 108.150  61
  -3   4   3 3976.92 109.970  44
  -3   4   3 4138.13 135.860  49
  -3   4   4 3673.23 125.908  39
  -3   4   4 3839.79 159.816  68
  -3   4   4 3560.98 96.8769  73
  -3   4   4 3551.86 101.000  61
  -3   4   4 3761.37 141.224  49
  -3   4   5 3863.53 108.397  73
  -3   4   5 3594.25 109.057  61
  -3   4   5 3840.72 168.710  68
  -3   4   5 3768.02 151.058  49
  -3   4   6 36557.3 459.511  61
  -3   4   6 35906.9 602.242  68
  -3   4   6 35508.8 561.576  49
  -3   4   7 10336.8 270.685  68
  -3   4   8 1231.10 82.9218  67
  -3   4   9 251.785 33.6301  67
  -3   5  -8 209.195 22.1833  22
  -3   5  -8 210.599 21.4617  39
  -3   5  -8 213.928 22.2062  58
  -3   5  -7 141.951 26.8009  33
  -3   5  -7 149.931 24.0441  15
  -3   5  -7 140.900 26.7264  22
  -3   5  -7 128.758 25.6509  62
  -3   5  -7 139.817 28.3848  58
  -3   5  -6 5046.23 116.429  33
  -3   5  -6 4437.06 112.269  15
  -3   5  -6 4586.99 110.396  22
  -3   5  -6 5083.77 120.182  62
  -3   5  -6 4844.15 110.306  48
  -3   5  -6 4917.33 114.674  58
  -3   5  -5 5586.01 128.033  33
  -3   5  -5 5024.20 119.099  22
  -3   5  -5 5137.05 128.409  15
  -3   5  -5 5413.19 131.732  62
  -3   5  -5 5050.12 121.195  48
  -3   5  -5 5056.75 121.387  58
  -3   5  -4 2074.70 78.1320  33
  -3   5  -4 1975.26 72.2999  22
  -3   5  -4 1953.11 82.8573  15
  -3   5  -4 2030.27 81.2597  62
  -3   5  -4 1835.39 73.9632  58
  -3   5  -4 1995.52 75.4201  48
  -3   5  -3 8611.36 161.249  33
  -3   5  -3 8725.76 154.646  22
  -3   5  -3 8928.86 176.928  15
  -3   5  -3 8911.38 171.888  62
  -3   5  -3 8894.62 165.592  48
  -3   5  -2 7767.72 136.915  39
  -3   5  -2 7047.44 143.076  33
  -3   5  -2 7497.55 138.675  22
  -3   5  -2 7625.83 155.612  15
  -3   5  -2 7234.17 151.774  62
  -3   5  -2 7353.34 140.822  58
  -3   5  -1 1536.58 63.2598  33
  -3   5  -1 1462.01 65.0680  62
  -3   5  -1 1485.83 61.6412  58
  -3   5  -1 1509.28 61.7428  44
  -3   5   0 3963.35 102.760  22
  -3   5   0 4061.35 106.053  15
  -3   5   0 4140.16 89.6867  61
  -3   5   0 3856.02 99.0500  44
  -3   5   1 36583.0 452.130  34
  -3   5   1 36981.7 463.480  39
  -3   5   1 36363.7 451.797  15
  -3   5   1 36806.9 433.837  61
  -3   5   1 36480.6 450.179  44
  -3   5   2 49.4323 30.1844  18
  -3   5   2 28.4062 34.4718  42
  -3   5   2 61.6923 32.2809  34
  -3   5   2 21.3477 32.1124  39
  -3   5   2 86.5324 30.4507  61
  -3   5   3 5415.86 157.769  39
  -3   5   3 4911.82 136.984  34
  -3   5   3 5075.23 142.321  18
  -3   5   3 5393.29 122.623  61
  -3   5   3 5026.48 136.229  44
  -3   5   4 18251.4 332.094  39
  -3   5   4 17441.6 271.507  61
  -3   5   4 17919.8 350.507  49
  -3   5   5 12125.9 317.766  68
  -3   5   5 12054.9 209.506  61
  -3   5   5 12080.0 284.617  49
  -3   5   6 16053.5 358.716  68
  -3   5   6 15574.6 324.042  49
  -3   5   7 2279.52 120.652  68
  -3   5   7 2152.91 102.241  49
  -3   5   8 1236.64 71.1363  67
  -3   5   9 41.8104 15.1852  67
  -3   6  -7 20.5558 19.4422  22
  -3   6  -7 40.3267 18.0938  39
  -3   6  -7 44.3870 20.3897  58
  -3   6  -6 928.563 46.7483  22
  -3   6  -6 827.255 44.5740  15
  -3   6  -6 1008.16 48.2609  33
  -3   6  -6 933.638 47.3631  39
  -3   6  -6 956.371 48.2254  58
  -3   6  -5 5617.71 122.944  33
  -3   6  -5 5491.77 119.914  39
  -3   6  -5 5636.90 120.223  22
  -3   6  -5 5616.31 127.440  62
  -3   6  -5 5751.84 124.398  58
  -3   6  -4 3062.28 91.4840  33
  -3   6  -4 2946.11 86.8998  39
  -3   6  -4 2946.28 88.7645  22
  -3   6  -4 3038.17 97.0977  15
  -3   6  -4 3022.99 95.7502  62
  -3   6  -4 2772.53 73.2371  44
  -3   6  -4 2893.76 89.2913  58
  -3   6  -3 1254.31 62.8831  33
  -3   6  -3 1202.34 58.8152  39
  -3   6  -3 1217.68 60.5537  22
  -3   6  -3 1205.76 65.8879  15
  -3   6  -3 1158.31 51.7543  44
  -3   6  -3 1159.02 63.5488  58
  -3   6  -2 20631.5 292.007  39
  -3   6  -2 20263.7 286.448  34
  -3   6  -2 21040.2 292.174  22
  -3   6  -2 19981.6 305.857  15
  -3   6  -2 21568.9 305.451  62
  -3   6  -2 19791.6 295.065  58
  -3   6  -2 20566.8 282.546  44
  -3   6  -1 70884.9 795.444  15
  -3   6  -1 70440.8 788.171  39
  -3   6  -1 68830.3 746.783  35
  -3   6  -1 69456.7 773.383  44
  -3   6   0 92781.0 1009.49  15
  -3   6   0 90756.8 995.671  34
  -3   6   1 20849.9 329.381  42
  -3   6   1 20610.9 309.593  34
  -3   6   1 20669.9 322.468  18
  -3   6   1 21071.6 276.821  61
  -3   6   1 20329.4 307.809  44
  -3   6   2 38027.4 534.789  42
  -3   6   2 38571.7 501.631  34
  -3   6   2 38815.8 513.324  18
  -3   6   2 37554.4 462.737  61
  -3   6   2 38814.3 498.898  44
  -3   6   3 27540.2 438.803  42
  -3   6   3 27957.8 430.025  39
  -3   6   3 26729.5 414.682  18
  -3   6   3 26677.9 355.053  61
  -3   6   4 3818.39 139.208  39
  -3   6   4 4131.90 176.666  68
  -3   6   4 3762.35 148.080  49
  -3   6   5 14235.1 329.717  68
  -3   6   5 13587.5 290.784  49
  -3   6   6 3621.77 149.431  68
  -3   6   7 4019.17 132.508  68
  -3   6   8 1383.00 56.1425  67
  -3   7  -6 2271.27 64.8954  22
  -3   7  -6 2290.71 65.0553  39
  -3   7  -5 1323.30 57.3296  22
  -3   7  -5 1322.90 56.9037  15
  -3   7  -5 1263.48 55.4318  39
  -3   7  -5 1310.20 56.7770  58
  -3   7  -4 938.435 55.6889  15
  -3   7  -4 915.768 53.5493  22
  -3   7  -4 934.645 51.6963  39
  -3   7  -4 934.895 54.1987  58
  -3   7  -3 603.325 51.4489  22
  -3   7  -3 652.428 51.8985  15
  -3   7  -3 612.815 37.1005  34
  -3   7  -3 609.176 49.8908  39
  -3   7  -2 14198.6 241.802  22
  -3   7  -2 14625.2 248.938  15
  -3   7  -2 14132.2 219.393  34
  -3   7  -2 14721.4 240.886  39
  -3   7  -2 14198.4 213.681  44
  -3   7  -1 16483.6 273.970  15
  -3   7  -1 16839.8 271.348  18
  -3   7  -1 16469.4 274.457  39
  -3   7  -1 16330.9 253.541  34
  -3   7  -1 16694.7 249.015  44
  -3   7   0 2364.68 95.9888  18
  -3   7   0 2337.85 99.3440  39
  -3   7   0 2552.62 102.604  42
  -3   7   0 2465.56 85.3228  44
  -3   7   1 4237.23 131.633  18
  -3   7   1 4308.88 140.270  42
  -3   7   2 271.791 50.2947  18
  -3   7   2 191.324 49.2640  42
  -3   7   2 173.143 46.0593  39
  -3   7   3 11291.2 253.792  42
  -3   7   3 11178.3 243.265  39
  -3   7   3 10956.9 244.534  49
  -3   7   4 28.9208 48.8058  68
  -3   7   5 4628.38 158.223  68
  -3   7   6 1050.42 72.3778  68
  -3   8  -5 31.0623 20.7172  39
  -3   8  -4 6.54988 22.2219  39
  -3   8  -4-7.71511 18.0155  18
  -3   8  -3 52.1013 30.9042  39
  -3   8  -3 65.9499 26.1920  18
  -3   8  -2 13035.9 228.352  39
  -3   8  -1 11450.0 224.786  42
  -3   8  -1 11594.4 223.774  39
  -3   8  -1 11980.5 216.610  18
  -3   8   0 8315.37 189.758  39
  -3   8   0 8153.64 190.931  42
  -3   8   0 8096.27 178.673  18
  -3   8   1 1495.79 87.1604  42
  -3   8   1 1366.22 78.4057  18
  -3   8   2 5429.27 155.034  39
  -3   8   2 5582.03 162.384  42
  -3   8   3 1822.45 104.443  68
  -3   8   4 2366.19 105.906  68
  -3   8   5 180.321 38.7436  68
  -3   8   6 929.089 47.1873  68
  -3   9  -3 942.709 49.2960  39
  -3   9  -3 999.028 49.5914  42
  -3   9  -2 5364.92 125.547  42
  -3   9  -2 5231.22 124.008  39
  -3   9  -1 6006.45 140.586  39
  -3   9  -1 5716.31 140.395  42
  -3   9   0 1482.59 74.0139  42
  -3   9   1 2109.84 84.1986  39
  -3   9   1 2132.23 88.7691  42
  -3   9   2 1944.79 88.8142  68
  -3   9   3 118.120 36.8304  68
  -3   9   4 1533.15 63.8317  68
  -3  10   0 192.378 24.8089  68
  -3  10   1 1003.11 45.1213  68
  -3  10   2 2894.90 67.0139  68
  -2  -9  -3 1699.32 79.9202  25
  -2  -9  -2 3571.12 122.857  25
  -2  -9  -2 3640.58 116.218  41
  -2  -9  -1 41.7515 37.3812  25
  -2  -9  -1 57.7247 33.7946  59
  -2  -9   0 181.178 39.5549  25
  -2  -9   0 168.304 45.1649  41
  -2  -9   1 645.395 67.0599  41
  -2  -9   2 1457.93 89.6361  41
  -2  -9   2 1405.88 74.4955  50
  -2  -9   3 5786.50 167.084  41
  -2  -9   3 5915.59 153.765  50
  -2  -9   4 675.257 53.8978  50
  -2  -9   5 3491.67 102.454  74
  -2  -8  -5 112.046 32.5997  25
  -2  -8  -5 112.937 31.0661  56
  -2  -8  -4 773.353 65.3847  25
  -2  -8  -4 777.394 57.8643  63
  -2  -8  -3 5303.03 171.915  25
  -2  -8  -3 5180.44 147.806  41
  -2  -8  -2 26484.0 438.748  41
  -2  -8  -2 26780.3 446.694  25
  -2  -8  -2 26058.7 417.282  59
  -2  -8  -1 1113.75 89.0036  25
  -2  -8  -1 1075.59 85.1066  59
  -2  -8   0 191.536 51.6459  25
  -2  -8   0 285.966 60.0083  59
  -2  -8   0 260.539 43.4995  50
  -2  -8   1 903.175 88.1876  59
  -2  -8   1 1044.23 77.9411  50
  -2  -8   2 4879.22 182.046  41
  -2  -8   2 4637.34 108.553  69
  -2  -8   2 4675.12 184.002  59
  -2  -8   3 8710.50 240.749  41
  -2  -8   3 9009.35 169.653  69
  -2  -8   3 9134.59 233.957  50
  -2  -8   4 1105.80 84.9752  50
  -2  -8   5 2203.66 107.494  50
  -2  -8   6 918.674 66.1135  74
  -2  -8   6 909.681 63.7275  50
  -2  -8   7 575.348 37.7736  74
  -2  -7  -6 1.62603 28.5683  63
  -2  -7  -6 41.8230 29.0636  14
  -2  -7  -6 42.2833 26.8707  25
  -2  -7  -5 457.457 46.8503  27
  -2  -7  -5 353.566 51.6906  63
  -2  -7  -5 413.459 52.1897  14
  -2  -7  -4 20113.5 340.859  14
  -2  -7  -4 19835.3 346.309  63
  -2  -7  -3 25631.4 369.088  27
  -2  -7  -3 25066.9 417.189  41
  -2  -7  -3 26045.8 404.226  14
  -2  -7  -3 24846.4 407.676  63
  -2  -7  -3 24811.0 391.234  59
  -2  -7  -2 134.615 45.2468  59
  -2  -7  -1 3079.19 120.283  63
  -2  -7   0 2501.47 129.791  25
  -2  -7   0 2341.00 109.587  50
  -2  -7   0 2487.69 129.107  59
  -2  -7   1 617.696 44.8322  69
  -2  -7   1 548.409 49.3431  70
  -2  -7   1 630.536 80.7017  59
  -2  -7   2 46929.8 658.381  25
  -2  -7   2 46566.6 573.744  69
  -2  -7   2 47658.8 717.137  59
  -2  -7   2 46845.3 682.383  50
  -2  -7   3 13596.0 323.915  41
  -2  -7   3 13907.8 247.056  69
  -2  -7   3 14049.5 344.789  59
  -2  -7   3 13821.4 317.927  50
  -2  -7   4 668.525 79.7805  50
  -2  -7   5 295.146 47.5593  69
  -2  -7   5 359.023 63.5576  50
  -2  -7   6 2632.14 124.147  50
  -2  -7   7 823.683 67.4763  74
  -2  -7   8 503.263 38.5500  74
  -2  -6  -7 121.219 29.7081  32
  -2  -6  -7 127.435 34.5836  27
  -2  -6  -7 134.010 34.1219  14
  -2  -6  -7 181.141 36.8098  63
  -2  -6  -7 120.012 34.9389  56
  -2  -6  -6 530.979 55.7223  14
  -2  -6  -6 527.034 58.5782  63
  -2  -6  -5 1211.77 81.4076  14
  -2  -6  -5 1245.54 84.5671  63
  -2  -6  -4 3037.90 124.976  14
  -2  -6  -4 3226.55 129.540  63
  -2  -6  -4 3084.28 137.449  52
  -2  -6  -3 41963.1 566.841  14
  -2  -6  -3 41723.6 577.921  63
  -2  -6  -3 40970.9 555.295  59
  -2  -6  -3 40231.1 605.363  52
  -2  -6  -2 1240.98 60.6802  32
  -2  -6  -2 1243.79 78.4674  14
  -2  -6  -2 1117.56 77.0274  59
  -2  -6  -2 1156.32 91.0472  52
  -2  -6  -1 14782.1 275.235  50
  -2  -6  -1 15422.1 317.736  52
  -2  -6   0 18751.9 268.607  70
  -2  -6   0 18677.4 354.321  59
  -2  -6   0 18454.6 329.121  50
  -2  -6   1 48123.2 674.311  25
  -2  -6   1 47733.8 575.238  70
  -2  -6   1 47960.6 588.374  56
  -2  -6   2 46347.3 640.401  25
  -2  -6   2 45452.1 558.831  70
  -2  -6   2 43802.2 676.612  59
  -2  -6   2 44490.7 651.195  50
  -2  -6   3 27203.5 435.767  25
  -2  -6   3 28242.5 398.826  70
  -2  -6   3 27727.3 476.689  50
  -2  -6   3 28518.4 507.142  59
  -2  -6   4 21318.8 340.851  70
  -2  -6   4 21273.8 284.349  78
  -2  -6   4 21780.7 345.652  69
  -2  -6   4 21705.9 415.872  50
  -2  -6   5 17475.4 354.567  41
  -2  -6   5 18178.6 311.155  69
  -2  -6   5 17491.3 247.497  78
  -2  -6   5 18078.4 373.634  50
  -2  -6   6 4111.09 93.7714  78
  -2  -6   6 4437.13 137.202  69
  -2  -6   6 4257.25 166.390  50
  -2  -6   7 4911.54 173.924  74
  -2  -6   8 597.708 58.0757  74
  -2  -6   9 252.484 24.5683  74
  -2  -5  -8 248.121 34.6848  32
  -2  -5  -8 229.622 36.7496  27
  -2  -5  -8 188.068 32.4708  63
  -2  -5  -8 244.362 34.7785  56
  -2  -5  -7 2801.41 105.446  14
  -2  -5  -7 2630.28 106.539  63
  -2  -5  -6 2157.77 102.801  14
  -2  -5  -6 2213.15 107.950  63
  -2  -5  -5 76805.0 913.975  14
  -2  -5  -5 77147.9 933.737  63
  -2  -5  -4 14607.4 272.318  14
  -2  -5  -4 14546.5 286.411  21
  -2  -5  -4 14638.0 283.512  63
  -2  -5  -4 14586.9 300.013  52
  -2  -5  -3 7832.74 192.720  21
  -2  -5  -3 7673.09 183.098  14
  -2  -5  -3 8115.62 193.496  63
  -2  -5  -3 7596.47 200.174  52
  -2  -5  -3 7602.22 171.131  59
  -2  -5  -2 2780.79 109.643  63
  -2  -5  -2 2931.22 107.146  59
  -2  -5  -2 2889.17 122.689  52
  -2  -5  -1 15324.2 231.132  32
  -2  -5  -1 15913.8 268.286  14
  -2  -5  -1 15507.5 275.653  63
  -2  -5  -1 15268.7 213.734  70
  -2  -5  -1 15100.5 280.562  59
  -2  -5  -1 15058.2 291.580  52
  -2  -5  -1 15310.1 258.751  50
  -2  -5   0 72615.8 795.424  27
  -2  -5   0 73137.4 1143.60   1
  -2  -5   0 74372.0 788.837  70
  -2  -5   0 72216.6 861.520  50
  -2  -5   0 72271.4 882.323  59
  -2  -5   1 46400.1 626.429  25
  -2  -5   1 46577.3 615.410  50
  -2  -5   1 46609.8 634.070  59
  -2  -5   2 14976.7 238.432  70
  -2  -5   2 15087.6 217.327  79
  -2  -5   2 15259.8 297.656  50
  -2  -5   2 14511.3 309.814  59
  -2  -5   3 15977.0 299.975  25
  -2  -5   3 15963.0 257.659  70
  -2  -5   3 16196.9 238.260  79
  -2  -5   3 15815.5 338.603  59
  -2  -5   3 15775.5 320.260  50
  -2  -5   4 23474.5 346.631  70
  -2  -5   4 22778.2 351.868  69
  -2  -5   4 23780.8 423.695  50
  -2  -5   5 2362.81 117.596  41
  -2  -5   5 2422.64 99.1786  70
  -2  -5   5 2338.65 83.7164  78
  -2  -5   5 2220.53 101.286  69
  -2  -5   5 2278.58 129.541  50
  -2  -5   6 6669.85 150.150  78
  -2  -5   6 6569.85 215.905  50
  -2  -5   7 7100.02 223.035  74
  -2  -5   7 7083.17 180.133  69
  -2  -5   7 7087.01 145.359  78
  -2  -5   8 246.149 53.1058  74
  -2  -5   9 659.893 51.9524  74
  -2  -4  -8 1172.69 69.4554  27
  -2  -4  -8 1152.40 63.8479  14
  -2  -4  -8 1151.10 63.3312  63
  -2  -4  -8 1124.20 65.2468  56
  -2  -4  -7 2319.24 99.1955  14
  -2  -4  -6 3432.76 119.105  21
  -2  -4  -6 3379.64 124.799  14
  -2  -4  -6 3300.07 128.585  63
  -2  -4  -5 45281.6 596.404  14
  -2  -4  -5 45703.6 595.266  21
  -2  -4  -5 46732.2 612.908  63
  -2  -4  -5 46220.1 616.731  52
  -2  -4  -4 4229.88 128.597  21
  -2  -4  -4 4127.03 126.344  14
  -2  -4  -4 4051.67 135.701  63
  -2  -4  -4 3922.63 133.898  52
  -2  -4  -3 15616.2 259.787  14
  -2  -4  -3 15194.2 270.213  63
  -2  -4  -3 14976.4 240.990  59
  -2  -4  -3 15888.3 285.075  52
  -2  -4  -2 106619. 1837.03   7
  -2  -4  -2 106680. 1165.10  21
  -2  -4  -2 105304. 1147.29  14
  -2  -4  -2 107171. 1664.25   3
  -2  -4  -2 109365. 1157.54  63
  -2  -4  -2 106707. 1178.08  52
  -2  -4  -2 105197. 1143.15  59
  -2  -4  -1 59524.5 687.601  14
  -2  -4  -1 60019.0 1594.53  10
  -2  -4  -1 60536.6 695.434  63
  -2  -4  -1 58987.2 697.947  59
  -2  -4  -1 60000.9 717.877  52
  -2  -4  -1 57888.1 677.808  50
  -2  -4   0 15145.5 210.668  32
  -2  -4   0 16347.6 228.697  27
  -2  -4   0 15767.0 247.425  14
  -2  -4   0 15118.9 758.771  10
  -2  -4   0 15375.7 250.956  63
  -2  -4   0 14663.7 260.219  59
  -2  -4   0 15329.4 254.330  50
  -2  -4   1 15662.2 414.808   4
  -2  -4   1 17614.3 361.818   1
  -2  -4   1 17103.2 808.758  10
  -2  -4   1 16976.6 285.264  25
  -2  -4   1 17163.9 283.155  50
  -2  -4   1 16890.6 291.018  59
  -2  -4   2 16058.1 282.625  50
  -2  -4   2 16069.7 295.130  59
  -2  -4   3 22287.9 303.259  29
  -2  -4   3 22188.2 340.979  25
  -2  -4   3 21704.6 295.725  79
  -2  -4   3 22722.9 305.286  70
  -2  -4   3 22632.5 367.028  50
  -2  -4   4 15922.8 257.773  70
  -2  -4   4 16321.9 318.655  50
  -2  -4   5 2518.97 109.265  41
  -2  -4   5 2570.10 99.5351  69
  -2  -4   5 2377.50 90.6592  70
  -2  -4   5 2389.58 121.710  50
  -2  -4   6 14272.2 252.820  70
  -2  -4   6 14703.3 271.687  69
  -2  -4   7 9170.16 184.784  78
  -2  -4   7 8970.24 229.804  50
  -2  -4   8 3090.05 135.066  74
  -2  -4   8 3266.38 96.6184  78
  -2  -4   9 211.246 44.1516  74
  -2  -4  10 2991.55 70.7739  74
  -2  -3  -9 217.352 31.7151  32
  -2  -3  -9 193.683 29.5637  27
  -2  -3  -8 1315.44 67.0685  14
  -2  -3  -8 1461.76 70.0107  63
  -2  -3  -8 1412.69 71.1527  56
  -2  -3  -7 5427.02 154.472  63
  -2  -3  -7 5772.02 171.828  56
  -2  -3  -6 50816.5 617.102  21
  -2  -3  -6 49797.6 630.377  14
  -2  -3  -6 48867.6 641.430  63
  -2  -3  -5 7853.20 168.986  21
  -2  -3  -5 7521.29 170.333  14
  -2  -3  -5 7640.61 179.950  63
  -2  -3  -5 7625.17 178.034  52
  -2  -3  -4 9946.69 191.830  14
  -2  -3  -4 10046.8 190.847  21
  -2  -3  -3 1863.53 70.3401  41
  -2  -3  -3 1971.10 72.6586  14
  -2  -3  -3 2022.35 75.3739  21
  -2  -3  -3 2054.54 78.1428  63
  -2  -3  -3 1904.42 80.9824  52
  -2  -3  -2 10651.6 462.794   7
  -2  -3  -2 9603.00 430.290   6
  -2  -3  -2 10302.0 182.033  21
  -2  -3  -2 9844.28 174.823  14
  -2  -3  -2 9619.92 179.119  63
  -2  -3  -2 10039.0 164.371  59
  -2  -3  -2 10123.1 188.684  52
  -2  -3  -1 331104. 3977.10   6
  -2  -3  -1 332214. 3286.14  14
  -2  -3  -1 337655. 3296.30  63
  -2  -3  -1 333398. 3280.74  50
  -2  -3  -1 334785. 3285.28  59
  -2  -3  -1 326292. 3310.84  52
  -2  -3   0 274962. 2690.65  32
  -2  -3   0 268595. 2701.59  27
  -2  -3   0 275778. 2723.60  14
  -2  -3   0 278430. 3336.98   6
  -2  -3   0 272061. 3817.97  10
  -2  -3   0 274913. 2726.54  63
  -2  -3   1 12737.4 370.902   4
  -2  -3   1 13995.7 465.958   6
  -2  -3   1 13966.8 640.836  10
  -2  -3   1 12644.3 219.062  25
  -2  -3   1 13155.5 197.167  56
  -2  -3   1 13071.4 219.267  50
  -2  -3   1 13183.6 224.626  59
  -2  -3   2 70851.7 819.206  25
  -2  -3   2 73477.0 838.042  59
  -2  -3   2 71945.5 823.660  50
  -2  -3   3 70479.6 812.900  25
  -2  -3   3 72051.2 781.707  29
  -2  -3   3 72979.7 837.815  41
  -2  -3   3 71112.5 838.164  50
  -2  -3   4 3873.96 124.155  41
  -2  -3   4 4015.87 100.327  67
  -2  -3   4 3948.45 105.003  72
  -2  -3   4 3772.43 102.252  79
  -2  -3   4 3789.01 99.0403  70
  -2  -3   4 4068.13 132.795  50
  -2  -3   5 17234.9 293.454  41
  -2  -3   5 16946.6 264.543  67
  -2  -3   5 17511.3 267.717  72
  -2  -3   5 16635.0 270.930  69
  -2  -3   5 17428.5 322.075  50
  -2  -3   6 11850.4 215.955  67
  -2  -3   6 11456.5 225.472  75
  -2  -3   6 11372.2 271.660  74
  -2  -3   6 11216.1 206.374  72
  -2  -3   6 11068.7 203.822  70
  -2  -3   6 11053.0 221.824  69
  -2  -3   6 11399.8 213.375  78
  -2  -3   7 6135.79 158.795  75
  -2  -3   7 5843.84 195.931  74
  -2  -3   7 6184.79 139.584  72
  -2  -3   7 5821.67 158.513  69
  -2  -3   7 5733.62 145.516  67
  -2  -3   7 6079.56 151.795  78
  -2  -3   8 5750.80 185.659  74
  -2  -3   8 6078.04 143.396  78
  -2  -3   9 45.4566 42.1216  74
  -2  -3  10 2816.94 79.8369  74
  -2  -2  -9 440.328 38.0079  27
  -2  -2  -8 1460.49 66.9015  14
  -2  -2  -8 1421.66 64.8508  63
  -2  -2  -7 14024.0 246.679  14
  -2  -2  -7 13847.3 251.040  63
  -2  -2  -7 14110.2 271.699  56
  -2  -2  -6 31369.3 406.839  21
  -2  -2  -6 32890.1 446.237  63
  -2  -2  -5 7024.60 142.435  21
  -2  -2  -5 7053.46 152.171  14
  -2  -2  -5 7134.80 151.679  52
  -2  -2  -4 38828.4 464.648  21
  -2  -2  -4 39116.6 484.659  52
  -2  -2  -3 9633.22 446.568   7
  -2  -2  -3 9514.40 467.443   8
  -2  -2  -3 8943.07 152.674  21
  -2  -2  -3 8764.77 154.939  14
  -2  -2  -3 8539.53 534.905   9
  -2  -2  -3 8953.00 162.120  63
  -2  -2  -3 8834.24 163.537  52
  -2  -2  -2 150065. 1526.74  41
  -2  -2  -2 147768. 2120.39   8
  -2  -2  -2 150228. 2107.64   7
  -2  -2  -2 149727. 1512.02  14
  -2  -2  -2 148747. 1521.39  63
  -2  -2  -2 149717. 1529.58  52
  -2  -2  -1 36516.9 420.691  14
  -2  -2  -1 36868.0 434.699  52
  -2  -2   0 9170.14 151.007  63
  -2  -2   0 8888.88 154.740  50
  -2  -2   1 51649.0 595.825  25
  -2  -2   1 52435.0 598.846  59
  -2  -2   1 52590.7 595.992  50
  -2  -2   2 38022.6 451.044  25
  -2  -2   2 37702.1 460.802  41
  -2  -2   2 37604.5 457.905  50
  -2  -2   3 9135.22 180.389  41
  -2  -2   3 8946.69 181.721  50
  -2  -2   4 117699. 1270.87  41
  -2  -2   4 119865. 1254.06  72
  -2  -2   4 118979. 1187.90  61
  -2  -2   4 118259. 1231.11  79
  -2  -2   4 119165. 1286.18  50
  -2  -2   4 116715. 1174.91  54
  -2  -2   5 24803.3 392.597  74
  -2  -2   5 23750.5 357.532  67
  -2  -2   5 24645.7 353.452  72
  -2  -2   5 24146.6 318.553  70
  -2  -2   5 24389.2 337.883  69
  -2  -2   5 23824.5 287.345  54
  -2  -2   6 3514.66 117.294  75
  -2  -2   6 3635.39 143.925  74
  -2  -2   6 3653.98 121.352  67
  -2  -2   6 3584.57 98.0894  70
  -2  -2   6 3371.05 107.624  78
  -2  -2   6 3702.43 128.543  50
  -2  -2   6 3412.37 80.0559  54
  -2  -2   7 9691.99 209.831  75
  -2  -2   7 9643.84 213.263  67
  -2  -2   7 9534.29 247.444  74
  -2  -2   7 10101.9 194.731  72
  -2  -2   7 9684.84 199.419  78
  -2  -2   7 9750.19 200.254  69
  -2  -2   7 9783.91 154.212  54
  -2  -2   8 4124.66 129.537  67
  -2  -2   8 4254.30 126.705  75
  -2  -2   8 4434.87 161.112  74
  -2  -2   8 4451.37 108.527  72
  -2  -2   8 4346.00 124.970  78
  -2  -2   9 3849.48 129.136  74
  -2  -2  10 223.264 31.3017  74
  -2  -1  -9 720.552 46.7280  32
  -2  -1  -9 736.428 42.4182  27
  -2  -1  -8 3477.66 113.610  27
  -2  -1  -7 62799.1 718.722  14
  -2  -1  -7 62083.9 722.315  63
  -2  -1  -7 63098.2 749.588  56
  -2  -1  -6 37888.5 473.920  14
  -2  -1  -6 37625.6 482.278  63
  -2  -1  -5 165296. 1707.92  63
  -2  -1  -5 169390. 2377.52   6
  -2  -1  -5 167160. 1694.92  14
  -2  -1  -4 115543. 1208.78  63
  -2  -1  -4 116619. 2148.81   8
  -2  -1  -4 116460. 2324.46   9
  -2  -1  -4 116156. 1182.39  21
  -2  -1  -3 137286. 1381.95  21
  -2  -1  -3 138855. 2211.45   8
  -2  -1  -3 139595. 2032.69   7
  -2  -1  -3 139468. 2405.29   9
  -2  -1  -2 733964. 7027.37  63
  -2  -1  -2 723581. 7019.26  14
  -2  -1  -2 716964. 8026.08   9
  -2  -1  -1 1723.10 49.3456  32
  -2  -1  -1 1508.80 48.1183  14
  -2  -1  -1 1790.81 154.556   8
  -2  -1  -1 1621.47 171.891   9
  -2  -1  -1 1462.43 49.3515  63
  -2  -1   0 13056.3 335.931   8
  -2  -1   0 12889.4 415.849   9
  -2  -1   1 279233. 3151.65   4
  -2  -1   1 288219. 2844.14  25
  -2  -1   1 291067. 3105.80   9
  -2  -1   1 288365. 2852.41  41
  -2  -1   1 289644. 2847.16  50
  -2  -1   2 231047. 2301.09  25
  -2  -1   2 230376. 2310.17  41
  -2  -1   2 231692. 2282.14  29
  -2  -1   2 229281. 2307.59  50
  -2  -1   3 78031.5 1062.65   1
  -2  -1   3 75528.9 1004.59   6
  -2  -1   3 78741.2 825.861  29
  -2  -1   3 77901.5 858.865  50
  -2  -1   4 208357. 2057.33  61
  -2  -1   5 7416.88 121.257  61
  -2  -1   5 7353.32 155.466  75
  -2  -1   5 7127.43 173.977  67
  -2  -1   5 7327.88 143.394  73
  -2  -1   5 7276.83 170.089  72
  -2  -1   5 7373.71 128.115  54
  -2  -1   6 7666.89 172.614  75
  -2  -1   6 7808.76 201.541  74
  -2  -1   6 7532.63 158.457  73
  -2  -1   6 7495.23 121.917  61
  -2  -1   6 7701.96 137.446  70
  -2  -1   6 8054.42 159.326  69
  -2  -1   6 7642.44 193.786  67
  -2  -1   6 7788.13 163.159  78
  -2  -1   6 7543.82 138.979  54
  -2  -1   7 20596.8 330.178  75
  -2  -1   7 19797.8 309.510  73
  -2  -1   7 20538.7 327.649  72
  -2  -1   7 20561.0 303.140  69
  -2  -1   7 20468.2 316.547  78
  -2  -1   7 20551.0 358.062  67
  -2  -1   7 20816.4 373.076  74
  -2  -1   7 20414.4 277.073  54
  -2  -1   8 1057.57 80.2969  67
  -2  -1   8 924.573 56.6258  72
  -2  -1   8 953.312 68.5147  75
  -2  -1   8 1033.30 84.9199  74
  -2  -1   8 1012.91 65.5394  78
  -2  -1   9 2796.74 107.093  74
  -2  -1   9 2809.48 100.286  67
  -2  -1   9 2583.98 85.2458  75
  -2   0  -9 4950.68 114.268  24
  -2   0  -9 4700.98 102.371  32
  -2   0  -8 3842.74 114.552  32
  -2   0  -8 3848.06 109.524  27
  -2   0  -7 19296.2 310.887  27
  -2   0  -6 5630.13 120.510  14
  -2   0  -6 5771.71 124.597  63
  -2   0  -6 5677.13 140.861  56
  -2   0  -5 7068.63 129.409  14
  -2   0  -5 6939.74 134.891  63
  -2   0  -5 6909.24 157.381  56
  -2   0  -4 98800.6 1975.88   8
  -2   0  -4 96823.0 998.413  14
  -2   0  -4 96825.7 1645.88   7
  -2   0  -4 95224.2 1007.44  63
  -2   0  -4 98688.3 1049.05  56
  -2   0  -3 113037. 1688.85   7
  -2   0  -3 109237. 1109.86  14
  -2   0  -3 110020. 1989.90   9
  -2   0  -3 109652. 1117.97  63
  -2   0  -2 257704. 2874.55  12
  -2   0  -2 268158. 3416.50   9
  -2   0  -2 262652. 2584.79  27
  -2   0  -2 263128. 2601.20  56
  -2   0  -1 16795.4 436.882  12
  -2   0  -1 16692.8 530.645   9
  -2   0   0 116630. 1566.87   4
  -2   0   0 119073. 1646.46  12
  -2   0   1 45187.8 746.038   4
  -2   0   1 44016.8 902.169  12
  -2   0   1 44462.9 544.006   3
  -2   0   2 132279. 1610.71   1
  -2   0   2 128178. 1305.31  29
  -2   0   4 112391. 1206.88  49
  -2   0   5 1425.48 50.8175  61
  -2   0   5 1384.53 62.1991  73
  -2   0   5 1328.04 55.0510  54
  -2   0   5 1399.31 78.1230  49
  -2   0   6 27912.5 352.952  69
  -2   0   6 27360.8 422.506  74
  -2   0   6 27844.1 387.167  73
  -2   0   6 27231.3 442.848  67
  -2   0   6 28317.2 339.954  61
  -2   0   6 27659.7 373.316  78
  -2   0   6 27918.9 366.848  54
  -2   0   6 27429.2 440.503  49
  -2   0   7 11494.8 251.631  74
  -2   0   7 11808.0 268.302  67
  -2   0   7 11701.6 241.739  72
  -2   0   7 11832.3 212.782  78
  -2   0   7 11812.4 226.315  73
  -2   0   7 11623.7 202.405  54
  -2   0   8 29882.1 422.369  75
  -2   0   8 31321.5 411.503  78
  -2   0   8 31355.0 433.848  73
  -2   0   8 31657.3 488.257  67
  -2   0   8 30817.7 423.492  72
  -2   0   8 31595.2 467.173  74
  -2   0   9 758.898 63.8496  67
  -2   0   9 789.804 52.0741  75
  -2   0   9 761.664 60.3263  74
  -2   0  10 2184.08 69.8419  67
  -2   1  -9 7175.97 133.393  23
  -2   1  -8 7576.37 166.085  24
  -2   1  -8 7418.82 148.013  32
  -2   1  -7 213.706 36.6304  32
  -2   1  -7 250.427 33.3829  27
  -2   1  -6 5183.32 128.798  32
  -2   1  -6 4917.51 127.016  27
  -2   1  -5 6663.75 139.929  27
  -2   1  -5 6153.97 133.521  56
  -2   1  -4 193917. 2350.58  13
  -2   1  -4 192143. 1962.59  27
  -2   1  -4 197908. 1969.50  56
  -2   1  -3 17233.1 444.552  13
  -2   1  -3 16912.1 232.770  27
  -2   1  -3 17102.6 240.457  56
  -2   1  -2 5062.72 277.223   4
  -2   1  -2 5115.76 93.2787  32
  -2   1  -1 198376. 2386.83   4
  -2   1  -1 194732. 1929.52  24
  -2   1  -1 195131. 1926.20  23
  -2   1   0 81837.1 1195.45   4
  -2   1   1 154205. 2225.70  12
  -2   1   1 159489. 1798.07   3
  -2   1   2 42663.3 1000.66  12
  -2   1   2 42412.6 767.347   1
  -2   1   2 43389.4 467.134  55
  -2   1   2 43435.2 456.947  44
  -2   1   3 83385.5 874.082  18
  -2   1   3 82406.6 1301.56   8
  -2   1   3 85204.2 880.441  61
  -2   1   3 85782.2 872.237  44
  -2   1   4 26112.7 312.500  61
  -2   1   4 26284.5 372.935  49
  -2   1   4 26290.1 328.414  53
  -2   1   5 17599.0 267.557  73
  -2   1   5 16916.1 317.750  68
  -2   1   5 17282.6 308.849  49
  -2   1   5 17225.2 265.423  53
  -2   1   6 65806.1 747.532  75
  -2   1   6 64270.9 779.557  74
  -2   1   6 64606.5 764.498  73
  -2   1   6 64464.9 710.205  61
  -2   1   6 64946.4 843.871  68
  -2   1   6 64368.3 838.168  49
  -2   1   7 10365.7 218.253  73
  -2   1   7 9949.80 259.395  67
  -2   1   7 10412.4 237.124  72
  -2   1   7 10233.3 203.422  75
  -2   1   7 10541.6 191.159  78
  -2   1   7 10354.6 222.270  74
  -2   1   7 10662.9 206.145  54
  -2   1   8 1020.54 75.6762  73
  -2   1   8 1099.54 89.3082  67
  -2   1   8 1223.66 71.8849  72
  -2   1   8 1049.62 65.5697  75
  -2   1   8 1177.11 60.1183  78
  -2   1   8 1090.51 74.4825  74
  -2   1   9 3739.43 128.773  67
  -2   1   9 3505.06 110.222  73
  -2   1  10 2530.85 76.3715  67
  -2   2  -9 2694.12 67.2723  48
  -2   2  -8 4121.18 99.3750  24
  -2   2  -8 4212.33 108.901  23
  -2   2  -7 3613.84 113.850  23
  -2   2  -7 3694.24 110.447  24
  -2   2  -6 2618.43 80.8398  32
  -2   2  -5 4540.83 104.231  27
  -2   2  -5 4685.23 105.339  32
  -2   2  -4 113306. 1816.29   4
  -2   2  -4 113500. 1173.09  27
  -2   2  -4 115125. 1168.69  32
  -2   2  -4 111476. 1165.19  55
  -2   2  -3 18768.0 567.720   4
  -2   2  -3 18874.1 242.136  32
  -2   2  -3 18974.2 246.230  27
  -2   2  -3 18973.5 248.379  55
  -2   2  -2 7113.16 312.002   4
  -2   2  -2 6756.20 117.290  23
  -2   2  -2 6638.72 303.871  13
  -2   2  -2 7174.77 427.989  11
  -2   2  -2 6862.14 120.127  24
  -2   2  -2 6692.57 108.262  32
  -2   2  -2 6649.04 116.104  55
  -2   2  -1 61166.6 1004.41   4
  -2   2  -1 57831.2 1048.30  13
  -2   2  -1 60106.3 630.494  24
  -2   2  -1 61237.4 1235.49  11
  -2   2  -1 59752.0 625.786  23
  -2   2  -1 59460.3 634.563  55
  -2   2   0 83739.6 1246.70   4
  -2   2   0 87575.0 1417.82  11
  -2   2   0 86816.6 871.120  24
  -2   2   0 85646.0 858.916  33
  -2   2   0 85325.5 880.316  55
  -2   2   0 86568.5 866.395  48
  -2   2   0 85245.4 854.661  58
  -2   2   1 529675. 5702.28   1
  -2   2   1 530731. 5571.24   3
  -2   2   1 547099. 5257.58  55
  -2   2   2 56259.8 592.161  34
  -2   2   2 55994.0 609.247  42
  -2   2   2 58369.3 993.067   1
  -2   2   2 57420.5 1253.79  12
  -2   2   2 55760.7 602.978  61
  -2   2   2 57780.3 594.137  44
  -2   2   3 274890. 2755.98  39
  -2   2   3 275681. 2762.24  42
  -2   2   3 278775. 2725.60  34
  -2   2   3 274970. 3770.99  12
  -2   2   3 277388. 3452.18   8
  -2   2   3 277678. 2726.75  61
  -2   2   3 278982. 2728.06  44
  -2   2   4 2086.45 81.8486  39
  -2   2   4 2049.86 65.0563  61
  -2   2   4 2130.84 97.6190  68
  -2   2   4 2174.42 95.1854  49
  -2   2   5 14851.8 245.145  73
  -2   2   5 14657.4 301.935  68
  -2   2   5 14947.7 210.982  78
  -2   2   5 14628.9 218.067  61
  -2   2   5 14793.6 223.439  75
  -2   2   5 14996.9 295.537  49
  -2   2   5 14417.2 256.601  53
  -2   2   6 58802.3 661.145  61
  -2   2   6 59526.1 711.501  73
  -2   2   6 58780.8 674.872  75
  -2   2   6 59073.2 655.845  78
  -2   2   6 59330.1 799.577  49
  -2   2   6 57555.6 724.315  53
  -2   2   7 33812.5 476.612  73
  -2   2   7 33319.6 509.496  72
  -2   2   7 33240.1 414.392  78
  -2   2   7 33721.8 438.140  75
  -2   2   7 34144.0 555.189  49
  -2   2   8 15332.2 323.837  67
  -2   2   8 15024.7 274.164  73
  -2   2   8 16043.9 337.084  49
  -2   2   9 1790.71 78.2576  73
  -2   2   9 1675.86 89.0776  67
  -2   2  10 1151.40 50.8960  67
  -2   3  -9 643.915 34.8632  33
  -2   3  -8 983.965 49.3189  48
  -2   3  -7 185.693 27.5016  24
  -2   3  -7 165.869 30.7916  23
  -2   3  -6 24612.2 333.178  24
  -2   3  -6 24588.0 337.997  23
  -2   3  -5 8947.46 167.201  24
  -2   3  -5 9074.20 168.118  23
  -2   3  -4 20837.3 286.677  24
  -2   3  -4 20959.3 285.786  23
  -2   3  -3 31669.3 816.149  13
  -2   3  -3 31962.4 721.328   4
  -2   3  -3 32390.8 1125.32  11
  -2   3  -3 31826.4 353.837  32
  -2   3  -3 31332.7 357.273  55
  -2   3  -2 124871. 1253.38  23
  -2   3  -2 124581. 1257.28  24
  -2   3  -2 128782. 1893.22  13
  -2   3  -2 121970. 1698.69   4
  -2   3  -2 128436. 2285.58  11
  -2   3  -2 123134. 1247.15  55
  -2   3  -2 123536. 1259.80  48
  -2   3  -1 52220.0 1062.55  13
  -2   3  -1 52189.4 1220.86  11
  -2   3  -1 52472.3 552.052  24
  -2   3  -1 51721.6 544.605  33
  -2   3  -1 49773.9 550.336  48
  -2   3   0 43879.0 459.820  33
  -2   3   0 41688.7 967.273  13
  -2   3   0 43209.8 811.519   1
  -2   3   0 43877.6 1011.27  11
  -2   3   0 43400.2 787.433   3
  -2   3   0 42947.9 471.504  15
  -2   3   0 42952.3 454.590  22
  -2   3   0 42148.2 464.908  61
  -2   3   0 44590.1 469.269  62
  -2   3   0 43579.7 457.154  58
  -2   3   0 42839.1 466.816  48
  -2   3   1 27334.8 630.574   3
  -2   3   1 28476.6 355.680  15
  -2   3   1 27981.0 730.201  11
  -2   3   1 27914.1 671.569   1
  -2   3   1 27725.6 355.396  22
  -2   3   1 27253.6 358.640  61
  -2   3   1 27374.5 353.831  44
  -2   3   2 48701.6 555.196  39
  -2   3   2 50152.1 559.655  42
  -2   3   2 48176.7 532.126  34
  -2   3   2 49357.2 537.416  18
  -2   3   2 49947.3 1238.82  12
  -2   3   2 47904.9 888.885  11
  -2   3   2 47802.4 533.842  61
  -2   3   2 49154.0 531.592  44
  -2   3   3 17758.9 266.193  39
  -2   3   3 16556.5 234.111  34
  -2   3   3 16712.1 245.888  18
  -2   3   3 17073.4 509.400   6
  -2   3   3 16073.4 640.426   8
  -2   3   3 16455.5 227.806  61
  -2   3   3 16576.2 234.607  44
  -2   3   4 47863.9 611.310  39
  -2   3   4 48594.0 949.775   6
  -2   3   4 47290.5 652.586  68
  -2   3   4 48990.7 567.533  73
  -2   3   4 47877.3 546.234  61
  -2   3   4 48709.3 644.990  49
  -2   3   5 5683.68 190.783  68
  -2   3   5 6079.20 146.194  73
  -2   3   5 5840.80 129.353  61
  -2   3   5 6182.22 191.632  49
  -2   3   6 9095.59 198.464  73
  -2   3   6 8962.87 145.868  78
  -2   3   6 9050.99 254.718  68
  -2   3   6 9205.03 258.001  49
  -2   3   6 9017.52 218.009  53
  -2   3   7 15888.0 280.592  73
  -2   3   7 15343.1 348.084  68
  -2   3   7 15162.8 290.399  53
  -2   3   7 15851.0 349.084  49
  -2   3   8 2905.78 105.814  73
  -2   3   8 2786.43 130.532  67
  -2   3   8 2769.22 136.167  49
  -2   3   9 238.499 38.9747  73
  -2   3   9 178.440 41.8185  67
  -2   3  10 57.5446 18.8111  67
  -2   4  -9 1103.96 39.1058  22
  -2   4  -9 1080.71 37.3168  58
  -2   4  -8 272.627 31.5294  33
  -2   4  -8 255.441 26.6441  62
  -2   4  -7 409.709 34.7767  15
  -2   4  -7 430.492 40.0945  62
  -2   4  -7 476.181 37.8749  48
  -2   4  -6 94.4408 21.3974  24
  -2   4  -6 81.3726 32.3484  48
  -2   4  -5 33091.9 401.839  24
  -2   4  -5 34117.0 404.728  23
  -2   4  -4 15301.4 215.758  24
  -2   4  -4 15093.6 216.342  23
  -2   4  -3 12922.0 189.379  24
  -2   4  -3 12609.8 193.243  33
  -2   4  -3 12551.6 195.712  48
  -2   4  -2 25526.1 306.994  33
  -2   4  -2 25419.7 597.009   1
  -2   4  -2 25021.7 318.925  15
  -2   4  -2 25144.9 315.673  62
  -2   4  -2 24131.9 307.742  48
  -2   4  -1 169751. 1674.34  33
  -2   4  -1 168114. 1666.81  22
  -2   4  -1 175128. 2534.46  13
  -2   4  -1 171665. 2785.58  11
  -2   4  -1 169939. 2163.72   1
  -2   4  -1 167357. 2225.30   3
  -2   4  -1 166576. 1688.76  15
  -2   4  -1 168494. 1652.24  61
  -2   4  -1 162880. 1685.77  62
  -2   4  -1 166663. 1671.48  58
  -2   4  -1 173516. 1679.13  48
  -2   4   0 345643. 3416.68  33
  -2   4   0 351001. 3414.57  39
  -2   4   0 343400. 3412.41  22
  -2   4   0 335178. 3979.83   1
  -2   4   0 360993. 3429.77  15
  -2   4   0 342113. 4396.34  13
  -2   4   0 370690. 4050.87   3
  -2   4   0 343461. 4464.46  11
  -2   4   0 360879. 3425.46  62
  -2   4   0 345527. 3408.78  61
  -2   4   0 360199. 3417.08  44
  -2   4   0 342370. 3416.48  58
  -2   4   1 34362.4 398.192  15
  -2   4   1 34896.7 933.198  11
  -2   4   1 34334.5 799.021   1
  -2   4   1 35231.5 385.665  35
  -2   4   1 33942.3 395.597  34
  -2   4   1 34193.2 401.461  39
  -2   4   1 33461.2 396.349  44
  -2   4   2 68132.4 765.962  42
  -2   4   2 68307.6 739.304  34
  -2   4   2 67497.5 745.639  18
  -2   4   2 67650.0 1269.88  11
  -2   4   2 68741.1 726.948  61
  -2   4   2 68205.8 737.948  44
  -2   4   3 6032.58 131.758  34
  -2   4   3 6386.38 159.355  42
  -2   4   3 6132.90 138.260  18
  -2   4   3 5883.25 120.150  61
  -2   4   3 6213.00 131.947  44
  -2   4   4 8673.76 213.136  39
  -2   4   4 9152.06 220.301  42
  -2   4   4 9327.29 171.016  73
  -2   4   4 9089.93 164.094  61
  -2   4   5 46099.6 641.578  39
  -2   4   5 46925.2 545.266  61
  -2   4   5 44922.0 562.930  73
  -2   4   5 45811.7 675.136  49
  -2   4   6 25874.0 489.245  68
  -2   4   6 26433.9 487.715  49
  -2   4   6 26342.7 437.469  53
  -2   4   7 2111.73 90.7893  73
  -2   4   7 2051.33 126.722  68
  -2   4   8 1177.38 64.3515  73
  -2   4   8 1187.84 86.8749  49
  -2   4   9 358.187 33.6721  73
  -2   4   9 348.542 41.6224  67
  -2   5  -8 771.394 38.3338  22
  -2   5  -8 863.030 35.6281  33
  -2   5  -8 807.492 38.4092  58
  -2   5  -7 1281.04 54.5545  33
  -2   5  -7 1128.07 45.4556  15
  -2   5  -7 1213.56 51.2597  62
  -2   5  -7 1173.12 55.0859  58
  -2   5  -6 5064.99 115.373  15
  -2   5  -6 5346.65 121.731  62
  -2   5  -6 5117.10 109.635  48
  -2   5  -5 132.140 32.9069  33
  -2   5  -5 152.024 32.6925  15
  -2   5  -5 165.327 35.6210  62
  -2   5  -5 251.874 32.6223  48
  -2   5  -4 4720.77 112.938  33
  -2   5  -4 4604.59 116.651  15
  -2   5  -4 4868.70 118.162  62
  -2   5  -4 4609.14 109.701  58
  -2   5  -3 4627.72 105.807  33
  -2   5  -3 4440.65 100.649  22
  -2   5  -3 4518.65 111.600  15
  -2   5  -3 4853.17 113.119  62
  -2   5  -3 4697.16 105.478  48
  -2   5  -3 4503.70 104.875  58
  -2   5  -2 28909.0 353.502  39
  -2   5  -2 30008.4 358.318  33
  -2   5  -2 29748.4 372.013  15
  -2   5  -2 29890.3 368.933  62
  -2   5  -2 29052.8 355.875  58
  -2   5  -1 74908.5 771.793  39
  -2   5  -1 71976.8 776.363  33
  -2   5  -1 74329.0 1235.88   1
  -2   5  -1 72537.3 770.489  22
  -2   5  -1 73735.8 790.005  15
  -2   5  -1 74021.0 786.088  62
  -2   5  -1 72187.5 766.720  44
  -2   5   0 138038. 1423.30  39
  -2   5   0 141801. 1399.18  35
  -2   5   0 141777. 1418.44  34
  -2   5   0 139156. 1422.57  22
  -2   5   0 138079. 1429.91  15
  -2   5   0 138348. 1393.89  61
  -2   5   0 138623. 1421.02  58
  -2   5   1 38370.2 472.648  39
  -2   5   1 39531.3 449.142  35
  -2   5   1 38602.9 457.783  34
  -2   5   1 38462.9 467.086  18
  -2   5   1 39189.0 466.966  15
  -2   5   1 38166.3 438.222  61
  -2   5   1 38141.9 455.099  44
  -2   5   2 14744.1 252.645  39
  -2   5   2 14484.8 252.449  42
  -2   5   2 14796.5 232.565  34
  -2   5   2 14496.0 238.657  18
  -2   5   2 14905.0 213.798  61
  -2   5   2 14462.8 210.627  65
  -2   5   2 14742.5 230.698  44
  -2   5   3 1519.93 89.6291  39
  -2   5   3 1505.77 86.4922  42
  -2   5   3 1459.52 61.5581  61
  -2   5   3 1545.60 77.7236  18
  -2   5   4 12947.7 282.247  42
  -2   5   4 12346.2 205.005  73
  -2   5   5 11137.6 298.432  68
  -2   5   5 10875.8 198.945  73
  -2   5   5 10538.1 285.234  49
  -2   5   6 1672.84 75.4570  73
  -2   5   6 1718.85 122.583  68
  -2   5   6 1683.63 118.020  49
  -2   5   7 1283.15 65.4051  73
  -2   5   7 1582.67 107.095  68
  -2   5   7 1595.93 106.365  49
  -2   5   8 3485.92 130.084  49
  -2   5   9 1705.59 58.7784  67
  -2   6  -8 753.305 33.6158  39
  -2   6  -7 975.908 44.8910  22
  -2   6  -7 898.998 44.2819  39
  -2   6  -6 3194.82 88.3168  39
  -2   6  -6 3135.62 83.2444  33
  -2   6  -6 2968.39 81.2915  15
  -2   6  -6 3221.99 86.4308  22
  -2   6  -6 3177.03 85.3346  62
  -2   6  -6 3232.67 87.4287  58
  -2   6  -5 1312.22 60.5545  15
  -2   6  -5 1362.83 60.2546  22
  -2   6  -5 1461.77 62.9277  39
  -2   6  -5 1279.71 59.7927  58
  -2   6  -4 5459.39 120.917  39
  -2   6  -4 5402.19 120.787  33
  -2   6  -4 5522.09 121.101  22
  -2   6  -4 5667.78 127.415  62
  -2   6  -4 5185.28 120.907  58
  -2   6  -3 9155.05 166.763  39
  -2   6  -3 9423.00 167.727  33
  -2   6  -3 9304.81 150.432  34
  -2   6  -3 9638.96 180.960  15
  -2   6  -3 9730.37 166.675  22
  -2   6  -3 9579.79 176.447  62
  -2   6  -3 9434.54 146.937  44
  -2   6  -3 9321.94 170.511  58
  -2   6  -2 66842.6 747.783  39
  -2   6  -2 67447.4 731.503  34
  -2   6  -2 67258.6 744.687  22
  -2   6  -2 67539.7 762.927  15
  -2   6  -2 68759.9 760.229  62
  -2   6  -2 68726.1 725.384  44
  -2   6  -2 67477.5 749.340  58
  -2   6  -1 97821.1 1051.88  15
  -2   6  -1 97800.2 1044.54  39
  -2   6  -1 100337. 1027.76  34
  -2   6  -1 99549.2 1040.87  58
  -2   6  -1 100025. 1020.43  44
  -2   6   0 31220.1 412.229  15
  -2   6   0 31651.5 409.376  18
  -2   6   0 31050.0 410.832  39
  -2   6   0 31498.2 386.111  35
  -2   6   0 30569.2 389.352  44
  -2   6   1 40695.2 523.180  39
  -2   6   1 40625.5 524.119  42
  -2   6   1 39572.8 499.540  34
  -2   6   1 40659.3 512.507  18
  -2   6   2 57299.0 705.939  39
  -2   6   2 56628.8 703.263  42
  -2   6   2 54179.1 638.180  65
  -2   6   2 55354.6 680.979  18
  -2   6   3 21389.6 370.335  39
  -2   6   3 20980.4 368.516  42
  -2   6   4 34731.8 540.350  39
  -2   6   4 35410.3 544.650  42
  -2   6   5 1084.83 99.3223  68
  -2   6   5 1087.04 52.4177  73
  -2   6   5 1010.55 91.3977  49
  -2   6   6 3625.11 92.6167  73
  -2   6   6 3928.09 161.736  68
  -2   6   6 3886.41 158.732  49
  -2   6   7 1601.54 54.1935  73
  -2   6   7 1724.59 95.6325  68
  -2   6   7 1715.99 94.7830  49
  -2   6   8 1708.64 69.0795  67
  -2   6   8 1627.83 71.6012  49
  -2   7  -7 3221.53 74.5605  39
  -2   7  -6 719.085 41.7233  22
  -2   7  -6 698.501 42.3514  39
  -2   7  -5 3950.11 99.2145  22
  -2   7  -5 3759.71 97.9031  15
  -2   7  -5 3788.92 98.4613  39
  -2   7  -5 3804.86 97.7744  58
  -2   7  -4 3751.68 103.150  22
  -2   7  -4 3833.69 103.460  39
  -2   7  -4 3778.57 104.475  58
  -2   7  -3 11609.7 202.877  22
  -2   7  -3 11898.9 212.314  15
  -2   7  -3 11672.0 202.109  39
  -2   7  -3 11483.7 201.772  58
  -2   7  -2 9970.19 187.526  22
  -2   7  -2 9908.45 194.536  15
  -2   7  -2 9663.55 164.452  34
  -2   7  -2 9864.91 189.112  39
  -2   7  -2 9723.46 174.046  35
  -2   7  -1 12205.2 219.333  18
  -2   7  -1 12025.8 224.125  39
  -2   7  -1 11978.1 203.325  35
  -2   7  -1 11916.6 199.027  34
  -2   7  -1 11842.8 190.109  44
  -2   7   0 6914.79 169.194  39
  -2   7   0 6870.16 149.215  35
  -2   7   0 6690.31 161.766  18
  -2   7   1 9460.73 215.334  39
  -2   7   1 9230.08 185.217  65
  -2   7   1 9049.98 203.223  18
  -2   7   2 30193.2 461.892  39
  -2   7   2 29729.4 460.428  42
  -2   7   2 29155.7 440.088  18
  -2   7   3 3821.22 148.548  39
  -2   7   3 4074.14 151.594  42
  -2   7   4 7202.53 204.910  39
  -2   7   4 7772.25 226.944  68
  -2   7   5 3561.47 149.871  68
  -2   7   5 3420.39 142.856  49
  -2   7   6 296.036 52.3889  68
  -2   7   6 314.284 49.5758  49
  -2   7   7 74.8759 29.8132  68
  -2   8  -6 165.758 23.4425  39
  -2   8  -5 385.158 36.4751  39
  -2   8  -5 460.095 33.5011  35
  -2   8  -4 564.921 47.3467  39
  -2   8  -4 634.878 41.2734  35
  -2   8  -3 7518.25 160.407  39
  -2   8  -3 7487.64 147.031  35
  -2   8  -3 7303.15 145.789  18
  -2   8  -2 1169.45 70.1857  39
  -2   8  -2 1101.65 58.0194  35
  -2   8  -2 1098.22 60.9314  18
  -2   8  -1 4719.99 141.394  39
  -2   8  -1 4763.57 139.821  42
  -2   8   0 2387.44 105.858  42
  -2   8   0 2417.73 106.176  39
  -2   8   0 2191.07 88.0718  65
  -2   8   0 2270.01 95.9520  18
  -2   8   1 1414.08 89.1836  39
  -2   8   1 1637.06 90.3309  42
  -2   8   2 2745.84 120.841  39
  -2   8   2 2567.12 117.135  42
  -2   8   3 10753.3 244.048  39
  -2   8   3 10756.9 244.550  42
  -2   8   4 1300.66 81.6248  39
  -2   8   4 1220.81 87.6702  68
  -2   8   5 918.206 69.4274  68
  -2   8   6 453.129 40.9536  68
  -2   9  -4 1439.48 60.2391  39
  -2   9  -4 1467.94 60.2424  65
  -2   9  -3 2227.84 80.5956  39
  -2   9  -3 2247.62 80.3783  42
  -2   9  -3 2075.67 77.4728  65
  -2   9  -2 1968.14 81.8914  39
  -2   9  -2 1962.20 81.4954  42
  -2   9  -2 1851.11 75.9569  65
  -2   9  -1 704.893 59.2938  39
  -2   9  -1 727.531 57.3622  42
  -2   9  -1 638.350 47.8498  65
  -2   9   0 5675.85 154.643  39
  -2   9   0 5487.64 151.848  42
  -2   9   1 2208.00 98.7007  39
  -2   9   1 2261.79 98.9939  42
  -2   9   2 598.262 58.2123  42
  -2   9   2 618.506 58.9817  39
  -2   9   3 1605.62 80.5186  39
  -2   9   3 1848.05 90.6733  68
  -2   9   4 512.201 48.8484  68
  -2   9   5 816.489 43.4804  68
  -2  10   2 485.889 40.0685  68
  -2  10   3 89.5101 21.6086  68
  -1 -10   0 245.391 38.2437  41
  -1 -10   0 296.662 39.5210  59
  -1 -10   1 593.161 50.7589  41
  -1 -10   2 3696.24 112.579  41
  -1  -9  -4 1605.34 76.1148  25
  -1  -9  -3 8687.79 175.757  59
  -1  -9  -2 2064.74 98.3375  25
  -1  -9  -2 2162.66 98.0648  59
  -1  -9  -1 2094.10 105.310  59
  -1  -9   0 1152.43 86.1647  59
  -1  -9   1 851.463 62.8126  50
  -1  -9   1 891.707 80.3136  59
  -1  -9   2 3558.52 126.430  50
  -1  -9   2 3616.15 147.225  59
  -1  -9   3 678.894 63.5640  41
  -1  -9   3 746.586 66.0810  50
  -1  -9   4 572.214 55.2937  50
  -1  -9   5 432.619 45.7611  50
  -1  -9   6 25.6903 22.2140  74
  -1  -8  -6 397.501 36.8490  63
  -1  -8  -5 3419.12 106.301  63
  -1  -8  -4 2537.79 94.6375  14
  -1  -8  -4 2503.36 113.701  52
  -1  -8  -3 12183.2 226.347  14
  -1  -8  -3 12185.3 235.047  63
  -1  -8  -3 12175.2 267.065  52
  -1  -8  -3 12244.0 252.128  59
  -1  -8  -2 193.455 40.5491  63
  -1  -8  -2 143.015 48.0750  52
  -1  -8  -1 3953.59 155.697  59
  -1  -8   0 2860.53 114.751  50
  -1  -8   0 2444.59 128.387  59
  -1  -8   1 6757.94 191.032  25
  -1  -8   1 6880.75 219.613  59
  -1  -8   1 7352.29 200.093  50
  -1  -8   2 7147.09 207.208  50
  -1  -8   2 7132.83 236.073  59
  -1  -8   3 1766.00 107.897  50
  -1  -8   3 1722.75 119.339  59
  -1  -8   4 44.0485 40.0399  41
  -1  -8   4 135.415 52.2354  50
  -1  -8   5 434.558 59.2024  50
  -1  -8   6 439.447 57.4027  74
  -1  -8   6 462.553 53.6659  50
  -1  -8   7 4319.43 115.289  74
  -1  -7  -7 3302.83 94.1551  14
  -1  -7  -7 3333.32 98.7733  63
  -1  -7  -6 242.627 42.7643  14
  -1  -7  -6 284.211 47.5174  63
  -1  -7  -5 15029.0 289.677  21
  -1  -7  -5 15016.3 266.033  14
  -1  -7  -5 15096.8 280.723  63
  -1  -7  -5 15127.6 300.980  52
  -1  -7  -4 4107.62 145.423  21
  -1  -7  -4 3836.69 127.499  14
  -1  -7  -4 3836.40 133.865  63
  -1  -7  -4 4282.62 156.936  52
  -1  -7  -4 3889.24 128.379  59
  -1  -7  -3 816.811 73.8010  21
  -1  -7  -3 660.033 64.3292  63
  -1  -7  -3 562.198 59.8067  59
  -1  -7  -3 622.214 74.3090  52
  -1  -7  -2 8286.94 189.720  14
  -1  -7  -2 8528.42 197.161  63
  -1  -7  -2 8675.40 225.717  52
  -1  -7  -1 20079.0 321.435  14
  -1  -7  -1 21137.9 332.236  63
  -1  -7  -1 20090.8 327.790  50
  -1  -7  -1 20258.1 371.946  52
  -1  -7  -1 20292.3 376.162  59
  -1  -7   0 14390.8 249.728  63
  -1  -7   0 14412.1 311.443  59
  -1  -7   0 14195.9 293.889  52
  -1  -7   0 14059.4 280.082  50
  -1  -7   1 13821.0 314.277  59
  -1  -7   2 1225.72 78.5079  25
  -1  -7   2 1159.18 61.2404  69
  -1  -7   2 1068.89 101.546  59
  -1  -7   2 1088.17 87.9905  50
  -1  -7   3 11916.2 222.618  69
  -1  -7   3 11574.8 303.403  59
  -1  -7   3 11886.3 282.083  50
  -1  -7   4 4756.33 179.439  50
  -1  -7   4 4725.30 191.264  59
  -1  -7   5 1072.82 92.8107  50
  -1  -7   6 6691.26 199.039  50
  -1  -7   7 3143.10 126.074  74
  -1  -7   8 416.587 42.5669  74
  -1  -6  -8 1102.33 54.8916  14
  -1  -6  -8 1108.40 57.2185  63
  -1  -6  -7 950.773 63.0867  14
  -1  -6  -7 955.686 66.2394  63
  -1  -6  -6 11809.9 245.102  21
  -1  -6  -6 12092.8 238.467  14
  -1  -6  -6 11929.5 246.565  63
  -1  -6  -5 10542.0 231.595  21
  -1  -6  -5 10350.1 221.599  14
  -1  -6  -5 10673.5 233.920  63
  -1  -6  -5 10726.9 248.730  52
  -1  -6  -4 8269.29 203.701  21
  -1  -6  -4 8709.93 194.287  14
  -1  -6  -4 8675.13 220.195  52
  -1  -6  -3 1576.29 81.5534  14
  -1  -6  -3 1702.83 91.5762  21
  -1  -6  -3 1744.50 99.2023  52
  -1  -6  -2 7220.81 185.317  21
  -1  -6  -2 7666.91 177.913  63
  -1  -6  -2 7696.84 196.310  52
  -1  -6  -1 7112.95 186.064  21
  -1  -6  -1 7335.00 164.316  14
  -1  -6  -1 7244.39 166.759  63
  -1  -6  -1 7312.16 189.167  52
  -1  -6  -1 7159.84 186.594  59
  -1  -6  -1 7219.28 166.700  50
  -1  -6   0 12217.6 213.869  14
  -1  -6   0 12272.8 217.154  63
  -1  -6   0 11234.8 230.794  50
  -1  -6   0 11558.1 245.856  52
  -1  -6   0 11201.0 249.556  59
  -1  -6   1 6202.10 128.187  69
  -1  -6   1 5862.24 133.109  70
  -1  -6   1 6083.29 185.761  59
  -1  -6   1 5939.15 167.748  50
  -1  -6   2 2314.76 100.978  25
  -1  -6   2 2352.29 87.9838  70
  -1  -6   2 2365.45 83.6255  69
  -1  -6   2 2339.97 120.583  59
  -1  -6   2 2322.53 110.478  50
  -1  -6   3 8016.73 182.305  25
  -1  -6   3 7911.57 234.211  59
  -1  -6   3 7678.19 213.946  50
  -1  -6   4 1504.84 80.7774  69
  -1  -6   4 1467.58 102.613  50
  -1  -6   4 1556.11 113.900  59
  -1  -6   5 26064.9 440.738  41
  -1  -6   5 26212.0 404.650  69
  -1  -6   5 26387.0 421.267  76
  -1  -6   5 26932.5 471.224  50
  -1  -6   6 53.2995 53.8534  50
  -1  -6   7 177.749 60.2869  74
  -1  -6   8 382.928 57.7626  74
  -1  -6   9 384.172 36.6927  74
  -1  -5  -8 325.611 43.2635  14
  -1  -5  -8 327.588 42.6181  63
  -1  -5  -7 2995.22 110.386  14
  -1  -5  -7 2912.76 115.404  63
  -1  -5  -7 2689.29 104.350  52
  -1  -5  -6 27559.3 411.069  21
  -1  -5  -6 27941.8 431.937  52
  -1  -5  -5 3141.37 118.999  21
  -1  -5  -5 3349.03 128.810  52
  -1  -5  -4 26967.2 399.387  21
  -1  -5  -4 28565.3 426.459  52
  -1  -5  -3 29867.4 413.227  21
  -1  -5  -3 29958.2 439.231  52
  -1  -5  -2 84772.4 918.303  14
  -1  -5  -2 85024.4 941.486  21
  -1  -5  -2 87726.5 1525.23   7
  -1  -5  -1 114750. 1738.00   7
  -1  -5  -1 120190. 1734.98   1
  -1  -5  -1 121255. 1258.17  21
  -1  -5  -1 116015. 1270.39  52
  -1  -5  -1 114623. 1237.45  50
  -1  -5   0 23302.5 339.455  21
  -1  -5   0 22320.3 310.421  14
  -1  -5   0 22549.1 315.135  63
  -1  -5   0 22975.2 340.608  52
  -1  -5   0 22481.6 346.611  59
  -1  -5   0 22123.7 328.751  50
  -1  -5   1 7733.72 139.373  70
  -1  -5   1 7525.53 145.136  63
  -1  -5   1 7287.84 179.058  59
  -1  -5   1 7521.50 169.956  50
  -1  -5   2 31751.7 441.721  25
  -1  -5   2 31124.7 397.902  69
  -1  -5   2 32524.2 402.742  70
  -1  -5   2 32278.3 477.321  59
  -1  -5   2 31254.5 450.715  50
  -1  -5   3 38265.4 502.599  25
  -1  -5   3 38332.4 482.865  69
  -1  -5   3 38737.1 480.912  70
  -1  -5   3 39319.9 538.682  50
  -1  -5   3 37898.2 574.359  59
  -1  -5   4 31506.4 422.759  70
  -1  -5   4 30656.5 376.914  78
  -1  -5   4 30652.1 425.848  69
  -1  -5   4 30182.6 475.160  50
  -1  -5   4 32109.2 514.572  59
  -1  -5   5 89710.4 1075.60  41
  -1  -5   5 88606.4 1037.30  69
  -1  -5   5 90207.6 975.226  78
  -1  -5   5 95934.0 1089.48  76
  -1  -5   5 94343.7 1120.02  50
  -1  -5   6 13723.4 271.675  69
  -1  -5   6 14012.3 293.853  76
  -1  -5   6 14187.1 222.762  78
  -1  -5   6 14333.2 317.185  50
  -1  -5   7 13510.1 318.405  74
  -1  -5   7 13219.8 294.294  50
  -1  -5   8 4803.05 169.358  74
  -1  -5   9 1261.65 75.3479  74
  -1  -4  -9 1582.51 62.2986  14
  -1  -4  -8 115.963 36.3632  14
  -1  -4  -7 4483.70 129.923  21
  -1  -4  -7 4486.23 130.961  52
  -1  -4  -6 18122.7 314.463  52
  -1  -4  -5 6549.38 155.692  21
  -1  -4  -4 470.395 46.3440  21
  -1  -4  -4 440.826 50.5680  52
  -1  -4  -3 7803.25 151.480  21
  -1  -4  -3 7943.93 164.425  52
  -1  -4  -2 16795.9 248.319  21
  -1  -4  -2 18647.4 584.820   7
  -1  -4  -2 19103.0 555.312   3
  -1  -4  -2 17405.0 260.726  52
  -1  -4  -1 13400.2 213.730  21
  -1  -4  -1 14051.3 202.581  14
  -1  -4  -1 14097.8 442.625   7
  -1  -4  -1 14384.4 632.059  10
  -1  -4  -1 14495.2 440.117   3
  -1  -4  -1 15171.7 445.140   1
  -1  -4  -1 14174.1 224.442  52
  -1  -4  -1 13550.0 203.788  50
  -1  -4   0 51292.9 590.054  21
  -1  -4   0 49302.5 1233.98  10
  -1  -4   0 50966.9 594.653  52
  -1  -4   1 73547.2 1535.95  10
  -1  -4   1 71416.1 764.524  63
  -1  -4   1 71520.8 790.953  50
  -1  -4   1 71445.8 794.368  52
  -1  -4   1 71011.7 805.830  59
  -1  -4   2 30854.6 399.367  25
  -1  -4   2 29883.8 404.640  50
  -1  -4   2 29977.7 423.247  59
  -1  -4   3 60930.6 688.406  25
  -1  -4   3 62856.2 1481.29  10
  -1  -4   3 62243.7 1221.93   9
  -1  -4   3 60762.0 673.918  70
  -1  -4   3 59586.0 677.730  69
  -1  -4   3 60019.9 728.299  50
  -1  -4   3 61720.2 751.543  59
  -1  -4   4 45098.1 1259.92  10
  -1  -4   4 42498.1 528.023  69
  -1  -4   4 42204.2 519.405  70
  -1  -4   4 43329.3 601.546  59
  -1  -4   4 46524.8 590.616  50
  -1  -4   5 1709.57 80.7664  41
  -1  -4   5 1557.89 74.6523  70
  -1  -4   5 1660.40 82.0854  69
  -1  -4   5 1670.71 67.9515  78
  -1  -4   5 1769.54 93.6221  76
  -1  -4   5 1762.91 100.144  50
  -1  -4   6 11585.1 236.494  69
  -1  -4   6 11621.8 207.094  78
  -1  -4   6 12007.6 264.262  76
  -1  -4   7 5709.75 180.558  76
  -1  -4   7 5609.47 201.743  74
  -1  -4   7 5734.49 175.887  50
  -1  -4   8 650.984 66.5782  75
  -1  -4   8 636.365 77.9660  74
  -1  -4   9 5254.04 155.773  74
  -1  -4  10 238.012 32.4759  74
  -1  -3  -9 456.049 38.1733  14
  -1  -3  -9 352.939 33.0106  63
  -1  -3  -8 1697.50 78.1655  14
  -1  -3  -8 1751.99 81.1011  63
  -1  -3  -7 39106.8 493.088  21
  -1  -3  -6 2978.95 96.0199  21
  -1  -3  -6 3004.66 102.717  52
  -1  -3  -5 27025.1 375.339  52
  -1  -3  -4 49549.2 534.313  20
  -1  -3  -3 52907.2 1093.92   7
  -1  -3  -3 51211.3 552.355  20
  -1  -3  -3 54113.2 1186.30  10
  -1  -3  -3 52461.9 588.805  52
  -1  -3  -2 4424.88 258.373   7
  -1  -3  -2 4160.11 245.476   6
  -1  -3  -2 3618.43 280.526  10
  -1  -3  -2 3910.44 90.8947  21
  -1  -3  -1 112728. 1505.61   7
  -1  -3  -1 114268. 1584.50   6
  -1  -3  -1 108796. 1116.27  21
  -1  -3  -1 110755. 1766.95  10
  -1  -3  -1 112714. 1460.20   3
  -1  -3  -1 108578. 1127.41  52
  -1  -3   0 5446.54 106.032  21
  -1  -3   0 5258.14 96.6172  14
  -1  -3   0 5921.65 268.346   6
  -1  -3   0 5328.97 204.291   3
  -1  -3   0 5469.81 319.310  10
  -1  -3   0 5267.61 98.9196  63
  -1  -3   0 5405.35 108.092  52
  -1  -3   1 54609.1 1123.03  10
  -1  -3   1 52342.2 656.010   1
  -1  -3   1 53681.8 592.197  52
  -1  -3   1 53362.5 604.068  59
  -1  -3   1 53963.4 594.893  50
  -1  -3   2 1769.19 60.7550  25
  -1  -3   2 1666.20 189.834  10
  -1  -3   2 1816.02 70.8469  59
  -1  -3   2 1929.61 68.2909  50
  -1  -3   3 38550.2 448.633  25
  -1  -3   3 38970.1 971.279  10
  -1  -3   3 38604.2 755.702   9
  -1  -3   3 37416.7 494.756  59
  -1  -3   3 38537.9 477.411  50
  -1  -3   4 124070. 1297.44  67
  -1  -3   4 124584. 1308.73  69
  -1  -3   5 2899.19 91.2772  41
  -1  -3   5 2847.86 88.3586  67
  -1  -3   5 2720.47 81.3834  72
  -1  -3   5 2979.85 110.347  76
  -1  -3   5 2749.25 94.0347  69
  -1  -3   5 2726.80 77.6136  54
  -1  -3   6 5647.88 185.299  74
  -1  -3   6 5255.48 134.846  67
  -1  -3   6 5675.57 149.113  69
  -1  -3   6 5837.57 136.209  78
  -1  -3   6 5786.83 172.154  76
  -1  -3   6 5535.05 122.798  54
  -1  -3   6 5889.00 165.384  50
  -1  -3   7 12373.7 292.067  74
  -1  -3   7 12462.6 219.470  78
  -1  -3   7 11950.6 199.603  54
  -1  -3   7 12315.4 249.603  50
  -1  -3   8 1216.78 93.1476  74
  -1  -3   8 1221.55 66.2784  78
  -1  -3   9 2641.08 116.405  74
  -1  -3  10 597.635 46.2505  74
  -1  -2  -9 174.774 27.0030  14
  -1  -2  -8 5858.65 138.391  14
  -1  -2  -8 5717.50 140.806  63
  -1  -2  -7 9462.35 169.010  21
  -1  -2  -6 16358.1 238.542  21
  -1  -2  -6 15963.8 245.110  52
  -1  -2  -5 9738.09 170.849  52
  -1  -2  -4 56644.1 1180.90   7
  -1  -2  -4 56623.0 627.948  52
  -1  -2  -3 213743. 2712.85   7
  -1  -2  -2 740.246 102.152   7
  -1  -2  -2 858.264 102.419   6
  -1  -2  -2 892.485 122.277  10
  -1  -2  -2 799.825 35.7141  52
  -1  -2  -1 33108.8 617.329   7
  -1  -2  -1 30847.9 622.453   6
  -1  -2  -1 32145.4 715.867  10
  -1  -2   0 76764.8 1082.88   6
  -1  -2   0 75718.0 1221.76  10
  -1  -2   0 76140.3 941.514   3
  -1  -2   1 262831. 2813.90   6
  -1  -2   1 246770. 3055.47  10
  -1  -2   2 139151. 1417.15  59
  -1  -2   2 137415. 1402.18  50
  -1  -2   3 195747. 1925.72  54
  -1  -2   3 196096. 1969.78  50
  -1  -2   4 157243. 1645.88  50
  -1  -2   4 158997. 1604.63  54
  -1  -2   5 3451.51 96.6052  69
  -1  -2   5 3438.05 93.1281  78
  -1  -2   5 3555.02 117.414  76
  -1  -2   5 3386.80 109.128  50
  -1  -2   5 3319.43 90.7317  54
  -1  -2   6 528.898 64.1582  74
  -1  -2   6 483.910 50.3497  67
  -1  -2   6 538.057 40.9984  73
  -1  -2   6 513.297 42.2172  72
  -1  -2   6 475.678 46.5064  69
  -1  -2   6 567.651 47.6518  78
  -1  -2   6 550.013 50.1498  50
  -1  -2   6 495.504 43.0423  54
  -1  -2   7 1912.81 114.258  74
  -1  -2   7 2065.27 93.3597  67
  -1  -2   7 1980.24 76.3090  73
  -1  -2   7 1968.06 69.1674  72
  -1  -2   7 2064.43 84.6147  78
  -1  -2   7 1959.09 79.4007  54
  -1  -2   8 24410.3 398.358  75
  -1  -2   8 23315.7 358.109  67
  -1  -2   8 24300.0 422.515  74
  -1  -2   8 24255.3 346.794  78
  -1  -2   8 24436.6 334.348  54
  -1  -2   9 1916.96 88.7559  75
  -1  -2   9 1923.31 100.920  74
  -1  -2  10 106.233 32.5588  74
  -1  -1  -9 1522.49 62.7773  27
  -1  -1  -8 12757.2 208.940  14
  -1  -1  -7 782.311 54.4649  56
  -1  -1  -6 10426.8 161.449  21
  -1  -1  -5 5415.33 442.128   9
  -1  -1  -5 5481.13 106.382  52
  -1  -1  -4 123319. 1855.06   7
  -1  -1  -4 123147. 2019.55   8
  -1  -1  -4 121515. 1595.40   6
  -1  -1  -4 124149. 2178.32   9
  -1  -1  -4 120347. 1218.38  52
  -1  -1  -3 373912. 4445.48   8
  -1  -1  -3 377748. 4620.07   9
  -1  -1  -2 653800. 6848.65   8
  -1  -1  -2 648730. 6683.87   7
  -1  -1   0 7261.71 277.721  10
  -1  -1   1 155317. 1623.37   4
  -1  -1   1 147113. 1915.19  10
  -1  -1   2 481474. 4779.78   6
  -1  -1   3 64334.5 703.099  49
  -1  -1   4 58095.6 645.467  54
  -1  -1   4 58603.0 682.309  49
  -1  -1   4 59831.3 657.440  50
  -1  -1   5 36520.7 489.145  74
  -1  -1   5 35604.5 470.994  67
  -1  -1   5 34764.9 379.732  61
  -1  -1   5 35666.9 427.211  78
  -1  -1   5 35197.2 442.190  54
  -1  -1   5 36825.5 446.725  50
  -1  -1   6 97367.9 1134.93  74
  -1  -1   6 99437.3 1105.64  67
  -1  -1   6 95668.2 1055.21  72
  -1  -1   6 98839.7 1047.20  69
  -1  -1   6 96719.8 1048.65  78
  -1  -1   6 97785.2 1052.40  50
  -1  -1   6 97394.5 1068.78  54
  -1  -1   7 10457.6 249.738  74
  -1  -1   7 10215.2 228.633  67
  -1  -1   7 9984.71 184.054  72
  -1  -1   7 10492.3 197.570  78
  -1  -1   7 10413.4 235.487  75
  -1  -1   7 10541.9 210.324  54
  -1  -1   8 22718.0 376.664  75
  -1  -1   8 21963.1 396.505  74
  -1  -1   8 22153.4 368.652  67
  -1  -1   8 22612.3 326.217  78
  -1  -1   8 23449.7 341.718  54
  -1  -1   9 278.219 49.0509  75
  -1  -1   9 303.502 43.6827  67
  -1  -1   9 263.603 52.4130  74
  -1  -1   9 255.096 36.9335  73
  -1  -1  10 400.094 35.9601  75
  -1   0  -9 320.452 33.4489  32
  -1   0  -6 33354.8 422.898  56
  -1   0  -5 9901.02 463.745   7
  -1   0  -5 8826.65 279.890  12
  -1   0  -5 8432.88 250.684   6
  -1   0  -5 9691.76 549.132   9
  -1   0  -4 444174. 5266.56   8
  -1   0  -4 446845. 4890.84   7
  -1   0  -4 425604. 4561.58  12
  -1   0  -4 433311. 5285.84   9
  -1   0  -3 379685. 4187.79   7
  -1   0  -3 386843. 4531.36   9
  -1   0  -2 442821. 4351.60   7
  -1   0  -2 432558. 4635.59   9
  -1   0  -1 606493. 5991.57   7
  -1   0  -1 579374. 6204.26   9
  -1   0   0 537.570 63.3293  12
  -1   0   0 537.244 58.8531   9
  -1   0   2 52780.8 730.232   1
  -1   0   3 226654. 2266.74  49
  -1   0   4 38118.6 407.327  61
  -1   0   4 37451.3 479.680  49
  -1   0   4 36927.5 452.657  53
  -1   0   5 21608.6 330.035  74
  -1   0   5 21416.4 280.896  78
  -1   0   5 21376.2 256.061  61
  -1   0   5 20382.7 311.498  53
  -1   0   5 21342.5 338.492  49
  -1   0   6 65079.7 796.113  74
  -1   0   6 64421.6 804.110  67
  -1   0   6 63609.2 754.132  72
  -1   0   6 66213.7 724.660  78
  -1   0   6 62539.3 815.206  49
  -1   0   7 34646.6 495.056  75
  -1   0   7 34446.6 511.753  74
  -1   0   7 34873.1 518.710  67
  -1   0   7 34563.5 473.588  73
  -1   0   7 32903.6 447.662  72
  -1   0   7 35135.4 442.802  78
  -1   0   7 35123.7 492.067  54
  -1   0   7 33807.9 538.720  49
  -1   0   8 11122.3 238.756  75
  -1   0   8 11157.8 251.920  67
  -1   0   8 11141.7 252.189  74
  -1   0   8 11432.7 227.507  73
  -1   0   8 11389.0 230.701  54
  -1   0   9 179.872 44.2471  75
  -1   0   9 233.609 49.1325  74
  -1   0   9 246.159 42.2614  73
  -1   0   9 258.852 45.4068  67
  -1   0  10 294.206 32.9734  75
  -1   1  -9 1109.88 50.9047  23
  -1   1  -8 860.411 50.1509  32
  -1   1  -7 6563.71 140.913  27
  -1   1  -5 31965.2 807.200   7
  -1   1  -4 60367.1 1060.01   7
  -1   1  -3 102429. 1663.74   9
  -1   1  -3 106626. 1412.11   7
  -1   1  -2 867320. 8945.61   9
  -1   1  -2 858611. 9003.39  11
  -1   1  -2 875988. 8653.05   7
  -1   1  -1 647552. 6521.16   4
  -1   1   0 528272. 5380.55  11
  -1   1   2 165626. 2066.79   8
  -1   1   2 174159. 2219.72  12
  -1   1   3 112759. 1121.62  61
  -1   1   3 111292. 1180.20  49
  -1   1   4 7811.68 119.054  61
  -1   1   4 7433.09 167.385  49
  -1   1   5 68673.9 773.160  75
  -1   1   5 68430.7 787.357  74
  -1   1   5 67501.4 821.645  68
  -1   1   5 67531.6 828.578  49
  -1   1   6 37539.2 497.266  75
  -1   1   6 37645.5 509.141  74
  -1   1   6 36375.0 446.623  77
  -1   1   6 38515.3 452.594  78
  -1   1   6 37525.8 544.658  68
  -1   1   6 36301.4 555.480  49
  -1   1   7 29660.2 432.844  75
  -1   1   7 29611.6 445.165  74
  -1   1   7 30168.0 436.194  73
  -1   1   7 29969.3 483.092  67
  -1   1   7 28383.6 415.363  72
  -1   1   7 30313.9 386.101  78
  -1   1   7 28058.8 503.509  49
  -1   1   7 29718.7 463.963  53
  -1   1   8 2443.71 118.359  67
  -1   1   8 2471.60 106.679  73
  -1   1   8 2293.71 100.878  75
  -1   1   8 2362.21 108.070  74
  -1   1   8 2361.46 107.344  54
  -1   1   8 2409.40 126.817  49
  -1   1   9 7844.97 186.488  67
  -1   1   9 7745.78 175.732  73
  -1   1   9 7763.22 166.673  75
  -1   1  10 383.771 35.8476  73
  -1   2  -8 3110.90 87.9657  23
  -1   2  -7 3648.08 100.097  24
  -1   2  -5 11224.4 419.366   7
  -1   2  -5 11815.0 441.765   4
  -1   2  -4 25846.1 586.892   7
  -1   2  -4 25955.2 906.230  11
  -1   2  -4 26937.7 634.669   4
  -1   2  -3 19929.3 477.028   4
  -1   2  -3 20018.6 709.125  11
  -1   2  -2 105314. 1335.22   4
  -1   2  -2 107846. 1674.50  11
  -1   2   1 13558.3 332.189   3
  -1   2   1 11926.9 373.482  13
  -1   2   2 244036. 2374.01  34
  -1   2   2 244740. 2381.48  18
  -1   2   2 243441. 2982.71  12
  -1   2   2 242343. 2371.35  61
  -1   2   2 241678. 2374.79  44
  -1   2   3 147632. 1522.92  39
  -1   2   3 150491. 1523.06  42
  -1   2   3 149404. 2165.82   8
  -1   2   3 146975. 1471.54  61
  -1   2   4 7055.33 161.466  39
  -1   2   4 7502.82 122.274  61
  -1   2   4 7280.38 174.761  49
  -1   2   5 152451. 1562.05  75
  -1   2   5 153721. 1573.71  74
  -1   2   5 150550. 1526.62  61
  -1   2   5 150377. 1536.59  77
  -1   2   5 150223. 1651.50  68
  -1   2   5 147682. 1659.07  49
  -1   2   6 9268.56 189.745  75
  -1   2   6 9406.25 197.443  74
  -1   2   6 9483.49 158.755  78
  -1   2   6 9435.91 238.913  68
  -1   2   6 9126.44 246.563  49
  -1   2   7 13916.5 264.716  72
  -1   2   7 15082.7 257.450  75
  -1   2   7 15159.2 343.762  49
  -1   2   7 14160.0 302.259  53
  -1   2   8 3622.01 129.994  73
  -1   2   8 3598.02 145.282  67
  -1   2   8 3614.68 114.025  75
  -1   2   8 3515.22 158.982  49
  -1   2   9 5772.19 157.022  67
  -1   2   9 6022.87 150.818  73
  -1   2  10 154.438 29.1998  73
  -1   3  -9 435.781 28.9931  33
  -1   3  -8 1945.65 60.3207  62
  -1   3  -7 2798.73 74.8152  15
  -1   3  -6 1465.23 57.5981  23
  -1   3  -5 27436.2 333.937  24
  -1   3  -5 27431.2 341.786  23
  -1   3  -4 25045.9 302.879  24
  -1   3  -4 25062.4 478.834   4
  -1   3  -4 25005.9 977.244  11
  -1   3  -4 25396.2 306.448  23
  -1   3  -3 15977.6 354.140   4
  -1   3  -3 15825.4 678.005  11
  -1   3  -3 15767.1 200.207  24
  -1   3  -3 15738.4 201.014  23
  -1   3  -2 14669.5 580.585  11
  -1   3  -2 14580.8 179.901  24
  -1   3  -2 14471.6 186.886  48
  -1   3  -1 126970. 1268.80  33
  -1   3  -1 128890. 1277.00  15
  -1   3  -1 128377. 1275.00  62
  -1   3  -1 128976. 1269.66  48
  -1   3   0 610829. 5844.05  39
  -1   3   0 604651. 5845.20  33
  -1   3   0 629270. 6388.70  13
  -1   3   0 617651. 6207.50   1
  -1   3   0 609207. 6235.34   3
  -1   3   0 624212. 5855.96  15
  -1   3   0 597041. 5842.59  22
  -1   3   0 619282. 5853.22  62
  -1   3   0 591623. 5845.09  58
  -1   3   1 41019.8 442.062  39
  -1   3   1 41076.6 434.778  34
  -1   3   1 39692.5 439.230  22
  -1   3   1 41008.2 436.993  15
  -1   3   1 40920.0 430.844  61
  -1   3   1 40290.4 433.515  44
  -1   3   2 43123.4 495.656  39
  -1   3   2 42899.5 492.869  42
  -1   3   2 43436.2 469.937  34
  -1   3   2 42350.5 477.786  18
  -1   3   2 42145.6 460.857  61
  -1   3   2 42739.5 469.499  44
  -1   3   3 34868.2 442.432  39
  -1   3   3 34578.5 422.050  37
  -1   3   3 33685.8 441.686  42
  -1   3   3 34105.5 387.863  61
  -1   3   3 33836.3 956.775   8
  -1   3   3 33909.2 899.509  12
  -1   3   3 34300.6 421.349  18
  -1   3   3 33234.8 753.333   6
  -1   3   4 16401.6 289.115  39
  -1   3   4 16210.5 261.821  37
  -1   3   4 16227.7 299.141  68
  -1   3   4 16255.5 227.689  61
  -1   3   4 16103.2 231.199  77
  -1   3   5 2531.24 120.457  68
  -1   3   5 2477.46 82.1126  75
  -1   3   6 35740.1 560.296  68
  -1   3   6 34499.4 448.851  75
  -1   3   6 36251.0 575.172  49
  -1   3   7 1642.94 109.657  68
  -1   3   7 1710.18 118.506  49
  -1   3   8 8201.04 190.743  73
  -1   3   8 7792.87 213.676  67
  -1   3   8 7720.11 208.116  53
  -1   3   9 295.427 42.0143  73
  -1   3   9 300.145 44.2784  67
  -1   3  10 1193.04 46.4663  73
  -1   4  -9 1961.91 48.6607  58
  -1   4  -8 10254.9 159.314  33
  -1   4  -7 3485.05 87.0014  62
  -1   4  -6 5731.63 114.821  15
  -1   4  -6 5635.29 121.174  62
  -1   4  -6 5478.57 114.580  48
  -1   4  -5 12324.2 189.481  15
  -1   4  -5 11921.7 186.150  48
  -1   4  -4 56192.8 1072.63   6
  -1   4  -4 54537.9 609.238  15
  -1   4  -4 55320.7 599.516  48
  -1   4  -3 133366. 1346.16  33
  -1   4  -3 133002. 1353.26  62
  -1   4  -3 134460. 1342.71  48
  -1   4  -2 203010. 2045.44  33
  -1   4  -2 203285. 2554.01   3
  -1   4  -2 208077. 2053.85  15
  -1   4  -2 211301. 2054.40  62
  -1   4  -1 971769. 9269.75  39
  -1   4  -1 970976. 9269.99  33
  -1   4  -1 999999. 10028.1  13
  -1   4  -1 976415. 9647.09   1
  -1   4  -1 949983. 9803.94   3
  -1   4  -1 955108. 9266.86  22
  -1   4  -1 964963. 9283.41  15
  -1   4  -1 972492. 9280.04  62
  -1   4  -1 944901. 9260.21  44
  -1   4  -1 971942. 9269.75  58
  -1   4   0 189693. 1866.71  39
  -1   4   0 190495. 1874.42  15
  -1   4   0 188811. 1864.08  22
  -1   4   0 200954. 2520.12  13
  -1   4   0 198181. 2476.74   6
  -1   4   0 188660. 2361.55   3
  -1   4   0 189747. 1852.06  61
  -1   4   0 187791. 1861.09  44
  -1   4   0 188007. 1866.86  58
  -1   4   1 840.688 39.2928  18
  -1   4   1 907.609 122.491   6
  -1   4   1 892.156 40.7134  15
  -1   4   1 885.396 40.8249  39
  -1   4   1 862.401 37.8616  35
  -1   4   1 883.883 37.3016  34
  -1   4   1 882.603 37.4478  44
  -1   4   2 19888.6 287.068  39
  -1   4   2 19738.3 284.789  42
  -1   4   2 19323.2 262.596  34
  -1   4   2 19423.1 269.431  18
  -1   4   2 20277.0 606.217   6
  -1   4   2 19785.1 257.544  65
  -1   4   2 18746.3 259.367  44
  -1   4   3 9127.33 195.845  39
  -1   4   3 9106.48 194.237  42
  -1   4   3 9480.63 180.741  37
  -1   4   3 8858.34 157.227  65
  -1   4   3 8753.12 147.739  61
  -1   4   3 8440.61 475.928  12
  -1   4   3 8974.81 433.319   6
  -1   4   4 83864.3 995.674  39
  -1   4   4 83012.3 949.487  37
  -1   4   4 83076.2 991.909  42
  -1   4   5 6945.30 206.590  39
  -1   4   5 7110.64 179.390  37
  -1   4   5 6964.96 210.941  68
  -1   4   5 7207.29 219.650  49
  -1   4   6 8631.80 251.464  68
  -1   4   6 8999.40 263.460  49
  -1   4   7 1778.20 111.540  68
  -1   4   7 1368.79 107.372  49
  -1   4   8 1429.59 75.5213  73
  -1   4   8 1608.18 94.5724  67
  -1   4   8 1522.33 89.8209  53
  -1   4   8 1419.04 102.809  49
  -1   4   9 1488.72 63.4967  73
  -1   4   9 1451.98 83.4268  49
  -1   5  -8 2394.04 64.8876  22
  -1   5  -8 2367.17 61.3290  58
  -1   5  -7 11718.0 173.878  33
  -1   5  -7 11463.9 180.568  58
  -1   5  -6 10196.1 169.223  33
  -1   5  -6 10339.5 168.679  62
  -1   5  -6 9997.62 162.853  15
  -1   5  -5 10522.7 174.057  33
  -1   5  -5 10982.0 176.954  15
  -1   5  -5 10468.6 177.561  62
  -1   5  -4 1979.26 66.3969  15
  -1   5  -4 1781.68 65.4458  62
  -1   5  -4 1850.11 64.7066  58
  -1   5  -3 32963.6 380.948  22
  -1   5  -3 32926.3 391.519  62
  -1   5  -3 33116.2 382.425  58
  -1   5  -2 1529.96 54.9475  39
  -1   5  -2 1425.97 53.0183  33
  -1   5  -2 1537.06 46.8079  34
  -1   5  -2 1515.59 54.4611  22
  -1   5  -2 1407.00 58.3246  15
  -1   5  -2 1481.81 57.9421  62
  -1   5  -1 32616.9 377.603  22
  -1   5  -1 33000.4 390.521  15
  -1   5  -1 32316.7 379.553  39
  -1   5  -1 32628.2 370.445  34
  -1   5  -1 32387.5 365.887  44
  -1   5  -1 32675.4 380.318  58
  -1   5   0 21736.2 296.530  22
  -1   5   0 22791.7 731.903  13
  -1   5   0 22493.6 298.785  18
  -1   5   0 22175.6 297.350  39
  -1   5   0 22053.4 288.295  34
  -1   5   0 21911.1 284.931  44
  -1   5   1 9331.90 169.630  39
  -1   5   1 8985.11 156.032  35
  -1   5   1 9088.28 155.076  34
  -1   5   1 9241.33 474.750  13
  -1   5   1 9274.99 163.189  18
  -1   5   2 22285.4 330.757  39
  -1   5   2 22320.4 301.289  65
  -1   5   2 22532.8 317.523  18
  -1   5   3 42368.6 572.972  39
  -1   5   3 42073.2 548.740  37
  -1   5   3 42316.3 568.199  42
  -1   5   3 41301.7 512.579  65
  -1   5   4 22454.4 369.326  37
  -1   5   4 23391.4 410.929  39
  -1   5   4 22399.5 399.266  42
  -1   5   5 731.784 79.5082  39
  -1   5   5 653.399 60.1369  37
  -1   5   5 743.130 85.6308  68
  -1   5   6 4654.02 180.526  68
  -1   5   6 4724.49 192.923  49
  -1   5   7 1843.43 83.5713  73
  -1   5   7 1902.81 112.232  68
  -1   5   7 1901.37 124.152  49
  -1   5   8 1540.87 67.2949  73
  -1   5   8 1614.69 98.1326  49
  -1   5   9 216.179 25.0342  73
  -1   5   9 205.414 32.8605  49
  -1   6  -8 6378.75 102.046  22
  -1   6  -7 1508.15 53.9027  22
  -1   6  -7 1581.37 58.6787  39
  -1   6  -7 1519.17 52.8599  58
  -1   6  -6 175.980 25.7148  33
  -1   6  -6 195.207 29.3580  58
  -1   6  -5 1995.84 68.8072  15
  -1   6  -5 1829.19 68.0260  22
  -1   6  -5 1921.08 64.3785  33
  -1   6  -4 6161.78 122.848  33
  -1   6  -4 6139.95 127.878  39
  -1   6  -4 6314.37 132.245  15
  -1   6  -4 6102.17 125.175  22
  -1   6  -4 6048.82 129.366  62
  -1   6  -4 5765.99 125.217  58
  -1   6  -3 25120.8 320.200  22
  -1   6  -3 25190.6 323.268  39
  -1   6  -3 24862.0 323.248  58
  -1   6  -2 42389.2 484.773  22
  -1   6  -2 40795.5 497.789  15
  -1   6  -2 42038.4 488.446  39
  -1   6  -2 40902.1 462.451  34
  -1   6  -2 41028.9 487.284  58
  -1   6  -1 15743.9 229.400  22
  -1   6  -1 15304.1 239.042  15
  -1   6  -1 15148.5 231.464  39
  -1   6  -1 14907.8 222.232  35
  -1   6  -1 15162.1 214.216  34
  -1   6  -1 14494.9 206.438  44
  -1   6   0 731.930 50.2564  39
  -1   6   0 701.357 48.1433  18
  -1   6   1 3157.21 107.307  39
  -1   6   1 3199.68 107.305  42
  -1   6   1 2992.40 96.8158  35
  -1   6   1 3152.44 100.554  18
  -1   6   2 55032.6 686.854  39
  -1   6   2 53480.6 682.822  42
  -1   6   2 53695.1 644.593  65
  -1   6   2 53782.2 668.315  18
  -1   6   3 23719.0 399.180  39
  -1   6   3 24352.7 373.262  37
  -1   6   3 22720.0 398.848  42
  -1   6   3 22607.7 339.093  65
  -1   6   4 5455.79 187.957  39
  -1   6   4 5640.49 161.560  37
  -1   6   5 9926.22 263.326  39
  -1   6   5 10333.6 268.092  68
  -1   6   5 9961.08 186.908  73
  -1   6   6 206.274 55.7982  68
  -1   6   6 202.767 35.7762  73
  -1   6   6 210.447 62.0858  49
  -1   6   7 1883.15 99.3230  68
  -1   6   7 1989.02 72.0109  73
  -1   6   7 1961.19 109.414  49
  -1   6   7 1995.45 99.8881  53
  -1   6   8 333.954 27.0668  73
  -1   6   8 383.716 45.3430  49
  -1   7  -7 171.790 22.4712  22
  -1   7  -7 135.463 23.2746  39
  -1   7  -6 1574.28 57.6325  22
  -1   7  -6 1531.06 60.2506  39
  -1   7  -5 420.353 41.1420  39
  -1   7  -5 438.123 38.7706  58
  -1   7  -4 16965.5 257.782  39
  -1   7  -4 17006.6 252.774  22
  -1   7  -3 6968.47 149.117  39
  -1   7  -3 6962.06 148.232  22
  -1   7  -3 7006.44 140.375  18
  -1   7  -2 184.649 40.1843  39
  -1   7  -2 187.003 34.8741  35
  -1   7  -2 221.410 41.5944  22
  -1   7  -2 306.623 36.2951  18
  -1   7  -1 2927.15 102.475  39
  -1   7  -1 2688.59 91.8694  18
  -1   7   0 4384.79 134.542  39
  -1   7   0 4537.39 133.574  42
  -1   7   1 17061.6 308.680  39
  -1   7   1 17126.0 303.832  42
  -1   7   1 16532.3 282.687  65
  -1   7   1 16814.6 291.476  18
  -1   7   2 7154.68 195.718  39
  -1   7   2 6920.36 191.000  42
  -1   7   2 6825.91 168.397  65
  -1   7   3 18771.1 358.079  39
  -1   7   3 18494.7 321.432  37
  -1   7   3 19258.7 359.812  42
  -1   7   4 25139.8 441.778  39
  -1   7   5 18379.6 360.568  39
  -1   7   5 19476.8 365.038  68
  -1   7   5 18958.9 374.893  49
  -1   7   6 8231.66 201.420  68
  -1   7   6 8218.44 215.117  49
  -1   7   7 6801.43 170.148  49
  -1   8  -6 1143.65 48.1624  35
  -1   8  -6 1203.34 49.7106  39
  -1   8  -5 289.716 35.0084  39
  -1   8  -5 290.592 35.1360  35
  -1   8  -4 8572.34 169.395  39
  -1   8  -4 8213.29 161.091  35
  -1   8  -3 1828.35 80.7511  39
  -1   8  -3 1868.57 77.8367  35
  -1   8  -2 4879.42 134.042  39
  -1   8  -2 4480.86 117.364  18
  -1   8  -1 665.318 61.1842  39
  -1   8  -1 642.433 59.2415  42
  -1   8  -1 556.959 54.4628  65
  -1   8  -1 750.596 54.1125  18
  -1   8   0 738.025 66.5285  39
  -1   8   0 730.290 67.2039  42
  -1   8   0 659.403 59.1831  65
  -1   8   1 1296.99 89.4281  39
  -1   8   1 1289.32 86.6298  42
  -1   8   1 1239.61 74.4153  65
  -1   8   2 1132.09 87.4966  39
  -1   8   2 1097.67 86.3888  42
  -1   8   3 3358.71 139.388  39
  -1   8   4 1936.74 106.353  39
  -1   8   4 2053.59 106.815  68
  -1   8   5 3788.97 128.132  68
  -1   8   5 3747.06 137.347  49
  -1   8   6 298.929 41.6474  49
  -1   9  -5 2260.05 72.3800  65
  -1   9  -4 4835.28 116.365  39
  -1   9  -4 4658.93 106.224  42
  -1   9  -4 4705.52 118.779  65
  -1   9  -3 48.2660 29.8982  39
  -1   9  -3 41.5115 27.2616  42
  -1   9  -3 34.8555 28.2681  65
  -1   9  -2 2061.19 88.6126  39
  -1   9  -2 2052.93 80.1725  35
  -1   9  -2 1985.95 85.6248  65
  -1   9  -1 3589.36 121.060  39
  -1   9  -1 3490.06 116.659  42
  -1   9  -1 3532.59 115.407  65
  -1   9   0 1443.35 84.3022  39
  -1   9   0 1451.76 80.8119  42
  -1   9   0 1378.03 73.3978  65
  -1   9   1 764.722 68.4386  39
  -1   9   1 798.621 64.5482  42
  -1   9   2 371.466 52.2685  39
  -1   9   2 486.637 55.7103  42
  -1   9   3 1111.80 75.9490  39
  -1   9   3 1095.76 74.5663  68
  -1   9   4 3102.54 110.423  39
  -1   9   4 3022.80 102.205  68
  -1   9   4 3106.36 110.187  49
  -1  10  -2 45.2455 24.6391  39
  -1  10  -1 403.188 41.9095  39
  -1  10   0 911.828 57.1589  39
  -1  10   1 1542.75 72.3998  39
  -1  10   2 2415.94 85.6624  39
  -1  10   2 2516.19 83.9445  68
   0 -10  -1 3203.58 107.338  59
   0 -10   0 917.171 63.2919  59
   0 -10   1 1555.98 81.3968  59
   0 -10   2 1230.85 70.7957  59
   0 -10   4 246.605 28.4982  74
   0  -9  -4 779.650 56.7170  52
   0  -9  -3 567.622 55.5790  52
   0  -9  -3 549.574 53.4676  59
   0  -9  -2 1792.48 93.5840  59
   0  -9  -2 1650.39 87.4929  52
   0  -9  -1 700.983 68.6004  59
   0  -9   0 216.757 36.3003  50
   0  -9   0 234.813 54.8696  59
   0  -9   1 3001.59 134.298  59
   0  -9   1 3071.62 114.456  50
   0  -9   2 1298.98 93.6021  59
   0  -9   3 1759.23 102.607  59
   0  -9   3 1870.11 95.5066  50
   0  -9   4 999.347 71.4450  50
   0  -9   5 2870.59 103.064  50
   0  -9   6 2108.16 66.9960  74
   0  -8  -6 1850.08 65.2325  14
   0  -8  -6 1873.50 70.2381  63
   0  -8  -6 1743.87 76.2500  52
   0  -8  -5 707.827 49.5136  14
   0  -8  -5 792.187 62.0187  21
   0  -8  -5 789.924 64.0409  52
   0  -8  -4 3332.46 119.982  21
   0  -8  -4 3128.42 106.432  63
   0  -8  -4 3116.10 123.842  52
   0  -8  -4 2857.07 108.108  59
   0  -8  -3 117.997 47.4172  21
   0  -8  -3 111.087 32.9125  63
   0  -8  -3 98.2940 48.4106  52
   0  -8  -2 6797.81 194.925  59
   0  -8  -2 7053.13 193.974  52
   0  -8  -1 9393.96 226.933  52
   0  -8  -1 9611.66 239.103  59
   0  -8  -1 9063.91 195.156  50
   0  -8   0 14550.1 317.406  59
   0  -8   0 14962.7 289.828  52
   0  -8   0 14141.4 275.157  50
   0  -8   1 2550.31 136.305  59
   0  -8   1 2572.66 115.888  50
   0  -8   2 3505.98 156.473  59
   0  -8   2 3577.94 141.750  50
   0  -8   3 45.7231 47.5130  50
   0  -8   3-3.35869 53.3580  59
   0  -8   4 720.745 78.9723  59
   0  -8   4 677.081 73.2489  50
   0  -8   5 5560.94 174.973  50
   0  -8   6 1790.71 94.1876  74
   0  -8   6 1712.44 89.3142  50
   0  -8   7 58.4862 29.4263  74
   0  -7  -7 4582.99 119.283  21
   0  -7  -7 4238.97 108.504  14
   0  -7  -7 4290.81 114.235  63
   0  -7  -7 4210.40 116.130  52
   0  -7  -6 20183.4 319.217  21
   0  -7  -6 19495.2 300.845  14
   0  -7  -6 20142.7 316.668  63
   0  -7  -6 20187.7 336.056  52
   0  -7  -5 8949.71 186.759  14
   0  -7  -5 8553.62 202.075  21
   0  -7  -5 8918.68 216.147  52
   0  -7  -4 24793.9 391.138  21
   0  -7  -4 25179.8 412.750  52
   0  -7  -3 13619.4 242.292  14
   0  -7  -3 14269.9 270.006  21
   0  -7  -3 14095.2 285.362  52
   0  -7  -2 3932.06 132.532  21
   0  -7  -2 4090.25 116.300  14
   0  -7  -2 3883.56 119.626  63
   0  -7  -2 3735.28 139.771  52
   0  -7  -1 11894.1 248.288  21
   0  -7  -1 11915.9 208.705  14
   0  -7  -1 11861.5 215.475  63
   0  -7  -1 12399.1 254.437  52
   0  -7  -1 11924.9 231.224  50
   0  -7   0 2225.48 98.9995  50
   0  -7   0 2083.42 113.867  59
   0  -7   1 1911.96 98.0361  50
   0  -7   1 2177.54 119.036  59
   0  -7   1 2258.59 100.300  52
   0  -7   2 7041.12 171.401  25
   0  -7   2 7099.44 220.242  59
   0  -7   3 74.0529 48.9817  50
   0  -7   3 60.3418 52.1699  59
   0  -7   4 6486.52 207.128  50
   0  -7   4 6909.93 222.299  59
   0  -7   5 10338.5 248.706  76
   0  -7   5 9445.60 251.621  50
   0  -7   6 1407.99 96.1752  50
   0  -7   7 1366.61 87.2122  74
   0  -7   7 1149.22 74.6301  50
   0  -7   8 127.270 30.8527  74
   0  -6  -8 3218.35 92.2086  21
   0  -6  -8 3249.32 94.2857  14
   0  -6  -8 3377.01 100.116  63
   0  -6  -7 8378.68 180.663  21
   0  -6  -7 7976.62 172.584  14
   0  -6  -7 7883.69 184.403  52
   0  -6  -6 12151.1 236.862  21
   0  -6  -6 11823.9 253.502  52
   0  -6  -5 8787.22 196.293  21
   0  -6  -5 8809.41 213.328  52
   0  -6  -4 4179.80 133.718  21
   0  -6  -4 4445.94 146.617  52
   0  -6  -3 4863.32 136.394  21
   0  -6  -3 4753.84 145.286  52
   0  -6  -2 1662.73 80.3606  21
   0  -6  -2 1430.36 80.0785  52
   0  -6  -1 6803.72 159.897  21
   0  -6  -1 7017.66 141.155  14
   0  -6  -1 6867.06 139.068  47
   0  -6  -1 7016.39 170.215  52
   0  -6  -1 6856.19 153.931  50
   0  -6   0 9124.03 158.247  14
   0  -6   0 8960.20 164.655  63
   0  -6   0 8714.43 174.503  47
   0  -6   1 8436.74 182.271  47
   0  -6   1 8714.15 189.306  52
   0  -6   1 9040.99 212.685  59
   0  -6   2 4935.97 120.787  69
   0  -6   2 5009.74 145.194  47
   0  -6   2 5036.52 165.805  59
   0  -6   2 5075.40 151.104  50
   0  -6   3 4778.28 129.794  69
   0  -6   3 4826.77 172.071  59
   0  -6   3 4707.58 156.703  50
   0  -6   4 66622.7 892.709  59
   0  -6   4 66668.4 855.708  50
   0  -6   5 7021.69 209.117  50
   0  -6   6 2689.66 133.306  50
   0  -6   7 1128.78 93.5239  74
   0  -6   7 1070.15 79.7612  50
   0  -6   8 2609.37 110.538  74
   0  -6   9 3190.92 83.2319  74
   0  -5  -8 1054.50 62.2840  14
   0  -5  -8 1094.68 60.4098  21
   0  -5  -7 10925.4 217.500  21
   0  -5  -7 11562.8 231.920  52
   0  -5  -6 194.136 43.3686  21
   0  -5  -5 4244.45 110.203  20
   0  -5  -5 4030.32 107.439  57
   0  -5  -5 4306.40 136.739  52
   0  -5  -4 19751.7 281.024  20
   0  -5  -4 19229.7 281.423  57
   0  -5  -3 450.254 41.3494  19
   0  -5  -3 417.100 42.4969  57
   0  -5  -2 2615.39 83.9648  21
   0  -5  -2 2651.92 84.1464  20
   0  -5  -2 2562.80 84.8683  19
   0  -5  -2 2527.85 83.8743  57
   0  -5  -2 2505.00 73.2009  50
   0  -5  -1 115575. 1196.10  21
   0  -5  -1 115591. 1205.14  20
   0  -5  -1 114435. 1208.41  19
   0  -5  -1 112672. 1173.38  47
   0  -5  -1 114258. 1205.13  57
   0  -5   0 12630.0 420.372   4
   0  -5   0 12923.7 221.033  19
   0  -5   0 13069.5 221.462  57
   0  -5   0 12878.6 212.809  52
   0  -5   0 12268.1 198.086  47
   0  -5   1 15174.6 403.918   4
   0  -5   1 17193.9 256.384  52
   0  -5   2 3115.02 101.759  47
   0  -5   2 2803.21 107.247  59
   0  -5   2 2902.92 89.2628  52
   0  -5   3 7310.83 176.841  47
   0  -5   3 7322.31 196.706  59
   0  -5   4 75955.0 866.648  69
   0  -5   4 75415.3 910.677  50
   0  -5   5 3787.08 144.955  50
   0  -5   6 17988.5 370.349  76
   0  -5   6 16932.7 341.378  50
   0  -5   7 17418.1 365.319  74
   0  -5   7 16951.9 351.456  76
   0  -5   7 17047.8 332.529  50
   0  -5   8 11013.0 261.034  74
   0  -5   9 4768.73 132.962  74
   0  -4  -9 609.898 44.3019  63
   0  -4  -8 714.285 51.7899  21
   0  -4  -7 416.730 49.5650  52
   0  -4  -6 6136.54 120.893  20
   0  -4  -6 6136.10 155.442  52
   0  -4  -5 13781.2 199.291  20
   0  -4  -5 13438.3 199.762  57
   0  -4  -4 5827.23 111.794  20
   0  -4  -4 5652.82 377.864  10
   0  -4  -4 5849.00 113.789  57
   0  -4  -3 152752. 1537.10  19
   0  -4  -3 156668. 2246.78   1
   0  -4  -3 152413. 1535.02  57
   0  -4  -2 44054.6 483.950  20
   0  -4  -2 43014.6 489.315  19
   0  -4  -2 44305.9 908.874   1
   0  -4  -2 45753.4 898.075   3
   0  -4  -2 43927.8 488.179  57
   0  -4  -1 47385.5 522.064  20
   0  -4  -1 46895.5 527.594  19
   0  -4  -1 48291.1 1040.02   5
   0  -4  -1 47866.1 525.805  57
   0  -4   0 59181.2 624.827  21
   0  -4   0 55857.1 815.090   7
   0  -4   0 57822.8 634.251  19
   0  -4   0 56888.1 907.010   4
   0  -4   0 56177.6 1131.67   5
   0  -4   0 57251.3 632.423  57
   0  -4   0 57787.4 617.768  47
   0  -4   1 87180.5 1158.69   4
   0  -4   1 89722.3 954.996  19
   0  -4   1 87804.7 1526.16   5
   0  -4   1 89861.2 940.846  21
   0  -4   1 89508.2 941.510  52
   0  -4   1 90920.5 942.535  47
   0  -4   2 266394. 3455.12   5
   0  -4   2 269800. 2711.41  47
   0  -4   2 274657. 2691.44  52
   0  -4   2 272473. 2737.42  59
   0  -4   3 141306. 2294.99   9
   0  -4   3 137933. 1463.89  47
   0  -4   3 142379. 1491.12  59
   0  -4   4 3503.00 309.006  10
   0  -4   4 3494.41 319.185   9
   0  -4   4 3937.96 110.187  69
   0  -4   4 3792.45 89.8050  54
   0  -4   4 3739.96 120.963  50
   0  -4   5 6980.77 163.495  69
   0  -4   5 6757.18 130.944  78
   0  -4   5 6799.42 137.224  54
   0  -4   5 6731.63 178.755  50
   0  -4   6 10121.9 178.042  78
   0  -4   6 10619.5 262.389  76
   0  -4   6 9852.60 184.399  54
   0  -4   6 10403.5 238.577  50
   0  -4   7 5947.57 202.242  74
   0  -4   7 6041.71 136.299  54
   0  -4   7 6011.63 172.567  50
   0  -4   8 5770.13 189.069  74
   0  -4   9 3043.17 112.463  75
   0  -4   9 3121.65 119.216  74
   0  -4  10 285.731 31.1171  74
   0  -3  -9 286.331 35.2033  63
   0  -3  -8 14845.3 235.742  21
   0  -3  -7 3193.51 101.674  52
   0  -3  -6 5385.88 99.5800  20
   0  -3  -5 23634.1 282.163  20
   0  -3  -5 23624.6 282.282  57
   0  -3  -4 17226.4 569.888   3
   0  -3  -4 16642.8 209.381  20
   0  -3  -4 16407.8 586.032   1
   0  -3  -4 17108.6 210.649  57
   0  -3  -3 137402. 1897.43   3
   0  -3  -3 143001. 1967.60   1
   0  -3  -3 136760. 1366.21  20
   0  -3  -3 132035. 1894.80   5
   0  -3  -3 139536. 1370.07  57
   0  -3  -2 169000. 1653.74  20
   0  -3  -2 171661. 2146.11   1
   0  -3  -2 168584. 2176.74   5
   0  -3  -1 74927.8 766.516  20
   0  -3  -1 76456.6 1084.49   3
   0  -3  -1 77174.7 1183.76   5
   0  -3  -1 75262.7 770.287  57
   0  -3   0 233503. 2287.65  20
   0  -3   0 231799. 2290.14  19
   0  -3   0 236556. 2754.29   5
   0  -3   0 234906. 2287.74  57
   0  -3   1 109812. 1116.38  19
   0  -3   1 110179. 1108.10  47
   0  -3   2 368018. 4119.01   5
   0  -3   2 363817. 3567.35  16
   0  -3   2 366182. 3554.60  54
   0  -3   2 371124. 3601.02  59
   0  -3   2 367021. 3585.75  47
   0  -3   3 48671.6 536.801  16
   0  -3   3 47941.0 955.311   5
   0  -3   3 50383.6 1062.14   9
   0  -3   3 50534.3 569.326  47
   0  -3   3 48292.1 531.494  54
   0  -3   4 43688.5 938.509  10
   0  -3   4 43026.5 1036.71   9
   0  -3   4 42561.5 493.347  54
   0  -3   4 43651.3 528.132  50
   0  -3   4 42717.7 536.116  59
   0  -3   5 3782.71 109.484  69
   0  -3   5 3688.61 93.1088  78
   0  -3   5 3845.39 134.575  76
   0  -3   6 35264.2 541.100  74
   0  -3   6 35542.8 532.490  76
   0  -3   6 35225.9 451.415  54
   0  -3   6 35808.5 483.156  50
   0  -3   7 2824.44 135.481  74
   0  -3   7 2833.75 110.406  71
   0  -3   7 2582.30 129.471  76
   0  -3   7 2605.61 95.8433  54
   0  -3   7 2605.55 99.9622  50
   0  -3   8 14868.8 318.572  74
   0  -3   8 15370.1 246.544  54
   0  -3   9 2909.62 114.827  75
   0  -3   9 2765.26 116.628  74
   0  -3  10 17.6932 26.7835  74
   0  -3  10 6.40476 27.1376  75
   0  -2  -9 489.925 38.1895  63
   0  -2  -8 4106.75 101.386  21
   0  -2  -7 1035.19 52.2796  52
   0  -2  -5 30345.6 1025.46   9
   0  -2  -4 253581. 3146.85   1
   0  -2  -3 40090.9 786.911   1
   0  -2  -2 48955.9 811.904   2
   0  -2  -2 49951.4 811.097   1
   0  -2  -2 50192.7 782.603   5
   0  -2  -1 397558. 4077.11   5
   0  -2  -1 399427. 4027.39   2
   0  -2   0 17686.9 316.074   1
   0  -2   0 18310.5 388.140   5
   0  -2   2 711682. 7174.12   5
   0  -2   2 707239. 7333.82   9
   0  -2   3 52956.3 559.952  16
   0  -2   3 54307.5 589.221  47
   0  -2   3 53184.3 579.443  54
   0  -2   4 47777.8 783.869  10
   0  -2   4 47072.8 524.536  16
   0  -2   4 50163.8 558.485  54
   0  -2   4 50021.8 556.331  50
   0  -2   5 6138.01 134.437  67
   0  -2   5 6242.67 166.191  74
   0  -2   5 5990.83 162.570  76
   0  -2   5 6392.20 135.981  69
   0  -2   5 6232.51 122.841  78
   0  -2   5 5978.10 139.294  54
   0  -2   5 6053.81 134.899  50
   0  -2   6 15836.3 308.739  74
   0  -2   6 15398.4 231.596  73
   0  -2   6 15543.3 278.746  71
   0  -2   6 15871.2 240.360  78
   0  -2   6 16283.7 307.422  76
   0  -2   6 15883.2 266.073  54
   0  -2   6 15765.1 253.968  50
   0  -2   7 50657.6 631.975  67
   0  -2   7 51910.0 722.988  74
   0  -2   7 50628.9 605.855  73
   0  -2   7 52904.6 664.373  71
   0  -2   7 53700.8 618.029  78
   0  -2   7 52175.8 719.255  76
   0  -2   7 53594.7 655.330  54
   0  -2   8 11107.8 262.686  74
   0  -2   8 11254.9 221.618  54
   0  -2   9 454.326 59.5400  75
   0  -2   9 404.883 58.4491  74
   0  -2  10 98.8352 33.0502  75
   0  -2  10 182.580 33.8671  74
   0  -1  -5 6175.89 252.453  13
   0  -1  -5 6522.98 343.082   1
   0  -1  -5 6413.44 418.657   9
   0  -1  -4 135027. 1997.89   8
   0  -1  -4 136508. 1863.46   1
   0  -1  -3 94743.1 1414.70   8
   0  -1  -3 93059.1 1322.37   2
   0  -1  -2 430359. 4435.69   8
   0  -1  -2 429637. 4207.24  13
   0  -1  -1 36201.6 506.963   6
   0  -1  -1 35781.5 526.627   2
   0  -1   1 304792. 3078.97   5
   0  -1   2 242026. 2695.18   9
   0  -1   2 241088. 2494.79   5
   0  -1   3 54503.4 606.042  49
   0  -1   4 16011.7 249.012  49
   0  -1   5 157023. 1561.93  16
   0  -1   5 157854. 1666.64  74
   0  -1   5 155879. 1589.35  78
   0  -1   5 159278. 1666.58  76
   0  -1   5 156891. 1660.44  49
   0  -1   5 158124. 1593.10  50
   0  -1   6 23117.5 375.841  74
   0  -1   6 22273.0 342.779  67
   0  -1   6 22260.4 311.654  66
   0  -1   6 22857.5 347.281  71
   0  -1   6 22864.7 307.154  78
   0  -1   6 22995.2 376.574  76
   0  -1   6 21711.9 351.735  54
   0  -1   7 16709.9 327.273  74
   0  -1   7 16994.6 291.961  67
   0  -1   7 16310.7 272.172  73
   0  -1   7 16808.3 256.623  66
   0  -1   7 16609.8 290.462  71
   0  -1   7 17329.3 307.302  54
   0  -1   8 7148.55 201.357  75
   0  -1   8 7102.26 202.734  74
   0  -1   8 6909.42 166.280  67
   0  -1   8 6982.30 163.357  73
   0  -1   8 7242.37 183.335  54
   0  -1   9 1729.63 91.3461  75
   0  -1   9 1641.19 90.3595  74
   0  -1  10 843.635 51.3020  75
   0   0  -6 32704.6 949.046   9
   0   0  -5 134866. 2206.21   8
   0   0  -5 136078. 1982.65  12
   0   0  -5 135018. 1885.88   1
   0   0  -5 138642. 2140.69   9
   0   0  -4 66277.1 1241.72   8
   0   0  -4 64472.2 1108.19  12
   0   0  -3 301440. 3544.11   8
   0   0  -3 305221. 3411.08  12
   0   0  -2 814637. 8183.00   9
   0   0  -1 131426. 1376.67  11
   0   0  -1 125045. 1346.12   2
   0   0   1 118646. 1288.31   2
   0   0   1 124759. 1303.93  11
   0   0   2 802731. 7957.87  11
   0   0   3 306590. 3026.00  49
   0   0   4 64605.4 733.622  49
   0   0   4 63524.6 725.551  53
   0   0   5 130514. 1414.76  49
   0   0   5 130446. 1403.45  53
   0   0   6 33400.3 477.669  74
   0   0   6 33038.1 420.512  66
   0   0   6 34180.0 452.588  71
   0   0   6 33175.4 409.795  78
   0   0   6 33545.3 404.260  77
   0   0   6 33208.1 496.443  49
   0   0   6 32349.8 483.667  53
   0   0   7 20289.4 358.667  75
   0   0   7 20704.0 361.267  74
   0   0   7 20268.0 297.920  66
   0   0   7 20400.4 284.444  77
   0   0   7 21527.2 385.683  49
   0   0   8 4404.11 151.247  75
   0   0   8 4473.01 153.595  74
   0   0   8 4404.48 136.146  73
   0   0   8 4546.37 154.307  54
   0   0   9 4943.98 146.882  75
   0   0   9 4632.72 121.869  67
   0   0  10 1465.08 61.8498  75
   0   1  -6 22745.9 816.435  12
   0   1  -5 158084. 1995.27   1
   0   1  -5 165571. 2549.72   8
   0   1  -5 160978. 2448.10  12
   0   1  -4 16027.5 380.824   1
   0   1  -3 57730.4 1014.10  11
   0   1  -2 254198. 2827.30  11
   0   1  -1 307713. 3003.04   4
   0   1   1 34770.5 569.534   8
   0   1   1 36811.2 510.193   6
   0   1   2 407239. 4452.72   8
   0   1   3 86905.0 1262.38  11
   0   1   3 89353.7 947.684  39
   0   1   4 129502. 1786.55  11
   0   1   4 136576. 1433.06  49
   0   1   5 6574.29 151.150  75
   0   1   5 6621.46 151.093  74
   0   1   5 6552.53 174.144  49
   0   1   5 6701.06 170.879  53
   0   1   6 9486.83 206.658  75
   0   1   6 9558.35 204.827  74
   0   1   6 9391.47 168.112  77
   0   1   6 9807.86 238.081  49
   0   1   6 9268.23 230.995  53
   0   1   7 9395.14 216.524  75
   0   1   7 9047.41 212.137  74
   0   1   7 9099.80 173.867  77
   0   1   7 9497.71 252.095  49
   0   1   7 9449.21 241.322  53
   0   1   8 5347.60 159.827  75
   0   1   8 5523.05 157.700  74
   0   1   8 5481.47 127.732  77
   0   1   8 5603.96 193.079  49
   0   1   9 267.421 47.6910  75
   0   1   9 264.290 37.2671  67
   0   1   9 323.947 47.8869  73
   0   1  10 2067.40 69.9938  73
   0   2  -5 7253.66 311.690   7
   0   2  -4 52449.1 815.214   7
   0   2  -4 54683.2 1203.77  11
   0   2  -3 51233.8 618.989   1
   0   2  -3 55757.5 724.207   7
   0   2  -3 54779.2 748.406   6
   0   2  -3 56104.5 1086.70  11
   0   2  -3 51429.8 645.842   4
   0   2  -2 688429. 6880.77   6
   0   2   0 17479.8 370.170   6
   0   2   0 16891.2 333.703   3
   0   2   1 391187. 4051.66  13
   0   2   1 402853. 4149.54   6
   0   2   2 47761.3 934.207   8
   0   2   3 37311.0 457.233  39
   0   2   3 36419.5 448.282  37
   0   2   4 253951. 3139.58  11
   0   2   4 252522. 2598.47  39
   0   2   4 253797. 2581.37  37
   0   2   4 257708. 2528.23  36
   0   2   5 32584.9 424.736  75
   0   2   5 32253.0 423.005  74
   0   2   5 32398.0 402.312  66
   0   2   5 32901.4 397.914  77
   0   2   5 31814.3 487.023  49
   0   2   6 47498.2 594.207  75
   0   2   6 46619.2 589.429  74
   0   2   6 47920.0 561.452  77
   0   2   6 48616.0 684.301  49
   0   2   6 46740.5 670.550  53
   0   2   7 675.079 60.8075  75
   0   2   7 655.200 66.9156  67
   0   2   7 681.801 80.8940  49
   0   2   7 709.682 75.2220  53
   0   2   8 4173.52 129.492  75
   0   2   8 4471.85 145.104  67
   0   2   8 4340.33 162.282  53
   0   2   8 4421.86 174.247  49
   0   2   9 535.667 54.9334  73
   0   2   9 491.663 46.4673  75
   0   2  10 1310.80 55.8968  73
   0   3  -5 3843.06 77.5140  15
   0   3  -4 43125.1 1180.47  11
   0   3  -4 43080.2 758.415   6
   0   3  -4 41755.7 450.575  15
   0   3  -4 41229.0 450.596  48
   0   3  -3 51009.9 841.614   6
   0   3  -3 49694.9 521.514  15
   0   3  -2 360543. 3505.16  62
   0   3  -2 383168. 3952.63   6
   0   3  -1 113744. 1513.47   6
   0   3  -1 113130. 1403.64   3
   0   3   0 232098. 2251.38  39
   0   3   0 230303. 2257.73  15
   0   3   0 232205. 2703.40   6
   0   3   1 73372.2 791.836  39
   0   3   1 77569.8 786.228  35
   0   3   1 77281.6 789.683  42
   0   3   1 78934.2 1100.52  13
   0   3   1 75863.6 784.759  18
   0   3   1 74784.4 1183.11   6
   0   3   2 164211. 1680.49  39
   0   3   2 166186. 1675.64  42
   0   3   2 165130. 1657.31  65
   0   3   2 164704. 2360.73   8
   0   3   3 137305. 1449.86  39
   0   3   3 138597. 1439.16  37
   0   3   3 136888. 1447.47  42
   0   3   3 132804. 2272.62   8
   0   3   3 137824. 1815.86  12
   0   3   4 16756.1 299.246  39
   0   3   4 16436.3 285.999  37
   0   3   4 16552.2 236.501  77
   0   3   5 24527.9 327.510  77
   0   3   5 24775.4 333.874  75
   0   3   5 24078.8 423.963  49
   0   3   6 5447.23 130.258  77
   0   3   6 5453.67 176.351  68
   0   3   6 5629.39 137.307  75
   0   3   6 5446.60 192.011  49
   0   3   7 3275.15 104.698  77
   0   3   7 3199.77 105.333  75
   0   3   7 3538.85 160.238  49
   0   3   7 3397.51 152.321  53
   0   3   8 15330.5 289.991  67
   0   3   8 15649.9 340.961  49
   0   3   8 15929.1 332.137  53
   0   3   9 336.165 44.1117  73
   0   3  10 552.211 35.6099  73
   0   4  -9 2738.01 57.0285  22
   0   4  -8 5799.29 104.048  58
   0   4  -7 6190.18 113.240  33
   0   4  -6 10093.7 159.382  33
   0   4  -5 6983.04 116.478  15
   0   4  -5 6899.07 120.273  62
   0   4  -4 3474.53 77.0893  33
   0   4  -4 3987.77 233.608   3
   0   4  -4 3761.97 78.5265  15
   0   4  -4 3936.19 80.7671  62
   0   4  -4 3564.00 69.0674  48
   0   4  -3 140308. 1394.29  33
   0   4  -3 140339. 1399.64  62
   0   4  -3 141418. 1839.82   3
   0   4  -3 142864. 1986.60   6
   0   4  -3 140354. 1402.03  15
   0   4  -2 272381. 2633.24  33
   0   4  -2 266319. 2644.92  15
   0   4  -2 273321. 2635.07  22
   0   4  -2 269907. 2642.00  62
   0   4  -1 92382.6 1333.39   3
   0   4  -1 93767.8 944.701  15
   0   4  -1 94928.6 1468.77   6
   0   4  -1 92762.5 931.142  22
   0   4  -1 91216.1 935.269  39
   0   4  -1 93040.4 934.255  58
   0   4   0 57934.3 608.538  22
   0   4   0 57974.4 610.222  39
   0   4   0 57019.9 603.949  34
   0   4   0 58992.2 607.307  35
   0   4   1 47298.3 528.897  18
   0   4   1 47479.1 1008.84   6
   0   4   1 47598.8 536.013  39
   0   4   1 47866.0 507.198  31
   0   4   1 47082.5 529.226  35
   0   4   1 47556.5 534.740  42
   0   4   2 44246.2 1123.90   8
   0   4   2 43659.7 534.824  39
   0   4   2 42950.4 497.332  28
   0   4   2 44015.5 533.764  42
   0   4   2 44762.2 496.760  60
   0   4   3 152032. 1611.90  39
   0   4   3 154617. 1601.98  37
   0   4   3 153697. 1535.29  36
   0   4   3 148414. 1533.22  28
   0   4   3 148574. 1609.20  42
   0   4   3 148339. 1568.54  65
   0   4   3 152410. 1529.21  77
   0   4   3 148084. 2088.22  12
   0   4   4 5851.26 174.591  39
   0   4   4 5836.53 119.771  36
   0   4   4 5672.00 122.486  77
   0   4   5 13609.3 304.113  39
   0   4   5 13122.0 285.538  68
   0   4   5 13395.7 221.655  77
   0   4   6 6036.37 145.286  77
   0   4   6 6219.67 196.066  68
   0   4   6 6182.22 213.069  49
   0   4   7 242.976 52.0356  68
   0   4   7 334.917 68.9455  49
   0   4   7 324.942 66.3086  53
   0   4   8 818.943 79.3970  49
   0   4   8 827.514 77.2317  53
   0   4   9 652.194 46.5653  73
   0   4   9 693.089 59.2546  49
   0   4  10 414.913 24.1393  73
   0   5  -8 10499.7 148.203  22
   0   5  -7 17484.8 233.547  22
   0   5  -7 17361.7 226.812  58
   0   5  -6 19055.1 257.312  22
   0   5  -6 19528.4 244.082  33
   0   5  -6 19275.3 253.416  58
   0   5  -5 3401.85 76.3421  33
   0   5  -5 3179.54 81.3824  22
   0   5  -5 3237.02 79.6667  62
   0   5  -5 3333.77 80.5796  58
   0   5  -4 76047.2 801.444  33
   0   5  -4 77773.4 816.613  15
   0   5  -4 76410.6 813.525  62
   0   5  -4 78845.3 809.523  58
   0   5  -3 7630.57 134.697  15
   0   5  -3 7353.80 125.033  58
   0   5  -2 3119.37 74.0991  39
   0   5  -2 3005.23 218.481   3
   0   5  -2 3213.01 71.8868  22
   0   5  -1 15151.2 206.352  39
   0   5  -1 14880.2 202.341  22
   0   5  -1 14779.4 204.398  18
   0   5  -1 14765.6 586.554   6
   0   5   0 12485.5 192.364  39
   0   5   0 12564.1 187.551  35
   0   5   0 13133.6 488.040  13
   0   5   1 110342. 1187.01  42
   0   5   1 109724. 1188.34  39
   0   5   1 110989. 1143.12  31
   0   5   1 113015. 1174.24  35
   0   5   1 116986. 1751.09  13
   0   5   1 113429. 1180.43  18
   0   5   1 114216. 1180.10  65
   0   5   2 2416.84 95.8514  39
   0   5   2 2378.12 76.4263  28
   0   5   2 2538.20 98.1803  42
   0   5   3 390.095 56.7559  39
   0   5   3 402.999 52.4321  37
   0   5   3 471.400 39.4235  77
   0   5   3 485.278 46.5570  65
   0   5   4 19992.0 374.471  39
   0   5   4 19706.9 285.090  77
   0   5   5 4251.15 173.085  39
   0   5   5 4288.93 162.301  68
   0   5   5 4329.98 116.949  77
   0   5   6 188.967 51.6683  68
   0   5   6 192.601 60.2248  49
   0   5   7 11614.6 250.884  68
   0   5   7 11396.4 296.098  49
   0   5   7 11771.0 291.096  53
   0   5   8 1007.84 59.6760  73
   0   5   8 1080.74 80.0548  49
   0   5   8 1021.08 73.8049  53
   0   5   9 50.1319 22.4130  73
   0   6  -8 2388.37 59.8068  39
   0   6  -7 1081.32 42.8733  22
   0   6  -7 1147.03 48.9333  39
   0   6  -6 2837.68 74.9838  22
   0   6  -6 2956.44 74.7108  58
   0   6  -5 7467.87 133.972  22
   0   6  -5 7476.12 141.489  39
   0   6  -5 7383.68 133.407  58
   0   6  -4 69035.0 739.680  22
   0   6  -4 68201.6 750.431  39
   0   6  -4 69317.3 742.122  58
   0   6  -3 5074.04 111.361  39
   0   6  -3 4833.05 107.182  58
   0   6  -2 5132.97 114.581  39
   0   6  -2 5144.85 108.680  18
   0   6  -1 8942.03 164.622  39
   0   6  -1 8416.45 160.140  35
   0   6  -1 8772.78 157.495  18
   0   6   0 8622.64 175.726  39
   0   6   0 8628.46 146.394  31
   0   6   0 8275.07 172.541  42
   0   6   0 8541.11 166.430  35
   0   6   0 8643.29 167.404  18
   0   6   1 6826.10 163.102  39
   0   6   1 6413.76 159.890  42
   0   6   1 6608.42 156.358  35
   0   6   1 6312.62 125.490  31
   0   6   1 6802.80 160.092  65
   0   6   2 1667.07 92.0497  39
   0   6   2 1464.34 64.0997  28
   0   6   2 1469.50 86.7495  42
   0   6   2 1512.56 64.3165  60
   0   6   3 5105.68 166.292  39
   0   6   3 4982.79 164.159  42
   0   6   3 4571.54 140.868  65
   0   6   4 4689.81 174.497  39
   0   6   5 9093.48 256.419  39
   0   6   5 9219.50 229.214  37
   0   6   5 9304.35 238.671  68
   0   6   6 11855.7 261.163  68
   0   6   6 12167.8 300.914  49
   0   6   7 8255.03 222.923  49
   0   6   7 8000.20 213.156  53
   0   6   8 3292.10 111.729  49
   0   6   8 3137.12 103.249  53
   0   7  -7 1294.22 47.5759  39
   0   7  -7 1157.12 52.1724  65
   0   7  -6 1345.92 51.1816  22
   0   7  -5 8962.02 166.691  39
   0   7  -5 9949.95 164.368  22
   0   7  -4 7156.77 148.817  39
   0   7  -4 7090.38 141.622  22
   0   7  -3 68.3522 32.6569  39
   0   7  -3 47.3168 32.1184  35
   0   7  -3 108.269 30.9708  22
   0   7  -2 7307.89 158.740  39
   0   7  -2 7095.90 156.374  35
   0   7  -2 7223.91 144.969  18
   0   7  -1 1945.85 86.7444  39
   0   7  -1 1995.99 84.9491  35
   0   7   0 2226.07 99.2012  39
   0   7   0 2177.65 73.4920  31
   0   7   0 2149.69 93.5449  35
   0   7   0 2230.79 96.1238  42
   0   7   0 2046.58 95.2495  65
   0   7   1 11979.0 256.067  39
   0   7   1 11650.3 216.731  28
   0   7   1 12171.1 252.116  42
   0   7   1 11433.0 211.291  60
   0   7   2 3667.04 144.095  39
   0   7   2 3640.40 103.517  28
   0   7   2 3864.86 143.355  42
   0   7   2 3511.40 103.022  60
   0   7   3 14416.6 313.744  39
   0   7   3 14419.3 306.602  42
   0   7   4 23945.4 442.463  39
   0   7   4 25294.6 412.218  37
   0   7   5 8768.24 241.951  39
   0   7   5 9495.44 213.927  37
   0   7   5 9147.42 221.866  68
   0   7   6 19406.1 260.300  73
   0   7   6 19997.0 364.671  49
   0   7   7 3968.91 75.4303  73
   0   7   7 4161.46 130.082  49
   0   7   7 4236.68 125.468  53
   0   8  -6 1755.72 59.0017  39
   0   8  -6 1780.49 68.1704  65
   0   8  -5 5498.40 112.774  42
   0   8  -5 5845.81 126.900  35
   0   8  -5 5696.51 141.770  65
   0   8  -4 746.069 50.9153  39
   0   8  -4 667.089 51.1904  35
   0   8  -3-1.57816 31.3233  39
   0   8  -3 39.3628 34.1866  35
   0   8  -3 42.4294 27.3565  42
   0   8  -3 20.7469 34.9193  65
   0   8  -2 4027.06 125.639  39
   0   8  -2 3811.16 100.121  31
   0   8  -2 3790.93 119.820  35
   0   8  -2 3602.19 115.186  42
   0   8  -2 3931.71 129.259  65
   0   8  -1 2875.78 113.296  39
   0   8  -1 2853.27 108.186  35
   0   8  -1 2811.42 113.750  65
   0   8   0 15167.1 288.438  39
   0   8   0 14629.9 257.436  28
   0   8   0 15065.1 285.370  65
   0   8   0 14637.7 250.036  60
   0   8   1 9970.02 237.253  39
   0   8   1 10338.0 237.065  42
   0   8   1 9687.27 225.578  65
   0   8   2 7148.48 204.832  39
   0   8   2 7150.77 199.372  42
   0   8   2 7005.41 181.431  65
   0   8   3 112.569 52.7565  39
   0   8   3 109.010 40.7847  37
   0   8   4 3184.80 134.274  39
   0   8   4 3300.53 124.310  68
   0   8   5 720.787 66.5473  49
   0   8   6 1972.61 85.2512  49
   0   8   6 1817.13 81.6322  53
   0   9  -5 2962.30 80.8648  35
   0   9  -5 3006.46 87.6046  65
   0   9  -4 1019.13 54.4207  39
   0   9  -4 1097.70 56.1163  35
   0   9  -4 1068.07 60.2399  65
   0   9  -3 1733.66 75.4866  35
   0   9  -3 1703.18 66.4644  42
   0   9  -3 1808.19 83.1253  65
   0   9  -2 1249.73 72.0489  39
   0   9  -2 1218.11 70.1549  35
   0   9  -2 1299.19 66.4260  42
   0   9  -2 1239.66 73.5890  65
   0   9  -2 1244.90 62.1326  60
   0   9  -1 3239.90 117.093  39
   0   9  -1 2978.29 105.645  42
   0   9  -1 3153.03 115.734  65
   0   9   0 202.544 47.1302  39
   0   9   0 151.522 38.8305  65
   0   9   1 694.100 67.8712  39
   0   9   2 1812.94 98.0616  39
   0   9   3 643.062 63.5217  39
   0   9   4 762.730 60.7683  49
   0  10  -2 1182.91 59.5465  65
   0  10  -1 1600.94 69.1212  65
   0  10   0 974.682 58.9710  39
   0  10   0 918.958 52.9157  65
   0  10   1 3197.12 102.336  39
   0  10   2 882.068 54.4996  39
   1 -10  -1 1374.82 71.3052  59
   1 -10   0 845.845 58.6842  59
   1 -10   1 406.139 45.2748  59
   1  -9  -4 2702.23 92.4820  59
   1  -9  -4 3177.22 102.849  52
   1  -9  -3 1080.01 66.8168  52
   1  -9  -3 1014.25 66.3980  59
   1  -9  -2 332.300 46.7432  52
   1  -9  -2 409.921 52.2284  59
   1  -9  -1 878.149 74.4745  59
   1  -9   0 1391.14 90.6912  59
   1  -9   0 1345.62 70.9749  50
   1  -9   1 3642.79 140.710  59
   1  -9   1 3438.16 118.477  50
   1  -9   2 2070.65 108.412  59
   1  -9   3 54.3675 36.3441  50
   1  -9   4 4749.13 140.271  50
   1  -9   5 1971.58 71.9673  74
   1  -9   5 2181.26 86.0659  50
   1  -8  -6 307.176 36.6101  21
   1  -8  -6 275.782 38.6848  52
   1  -8  -5 3792.35 113.917  21
   1  -8  -5 3550.57 102.109  63
   1  -8  -5 3737.49 121.395  52
   1  -8  -4 1811.87 87.2799  21
   1  -8  -4 1899.01 95.3744  52
   1  -8  -3 3210.95 118.084  21
   1  -8  -3 3383.06 124.515  52
   1  -8  -2 1174.64 76.7294  21
   1  -8  -2 1165.80 79.3701  52
   1  -8  -1 1302.57 79.4612  52
   1  -8  -1 1238.94 69.7413  50
   1  -8   0 665.597 58.4697  52
   1  -8   0 607.385 58.4904  50
   1  -8   0 550.965 68.6716  59
   1  -8   1 638.995 75.9480  59
   1  -8   2 4735.88 175.254  59
   1  -8   2 4543.53 153.372  50
   1  -8   3 1970.97 107.606  50
   1  -8   4 8186.86 214.802  59
   1  -8   4 8484.90 218.365  50
   1  -8   5 272.948 51.9445  50
   1  -8   6 1165.29 65.9749  74
   1  -8   6 1097.81 70.3687  50
   1  -7  -7 7003.19 146.852  21
   1  -7  -7 6771.15 135.528  14
   1  -7  -7 7039.23 145.875  63
   1  -7  -6 7765.86 171.499  21
   1  -7  -6 7906.97 186.865  52
   1  -7  -5 18551.0 300.353  21
   1  -7  -5 18044.0 317.520  52
   1  -7  -4 25049.3 373.710  21
   1  -7  -4 24478.6 389.940  52
   1  -7  -3 18853.3 306.418  21
   1  -7  -3 18332.4 312.398  57
   1  -7  -3 18082.1 317.437  52
   1  -7  -2 6819.90 165.621  21
   1  -7  -2 6742.39 139.588  14
   1  -7  -2 6859.20 177.054  57
   1  -7  -2 6276.82 171.260  52
   1  -7  -2 6790.22 149.943  50
   1  -7  -1 17486.1 290.065  21
   1  -7  -1 17447.2 309.158  19
   1  -7  -1 16987.6 255.367  63
   1  -7  -1 17212.8 270.665  47
   1  -7   0 4826.22 134.889  21
   1  -7   0 4429.89 128.154  47
   1  -7   0 4533.85 137.008  52
   1  -7   1 2783.02 102.562  52
   1  -7   1 3041.73 131.911  59
   1  -7   2 278.759 54.2735  47
   1  -7   2 268.172 62.3697  59
   1  -7   3 7043.53 196.375  47
   1  -7   3 6712.50 195.360  50
   1  -7   4 16696.5 328.295  50
   1  -7   4 16269.0 336.061  59
   1  -7   5 335.929 62.8783  50
   1  -7   6 1424.97 94.9215  76
   1  -7   6 1570.27 93.7746  50
   1  -7   7 169.232 39.8355  74
   1  -7   7 146.595 40.5793  76
   1  -6  -8 382.608 35.9132  14
   1  -6  -7 2097.38 86.4478  21
   1  -6  -6 176.538 45.0213  21
   1  -6  -6 190.770 38.2487  20
   1  -6  -6 174.375 49.3992  52
   1  -6  -5 10008.9 192.586  20
   1  -6  -5 9638.70 191.220  57
   1  -6  -4 5672.17 139.564  20
   1  -6  -4 5551.18 137.881  19
   1  -6  -3 23826.2 341.393  20
   1  -6  -3 24274.8 347.730  19
   1  -6  -3 23328.4 343.218  57
   1  -6  -2 52458.7 638.077  21
   1  -6  -2 56086.3 644.416  20
   1  -6  -2 54818.9 650.712  19
   1  -6  -2 53562.0 604.774  47
   1  -6  -2 54614.7 645.604  57
   1  -6  -1 3305.50 109.184  20
   1  -6  -1 3150.24 105.993  19
   1  -6  -1 2980.86 105.503  57
   1  -6  -1 3226.25 90.9191  47
   1  -6   0 692.452 49.5285  21
   1  -6   0 850.247 64.9155  19
   1  -6   0 744.131 61.5102  57
   1  -6   0 827.483 56.6995  52
   1  -6   0 810.007 53.0498  47
   1  -6   1 15266.8 275.373  19
   1  -6   1 15651.6 252.495  52
   1  -6   1 15726.1 259.561  47
   1  -6   2 40072.1 572.121  59
   1  -6   2 41506.9 542.443  47
   1  -6   3 24332.8 395.179  47
   1  -6   4 6291.16 188.468  47
   1  -6   4 6172.97 189.207  59
   1  -6   5 1994.00 110.846  50
   1  -6   6 196.006 58.0686  76
   1  -6   6 175.082 51.8762  50
   1  -6   7 1567.93 100.853  76
   1  -6   8 6639.37 153.258  74
   1  -5  -9 199.177 29.1808  14
   1  -5  -8 1557.11 70.1790  52
   1  -5  -7 1847.87 67.1521  20
   1  -5  -7 1789.82 87.4926  52
   1  -5  -6 4570.64 113.460  20
   1  -5  -6 4477.58 110.862  57
   1  -5  -5 991.034 57.7375  20
   1  -5  -5 774.986 51.6540  57
   1  -5  -4 21504.6 296.778  20
   1  -5  -4 22941.4 304.872  19
   1  -5  -3 40995.9 485.805  19
   1  -5  -3 41353.6 485.567  57
   1  -5  -2 22527.0 293.527  20
   1  -5  -2 22207.2 299.162  19
   1  -5  -2 21842.5 271.244  47
   1  -5  -2 22214.0 297.577  57
   1  -5  -1 9381.09 161.255  20
   1  -5  -1 8922.28 434.856   4
   1  -5  -1 8896.68 163.354  19
   1  -5  -1 8993.27 145.582  47
   1  -5  -1 9508.08 164.334  57
   1  -5   0 22150.3 290.377  21
   1  -5   0 21823.1 666.929   4
   1  -5   0 22500.2 308.337  20
   1  -5   0 22255.3 306.651  19
   1  -5   0 22234.4 305.981  57
   1  -5   1 32275.7 396.937  21
   1  -5   1 32687.7 421.615  19
   1  -5   1 33164.7 424.285  57
   1  -5   1 33000.5 398.946  52
   1  -5   1 33206.3 410.869  47
   1  -5   2 1622.84 79.1637  19
   1  -5   2 1505.89 74.1163  47
   1  -5   3 33153.9 457.736  47
   1  -5   4 1811.04 96.0207  47
   1  -5   4 1866.64 97.2054  59
   1  -5   5 10610.8 238.117  50
   1  -5   6 10427.5 283.723  76
   1  -5   7 11986.2 271.069  71
   1  -5   7 11702.4 297.081  76
   1  -5   8 2331.25 116.137  76
   1  -5   9 766.810 55.6002  75
   1  -5   9 691.082 44.9447  74
   1  -4  -9 1399.41 55.3587  21
   1  -4  -8 1512.31 70.3606  52
   1  -4  -7 1622.74 60.2860  20
   1  -4  -6 8637.87 150.339  20
   1  -4  -6 8669.98 152.181  57
   1  -4  -5 7171.31 131.591  20
   1  -4  -5 7053.96 131.818  57
   1  -4  -4 83574.4 862.223  19
   1  -4  -4 81309.1 839.462  40
   1  -4  -3 9224.32 147.249  19
   1  -4  -3 9382.20 419.910   5
   1  -4  -3 9105.18 133.318  40
   1  -4  -3 9238.19 147.149  57
   1  -4  -2 20104.7 247.146  20
   1  -4  -2 20219.5 254.407  19
   1  -4  -2 20257.4 560.545   2
   1  -4  -2 19484.8 240.405  40
   1  -4  -2 19695.0 251.760  57
   1  -4  -1 849.207 37.9186  20
   1  -4  -1 866.788 40.3774  19
   1  -4  -1 773.643 116.542   4
   1  -4  -1 842.353 39.4191  57
   1  -4   0 185202. 1880.85  20
   1  -4   0 190442. 1883.85  19
   1  -4   0 192106. 2122.62   2
   1  -4   0 191369. 1869.65  47
   1  -4   0 188330. 1880.52  57
   1  -4   1 970377. 9100.00  20
   1  -4   1 970527. 9097.85  19
   1  -4   1 976180. 9086.36  16
   1  -4   1 947431. 9688.54   4
   1  -4   1 971984. 9099.37  57
   1  -4   1 971422. 9088.78  47
   1  -4   2 203800. 3120.12   9
   1  -4   2 203716. 2040.55  19
   1  -4   2 200733. 2674.28   5
   1  -4   2 200828. 2022.46  16
   1  -4   2 204610. 2035.64  47
   1  -4   3 129872. 2004.99   5
   1  -4   3 136384. 1382.62  16
   1  -4   3 132008. 2461.62   9
   1  -4   3 135467. 1363.89  54
   1  -4   3 132412. 1428.06  59
   1  -4   3 133658. 1411.92  47
   1  -4   4 54971.4 628.977  16
   1  -4   4 53191.1 1171.98   5
   1  -4   4 55030.0 675.901  47
   1  -4   4 55152.1 668.010  59
   1  -4   4 55262.5 619.522  54
   1  -4   5 12689.3 218.509  16
   1  -4   5 12111.4 206.817  54
   1  -4   6 5681.61 194.881  76
   1  -4   6 5519.97 136.686  54
   1  -4   6 5557.25 163.733  50
   1  -4   7 3243.09 143.808  74
   1  -4   7 3545.76 143.568  71
   1  -4   7 3650.35 156.437  76
   1  -4   7 3424.40 106.896  54
   1  -4   8 9130.68 226.924  74
   1  -4   8 10262.0 253.030  76
   1  -4   9 2185.05 99.2234  75
   1  -4  10 1549.89 52.5277  75
   1  -3  -9 283.313 31.0893  21
   1  -3  -8 7269.23 148.935  52
   1  -3  -7 1770.08 59.2936  20
   1  -3  -6 36151.1 417.830  57
   1  -3  -5 2520.70 57.9321  40
   1  -3  -4 16418.5 211.445  19
   1  -3  -4 16013.2 479.817   5
   1  -3  -4 16567.9 204.413  40
   1  -3  -3 34083.8 383.240  19
   1  -3  -3 33828.4 791.602   2
   1  -3  -3 34384.9 375.416  40
   1  -3  -2 41649.9 453.221  19
   1  -3  -2 42297.3 780.910   3
   1  -3  -1 39783.2 434.195  19
   1  -3  -1 40180.6 768.330   4
   1  -3  -1 40287.3 426.808  40
   1  -3   0 625053. 6001.75  20
   1  -3   0 619146. 6010.79  19
   1  -3   0 624806. 6002.84  40
   1  -3   0 625152. 6006.13  57
   1  -3   1 124449. 1265.91  20
   1  -3   1 127846. 1267.21  19
   1  -3   1 128386. 1265.15  16
   1  -3   1 127668. 1267.57  64
   1  -3   1 126584. 1262.81  47
   1  -3   1 126381. 1265.25  57
   1  -3   2 14992.9 199.457  19
   1  -3   2 14338.5 193.964  16
   1  -3   2 14524.9 196.956  64
   1  -3   2 14960.4 190.927  54
   1  -3   2 14509.9 198.434  47
   1  -3   3 15815.2 229.384  19
   1  -3   3 15899.1 214.725  16
   1  -3   3 16279.1 680.130   9
   1  -3   3 16000.7 217.460  54
   1  -3   3 15985.4 231.629  59
   1  -3   3 15224.2 228.343  47
   1  -3   4 24054.7 312.916  16
   1  -3   4 24291.2 902.128   9
   1  -3   4 24696.3 624.072   5
   1  -3   4 24921.9 347.369  47
   1  -3   4 24341.7 324.849  54
   1  -3   4 24870.2 331.612  59
   1  -3   5 27022.0 398.473  47
   1  -3   5 27147.8 372.551  54
   1  -3   6 1424.16 96.3006  76
   1  -3   6 1419.94 75.5675  54
   1  -3   6 1451.08 73.9645  50
   1  -3   7 2698.98 126.855  74
   1  -3   7 2503.95 97.3336  66
   1  -3   7 2715.72 123.104  71
   1  -3   7 2556.03 130.944  76
   1  -3   7 2575.35 102.620  54
   1  -3   8 2150.18 110.632  74
   1  -3   8 2118.58 100.652  71
   1  -3   8 2173.92 117.560  76
   1  -3   8 2198.79 88.3510  54
   1  -3   9 485.831 60.7081  75
   1  -3   9 522.411 41.8174  54
   1  -3  10 223.166 33.8511  75
   1  -2  -5 149987. 2043.81  13
   1  -2  -5 156261. 2156.55   3
   1  -2  -4 7109.99 305.929  13
   1  -2  -4 7075.15 351.319   2
   1  -2  -4 6873.86 230.069   5
   1  -2  -3 147953. 2011.85   2
   1  -2  -3 156694. 1906.81   3
   1  -2  -2 248476. 2787.42  13
   1  -2  -2 249166. 2744.10   3
   1  -2  -1 14238.9 349.477  13
   1  -2  -1 13951.9 364.152   4
   1  -2   2 103477. 1044.66  64
   1  -2   2 104332. 1051.85  54
   1  -2   2 104595. 1048.05  45
   1  -2   2 102716. 1040.73  47
   1  -2   3 18408.2 403.227   2
   1  -2   3 18723.6 236.680  64
   1  -2   3 19021.2 255.096  54
   1  -2   3 19240.6 246.346  47
   1  -2   4 25388.4 499.187   5
   1  -2   4 24338.2 330.268  54
   1  -2   5 11277.8 180.178  67
   1  -2   5 11564.5 243.159  76
   1  -2   5 11624.9 216.768  54
   1  -2   6 23787.3 310.619  16
   1  -2   6 22477.3 385.994  74
   1  -2   6 23621.9 405.166  76
   1  -2   6 23847.0 366.025  54
   1  -2   6 22396.7 317.900  50
   1  -2   7 3493.16 142.680  74
   1  -2   7 3478.96 94.7558  73
   1  -2   7 3710.35 118.166  66
   1  -2   7 3649.49 151.409  76
   1  -2   7 3326.50 124.818  54
   1  -2   8 3168.68 130.158  74
   1  -2   8 3165.04 122.341  71
   1  -2   8 3274.52 118.783  54
   1  -2   9 1494.74 89.0830  75
   1  -2   9 1392.46 77.7164  74
   1  -2   9 1472.15 69.8083  54
   1  -2  10 1456.55 65.1514  75
   1  -2  10 1492.25 50.2487  54
   1  -1  -5 68844.0 1296.76   9
   1  -1  -4 7232.28 307.223   1
   1  -1  -4 7651.43 336.600   2
   1  -1  -3 114428. 1554.22   2
   1  -1  -3 113022. 1501.62   1
   1  -1  -2 180513. 1969.19   3
   1  -1   0 528311. 5232.99   4
   1  -1   0 505960. 5196.41  13
   1  -1   2 855290. 8880.12   9
   1  -1   3 101803. 1367.19   2
   1  -1   3 101080. 1034.11  45
   1  -1   4 60002.4 1037.07   2
   1  -1   4 61435.1 659.516  47
   1  -1   5 31682.7 371.996  16
   1  -1   5 31388.3 455.241  76
   1  -1   6 3912.50 88.6193  16
   1  -1   6 3686.18 132.915  74
   1  -1   6 3677.70 135.169  71
   1  -1   6 3719.67 139.738  76
   1  -1   6 3742.55 130.412  54
   1  -1   7 7033.26 192.828  74
   1  -1   7 6604.70 146.887  67
   1  -1   7 6957.50 167.288  66
   1  -1   7 6843.71 138.253  77
   1  -1   7 7028.05 204.778  76
   1  -1   7 7131.73 191.742  54
   1  -1   8 778.071 79.8845  75
   1  -1   8 828.437 74.5560  74
   1  -1   8 901.303 58.5121  73
   1  -1   8 1043.70 60.5916  66
   1  -1   8 831.432 69.8422  54
   1  -1   9 1260.78 82.2621  75
   1  -1   9 1239.85 72.7439  74
   1  -1   9 1239.72 72.5136  54
   1  -1  10 4408.51 107.649  75
   1  -1  10 4611.39 99.6518  54
   1   0  -5 21359.0 625.945   2
   1   0  -5 21083.0 725.377  12
   1   0  -5 20290.7 502.925   9
   1   0  -4 38199.3 768.114   2
   1   0  -4 34790.0 664.213   9
   1   0  -3 229208. 2630.83   2
   1   0  -3 231252. 2865.40  12
   1   0  -2 48537.5 862.831  12
   1   0  -2 50018.2 684.571   4
   1   0   0 296.468 49.9915   9
   1   0   1 584309. 6056.37  11
   1   0   2 416814. 4589.92  11
   1   0   3 364747. 4191.35  11
   1   0   3 371125. 3981.88   2
   1   0   3 356658. 3550.32  36
   1   0   3 367857. 3572.40  53
   1   0   4 407324. 4031.79  45
   1   0   4 420877. 4099.36  53
   1   0   5 8981.31 194.750  71
   1   0   5 8992.89 194.359  76
   1   0   5 8370.59 188.015  49
   1   0   5 9062.80 199.983  53
   1   0   6 33212.1 471.295  74
   1   0   6 33215.7 441.250  67
   1   0   6 34663.4 485.748  71
   1   0   6 33155.1 490.759  49
   1   0   6 33420.8 503.021  53
   1   0   7 7507.66 200.770  75
   1   0   7 7274.12 189.344  74
   1   0   7 7104.47 161.783  67
   1   0   7 7526.84 196.241  71
   1   0   7 7543.06 155.711  77
   1   0   8 5508.16 169.891  75
   1   0   8 5460.01 157.403  74
   1   0   8 5096.40 122.669  67
   1   0   8 5378.42 135.220  66
   1   0   8 5335.24 122.617  77
   1   0   8 5595.06 176.541  54
   1   0   9 257.903 51.8132  75
   1   0   9 291.692 40.1767  73
   1   0  10 59.2172 28.0356  75
   1   0  10 72.0551 25.5927  54
   1   1  -5 35167.9 801.568   8
   1   1  -5 35386.4 779.430   2
   1   1  -5 36521.5 685.772   4
   1   1  -5 36737.2 1073.36  12
   1   1  -4 61183.5 1029.23   8
   1   1  -4 62061.5 1311.34  12
   1   1  -4 61551.0 882.861   4
   1   1  -4 63510.4 1039.75  11
   1   1  -4 58903.9 973.968   2
   1   1  -3 64239.9 924.263   2
   1   1  -2 503610. 4995.44   4
   1   1  -2 502494. 5156.19   5
   1   1  -1 157226. 1877.83  10
   1   1   0 7240.24 195.142   7
   1   1   2 638915. 6627.74   2
   1   1   2 659846. 6551.21   5
   1   1   3 375747. 4111.72   2
   1   1   3 362224. 4388.42  11
   1   1   3 368914. 3784.59   5
   1   1   3 372777. 3658.50  37
   1   1   3 369918. 3635.33  36
   1   1   4 123003. 1802.88   2
   1   1   4 116287. 1276.00  37
   1   1   4 121144. 1250.48  36
   1   1   4 118156. 1203.47  45
   1   1   4 118267. 1272.76  49
   1   1   5 5334.81 366.243  11
   1   1   5 5738.51 136.590  74
   1   1   5 6030.88 149.194  71
   1   1   5 5769.61 138.098  66
   1   1   5 5765.98 159.302  49
   1   1   5 5473.53 161.563  53
   1   1   6 10771.9 225.519  75
   1   1   6 10821.8 213.613  74
   1   1   6 10526.0 208.851  67
   1   1   6 10572.6 207.640  66
   1   1   6 10531.0 247.832  49
   1   1   6 10511.4 253.286  53
   1   1   7 774.155 72.9901  75
   1   1   7 771.475 63.0519  74
   1   1   7 916.716 60.5408  67
   1   1   7 879.387 61.4900  66
   1   1   7 867.971 81.4038  49
   1   1   7 831.441 79.6530  53
   1   1   8 13855.1 270.523  75
   1   1   8 14085.8 231.078  77
   1   1   9 1517.40 75.6463  75
   1   1   9 1493.02 74.7814  73
   1   1   9 1569.01 86.7930  54
   1   1  10 162.275 29.4782  54
   1   2  -5 3070.71 231.053   8
   1   2  -5 3760.71 295.534  11
   1   2  -4 170604. 2001.63   2
   1   2  -4 177431. 2406.04  11
   1   2  -3 195531. 2141.16   2
   1   2  -2 146400. 1777.30   5
   1   2  -1 255755. 2645.30   7
   1   2  -1 254430. 2858.98   5
   1   2   0 76692.4 875.379   8
   1   2   0 27486.0 630.357   5
   1   2   1 29281.2 666.823   8
   1   2   1 30214.5 545.578   2
   1   2   1 30343.0 581.698   5
   1   2   2 808.652 44.5453  39
   1   2   2 888.059 90.3976   5
   1   2   3 214849. 2622.19   2
   1   2   3 213373. 2144.18  39
   1   2   3 210193. 2143.47  37
   1   2   3 211778. 2112.99  36
   1   2   3 207260. 2107.34  28
   1   2   4 59434.5 1170.92   2
   1   2   4 57188.5 1327.45  11
   1   2   4 57206.1 696.731  37
   1   2   4 58042.4 696.889  49
   1   2   4 55624.0 602.884  45
   1   2   5 9985.52 231.474  37
   1   2   5 9935.30 535.190  11
   1   2   5 10117.0 190.483  66
   1   2   6 15648.1 276.057  75
   1   2   6 16193.7 283.175  67
   1   2   6 16334.6 267.616  66
   1   2   6 16437.9 255.900  77
   1   2   6 16008.8 329.217  49
   1   2   6 15992.4 335.227  53
   1   2   7 9805.91 207.362  75
   1   2   7 9166.93 199.466  67
   1   2   7 9554.30 194.624  66
   1   2   7 9395.91 187.904  77
   1   2   7 9811.26 256.495  49
   1   2   7 9757.99 261.146  53
   1   2   8 6181.93 153.168  75
   1   2   8 5502.15 135.469  77
   1   2   9 274.236 37.3534  75
   1   2   9 182.926 43.8662  54
   1   2  10 512.884 34.8688  73
   1   3  -5 2477.81 290.097  11
   1   3  -4 98302.6 1108.07   7
   1   3  -4 131170. 1386.56   3
   1   3  -3 38828.6 606.284   3
   1   3  -2 1748.64 106.057   3
   1   3  -1 53544.2 662.718   2
   1   3   0 5065.33 250.623   8
   1   3   0 5106.83 88.0888  35
   1   3   1 109123. 1125.50  39
   1   3   1 111582. 1112.08  31
   1   3   1 105634. 1124.62  35
   1   3   1 105047. 1696.12   8
   1   3   1 112843. 1432.62   2
   1   3   1 108818. 1133.81  65
   1   3   1 111273. 1120.59  60
   1   3   2 4030.42 105.367  39
   1   3   2 4065.63 103.818  42
   1   3   2 3996.07 102.957  65
   1   3   2 3860.00 302.734   8
   1   3   2 3805.84 216.033   2
   1   3   3 52214.5 642.764  39
   1   3   3 51114.9 636.045  37
   1   3   3 52318.2 603.113  28
   1   3   4 54365.8 687.637  39
   1   3   4 53388.6 684.639  37
   1   3   4 53547.8 608.362  66
   1   3   5 27244.3 441.862  37
   1   3   5 26550.8 386.659  36
   1   3   5 25560.3 351.225  75
   1   3   5 26600.8 362.214  66
   1   3   5 26083.5 355.278  77
   1   3   5 26567.8 396.569  68
   1   3   5 26830.6 447.575  49
   1   3   6 3191.49 102.387  77
   1   3   6 2991.05 114.554  68
   1   3   6 3176.85 145.548  49
   1   3   6 2853.62 143.983  53
   1   3   7 39225.2 527.946  67
   1   3   7 40633.6 511.770  77
   1   3   7 39326.9 503.804  75
   1   3   7 40887.1 628.069  49
   1   3   7 41328.0 633.616  53
   1   3   8 1859.38 76.7554  77
   1   3   8 1942.77 111.292  53
   1   3   9 511.896 54.5932  54
   1   3  10 861.625 37.2124  73
   1   4  -5 1947.02 51.2920  58
   1   4  -4 42815.0 754.255   3
   1   4  -4 44616.1 470.431  58
   1   4  -3 61388.0 952.134   3
   1   4  -3 61111.6 634.398  22
   1   4  -3 62665.5 633.928  58
   1   4  -2 29834.3 329.902  22
   1   4  -2 30964.7 333.433  58
   1   4  -1 70214.4 721.824  22
   1   4   0 50378.5 556.064  39
   1   4   0 50288.9 554.042  42
   1   4   0 50858.2 554.524  35
   1   4   0 51071.1 572.440  65
   1   4   1 14352.8 218.681  39
   1   4   1 13762.3 214.928  35
   1   4   1 13277.4 559.032   8
   1   4   1 13707.7 222.570  65
   1   4   2 17577.5 279.991  39
   1   4   2 15987.4 255.116  28
   1   4   2 18582.6 282.206  42
   1   4   2 16537.1 709.868   8
   1   4   2 16646.5 413.339  13
   1   4   2 17619.6 275.824  65
   1   4   2 17721.6 234.280  46
   1   4   3 7569.58 185.778  39
   1   4   3 7254.62 180.248  37
   1   4   3 7100.58 155.878  28
   1   4   3 7409.86 137.845  77
   1   4   4 434.658 61.8143  39
   1   4   4 445.236 62.7430  37
   1   4   4 461.714 44.4582  36
   1   4   4 510.817 50.7976  68
   1   4   4 461.913 41.0063  77
   1   4   5 6840.21 207.327  37
   1   4   5 7342.40 166.971  36
   1   4   5 7336.98 156.808  77
   1   4   5 6893.23 181.891  68
   1   4   5 7004.03 214.987  49
   1   4   6 17574.9 288.296  77
   1   4   6 17973.4 316.360  68
   1   4   7 4483.05 125.620  77
   1   4   7 4721.95 180.713  49
   1   4   7 4513.37 180.259  53
   1   4   8 13.8853 39.0583  53
   1   4   9 1522.66 63.3860  73
   1   4  10 205.170 15.4721  73
   1   5  -8 4532.06 83.1438  39
   1   5  -7 13121.6 187.814  39
   1   5  -6 14407.3 192.106  22
   1   5  -5 93562.0 947.877  22
   1   5  -5 91646.1 944.144  58
   1   5  -4 31439.8 356.487  22
   1   5  -4 30709.9 368.742  39
   1   5  -4 31905.8 357.458  58
   1   5  -3 39065.7 439.424  39
   1   5  -3 38817.2 428.909  22
   1   5  -2 31039.2 360.348  22
   1   5  -1 7516.63 136.157  35
   1   5   0 22319.0 306.690  42
   1   5   0 23435.8 312.314  39
   1   5   0 22424.5 306.409  35
   1   5   0 22687.0 323.899  65
   1   5   0 22439.6 767.075   8
   1   5   1 116851. 1249.11  39
   1   5   1 115098. 1242.73  35
   1   5   1 116252. 1653.02  13
   1   5   1 117609. 1258.42  65
   1   5   2 84096.6 975.214  39
   1   5   2 84665.4 935.430  28
   1   5   2 84849.5 968.786  42
   1   5   2 83339.3 969.407  65
   1   5   2 84047.3 888.982  77
   1   5   2 82598.0 883.680  46
   1   5   2 86102.9 935.443  60
   1   5   3 30844.8 481.081  39
   1   5   3 30941.2 476.110  37
   1   5   3 31381.9 425.809  28
   1   5   4 27052.7 465.621  39
   1   5   4 27804.9 467.635  37
   1   5   4 28318.4 386.372  36
   1   5   4 27153.3 428.368  68
   1   5   4 27112.1 368.021  77
   1   5   5 3402.41 152.424  37
   1   5   5 3279.17 99.6525  36
   1   5   5 3227.35 104.471  77
   1   5   5 3301.95 127.390  68
   1   5   6 29626.4 497.973  37
   1   5   6 28353.9 395.599  77
   1   5   6 28856.6 511.688  49
   1   5   7 2788.17 95.0463  77
   1   5   7 2856.26 136.990  49
   1   5   7 2931.60 139.944  53
   1   5   8 408.539 52.6236  53
   1   5   9 1.39892 18.6967  73
   1   6  -7 206.641 24.1567  39
   1   6  -6 26.6138 21.4058  39
   1   6  -5 26488.7 341.027  39
   1   6  -5 27547.3 328.577  22
   1   6  -4 1590.13 60.6806  39
   1   6  -4 1515.34 55.1914  22
   1   6  -3 7913.69 145.875  39
   1   6  -3 7963.03 140.358  22
   1   6  -2 2357.85 80.8904  35
   1   6  -1 6183.26 139.384  39
   1   6  -1 6010.85 138.419  35
   1   6  -1 6411.59 137.979  42
   1   6  -1 5970.12 152.729  65
   1   6   0 11693.1 218.332  39
   1   6   0 11408.8 214.680  35
   1   6   0 11241.6 212.203  42
   1   6   0 11357.0 227.704  65
   1   6   1 7404.55 180.123  39
   1   6   1 6813.64 147.685  31
   1   6   1 7225.18 181.835  65
   1   6   2 7849.78 203.528  39
   1   6   2 7490.61 172.876  28
   1   6   2 7246.28 192.721  65
   1   6   3 1646.88 105.272  39
   1   6   3 1659.51 77.7315  28
   1   6   3 1603.27 99.4994  37
   1   6   3 1763.23 68.2984  77
   1   6   4 8501.90 238.970  39
   1   6   4 8572.04 233.830  37
   1   6   4 8229.62 164.371  36
   1   6   4 8668.92 212.205  68
   1   6   5 10197.5 260.918  37
   1   6   5 10454.3 197.020  77
   1   6   6 12273.1 288.719  49
   1   6   7 887.219 73.7409  49
   1   6   7 902.918 73.9802  53
   1   6   8 1171.94 46.8824  73
   1   6   8 1078.42 60.2155  53
   1   7  -7 3203.30 81.6065  35
   1   7  -6 6267.32 120.948  39
   1   7  -6 6734.55 136.046  35
   1   7  -6 6452.74 147.466  65
   1   7  -5 1025.53 52.1032  39
   1   7  -5 1002.34 56.4346  35
   1   7  -4 4959.03 119.284  39
   1   7  -4 5006.13 126.060  35
   1   7  -4 4960.74 144.224  65
   1   7  -3 11617.4 207.323  39
   1   7  -3 11661.3 213.405  35
   1   7  -3 11773.7 201.384  42
   1   7  -3 11663.1 237.509  65
   1   7  -2 1010.98 67.7248  35
   1   7  -2 1137.82 61.3586  42
   1   7  -2 934.838 70.7682  65
   1   7  -1 13176.4 246.804  35
   1   7  -1 13521.3 240.086  42
   1   7  -1 12839.1 263.914  65
   1   7   0 14443.3 273.337  39
   1   7   0 14193.0 239.309  31
   1   7   0 13926.3 264.385  42
   1   7   0 14123.5 281.159  65
   1   7   1 20596.2 361.094  39
   1   7   1 20385.1 330.269  28
   1   7   1 20274.8 348.540  42
   1   7   1 20255.7 359.093  65
   1   7   1 19940.4 323.266  60
   1   7   2 8716.90 227.992  39
   1   7   2 8395.34 187.777  28
   1   7   2 8706.11 218.429  65
   1   7   2 8276.62 190.554  60
   1   7   3 617.971 78.3647  39
   1   7   3 592.028 70.8824  37
   1   7   4 4152.73 162.538  39
   1   7   4 4106.14 155.046  37
   1   7   5 14578.3 296.978  37
   1   7   5 15788.1 324.636  49
   1   7   6 283.805 51.3154  49
   1   7   6 250.472 50.4748  53
   1   7   7 3207.43 68.6852  73
   1   7   7 3299.49 106.867  53
   1   8  -6 446.023 36.4535  35
   1   8  -6 472.787 37.2435  65
   1   8  -5 467.083 36.7493  39
   1   8  -5 481.290 42.9503  35
   1   8  -4 62.3916 28.9490  39
   1   8  -4 56.8944 33.3853  35
   1   8  -4 93.4095 36.0806  65
   1   8  -3 1979.91 83.1469  39
   1   8  -3 1879.48 84.7712  35
   1   8  -3 1952.53 97.0183  65
   1   8  -2 7387.72 174.755  39
   1   8  -2 7205.85 155.907  31
   1   8  -2 7535.46 176.503  35
   1   8  -2 7120.60 160.741  42
   1   8  -2 7301.43 191.020  65
   1   8  -1 7129.21 178.492  28
   1   8  -1 7008.76 155.109  31
   1   8  -1 7207.81 184.853  35
   1   8  -1 7053.53 168.997  42
   1   8  -1 7295.61 194.947  65
   1   8  -1 6532.03 168.635  60
   1   8   0 2588.32 113.193  39
   1   8   0 2454.15 101.715  28
   1   8   0 2465.03 87.1014  31
   1   8   0 2794.36 109.744  42
   1   8   0 2576.07 117.025  65
   1   8   0 2823.68 105.621  60
   1   8   1 4144.78 149.976  39
   1   8   1 4093.36 126.335  28
   1   8   1 4195.64 150.559  65
   1   8   1 4058.32 124.648  60
   1   8   2 187.240 49.9204  37
   1   8   2 163.340 53.4695  39
   1   8   3 12576.1 280.874  39
   1   8   3 12887.6 273.014  37
   1   8   4 2738.39 122.067  39
   1   8   5 3479.82 125.563  49
   1   8   6 324.246 38.6710  53
   1   9  -5 476.474 37.6408  28
   1   9  -5 524.833 38.0097  35
   1   9  -5 494.422 36.3562  60
   1   9  -4 634.280 47.9825  28
   1   9  -4 598.884 46.8172  35
   1   9  -4 640.717 49.3358  65
   1   9  -4 693.763 47.2207  60
   1   9  -3 725.275 49.5434  39
   1   9  -3 701.442 53.0312  28
   1   9  -3 832.344 57.6945  35
   1   9  -3 802.610 60.7220  65
   1   9  -3 752.814 52.1906  60
   1   9  -2 3911.48 117.051  39
   1   9  -2 3790.11 116.788  28
   1   9  -2 4003.34 130.411  65
   1   9  -1 963.801 65.3402  39
   1   9  -1 893.698 60.5543  28
   1   9  -1 1025.34 72.1438  65
   1   9  -1 914.461 57.6780  60
   1   9   0 1156.84 75.3494  65
   1   9   1 2062.30 98.9760  37
   1   9   2 2149.82 101.252  39
   1   9   2 2185.15 98.5362  37
   1   9   3 9574.96 209.099  39
   1   9   4 1832.52 82.0646  49
   1  10  -2 3506.78 99.8529  65
   1  10  -1 564.919 44.3028  37
   1  10  -1 543.789 44.2387  65
   1  10   0 248.588 34.3130  37
   2  -9  -4 364.124 37.5781  52
   2  -9  -4 380.722 37.4257  59
   2  -9  -3 1663.23 72.5675  52
   2  -9  -3 1593.78 77.8137  59
   2  -9  -2 491.503 54.4789  59
   2  -9  -1 1961.17 96.4550  59
   2  -9   0 5279.21 161.274  59
   2  -9   0 5381.67 135.591  50
   2  -9   1 599.650 62.5634  59
   2  -9   1 719.783 57.7125  50
   2  -9   2 1879.33 91.6334  59
   2  -9   2 1824.07 86.2357  50
   2  -9   3 2225.33 93.4773  50
   2  -9   4 1418.96 71.8137  50
   2  -8  -6 399.154 38.2661  52
   2  -8  -5 808.517 52.8093  21
   2  -8  -5 900.822 59.6512  52
   2  -8  -4 1157.74 71.2546  52
   2  -8  -3 9930.03 197.444  21
   2  -8  -3 10341.9 214.236  52
   2  -8  -1 1396.81 67.4873  47
   2  -8  -1 1300.32 73.9296  52
   2  -8   0 2335.56 94.9594  47
   2  -8   1 4368.76 137.541  47
   2  -8   1 4360.47 158.751  59
   2  -8   2 1087.61 76.5656  47
   2  -8   3 7596.78 197.825  50
   2  -8   4 591.955 61.2444  50
   2  -8   5 401.153 38.5583  74
   2  -8   5 373.139 49.8030  50
   2  -8   6 204.499 36.1626  76
   2  -7  -7 124.508 27.9606  21
   2  -7  -7 132.028 30.8852  52
   2  -7  -6 295.879 40.9088  21
   2  -7  -6 273.131 42.1673  52
   2  -7  -5 3102.57 102.956  21
   2  -7  -5 3015.16 101.602  57
   2  -7  -5 2961.87 111.323  52
   2  -7  -4 7122.26 162.965  21
   2  -7  -4 7312.76 171.001  20
   2  -7  -4 6804.30 162.484  19
   2  -7  -4 6860.00 166.116  57
   2  -7  -3 3912.86 128.685  20
   2  -7  -3 3737.11 126.212  57
   2  -7  -2 28876.3 397.763  21
   2  -7  -2 30176.5 426.109  20
   2  -7  -2 29142.4 424.483  19
   2  -7  -2 29047.8 422.549  57
   2  -7  -2 28991.5 380.978  47
   2  -7  -1 9329.80 184.659  21
   2  -7  -1 9148.69 207.542  19
   2  -7  -1 9440.82 208.425  57
   2  -7  -1 9138.48 182.284  47
   2  -7   0 6638.64 182.209  19
   2  -7   0 6683.81 179.271  57
   2  -7   0 6502.97 158.161  52
   2  -7   0 6599.56 162.495  47
   2  -7   1 12436.3 261.350  19
   2  -7   1 12097.8 241.586  47
   2  -7   2 10251.3 228.487  47
   2  -7   3 11458.3 254.114  47
   2  -7   3 11022.2 254.832  59
   2  -7   4 3707.87 144.801  47
   2  -7   5 3485.95 126.547  74
   2  -7   5 3786.54 139.280  50
   2  -7   6 685.653 51.4822  74
   2  -7   6 622.306 68.5033  76
   2  -7   7 3300.61 113.505  76
   2  -6  -8 1705.62 62.2775  21
   2  -6  -7 1719.09 73.6002  21
   2  -6  -7 1762.17 65.5402  20
   2  -6  -7 1766.34 79.4684  52
   2  -6  -6 3711.26 105.309  20
   2  -6  -6 3548.38 103.090  57
   2  -6  -5 1034.48 63.1694  20
   2  -6  -5 1003.46 58.0768  19
   2  -6  -4 34599.2 448.515  20
   2  -6  -4 34900.8 451.170  19
   2  -6  -4 34276.8 452.325  57
   2  -6  -3 21039.3 308.040  20
   2  -6  -3 20207.0 269.831  47
   2  -6  -3 20558.3 310.907  57
   2  -6  -2 56310.6 663.239  19
   2  -6  -2 56358.3 625.203  47
   2  -6  -2 56098.6 661.783  57
   2  -6  -1 42015.4 493.827  21
   2  -6  -1 40935.9 518.730  20
   2  -6  -1 41392.6 520.265  19
   2  -6  -1 40602.4 517.357  57
   2  -6  -1 40682.1 492.438  47
   2  -6   0 31054.8 395.900  21
   2  -6   0 32304.5 436.281  20
   2  -6   0 31704.4 431.634  19
   2  -6   0 32717.0 433.190  57
   2  -6   0 30465.2 405.143  47
   2  -6   1 100066. 1112.95  19
   2  -6   1 101571. 1118.24  57
   2  -6   1 98173.0 1063.59  52
   2  -6   1 101161. 1096.91  47
   2  -6   2 69705.4 836.828  19
   2  -6   2 69552.4 822.203  47
   2  -6   3 9618.71 224.251  59
   2  -6   3 9301.81 218.575  47
   2  -6   4 5567.63 172.797  47
   2  -6   4 5344.76 157.739  59
   2  -6   6 2913.54 116.852  74
   2  -6   6 3167.04 146.883  76
   2  -6   7 890.146 56.0790  74
   2  -6   7 981.266 82.0807  76
   2  -6   8 737.352 56.8893  76
   2  -5  -8 3618.97 99.4058  21
   2  -5  -8 3501.05 101.867  52
   2  -5  -7 1334.63 59.6145  20
   2  -5  -7 1341.16 56.4129  57
   2  -5  -6 1711.35 70.6992  57
   2  -5  -5 10749.7 185.155  20
   2  -5  -5 10490.5 182.450  19
   2  -5  -4 12594.4 201.831  20
   2  -5  -4 12325.1 204.888  19
   2  -5  -4 12212.4 186.223  40
   2  -5  -4 12656.5 207.944  57
   2  -5  -3 1362.70 64.6029  19
   2  -5  -3 1469.71 57.9549  40
   2  -5  -2 14777.6 227.461  19
   2  -5  -2 14521.6 222.047  57
   2  -5  -1 38132.8 457.978  20
   2  -5  -1 38993.0 465.883  19
   2  -5  -1 38301.9 460.620  57
   2  -5   0 143858. 1441.27  20
   2  -5   0 138183. 1443.81  19
   2  -5   0 136251. 1776.53   2
   2  -5   0 136663. 1429.76  16
   2  -5   0 142216. 1429.22  47
   2  -5   0 138092. 1443.32  57
   2  -5   1 73643.7 832.606  20
   2  -5   1 75002.1 827.934  19
   2  -5   1 73049.8 812.597  16
   2  -5   1 74678.9 826.674  57
   2  -5   1 75804.5 818.434  47
   2  -5   2 29612.0 405.128  19
   2  -5   2 29635.4 388.066  16
   2  -5   2 29956.7 401.623  47
   2  -5   3 4535.38 120.535  16
   2  -5   3 4121.78 130.648  59
   2  -5   4 4772.56 127.209  16
   2  -5   4 4615.48 135.566  59
   2  -5   4 4841.69 149.812  47
   2  -5   5 121.002 44.9712  74
   2  -5   5 128.445 52.2534  47
   2  -5   6 5001.01 162.257  74
   2  -5   6 4934.16 193.240  76
   2  -5   6 5026.28 154.597  50
   2  -5   7 1135.76 74.6072  74
   2  -5   7 1170.49 91.1690  71
   2  -5   7 1211.60 99.0877  76
   2  -5   8 773.032 45.8676  74
   2  -5   8 788.003 72.0258  76
   2  -5   9 776.288 49.1416  75
   2  -4  -9 332.628 31.6194  21
   2  -4  -8 1163.51 48.1196  20
   2  -4  -7 2149.07 71.4250  20
   2  -4  -7 2062.72 69.8121  57
   2  -4  -6 27194.4 352.542  57
   2  -4  -5 46440.8 521.522  19
   2  -4  -5 44144.0 504.905  40
   2  -4  -4 9189.33 159.291  19
   2  -4  -4 9070.75 139.557  38
   2  -4  -4 9163.79 150.325  40
   2  -4  -3 6333.01 124.906  19
   2  -4  -3 6166.19 109.009  38
   2  -4  -2 70260.9 1256.22   2
   2  -4  -2 68364.2 741.483  19
   2  -4  -2 68467.0 723.126  38
   2  -4  -2 68835.9 728.074  40
   2  -4  -1 33382.4 394.944  40
   2  -4  -1 34339.0 391.867  20
   2  -4  -1 33994.5 923.143   4
   2  -4  -1 33658.6 403.613  19
   2  -4  -1 35519.5 389.952  16
   2  -4  -1 34735.0 391.644  64
   2  -4  -1 33956.1 399.389  57
   2  -4   0 344017. 3377.30  20
   2  -4   0 335581. 3389.03  19
   2  -4   0 342536. 3378.90  40
   2  -4   1 166821. 2893.54   9
   2  -4   1 168679. 1707.74  19
   2  -4   1 168700. 1701.30  16
   2  -4   1 170172. 1704.94  64
   2  -4   1 171785. 1702.11  57
   2  -4   2 24571.6 326.875  19
   2  -4   2 24889.8 322.775  16
   2  -4   2 25753.4 326.820  64
   2  -4   2 24441.6 321.850  57
   2  -4   2 25090.7 327.413  47
   2  -4   3 12597.7 212.128  19
   2  -4   3 12028.0 204.773  16
   2  -4   3 12384.8 214.472  59
   2  -4   4 15046.3 241.427  16
   2  -4   4 15003.9 229.348  54
   2  -4   4 14907.2 265.594  47
   2  -4   5 32707.7 432.790  16
   2  -4   5 31853.7 483.403  74
   2  -4   5 32050.8 471.337  47
   2  -4   5 31877.0 420.406  54
   2  -4   6 131.076 36.7390  16
   2  -4   6 109.233 42.4072  74
   2  -4   6 62.6849 56.3488  76
   2  -4   6 83.5778 34.2056  50
   2  -4   6 163.618 39.3149  54
   2  -4   7 400.547 54.1380  74
   2  -4   7 453.748 68.3224  71
   2  -4   7 473.555 75.0095  76
   2  -4   7 451.274 48.1879  54
   2  -4   8 284.385 41.3346  74
   2  -4   8 276.568 58.9399  76
   2  -4   9 1181.69 69.9901  75
   2  -3  -8 2733.22 73.2797  20
   2  -3  -7 15727.2 228.133  57
   2  -3  -6 9581.11 153.869  40
   2  -3  -6 9320.97 151.473  19
   2  -3  -5 5920.52 107.927  38
   2  -3  -5 6180.83 120.876  19
   2  -3  -4 49163.6 536.483  38
   2  -3  -3 16775.5 214.682  38
   2  -3  -3 15992.1 201.729  26
   2  -3  -3 16204.9 605.777   4
   2  -3  -3 16152.5 204.140  17
   2  -3  -2 48939.3 516.857  26
   2  -3  -2 49138.6 1068.56   4
   2  -3  -2 48362.4 522.324  17
   2  -3  -1 27897.0 350.475  38
   2  -3  -1 27863.6 352.425  40
   2  -3  -1 28308.1 766.321   4
   2  -3  -1 28147.3 342.741  16
   2  -3   0 44608.7 472.571  38
   2  -3   0 42559.5 471.076  40
   2  -3   0 44022.5 969.588   4
   2  -3   0 43272.7 477.977  19
   2  -3   0 42524.3 478.292  17
   2  -3   0 43424.2 478.491  64
   2  -3   0 43692.3 466.676  45
   2  -3   1 52353.3 547.979  40
   2  -3   1 49802.3 538.088  20
   2  -3   1 52348.4 552.871  19
   2  -3   1 52037.9 1262.14   9
   2  -3   1 50659.8 561.352  64
   2  -3   2 124291. 2281.05   9
   2  -3   2 120237. 1259.10  64
   2  -3   2 119104. 1236.66  57
   2  -3   2 125124. 1239.86  54
   2  -3   2 125185. 1258.85  45
   2  -3   2 125459. 1249.25  47
   2  -3   3 29576.5 613.711   2
   2  -3   3 30787.1 369.612  19
   2  -3   3 30586.9 381.268  64
   2  -3   3 31356.2 372.820  54
   2  -3   3 30129.4 367.098  59
   2  -3   3 30878.3 380.509  47
   2  -3   4 20223.5 511.174   2
   2  -3   4 21027.9 293.581  16
   2  -3   4 21687.1 298.199  64
   2  -3   4 20808.6 296.810  54
   2  -3   4 21260.8 312.400  47
   2  -3   5 8914.43 173.971  16
   2  -3   5 8988.94 205.987  74
   2  -3   5 9282.73 185.510  54
   2  -3   6 24165.8 394.425  74
   2  -3   6 23952.8 432.237  76
   2  -3   6 23954.8 359.352  54
   2  -3   6 24126.0 353.782  50
   2  -3   7 278.445 37.4834  16
   2  -3   7 223.712 47.4216  74
   2  -3   7 199.937 56.2392  71
   2  -3   7 144.014 53.1236  76
   2  -3   7 178.503 45.1681  54
   2  -3   8 875.484 60.7383  74
   2  -3   8 858.815 74.4708  71
   2  -3   8 927.995 80.9250  76
   2  -3   8 799.097 58.6948  54
   2  -3   9 724.684 61.9075  75
   2  -3   9 662.407 41.3578  54
   2  -3  10 1138.37 46.0538  75
   2  -2  -5 14747.5 470.639   3
   2  -2  -4 2437.68 230.032   4
   2  -2  -4 2170.97 56.7075  17
   2  -2  -3 280928. 3400.38  13
   2  -2  -3 280798. 3450.00   4
   2  -2  -3 278558. 2729.31  17
   2  -2  -2 59848.9 1096.52   4
   2  -2  -2 57659.5 1037.74  13
   2  -2  -2 57537.8 609.283  17
   2  -2  -1 537784. 5890.57   4
   2  -2  -1 551167. 5808.55  13
   2  -2  -1 545458. 5267.20  17
   2  -2  -1 543982. 5258.95  26
   2  -2   0 85397.3 1372.61   4
   2  -2   0 84758.3 876.497  17
   2  -2   0 85689.8 1466.72   9
   2  -2   0 85485.5 868.881  26
   2  -2   0 85339.0 867.794  38
   2  -2   0 86407.9 867.126  40
   2  -2   1 56731.2 623.576  17
   2  -2   1 58298.9 1239.61   9
   2  -2   1 59168.8 612.320  38
   2  -2   1 59533.1 607.261  40
   2  -2   1 59108.6 625.030  45
   2  -2   2 6663.04 119.117  17
   2  -2   2 6252.19 119.623  64
   2  -2   2 6302.41 122.206  45
   2  -2   2 6771.62 117.809  54
   2  -2   3 18633.6 227.611  19
   2  -2   3 18651.8 777.312   9
   2  -2   3 18388.9 250.256  64
   2  -2   3 18789.6 262.521  45
   2  -2   3 18175.2 240.389  47
   2  -2   3 18622.8 258.323  54
   2  -2   4 110141. 1654.66   2
   2  -2   4 112847. 1170.14  64
   2  -2   4 110619. 1197.99  54
   2  -2   4 113633. 1186.53  45
   2  -2   4 112187. 1174.81  47
   2  -2   5 4352.39 131.032  74
   2  -2   5 4137.62 146.257  76
   2  -2   5 4281.00 114.349  47
   2  -2   5 4421.95 129.082  54
   2  -2   6 2547.88 84.8334  16
   2  -2   6 2471.71 106.500  74
   2  -2   6 2582.27 125.876  76
   2  -2   6 2625.06 107.243  54
   2  -2   7 3597.18 97.7127  16
   2  -2   7 3306.15 124.379  74
   2  -2   7 3452.02 145.707  71
   2  -2   7 3069.80 144.260  76
   2  -2   7 3456.54 127.446  54
   2  -2   8 4256.11 126.949  74
   2  -2   8 3972.87 122.767  66
   2  -2   8 4172.24 130.589  54
   2  -2   9 2957.80 109.080  75
   2  -2   9 2944.60 90.4880  54
   2  -2  10 456.844 34.0921  75
   2  -1  -5 17382.4 439.837   3
   2  -1  -4 26735.5 732.113   2
   2  -1  -4 26437.9 514.823   3
   2  -1  -3 87947.2 1390.79   4
   2  -1  -2 44543.7 852.537   4
   2  -1  -2 42175.9 864.297  13
   2  -1  -1 157971. 2050.84   4
   2  -1  -1 158591. 2026.28  13
   2  -1  -1 164404. 2033.23   9
   2  -1   0 78730.2 1146.52  13
   2  -1   0 81582.5 1222.32  11
   2  -1   0 81522.7 1309.90   9
   2  -1   1 193022. 2312.38   7
   2  -1   1 192738. 1904.40  17
   2  -1   1 196569. 2515.70  11
   2  -1   1 192569. 2605.36   9
   2  -1   1 192355. 1897.21  26
   2  -1   1 195023. 1917.45  43
   2  -1   1 192734. 1909.96  51
   2  -1   2 5247.99 252.306   7
   2  -1   2 5710.72 329.999  11
   2  -1   2 5036.20 92.6890  17
   2  -1   2 4978.53 335.678   9
   2  -1   2 5118.29 104.116  36
   2  -1   2 5089.18 102.866  45
   2  -1   3 17045.9 248.932  36
   2  -1   3 17230.0 214.470  47
   2  -1   3 16895.5 240.814  45
   2  -1   4 194821. 2529.94  10
   2  -1   4 190966. 2626.73   2
   2  -1   4 198576. 1968.38  64
   2  -1   4 197995. 1996.35  45
   2  -1   4 196075. 1961.16  47
   2  -1   5 5891.21 145.978  74
   2  -1   5 6215.16 120.183  64
   2  -1   5 6156.78 170.120  76
   2  -1   5 5779.04 120.457  47
   2  -1   5 6026.26 159.371  54
   2  -1   5 6262.01 139.441  45
   2  -1   6 5110.48 118.749  16
   2  -1   6 5293.57 147.422  74
   2  -1   6 5501.76 176.591  71
   2  -1   6 4964.12 166.739  76
   2  -1   6 5339.31 161.218  54
   2  -1   7 224.954 28.8633  16
   2  -1   7 181.423 42.2109  74
   2  -1   7 240.102 47.6289  66
   2  -1   7 190.384 51.7494  71
   2  -1   7 121.123 52.1281  76
   2  -1   7 178.278 50.7569  54
   2  -1   8 7786.90 206.304  75
   2  -1   8 7739.94 171.567  74
   2  -1   8 7851.32 204.055  71
   2  -1   8 7884.70 196.048  54
   2  -1   9 7302.80 172.916  75
   2  -1   9 7639.17 165.093  54
   2  -1  10 227.635 26.9017  75
   2   0  -5 1340.29 160.118   4
   2   0  -5 1407.08 94.2766   3
   2   0  -4 118627. 1649.47   4
   2   0  -4 115096. 1570.29  10
   2   0  -3 142643. 2152.13  12
   2   0  -3 136026. 1981.12  10
   2   0  -2 129400. 1699.31   4
   2   0  -1 43113.8 724.936   9
   2   0   0 111825. 1467.16  13
   2   0   1 14905.4 418.630   7
   2   0   1 16259.4 359.857  13
   2   0   1 15643.4 526.240  11
   2   0   2 261285. 3344.18  11
   2   0   2 253288. 2544.32  43
   2   0   2 261748. 2561.26  37
   2   0   2 259782. 2556.93  36
   2   0   3 109655. 1915.35  11
   2   0   3 110533. 1644.52  10
   2   0   3 109638. 1100.73  17
   2   0   3 107681. 1154.53  36
   2   0   3 110315. 1162.81  53
   2   0   3 108817. 1138.07  45
   2   0   4 98345.0 1083.72  36
   2   0   4 100327. 1651.81   2
   2   0   4 100964. 1022.61  64
   2   0   4 98502.4 1058.74  49
   2   0   4 97642.5 1102.31  53
   2   0   4 100080. 1055.42  45
   2   0   5 6615.72 149.284  74
   2   0   5 7071.43 119.726  64
   2   0   5 6732.40 180.784  71
   2   0   5 6865.26 158.397  49
   2   0   5 6989.75 182.885  53
   2   0   6 5495.53 142.748  74
   2   0   6 5737.02 173.959  71
   2   0   6 5410.05 166.052  76
   2   0   7 18988.3 344.474  75
   2   0   7 18626.4 304.548  74
   2   0   7 18462.7 321.558  66
   2   0   7 18786.4 353.762  71
   2   0   7 18832.8 358.771  54
   2   0   8 4007.95 139.593  75
   2   0   8 3937.18 121.802  66
   2   0   8 3999.47 109.080  77
   2   0   8 4041.71 145.206  54
   2   0   9 5309.61 134.708  75
   2   0   9 5115.40 144.059  54
   2   0  10 612.907 33.0622  75
   2   1  -5 7517.13 320.016   4
   2   1  -5 7003.27 350.459   2
   2   1  -4 204730. 3105.35  12
   2   1  -4 198951. 2197.71  11
   2   1  -4 202534. 2438.10   5
   2   1  -3 75703.2 1527.63  12
   2   1  -3 80075.9 1160.41   4
   2   1  -2 225634. 3018.31  12
   2   1  -2 235456. 2930.28  10
   2   1  -1 289241. 3447.45  12
   2   1  -1 290350. 3515.63  10
   2   1   0 13066.9 373.281   7
   2   1   0 13871.6 412.469  12
   2   1   0 12662.5 468.958  10
   2   1   1 1845.01 146.363   7
   2   1   1 1674.41 171.641  10
   2   1   1 1723.10 58.3659  28
   2   1   1 1662.67 49.1810  30
   2   1   1 1888.24 56.7121  46
   2   1   2 713065. 7628.30  10
   2   1   2 728562. 6983.39  37
   2   1   2 731113. 6979.57  28
   2   1   2 718897. 6949.12  43
   2   1   2 706159. 6937.85  51
   2   1   3 141699. 1958.32   2
   2   1   3 137834. 2328.53  11
   2   1   3 135718. 1840.92   5
   2   1   3 137652. 1454.19  37
   2   1   3 138004. 1436.59  36
   2   1   3 137112. 1390.49  43
   2   1   3 136610. 1414.89  49
   2   1   3 139592. 1451.98  53
   2   1   4 116058. 1291.42  37
   2   1   4 119227. 1270.61  36
   2   1   4 119216. 1880.48   2
   2   1   4 115189. 1492.81   5
   2   1   4 120559. 1274.79  71
   2   1   4 116824. 1184.66  64
   2   1   4 116450. 1254.58  49
   2   1   4 115030. 1292.25  53
   2   1   5 163821. 1755.96  36
   2   1   5 160254. 1770.80  71
   2   1   5 165266. 1749.85  49
   2   1   5 163833. 1795.12  53
   2   1   6 37521.8 521.405  66
   2   1   6 38252.9 545.097  71
   2   1   6 38096.7 533.749  49
   2   1   6 38411.2 581.136  53
   2   1   7 63933.8 778.243  66
   2   1   8 3143.42 113.878  75
   2   1   8 3531.00 113.321  66
   2   1   8 3437.52 139.874  54
   2   1   9 855.205 63.7860  54
   2   2  -5 23971.1 615.402   2
   2   2  -4 118608. 1619.57   2
   2   2  -4 122137. 1652.32   5
   2   2  -3 8882.08 499.922  12
   2   2  -3 9537.43 376.510   5
   2   2  -3 9197.27 138.621  65
   2   2  -2 36627.8 968.875  12
   2   2  -2 38042.7 835.544   5
   2   2  -2 37709.7 424.271  65
   2   2  -1 52289.4 854.365   7
   2   2  -1 52156.7 1075.17  12
   2   2  -1 50601.0 1009.02   5
   2   2   0 9376.53 152.915  28
   2   2   0 9319.29 140.410  31
   2   2   0 9555.84 159.027  65
   2   2   0 9532.51 151.268  60
   2   2   1 36522.6 433.909  28
   2   2   1 35750.2 421.039  31
   2   2   1 36829.4 408.266  30
   2   2   1 34631.1 639.665  12
   2   2   1 34876.7 801.424   5
   2   2   1 34896.6 441.769  65
   2   2   1 36893.1 432.681  60
   2   2   2 145544. 2039.84   5
   2   2   2 148327. 1553.92  37
   2   2   2 151913. 1549.18  28
   2   2   2 148653. 1523.23  46
   2   2   2 150633. 1498.62  51
   2   2   3 9154.92 350.896   5
   2   2   3 9033.32 193.240  37
   2   2   3 9393.30 148.010  43
   2   2   3 9123.12 182.423  28
   2   2   4 40835.7 555.276  37
   2   2   4 40791.0 525.558  36
   2   2   4 39946.8 501.256  66
   2   2   4 39724.2 523.250  49
   2   2   5 6989.99 200.870  37
   2   2   5 7581.19 185.395  36
   2   2   5 7026.96 155.515  75
   2   2   5 7047.93 166.896  66
   2   2   5 7786.79 150.218  45
   2   2   5 7000.76 183.218  49
   2   2   5 6876.53 202.743  53
   2   2   6 31523.5 434.854  75
   2   2   6 31892.2 450.003  66
   2   2   6 32102.0 490.940  49
   2   2   6 31937.7 529.480  53
   2   2   7 14034.2 249.181  75
   2   2   7 14102.2 258.098  66
   2   2   7 14254.1 246.919  77
   2   2   7 14090.3 289.881  49
   2   2   7 14303.4 322.540  53
   2   2   8 1507.08 70.2573  77
   2   2   8 1503.95 69.8325  75
   2   2   9 399.065 48.4148  54
   2   3  -5 16608.6 234.135  65
   2   3  -4 3894.24 196.602   7
   2   3  -4 3740.76 173.742   2
   2   3  -3 73326.4 735.774  39
   2   3  -3 73461.5 784.044  65
   2   3  -2 75407.4 1070.64   7
   2   3  -2 76910.6 1326.89   5
   2   3  -1 13298.8 178.391  35
   2   3  -1 12916.2 204.094  65
   2   3  -1 13644.1 490.015   5
   2   3   0 269547. 2685.65  39
   2   3   0 273882. 2689.29  31
   2   3   0 275331. 2691.82  35
   2   3   0 276925. 3360.22   5
   2   3   0 272867. 2722.06  65
   2   3   1 333355. 3296.23  39
   2   3   1 338583. 3307.69  28
   2   3   1 337727. 3289.42  31
   2   3   1 337961. 3741.07  12
   2   3   1 340384. 3950.26   5
   2   3   1 342906. 3321.31  65
   2   3   1 333648. 3305.22  60
   2   3   2 10427.7 414.814   2
   2   3   2 10243.4 190.773  28
   2   3   2 10395.1 159.382  30
   2   3   2 9979.68 172.294  46
   2   3   3 2017.60 91.1999  39
   2   3   3 1892.50 92.2375  37
   2   3   3 1880.75 58.6651  43
   2   3   3 2060.41 85.6215  28
   2   3   4 10032.1 241.601  37
   2   3   4 10551.3 218.488  36
   2   3   4 10186.9 193.193  66
   2   3   4 10303.3 162.533  75
   2   3   4 10236.7 181.892  45
   2   3   5 7268.13 215.216  37
   2   3   5 7568.99 192.096  36
   2   3   5 7054.44 163.842  66
   2   3   5 7134.87 141.071  75
   2   3   5 7171.82 132.522  45
   2   3   5 7383.34 202.279  49
   2   3   6 51416.3 626.377  66
   2   3   6 50344.5 616.343  77
   2   3   6 49983.8 589.021  75
   2   3   6 50484.6 699.846  49
   2   3   6 49474.2 729.661  53
   2   3   7 5728.63 145.063  77
   2   3   7 5539.23 124.645  75
   2   3   7 5527.21 174.546  49
   2   3   7 5746.47 200.273  53
   2   3   8 1483.80 66.4030  77
   2   3   9 180.635 35.6283  54
   2   4  -5 2454.83 59.6581  39
   2   4  -5 2893.75 89.7266  65
   2   4  -4 16600.4 204.885  39
   2   4  -4 16067.5 248.772  65
   2   4  -3 22448.2 262.875  39
   2   4  -3 22065.2 309.567  65
   2   4  -2 15648.9 200.722  39
   2   4  -2 16151.8 243.697  65
   2   4  -2 13294.9 404.513   8
   2   4  -2 13922.7 292.058   2
   2   4  -1 17209.7 231.033  39
   2   4  -1 17281.3 237.681  35
   2   4  -1 17325.3 266.221  65
   2   4  -1 16725.3 536.001   8
   2   4  -1 16593.8 398.711   2
   2   4   0 15768.6 232.094  39
   2   4   0 15566.5 227.466  31
   2   4   0 15411.4 233.728  35
   2   4   0 15459.5 223.831  42
   2   4   0 15843.4 436.471   2
   2   4   0 15064.9 257.394  65
   2   4   1 60175.7 696.643  39
   2   4   1 59973.5 704.911  28
   2   4   1 59547.4 682.108  31
   2   4   1 61340.5 652.317  30
   2   4   1 57150.6 1092.32  12
   2   4   1 61474.5 1075.98   2
   2   4   1 57741.4 719.706  65
   2   4   1 60617.1 700.644  60
   2   4   2 105029. 1164.63  28
   2   4   2 105509. 1089.96  30
   2   4   2 106682. 1189.13  65
   2   4   2 107162. 1126.19  46
   2   4   2 104388. 1167.60  60
   2   4   3 15582.8 298.279  39
   2   4   3 15190.3 304.746  37
   2   4   3 15872.7 242.024  46
   2   4   4 3952.95 156.971  37
   2   4   4 4026.39 96.4200  45
   2   4   5 45396.6 681.247  37
   2   4   5 46131.4 617.841  36
   2   4   5 45344.5 567.962  77
   2   4   5 46703.2 660.579  49
   2   4   6 3707.66 125.481  36
   2   4   6 3612.87 113.909  77
   2   4   6 3412.42 144.582  49
   2   4   6 3241.00 154.213  53
   2   4   7 2265.49 89.2712  77
   2   4   7 2241.72 108.896  49
   2   4   7 2469.51 127.872  53
   2   4   8 1152.24 56.0411  77
   2   4   8 1061.74 62.2300  49
   2   4   8 1169.95 78.9462  53
   2   5  -8 265.876 25.8013  35
   2   5  -6 6517.44 144.097  65
   2   5  -5 2347.94 64.1575  39
   2   5  -5 2385.54 89.7686  65
   2   5  -4 24338.5 300.197  39
   2   5  -4 24290.0 353.459  65
   2   5  -3 15815.8 219.391  39
   2   5  -2 15142.7 217.371  39
   2   5  -2 14660.4 226.243  35
   2   5  -2 14416.0 258.041  65
   2   5  -1 46205.7 537.637  39
   2   5  -1 44990.0 543.657  35
   2   5  -1 45677.1 525.901  42
   2   5  -1 45844.8 581.195  65
   2   5   0 74337.8 831.526  39
   2   5   0 72513.3 847.103  28
   2   5   0 72611.6 815.117  31
   2   5   0 73564.3 835.071  35
   2   5   0 73762.2 816.765  42
   2   5   0 74733.4 867.036  65
   2   5   0 72313.2 839.851  60
   2   5   1 15676.0 271.688  39
   2   5   1 15418.8 271.808  28
   2   5   1 15706.9 253.506  31
   2   5   1 15318.3 218.262  30
   2   5   1 15264.5 287.124  65
   2   5   1 15127.7 268.041  60
   2   5   2 3024.80 112.909  28
   2   5   2 2937.25 81.9326  77
   2   5   2 2841.09 121.142  65
   2   5   2 2945.22 91.3675  46
   2   5   2 2791.64 110.657  60
   2   5   3 7924.77 211.959  39
   2   5   3 7457.74 216.005  37
   2   5   3 7557.80 190.167  28
   2   5   3 7506.39 151.739  77
   2   5   4 14636.0 327.735  37
   2   5   4 14370.2 270.410  36
   2   5   4 14286.0 237.498  77
   2   5   5 76898.9 1006.04  37
   2   5   5 77695.7 897.253  36
   2   5   5 75127.1 862.628  77
   2   5   5 76175.8 980.005  49
   2   5   6 2291.00 88.1032  77
   2   5   6 2294.40 117.989  49
   2   5   6 2077.42 123.370  53
   2   5   7 2636.01 86.0455  77
   2   5   7 2575.73 108.061  49
   2   5   7 2602.09 123.420  53
   2   5   8 234.525 38.0358  53
   2   5   9 455.966 24.5418  73
   2   6  -7 4826.25 106.120  35
   2   6  -6 4208.01 114.921  65
   2   6  -5 17857.8 268.191  35
   2   6  -5 17807.7 295.711  65
   2   6  -4 21183.1 288.818  39
   2   6  -4 21840.7 309.696  35
   2   6  -4 20757.4 339.067  65
   2   6  -3 27636.4 364.310  39
   2   6  -3 27995.7 380.412  35
   2   6  -3 28557.6 419.775  65
   2   6  -2 45735.4 550.373  39
   2   6  -2 44796.0 561.996  35
   2   6  -2 45890.4 602.071  65
   2   6  -1 48260.4 586.658  39
   2   6  -1 47964.6 580.305  31
   2   6  -1 46818.4 593.236  35
   2   6  -1 46661.5 565.000  42
   2   6  -1 47351.7 630.754  65
   2   6   0 18698.5 309.852  39
   2   6   0 18336.4 316.724  28
   2   6   0 18690.3 292.831  31
   2   6   0 18264.5 293.631  42
   2   6   0 19067.9 333.806  65
   2   6   0 18805.3 314.051  60
   2   6   1 15385.3 286.385  39
   2   6   1 15198.1 282.741  28
   2   6   1 14953.7 261.362  31
   2   6   1 15177.2 299.870  65
   2   6   1 14537.1 247.584  46
   2   6   1 14978.2 279.598  60
   2   6   2 1887.06 63.1855  77
   2   6   2 1049.25 55.4364  46
   2   6   3 39604.2 604.072  39
   2   6   3 40477.7 610.500  37
   2   6   3 40384.3 560.664  28
   2   6   4 2925.89 142.867  37
   2   6   4 3115.02 110.410  36
   2   6   5 1162.63 94.4099  37
   2   6   5 1300.35 65.2014  77
   2   6   5 1266.27 92.6960  49
   2   6   6 515.668 44.2255  77
   2   6   6 463.943 54.8699  49
   2   6   6 390.863 59.7605  53
   2   6   7 100.313 27.8566  49
   2   6   7 123.845 37.1792  53
   2   6   8 146.289 21.0968  73
   2   7  -7 761.751 44.1719  28
   2   7  -7 791.472 40.5604  35
   2   7  -5 282.606 39.9213  35
   2   7  -5 322.448 43.6711  65
   2   7  -4 569.802 42.0484  39
   2   7  -4 707.137 56.1853  35
   2   7  -3 13536.4 231.339  39
   2   7  -3 13966.4 248.019  35
   2   7  -2 47285.3 587.472  39
   2   7  -2 45597.4 585.442  31
   2   7  -2 46400.8 602.278  35
   2   7  -1 620.218 56.7798  39
   2   7  -1 668.592 66.3384  28
   2   7  -1 693.899 57.6011  31
   2   7  -1 634.353 65.1035  35
   2   7  -1 553.210 67.1579  65
   2   7  -1 680.190 62.5991  60
   2   7   0 2405.73 105.556  39
   2   7   0 2463.60 109.313  28
   2   7   0 2218.72 114.993  65
   2   7   0 2255.47 104.147  60
   2   7   1 3095.75 125.429  39
   2   7   1 2979.34 119.869  28
   2   7   1 3179.77 134.492  65
   2   7   1 2927.67 95.2305  46
   2   7   1 2773.43 116.206  60
   2   7   2 119.488 42.1883  28
   2   7   2 97.0757 54.9394  37
   2   7   3 25414.7 443.519  37
   2   7   3 24982.0 366.209  36
   2   7   3 25300.3 379.920  28
   2   7   4 20068.8 377.781  37
   2   7   5 402.842 58.0498  37
   2   7   5 429.902 54.9282  49
   2   7   6 1.58213 23.6470  49
   2   7   6-1.96861 27.5680  53
   2   7   7 1339.14 37.7518  73
   2   8  -6 981.735 50.6936  28
   2   8  -6 940.006 44.4711  31
   2   8  -6 925.474 46.5884  35
   2   8  -6 977.977 50.4224  60
   2   8  -5 2327.24 88.0864  28
   2   8  -5 2284.29 76.5559  31
   2   8  -5 2388.83 80.8019  35
   2   8  -5 2200.50 81.6977  65
   2   8  -5 2216.32 84.5438  60
   2   8  -4 1178.36 71.8576  28
   2   8  -4 1143.97 60.3736  31
   2   8  -4 1215.33 66.7455  35
   2   8  -4 1048.30 69.1439  60
   2   8  -3 8853.65 180.304  31
   2   8  -3 9157.92 197.159  35
   2   8  -3 9216.84 214.055  65
   2   8  -3 8817.16 200.150  60
   2   8  -2 4803.97 130.932  39
   2   8  -2 4871.53 131.576  31
   2   8  -2 4927.62 158.627  65
   2   8  -2 4899.51 145.845  60
   2   8  -1 1019.96 67.0094  39
   2   8  -1 1019.43 74.9227  28
   2   8  -1 1005.00 79.4728  65
   2   8  -1 959.240 71.6599  60
   2   8   0 152.391 42.9148  28
   2   8   0 229.139 45.1295  39
   2   8   0 248.527 54.7018  65
   2   8   0 166.048 43.1516  60
   2   8   1 1109.71 76.8046  39
   2   8   1 1153.49 75.4961  28
   2   8   2 26801.2 425.816  39
   2   8   2 26875.5 441.751  37
   2   8   3 5184.02 169.389  37
   2   8   4 774.700 65.2729  37
   2   8   4 723.246 60.4088  49
   2   8   5 132.652 33.3366  53
   2   9  -4 680.518 46.5002  28
   2   9  -4 696.694 46.2475  65
   2   9  -4 701.730 46.5978  60
   2   9  -3 6070.48 143.121  28
   2   9  -3 5912.65 123.639  31
   2   9  -3 6220.50 150.834  65
   2   9  -3 6105.91 140.742  60
   2   9  -2 1428.06 71.8995  28
   2   9  -2 1414.01 78.3934  65
   2   9  -2 1347.33 68.9076  60
   2   9  -1 687.415 53.8635  28
   2   9  -1 580.923 57.2174  65
   2   9   0 196.490 35.6591  28
   2   9   0 131.735 30.8271  39
   2   9   0 203.209 44.2972  37
   2   9   1 104.840 31.4041  39
   2   9   1 77.3731 39.9780  37
   2   9   2 3704.59 124.129  37
   2   9   3 1864.55 80.8367  37
   3  -9  -3 105.448 28.6668  59
   3  -9  -2 1569.70 75.2439  59
   3  -9  -1 1961.21 84.0775  59
   3  -9   0 1291.39 61.0041  50
   3  -9   1 5728.26 136.655  50
   3  -9   2 5141.06 131.435  50
   3  -9   3 937.510 56.0561  50
   3  -9   4 692.735 47.0614  76
   3  -8  -5 198.858 33.1534  52
   3  -8  -4 2070.62 81.4418  52
   3  -8  -3 1732.31 84.5511  57
   3  -8  -2 5407.37 150.175  19
   3  -8  -2 4984.13 147.891  57
   3  -8  -1 1309.55 82.2217  19
   3  -8  -1 1260.14 64.0089  47
   3  -8   0 8418.38 201.825  19
   3  -8   0 8100.96 177.777  47
   3  -8   1 10205.7 227.617  59
   3  -8   2 12706.1 249.059  47
   3  -8   3 111.421 41.4890  47
   3  -8   4-1.78273 30.6200  50
   3  -8   5 36.0840 34.4675  76
   3  -8   5 35.1863 26.5305  50
   3  -8   6 50.6847 22.9727  76
   3  -7  -6 847.686 48.6340  21
   3  -7  -6 868.399 46.9736  57
   3  -7  -6 852.645 53.2117  52
   3  -7  -5 4200.46 108.950  21
   3  -7  -5 4088.84 113.692  20
   3  -7  -5 3885.81 102.253  19
   3  -7  -5 4080.26 112.994  57
   3  -7  -4 27.6097 42.8212  20
   3  -7  -4 46.5400 35.0718  19
   3  -7  -4 34.5125 38.0521  57
   3  -7  -3 10571.3 193.018  21
   3  -7  -3 10818.2 216.149  19
   3  -7  -3 10565.1 212.170  57
   3  -7  -2 175.227 34.0756  21
   3  -7  -2 203.496 49.7023  20
   3  -7  -2 223.355 52.9536  19
   3  -7  -2 186.891 48.3563  57
   3  -7  -2 200.091 35.5954  47
   3  -7  -1 4228.52 138.200  19
   3  -7  -1 4122.68 134.743  57
   3  -7  -1 3977.50 116.227  47
   3  -7   0 2490.84 110.653  19
   3  -7   0 2424.10 107.425  57
   3  -7   0 2358.32 97.1202  47
   3  -7   1 16556.9 306.143  19
   3  -7   1 17193.3 294.112  47
   3  -7   2 14416.0 284.277  19
   3  -7   2 14856.4 277.261  47
   3  -7   3 580.169 66.8674  47
   3  -7   4 973.388 75.7586  47
   3  -7   5 1369.38 78.1778  50
   3  -7   6 2200.65 100.895  76
   3  -7   7 453.470 39.6986  76
   3  -6  -7 3796.72 91.1734  20
   3  -6  -6 3438.67 97.7168  20
   3  -6  -6 3160.77 93.7487  57
   3  -6  -5 13344.1 224.805  20
   3  -6  -5 13091.2 219.322  19
   3  -6  -5 13068.6 223.845  57
   3  -6  -4 3784.38 114.166  20
   3  -6  -4 3743.66 116.514  57
   3  -6  -3 27236.9 375.575  20
   3  -6  -3 27963.9 385.535  19
   3  -6  -3 26708.2 344.850  47
   3  -6  -3 26819.2 381.519  57
   3  -6  -2 38467.2 485.116  20
   3  -6  -2 38124.1 495.765  19
   3  -6  -2 37903.0 466.939  47
   3  -6  -2 38431.8 492.004  57
   3  -6  -1 20893.8 314.695  20
   3  -6  -1 20025.6 318.011  19
   3  -6  -1 20304.3 312.126  57
   3  -6   0 95171.8 1041.57  20
   3  -6   0 94336.1 1042.08  19
   3  -6   0 93031.4 1040.51  57
   3  -6   0 91808.7 1023.43  47
   3  -6   1 67469.7 820.186  19
   3  -6   1 70859.5 808.267  47
   3  -6   2 20903.8 343.189  19
   3  -6   2 21093.9 321.349  16
   3  -6   2 20576.3 337.534  47
   3  -6   3 1302.69 75.0032  16
   3  -6   3 1322.45 87.9527  47
   3  -6   4 3237.37 130.951  47
   3  -6   5 5513.22 169.070  47
   3  -6   6 890.695 83.8514  76
   3  -6   7 58.3263 36.6096  71
   3  -6   7 13.8043 36.2380  76
   3  -5  -8 1182.11 55.0271  52
   3  -5  -7 2105.71 69.7207  57
   3  -5  -6 15028.2 229.984  20
   3  -5  -6 14846.5 221.609  19
   3  -5  -5 11861.9 203.195  20
   3  -5  -5 11773.1 201.249  19
   3  -5  -5 11407.4 185.935  40
   3  -5  -4 17451.1 257.186  40
   3  -5  -4 17649.6 272.805  57
   3  -5  -3 5496.16 125.332  20
   3  -5  -3 5261.77 131.540  19
   3  -5  -3 5267.34 121.859  40
   3  -5  -3 5335.97 129.900  57
   3  -5  -2 68.9764 35.1108  20
   3  -5  -2 17.7102 36.8066  19
   3  -5  -2 69.4079 31.4365  40
   3  -5  -2 12.5690 33.1965  57
   3  -5  -1 36106.5 444.202  40
   3  -5  -1 36409.8 444.314  20
   3  -5  -1 36644.9 461.669  19
   3  -5  -1 36688.2 437.266  16
   3  -5  -1 36513.8 440.758  64
   3  -5  -1 36668.1 450.885  57
   3  -5   0 3926.99 106.314  20
   3  -5   0 3967.78 112.185  19
   3  -5   0 4107.11 103.415  16
   3  -5   0 4105.71 110.092  57
   3  -5   1 1497.01 71.7175  20
   3  -5   1 1509.05 72.0396  19
   3  -5   1 1600.14 67.3046  16
   3  -5   1 1521.86 70.3164  64
   3  -5   1 1577.35 72.6969  47
   3  -5   2 7683.96 168.226  19
   3  -5   2 7765.64 161.275  16
   3  -5   2 7238.80 162.589  57
   3  -5   2 7109.72 165.683  47
   3  -5   3 8736.11 189.987  19
   3  -5   3 9113.64 183.790  16
   3  -5   3 9023.03 198.109  47
   3  -5   4 2066.48 86.8557  16
   3  -5   4 1966.66 102.045  47
   3  -5   5 5250.89 141.451  16
   3  -5   5 5378.10 166.535  47
   3  -5   6 4713.54 182.840  76
   3  -5   6 5540.95 150.379  50
   3  -5   7 138.620 49.8484  71
   3  -5   7 112.516 48.2908  76
   3  -5   8 166.866 35.0282  71
   3  -4  -8 1294.03 49.8707  20
   3  -4  -7 10653.0 177.296  57
   3  -4  -6 35845.7 430.885  40
   3  -4  -6 37421.7 443.357  19
   3  -4  -5 3618.84 87.4682  38
   3  -4  -5 3471.17 95.3989  40
   3  -4  -5 3621.06 102.184  19
   3  -4  -4 3803.14 93.2295  38
   3  -4  -4 3488.26 102.795  19
   3  -4  -3 3856.85 96.2323  38
   3  -4  -3 4221.62 103.970  40
   3  -4  -3 4164.18 110.272  19
   3  -4  -3 4200.32 92.6421  17
   3  -4  -2 18470.9 257.202  38
   3  -4  -2 17996.0 259.123  40
   3  -4  -2 18464.6 246.956  64
   3  -4  -2 18853.1 273.786  19
   3  -4  -2 18740.9 257.801  17
   3  -4  -1 22028.7 294.218  38
   3  -4  -1 21715.3 294.746  40
   3  -4  -1 21062.8 305.768  19
   3  -4  -1 22904.0 282.215  16
   3  -4  -1 22959.3 296.982  64
   3  -4   0 35015.4 425.089  40
   3  -4   0 36293.8 434.996  19
   3  -4   0 35190.7 423.484  16
   3  -4   0 36105.1 438.404  64
   3  -4   0 35674.5 423.118  57
   3  -4   1 8033.52 143.972  20
   3  -4   1 8377.42 156.619  19
   3  -4   1 8405.11 161.233  64
   3  -4   1 8296.72 147.471  57
   3  -4   2 6687.96 146.334  64
   3  -4   2 6304.98 129.850  57
   3  -4   2 6507.15 141.944  47
   3  -4   3 2218.30 81.2256  19
   3  -4   3 2279.91 85.7791  16
   3  -4   3 2278.21 86.0678  64
   3  -4   3 2297.09 90.9774  47
   3  -4   4 25837.0 361.748  16
   3  -4   4 24849.5 384.503  47
   3  -4   5 3061.50 104.650  16
   3  -4   5 2810.13 90.4644  54
   3  -4   6 446.129 48.6197  16
   3  -4   6 461.638 72.2582  76
   3  -4   7 947.856 88.1195  71
   3  -4   7 959.864 85.0387  76
   3  -4   8 769.196 64.1597  71
   3  -4   9 950.966 47.9500  75
   3  -3  -8 5163.01 101.462  57
   3  -3  -7 2994.11 79.0276  40
   3  -3  -6 29363.1 363.746  38
   3  -3  -6 30772.6 384.884  19
   3  -3  -5 23425.0 309.091  38
   3  -3  -4 3625.47 86.4994  26
   3  -3  -4 3599.58 85.4608  17
   3  -3  -3 19274.9 265.128  38
   3  -3  -3 19209.7 255.375  26
   3  -3  -3 19626.6 260.232  17
   3  -3  -2 34159.9 410.897  17
   3  -3  -2 34705.0 378.725  16
   3  -3  -2 34329.5 1040.63   9
   3  -3  -2 34542.4 408.176  38
   3  -3  -2 33241.6 400.925  26
   3  -3  -1 38234.5 1085.65   4
   3  -3  -1 36994.4 440.429  17
   3  -3  -1 38315.9 1124.53   9
   3  -3  -1 37480.7 433.771  38
   3  -3  -1 37328.6 430.761  26
   3  -3  -1 36560.6 431.599  40
   3  -3  -1 37137.9 415.313  45
   3  -3   0 31903.7 393.302  17
   3  -3   0 30829.5 1049.98   9
   3  -3   0 31076.1 378.502  38
   3  -3   0 32830.9 379.746  40
   3  -3   0 31742.3 379.498  45
   3  -3   1 3652.35 88.4543  40
   3  -3   1 3658.98 91.3922  19
   3  -3   1 3614.90 263.930   7
   3  -3   1 3605.18 97.4850  17
   3  -3   1 3689.34 379.373   9
   3  -3   1 3648.20 98.4802  64
   3  -3   1 3975.39 84.0093  57
   3  -3   2 15280.6 547.750   7
   3  -3   2 15195.0 215.587  19
   3  -3   2 15197.1 235.897  64
   3  -3   2 14428.0 203.079  57
   3  -3   3 7522.08 134.944  19
   3  -3   3 7164.75 156.555  64
   3  -3   3 7366.28 156.675  45
   3  -3   3 7300.50 148.767  47
   3  -3   4 8197.81 169.596  64
   3  -3   4 7845.06 156.052  54
   3  -3   5 22901.8 336.327  16
   3  -3   5 22111.5 326.292  54
   3  -3   5 22237.3 350.393  47
   3  -3   6 12758.3 227.057  16
   3  -3   6 12259.6 292.023  76
   3  -3   6 12367.5 226.891  54
   3  -3   7 5927.99 137.114  16
   3  -3   7 6012.15 195.924  71
   3  -3   7 5906.77 189.497  76
   3  -3   7 5944.10 140.883  54
   3  -3   8 2208.51 103.421  71
   3  -3   8 2307.50 76.8575  54
   3  -3   9 3174.48 89.7731  75
   3  -2  -7 19791.6 268.452  19
   3  -2  -7 19874.2 267.356  38
   3  -2  -6 6404.03 121.033  26
   3  -2  -5 12315.9 188.150  17
   3  -2  -4 7767.65 140.574  17
   3  -2  -4 7350.59 126.623  51
   3  -2  -3 73221.9 782.337  17
   3  -2  -3 70745.8 1332.48   9
   3  -2  -3 71042.4 769.417  43
   3  -2  -3 72104.3 768.020  51
   3  -2  -2 183778. 2694.40   4
   3  -2  -2 182295. 2573.49   9
   3  -2  -2 180669. 1777.83  26
   3  -2  -2 178738. 1789.59  43
   3  -2  -2 180717. 1782.60  51
   3  -2  -1 19484.0 601.921  13
   3  -2  -1 19550.1 260.206  17
   3  -2  -1 18542.7 679.124   9
   3  -2  -1 18821.4 248.163  26
   3  -2  -1 18553.5 262.609  43
   3  -2   0 77993.4 838.014  17
   3  -2   0 79068.1 823.835  38
   3  -2   0 78491.8 820.839  40
   3  -2   0 80968.9 848.907  43
   3  -2   0 78005.2 827.051  26
   3  -2   0 78179.0 834.420  45
   3  -2   1 22495.0 296.643  17
   3  -2   1 22569.8 862.937   9
   3  -2   1 22304.7 282.855  38
   3  -2   1 23015.3 276.641  40
   3  -2   1 22946.7 302.538  45
   3  -2   2 6814.60 366.510   7
   3  -2   2 7002.81 116.972  19
   3  -2   2 7255.69 137.142  17
   3  -2   2 6684.77 501.613   9
   3  -2   2 6722.01 118.087  54
   3  -2   2 6794.69 140.260  45
   3  -2   2 6555.00 100.775  57
   3  -2   3 37769.6 419.260  19
   3  -2   3 38849.2 471.430  64
   3  -2   3 38844.0 479.897  45
   3  -2   4 7661.40 159.034  64
   3  -2   4 7489.83 150.599  47
   3  -2   5 13442.5 229.216  47
   3  -2   5 13894.9 248.057  54
   3  -2   6 10758.5 276.456  71
   3  -2   6 11189.7 265.328  76
   3  -2   6 11449.7 228.308  54
   3  -2   7 9964.46 181.578  16
   3  -2   7 9852.50 252.443  71
   3  -2   7 9360.84 238.207  76
   3  -2   7 9684.62 202.686  54
   3  -2   8 2128.93 106.166  71
   3  -2   8 2118.47 82.1972  54
   3  -2   9 1957.34 73.7915  75
   3  -2   9 2135.70 63.6556  54
   3  -1  -5 9105.49 155.258  51
   3  -1  -4 33859.6 1020.25  10
   3  -1  -4 31958.3 389.318  43
   3  -1  -3 69521.1 1405.26  13
   3  -1  -3 68108.7 732.847  43
   3  -1  -3 66096.2 703.505  46
   3  -1  -2 149162. 2216.50  13
   3  -1  -2 146855. 2044.43   9
   3  -1  -2 151747. 1511.28  30
   3  -1  -2 150099. 1516.27  46
   3  -1  -1 35813.6 842.878  13
   3  -1  -1 36969.9 891.444   9
   3  -1  -1 37772.4 443.686  43
   3  -1  -1 36518.6 427.141  46
   3  -1  -1 36605.3 434.728  51
   3  -1   0 32124.9 734.771  13
   3  -1   0 30605.1 382.882  17
   3  -1   0 32103.5 371.138  26
   3  -1   0 31710.3 374.590  30
   3  -1   0 32005.3 395.007  43
   3  -1   0 31800.8 386.047  51
   3  -1   1 44388.0 952.941   7
   3  -1   1 43946.0 506.047  17
   3  -1   1 44503.7 1084.82  11
   3  -1   1 44693.5 1159.05   9
   3  -1   1 44972.1 486.183  38
   3  -1   1 43801.8 507.957  36
   3  -1   1 45917.2 523.956  43
   3  -1   1 43912.7 477.105  40
   3  -1   1 43781.2 494.452  26
   3  -1   1 44339.7 511.283  51
   3  -1   2 166334. 2339.14   7
   3  -1   2 160897. 2593.51  11
   3  -1   2 165574. 1667.85  17
   3  -1   2 164764. 1628.11  40
   3  -1   2 164891. 1656.93  54
   3  -1   2 165800. 1692.87  45
   3  -1   3 15689.0 254.664  36
   3  -1   3 15375.2 237.853  54
   3  -1   3 15236.2 249.517  45
   3  -1   4 9228.68 492.865  10
   3  -1   4 9908.99 211.558  76
   3  -1   4 9623.12 196.007  45
   3  -1   4 9592.19 156.875  47
   3  -1   5 11283.1 199.599  64
   3  -1   5 12090.7 274.841  71
   3  -1   5 11359.7 248.550  76
   3  -1   5 12451.6 230.185  45
   3  -1   5 11754.9 236.124  54
   3  -1   6 8832.25 243.510  71
   3  -1   6 8693.38 224.799  76
   3  -1   6 9357.07 214.171  54
   3  -1   7 6183.45 192.980  71
   3  -1   7 6076.19 175.992  66
   3  -1   7 6240.25 169.890  54
   3  -1   8 8146.94 181.103  66
   3  -1   8 8436.08 183.795  54
   3  -1   9 121.680 27.2764  54
   3   0  -4 59429.0 1267.10   4
   3   0  -4 58336.0 1312.14  10
   3   0  -3 124954. 2152.02  10
   3   0  -3 119385. 1196.94  31
   3   0  -2 10054.0 359.820  11
   3   0  -2 11297.4 566.747  10
   3   0  -2 11048.2 173.008  46
   3   0  -1 29453.5 765.548  13
   3   0  -1 30242.8 772.885  11
   3   0  -1 30813.3 355.821  31
   3   0  -1 31943.0 369.150  30
   3   0  -1 30991.5 373.966  28
   3   0  -1 30539.9 376.090  46
   3   0   0 10986.2 402.058  13
   3   0   0 11423.2 438.104   7
   3   0   0 10538.7 480.958  11
   3   0   0 11022.2 167.409  30
   3   0   0 11008.1 177.139  46
   3   0   0 10262.1 174.493  51
   3   0   1 67759.1 1235.34   7
   3   0   1 70505.7 1094.09  13
   3   0   1 68289.9 1452.40  11
   3   0   1 69798.9 741.231  17
   3   0   1 67710.1 714.593  38
   3   0   1 69286.6 725.741  26
   3   0   1 69060.3 759.091  43
   3   0   1 68170.0 741.127  30
   3   0   1 68448.8 755.533  46
   3   0   1 68214.7 747.482  51
   3   0   2 61659.7 1448.90  11
   3   0   2 62071.4 651.720  38
   3   0   2 63072.1 713.911  36
   3   0   2 63351.7 707.076  43
   3   0   2 63295.8 698.236  51
   3   0   3 104960. 1083.84  17
   3   0   3 106384. 1920.32  10
   3   0   3 103886. 1146.84  36
   3   0   3 104963. 1131.06  45
   3   0   4 13675.5 258.668  36
   3   0   4 12980.8 536.568  10
   3   0   4 13876.4 270.661  71
   3   0   4 12685.4 236.017  76
   3   0   4 13400.2 239.393  45
   3   0   5 50219.8 582.154  64
   3   0   5 49704.3 689.150  71
   3   0   5 50116.7 650.352  76
   3   0   6 32207.8 513.729  71
   3   0   6 33088.1 496.667  54
   3   0   7 5210.25 155.014  75
   3   0   7 5661.79 165.518  66
   3   0   7 5443.23 177.082  71
   3   0   7 5542.49 170.378  54
   3   0   8 7074.59 161.976  75
   3   0   8 7459.88 169.539  66
   3   0   8 7313.35 149.557  77
   3   0   8 7276.49 178.689  54
   3   0   9 334.584 30.6983  75
   3   0   9 395.679 37.3410  54
   3   1  -4 6603.05 374.550   5
   3   1  -4 6716.24 122.459  60
   3   1  -3 125998. 2279.25  12
   3   1  -3 129928. 2142.59  10
   3   1  -3 124522. 1288.37  28
   3   1  -3 126358. 1283.54  60
   3   1  -2 14745.0 631.744  10
   3   1  -2 14604.7 195.031  31
   3   1  -2 14275.3 212.229  28
   3   1  -2 14075.2 206.630  60
   3   1  -1 17727.6 562.032   7
   3   1  -1 17576.8 687.834  10
   3   1   0 101796. 1613.22   7
   3   1   0 103727. 1894.31  10
   3   1   0 103817. 1075.42  31
   3   1   0 104209. 1097.31  28
   3   1   0 103028. 1072.40  30
   3   1   0 102799. 1089.90  46
   3   1   1 373307. 4337.46   7
   3   1   1 368091. 4008.46  13
   3   1   1 378070. 4688.67  10
   3   1   1 368114. 3647.99  37
   3   1   1 370630. 3633.79  30
   3   1   1 367485. 3672.26  28
   3   1   1 374405. 3654.30  46
   3   1   1 370589. 3641.90  51
   3   1   2 20429.0 834.921  11
   3   1   2 21063.2 268.901  17
   3   1   2 21057.7 256.492  26
   3   1   2 20007.0 235.919  38
   3   1   2 19679.1 301.739  37
   3   1   2 20882.7 294.431  43
   3   1   2 20553.3 290.349  53
   3   1   3 36521.2 415.001  17
   3   1   3 35324.5 487.881  37
   3   1   3 36240.5 483.829  36
   3   1   3 36308.4 448.751  43
   3   1   3 35228.9 475.621  53
   3   1   4 8962.05 213.218  36
   3   1   4 9164.24 209.427  71
   3   1   4 9501.58 194.807  45
   3   1   5 34716.1 509.524  36
   3   1   5 34098.9 403.864  64
   3   1   5 33484.9 452.374  75
   3   1   5 34029.0 507.495  71
   3   1   5 34703.1 519.561  53
   3   1   6 85207.2 975.518  75
   3   1   6 87055.9 1041.14  71
   3   1   6 84376.8 1016.82  66
   3   1   6 87866.6 962.678  45
   3   1   7 5812.29 164.628  66
   3   1   7 6041.79 182.231  54
   3   1   8 5815.10 127.508  75
   3   1   8 6141.41 145.858  66
   3   1   8 6210.70 135.315  77
   3   1   8 6082.67 165.461  54
   3   1   9 759.704 47.3026  54
   3   2  -5 1528.17 62.5723  28
   3   2  -4 14103.2 547.977   5
   3   2  -3 3091.71 89.6049  28
   3   2  -3 3173.75 66.1341  35
   3   2  -3 3394.82 281.920   5
   3   2  -2 104850. 1065.19  35
   3   2  -2 106737. 1651.50   7
   3   2  -2 107279. 2019.83  12
   3   2  -2 104598. 1106.94  65
   3   2  -1 5639.29 128.141  28
   3   2  -1 5664.86 113.984  31
   3   2  -1 5675.60 125.912  60
   3   2   0 153781. 2201.09   7
   3   2   0 157847. 1642.96  28
   3   2   0 156522. 1617.02  31
   3   2   0 158604. 1640.15  60
   3   2   1 92583.3 1305.28  13
   3   2   1 91817.9 1010.44  37
   3   2   1 93249.0 1024.47  28
   3   2   1 92763.7 984.722  30
   3   2   1 93875.4 1005.70  46
   3   2   2 115929. 1173.42  17
   3   2   2 108824. 1903.15   5
   3   2   2 113283. 1249.58  28
   3   2   2 115870. 1151.69  26
   3   2   2 111663. 1222.79  46
   3   2   2 111863. 1192.63  51
   3   2   3 51646.0 1141.43   5
   3   2   3 50179.8 650.870  37
   3   2   3 48937.7 632.010  36
   3   2   3 50537.3 587.636  43
   3   2   3 49627.9 635.134  53
   3   2   4 9777.36 241.539  37
   3   2   4 9961.24 208.830  66
   3   2   5 19919.6 352.948  36
   3   2   5 18283.6 270.267  75
   3   2   5 18736.9 324.800  66
   3   2   5 18791.0 300.302  49
   3   2   5 18862.5 364.081  53
   3   2   5 19970.1 302.928  45
   3   2   6 7461.36 152.704  75
   3   2   6 7885.66 191.694  66
   3   2   6 7963.59 158.716  45
   3   2   6 7923.74 224.223  53
   3   2   7 4320.28 134.381  66
   3   2   7 4305.69 104.253  75
   3   2   8 1274.53 60.8601  77
   3   2   8 1322.38 79.5467  54
   3   2   9 232.084 29.7221  54
   3   3  -6 5504.20 130.537  28
   3   3  -4 8540.78 137.993  35
   3   3  -3 21282.1 269.231  35
   3   3  -3 21359.4 307.070  65
   3   3  -3 20680.7 592.828   7
   3   3  -2 21750.5 318.101  28
   3   3  -2 21364.2 277.754  35
   3   3  -2 22008.1 611.867   7
   3   3  -2 21103.6 312.745  65
   3   3  -1 118377. 1731.51   7
   3   3  -1 110325. 2044.52  12
   3   3  -1 114543. 1229.65  28
   3   3  -1 114232. 1196.95  31
   3   3  -1 114208. 1192.48  35
   3   3  -1 114190. 1222.72  60
   3   3   0 92753.5 1024.85  28
   3   3   0 91502.8 996.173  31
   3   3   0 91539.2 1017.20  60
   3   3   1 32417.6 396.219  30
   3   3   1 32075.4 420.542  46
   3   3   2 1279.89 77.4275  37
   3   3   2 1292.77 77.8855  28
   3   3   2 1326.71 49.9360  17
   3   3   2 1336.78 57.6698  66
   3   3   2 1264.72 67.4453  46
   3   3   2 1257.04 57.7280  51
   3   3   3 11679.7 200.275  43
   3   3   3 11347.9 256.633  37
   3   3   3 11498.9 245.555  28
   3   3   3 11348.4 205.956  66
   3   3   4 26035.2 446.565  37
   3   3   4 26478.4 420.808  36
   3   3   4 25825.4 376.033  66
   3   3   4 25232.8 384.230  49
   3   3   5 68781.3 904.280  37
   3   3   5 67490.2 862.959  36
   3   3   5 67467.2 801.207  66
   3   3   5 66820.6 810.286  49
   3   3   5 65607.5 885.921  53
   3   3   5 68469.1 772.408  45
   3   3   6 15508.1 301.393  36
   3   3   6 15230.6 325.715  53
   3   3   7 1044.83 64.0009  77
   3   3   7 987.133 81.8580  53
   3   3   8 650.526 44.4063  77
   3   3   8 641.366 54.9196  54
   3   4  -7 1939.62 73.2538  60
   3   4  -6 978.599 46.5446  35
   3   4  -5 10442.0 171.640  35
   3   4  -4 129.965 25.5973  35
   3   4  -4 187.022 34.1091  65
   3   4  -3 241.296 31.3730  35
   3   4  -3 188.865 37.8430  65
   3   4  -2 59407.2 717.100  28
   3   4  -2 58748.8 666.641  35
   3   4  -2 58172.0 711.425  65
   3   4  -1 25576.7 377.403  28
   3   4  -1 24414.7 345.615  31
   3   4  -1 25391.4 383.036  65
   3   4  -1 25069.3 370.253  60
   3   4   0 5112.14 119.494  39
   3   4   0 5063.20 146.183  28
   3   4   0 5273.89 136.435  31
   3   4   0 5445.41 365.341  12
   3   4   0 4964.43 150.439  65
   3   4   0 5111.20 143.229  60
   3   4   1 23356.5 341.497  39
   3   4   1 23970.3 376.638  28
   3   4   1 23595.3 354.189  31
   3   4   1 22777.1 353.754  46
   3   4   1 23363.7 376.899  60
   3   4   2 8034.70 208.912  37
   3   4   2 7995.35 201.673  28
   3   4   2 7631.07 151.512  51
   3   4   3 28507.7 376.637  43
   3   4   3 28128.5 474.371  37
   3   4   3 29278.5 455.988  28
   3   4   3 29235.0 378.727  66
   3   4   4 41814.6 623.445  37
   3   4   4 41297.6 584.860  36
   3   4   4 39872.8 556.835  49
   3   4   4 39562.2 508.740  45
   3   4   5 4025.75 166.869  37
   3   4   5 4048.28 147.096  36
   3   4   5 3724.87 130.495  49
   3   4   5 3822.35 156.001  53
   3   4   6 1476.52 74.2397  77
   3   4   6 1483.15 99.6573  53
   3   4   7 1071.13 58.8906  77
   3   4   7 1020.76 73.9399  53
   3   4   8 41.4752 23.5272  77
   3   4   8 14.6304 27.3561  54
   3   4   9 85.0308 14.0510  73
   3   5  -8 1462.56 52.6020  31
   3   5  -7 1333.78 60.7189  60
   3   5  -6 8568.61 186.450  28
   3   5  -6 8731.78 157.035  35
   3   5  -5 6716.55 140.056  35
   3   5  -4 23164.8 325.993  35
   3   5  -4 23628.7 362.698  65
   3   5  -3 4349.53 115.941  35
   3   5  -3 4251.39 136.821  65
   3   5  -2 17214.1 305.239  28
   3   5  -2 16933.2 273.010  31
   3   5  -2 16901.2 295.321  60
   3   5  -1 82178.8 954.805  28
   3   5  -1 80133.9 913.714  31
   3   5  -1 80047.6 923.998  35
   3   5  -1 80944.2 970.567  65
   3   5  -1 81339.0 944.556  60
   3   5   0 2146.30 84.4890  39
   3   5   0 2054.18 100.943  28
   3   5   0 2151.17 92.5071  31
   3   5   0 2156.84 81.4327  30
   3   5   0 2123.13 108.395  65
   3   5   0 2017.61 99.4449  60
   3   5   1 1835.14 87.8301  39
   3   5   1 1839.12 97.4549  28
   3   5   1 1729.56 68.6899  30
   3   5   1 1800.37 99.2932  60
   3   5   2 97.5480 48.6776  28
   3   5   2 96.1874 41.1282  39
   3   5   2 104.532 49.1340  37
   3   5   2 111.203 27.0799  77
   3   5   2 130.937 36.7760  46
   3   5   3 49699.2 720.872  37
   3   5   3 49597.9 679.489  28
   3   5   4 45327.3 685.407  37
   3   5   4 46463.7 620.985  36
   3   5   4 44747.9 622.666  49
   3   5   5 1305.85 101.244  37
   3   5   5 1118.53 73.4046  49
   3   5   6 935.131 55.5962  77
   3   5   6 975.092 78.1967  53
   3   5   7 1413.81 58.2513  77
   3   6  -7 352.501 34.1641  31
   3   6  -7 287.431 31.2848  60
   3   6  -6 2482.86 93.2018  28
   3   6  -6 2543.17 78.9559  35
   3   6  -6 2598.52 94.1886  60
   3   6  -5 7204.71 151.553  35
   3   6  -5 6848.86 157.997  65
   3   6  -4 1171.52 78.6939  28
   3   6  -4 1229.73 67.6722  35
   3   6  -4 1426.61 80.4854  65
   3   6  -3 68568.6 848.314  28
   3   6  -3 71021.2 808.475  31
   3   6  -3 68097.0 851.258  65
   3   6  -3 68690.1 841.089  60
   3   6  -2 40400.9 576.375  28
   3   6  -2 42044.7 539.779  31
   3   6  -2 42204.0 549.926  35
   3   6  -2 42009.7 587.459  65
   3   6  -2 39517.0 567.203  60
   3   6  -1 46570.5 649.207  28
   3   6  -1 48838.7 614.837  31
   3   6  -1 47898.4 664.970  65
   3   6  -1 47827.4 639.797  60
   3   6   0 27745.4 399.905  39
   3   6   0 27380.3 443.879  28
   3   6   0 27427.7 413.822  31
   3   6   0 27555.9 368.736  30
   3   6   0 27639.4 460.126  65
   3   6   0 26971.2 438.981  60
   3   6   1 35906.5 499.529  39
   3   6   1 37245.2 535.081  28
   3   6   1 34201.3 433.225  30
   3   6   1 35838.2 481.321  46
   3   6   1 33510.0 530.873  60
   3   6   2 31775.3 496.468  28
   3   6   2 32367.8 518.244  37
   3   6   2 31963.5 387.293  77
   3   6   2 32139.8 432.379  46
   3   6   3 23553.7 435.926  37
   3   6   3 22678.1 375.194  36
   3   6   3 23785.2 317.369  77
   3   6   4 602.342 72.7184  37
   3   6   4 526.941 56.1572  36
   3   6   4 633.532 45.8086  77
   3   6   4 614.772 59.0636  49
   3   6   5 1308.56 92.8060  37
   3   6   5 1101.29 65.0398  49
   3   6   6 2239.70 69.4832  77
   3   7  -6 2451.87 82.9100  28
   3   7  -6 2574.07 79.9871  31
   3   7  -6 2466.43 83.2738  60
   3   7  -5 5968.30 151.915  28
   3   7  -5 5678.46 136.415  31
   3   7  -5 5606.33 131.127  35
   3   7  -5 5888.92 149.073  60
   3   7  -4 3225.43 119.509  28
   3   7  -4 3230.34 107.207  31
   3   7  -4 3205.88 106.896  35
   3   7  -4 3087.51 112.566  65
   3   7  -4 3175.81 118.100  60
   3   7  -3 18180.6 326.001  28
   3   7  -3 18229.7 297.434  31
   3   7  -3 18148.0 320.497  60
   3   7  -2 463.802 63.0674  28
   3   7  -2 464.075 52.0456  31
   3   7  -2 409.912 60.2692  65
   3   7  -2 515.597 62.1186  60
   3   7  -1 2331.54 112.900  28
   3   7  -1 2335.93 99.7980  31
   3   7  -1 2196.83 78.6746  30
   3   7  -1 2250.54 115.973  65
   3   7  -1 2428.56 110.651  60
   3   7   0 2948.91 126.466  28
   3   7   0 2983.34 107.502  46
   3   7   0 3080.72 128.573  60
   3   7   1 6029.14 160.680  39
   3   7   1 6142.60 190.407  37
   3   7   1 6083.45 178.940  28
   3   7   2 17743.2 349.699  37
   3   7   3 2302.98 118.800  37
   3   7   3 2510.55 99.4517  36
   3   7   4 458.913 61.1472  37
   3   7   4 519.793 47.1187  49
   3   7   5 369.072 46.4113  37
   3   7   5 344.579 41.1149  53
   3   8  -5 2012.60 74.8228  28
   3   8  -5 2008.84 68.6207  31
   3   8  -5 2004.72 74.4698  60
   3   8  -4 6268.04 152.282  28
   3   8  -4 6031.00 135.871  31
   3   8  -4 6360.72 150.707  60
   3   8  -3 4758.82 139.293  28
   3   8  -3 4867.64 126.562  31
   3   8  -3 4753.87 138.522  60
   3   8  -2 6404.47 170.843  28
   3   8  -2 6470.54 153.897  31
   3   8  -2 6574.16 169.549  60
   3   8  -1 8127.09 194.764  28
   3   8  -1 7898.47 166.602  46
   3   8  -1 7997.84 194.263  60
   3   8   0 4355.78 145.838  37
   3   8   0 4370.19 140.345  28
   3   8   1 7900.16 204.554  37
   3   8   2 7277.37 193.361  37
   3   8   3 82.1861 37.2829  37
   3   8   4 57.8847 30.3178  37
   3   9  -3 1747.24 67.9028  28
   3   9  -3 1543.98 66.4604  60
   3   9  -2 3795.20 107.035  37
   3   9  -2 3853.61 108.380  28
   3   9  -1 4723.32 125.528  37
   3   9  -1 4650.11 122.651  28
   3   9   0 235.160 40.3018  37
   3   9   1 1620.66 76.0741  37
   3   9   2 2709.08 92.2412  37
   4  -8  -3 3561.88 102.265  19
   4  -8  -2 1788.26 78.9839  19
   4  -8  -1 581.288 54.7577  19
   4  -8  -1 538.360 42.4266  47
   4  -8   0 3804.03 121.417  19
   4  -8   0 3611.97 107.093  47
   4  -8   1 2960.10 101.169  47
   4  -8   2 940.572 61.9968  47
   4  -8   3 117.833 32.7739  47
   4  -8   5 241.615 29.1747  71
   4  -8   5 293.014 29.2145  76
   4  -7  -5 2153.87 74.3187  20
   4  -7  -5 2027.60 72.0508  57
   4  -7  -4 3799.06 108.115  20
   4  -7  -4 3677.08 107.211  57
   4  -7  -3 435.096 52.8300  20
   4  -7  -3 481.378 50.8627  19
   4  -7  -3 503.116 50.3101  57
   4  -7  -3 411.991 35.1883  47
   4  -7  -2 149.557 43.3015  20
   4  -7  -2 180.417 42.9362  19
   4  -7  -2 184.941 44.4316  57
   4  -7  -2 180.107 34.0668  47
   4  -7  -1 664.960 63.1968  19
   4  -7  -1 681.165 60.0576  57
   4  -7   0 6553.02 165.164  19
   4  -7   0 6160.05 154.120  47
   4  -7   1 4422.58 138.266  19
   4  -7   1 4287.01 131.743  47
   4  -7   2 4994.83 145.465  47
   4  -7   3 581.521 59.8449  47
   4  -7   4 173.561 41.9348  47
   4  -7   5 736.861 60.3068  76
   4  -7   6 1103.24 56.1102  71
   4  -7   6 1089.35 53.4214  76
   4  -6  -6 4768.60 107.549  20
   4  -6  -5 2281.90 82.8031  20
   4  -6  -5 2300.11 78.5395  19
   4  -6  -5 2409.30 83.3226  57
   4  -6  -4 3175.23 97.3027  20
   4  -6  -4 3011.58 98.3799  19
   4  -6  -4 2924.10 77.5350  47
   4  -6  -4 3037.68 100.667  57
   4  -6  -3 1858.66 81.1905  20
   4  -6  -3 1849.69 84.2817  19
   4  -6  -3 1738.90 67.1908  47
   4  -6  -3 1838.55 80.9421  57
   4  -6  -2 8065.32 170.276  20
   4  -6  -2 8216.16 179.693  19
   4  -6  -2 8159.98 174.321  57
   4  -6  -1 7947.18 174.336  20
   4  -6  -1 8245.44 180.324  19
   4  -6  -1 8198.44 176.314  57
   4  -6   0 6531.78 157.320  20
   4  -6   0 6694.89 163.522  19
   4  -6   0 6760.82 157.505  47
   4  -6   1 7422.26 176.373  19
   4  -6   1 7490.46 159.971  16
   4  -6   1 7190.94 168.284  57
   4  -6   1 7339.49 174.234  47
   4  -6   2 7258.36 161.997  16
   4  -6   2 6987.31 176.420  47
   4  -6   3 3852.92 117.364  16
   4  -6   3 3880.98 133.599  47
   4  -6   4 10806.3 208.072  16
   4  -6   4 10827.2 228.965  47
   4  -6   5 349.546 58.4757  76
   4  -6   5 364.256 50.5440  47
   4  -6   6 298.889 52.5868  71
   4  -6   6 322.382 47.1736  76
   4  -6   7 268.796 32.4288  71
   4  -6   7 303.313 30.3460  76
   4  -5  -7 5686.84 110.813  20
   4  -5  -7 5612.29 109.402  57
   4  -5  -6 8709.76 156.483  20
   4  -5  -6 8325.68 149.990  19
   4  -5  -6 8818.71 160.271  57
   4  -5  -5 8275.22 159.676  20
   4  -5  -5 8290.25 162.056  19
   4  -5  -5 7738.92 148.360  40
   4  -5  -5 8119.04 162.789  57
   4  -5  -4 318.379 46.1737  20
   4  -5  -4 481.052 49.9244  19
   4  -5  -4 379.681 42.5568  40
   4  -5  -4 325.129 47.0434  57
   4  -5  -3 2407.00 85.9421  20
   4  -5  -3 2437.41 93.4171  19
   4  -5  -3 2416.53 87.2141  40
   4  -5  -3 2442.55 91.9271  57
   4  -5  -2 20406.1 293.596  20
   4  -5  -2 20859.6 318.144  19
   4  -5  -2 21526.1 304.274  40
   4  -5  -2 20875.6 308.806  57
   4  -5  -1 5375.83 130.264  40
   4  -5  -1 5455.77 139.500  19
   4  -5  -1 5560.48 116.751  16
   4  -5  -1 5266.16 125.350  64
   4  -5  -1 5376.88 129.844  57
   4  -5   0 2787.46 93.0890  20
   4  -5   0 2819.07 101.558  19
   4  -5   0 2860.59 89.5814  16
   4  -5   1 13994.7 243.830  19
   4  -5   1 13826.6 234.664  57
   4  -5   1 13616.0 241.117  47
   4  -5   2 7557.19 170.552  19
   4  -5   2 8208.55 173.742  16
   4  -5   2 8214.53 179.960  64
   4  -5   2 7771.55 163.642  57
   4  -5   2 8190.26 180.885  47
   4  -5   3 9242.86 193.550  19
   4  -5   3 9779.17 196.485  16
   4  -5   3 9745.77 211.982  47
   4  -5   4 3489.15 114.758  16
   4  -5   4 3540.95 128.489  47
   4  -5   5 8809.01 183.067  16
   4  -5   6 3013.02 133.260  71
   4  -5   6 2876.34 122.774  76
   4  -5   7 248.549 45.4099  71
   4  -5   7 266.362 39.1489  76
   4  -4  -8 280.872 26.7901  20
   4  -4  -7 8310.47 144.158  20
   4  -4  -7 8224.49 145.876  57
   4  -4  -6 3110.68 86.4346  40
   4  -4  -6 3206.04 91.6747  19
   4  -4  -5 2554.01 79.0214  38
   4  -4  -4 5659.10 128.511  38
   4  -4  -4 5974.69 136.066  40
   4  -4  -4 5881.32 143.283  19
   4  -4  -3 33349.5 424.967  38
   4  -4  -3 32955.4 429.828  40
   4  -4  -3 34075.0 448.495  19
   4  -4  -3 33853.2 419.820  17
   4  -4  -2 6897.96 146.629  38
   4  -4  -2 7100.01 147.047  40
   4  -4  -2 6955.52 140.013  64
   4  -4  -2 6846.04 159.548  19
   4  -4  -2 7056.79 149.095  17
   4  -4  -1 216.716 38.3572  38
   4  -4  -1 235.517 37.6816  40
   4  -4  -1 246.347 43.4506  19
   4  -4  -1 236.658 38.7740  17
   4  -4  -1 252.189 29.0853  16
   4  -4   0 2845.81 89.2566  40
   4  -4   0 2677.69 78.5464  20
   4  -4   0 2786.11 92.5790  19
   4  -4   0 3021.04 99.9802  17
   4  -4   0 2893.45 96.4376  64
   4  -4   1 2750.33 79.8402  20
   4  -4   1 2883.27 91.3557  19
   4  -4   1 2855.31 98.4446  64
   4  -4   1 2725.96 82.9319  57
   4  -4   2 5984.78 134.849  19
   4  -4   2 6128.44 150.174  64
   4  -4   2 5665.23 121.982  57
   4  -4   2 5861.14 141.045  47
   4  -4   3 5182.14 127.181  19
   4  -4   3 5112.67 140.756  16
   4  -4   3 5399.85 143.953  64
   4  -4   3 5570.98 145.189  47
   4  -4   4 4089.95 128.368  16
   4  -4   4 3928.44 129.993  47
   4  -4   5 3958.97 120.280  16
   4  -4   5 3881.50 128.380  47
   4  -4   6 6076.14 144.119  16
   4  -4   6 5795.06 195.118  71
   4  -4   7 532.810 62.6208  71
   4  -4   8 1304.42 52.4277  75
   4  -4   8 1389.94 63.6970  71
   4  -3  -8 1920.64 58.1477  57
   4  -3  -7 5502.93 110.791  19
   4  -3  -7 5384.33 112.141  40
   4  -3  -6 1102.91 60.1368  19
   4  -3  -6 1017.41 51.5058  38
   4  -3  -5 1445.80 56.9235  26
   4  -3  -5 1549.21 67.5109  38
   4  -3  -4 53.8029 25.5693  17
   4  -3  -4 96.0818 26.5194  26
   4  -3  -4 70.0084 32.5990  38
   4  -3  -3 29380.7 385.601  17
   4  -3  -3 29879.6 384.795  38
   4  -3  -2 2635.18 83.4469  26
   4  -3  -2 2758.95 86.8242  38
   4  -3  -2 2467.26 86.6131  40
   4  -3  -1 15001.5 245.392  17
   4  -3  -1 15114.8 232.982  38
   4  -3  -1 15235.3 235.635  26
   4  -3  -1 15277.4 232.586  40
   4  -3  -1 15037.0 220.360  45
   4  -3   0 1540.35 71.0786  17
   4  -3   0 1554.47 66.0846  38
   4  -3   0 1442.31 61.2329  40
   4  -3   0 1525.07 62.5086  45
   4  -3   1 12742.7 219.527  17
   4  -3   1 12299.8 196.727  40
   4  -3   1 12460.3 181.980  57
   4  -3   2 28213.6 359.868  19
   4  -3   2 28754.3 392.630  45
   4  -3   3 2747.02 79.3926  19
   4  -3   3 2907.47 104.901  64
   4  -3   3 2782.75 93.2898  47
   4  -3   4 5137.46 142.865  64
   4  -3   4 4802.29 110.648  54
   4  -3   4 4889.06 132.965  47
   4  -3   5 9677.55 200.007  16
   4  -3   5 9364.94 237.318  76
   4  -3   5 9188.84 169.604  54
   4  -3   5 9069.40 195.002  47
   4  -3   6 4639.41 125.975  16
   4  -3   6 4533.24 172.245  71
   4  -3   6 4455.94 156.007  76
   4  -3   6 4384.20 108.803  54
   4  -3   7 2867.64 120.511  71
   4  -3   7 2619.59 82.7845  16
   4  -3   8 1821.09 66.3873  75
   4  -3   8 1886.51 82.3903  71
   4  -2  -8 6650.16 115.165  40
   4  -2  -7 956.586 52.3561  19
   4  -2  -7 824.136 46.4564  38
   4  -2  -6 10857.4 179.413  26
   4  -2  -5 3991.48 104.436  17
   4  -2  -5 3991.02 105.887  26
   4  -2  -4 4282.26 114.261  17
   4  -2  -4 4362.21 112.942  26
   4  -2  -4 4052.80 103.481  51
   4  -2  -3 22611.4 313.265  26
   4  -2  -3 21669.2 315.194  43
   4  -2  -3 22368.4 312.655  51
   4  -2  -2 18637.0 279.467  17
   4  -2  -2 18418.7 266.953  26
   4  -2  -2 17907.3 278.723  43
   4  -2  -2 17735.7 250.406  45
   4  -2  -1 16810.0 262.862  17
   4  -2  -1 16010.5 742.648   9
   4  -2  -1 16786.2 249.602  38
   4  -2  -1 17012.1 250.328  26
   4  -2  -1 17117.9 271.305  43
   4  -2  -1 16599.8 249.250  45
   4  -2  -1 16852.2 261.769  51
   4  -2   0 5058.63 123.991  17
   4  -2   0 5100.81 115.842  38
   4  -2   0 5238.98 118.919  26
   4  -2   0 5241.86 110.781  40
   4  -2   0 4899.80 122.440  45
   4  -2   1 6429.72 145.761  17
   4  -2   1 6385.56 130.468  38
   4  -2   1 6338.94 147.392  45
   4  -2   2 4766.50 103.174  19
   4  -2   2 4765.94 125.926  17
   4  -2   2 4623.44 130.564  45
   4  -2   3 30592.4 428.023  64
   4  -2   3 31823.3 439.343  45
   4  -2   3 31519.7 376.415  54
   4  -2   3 30304.6 389.049  47
   4  -2   4 7604.88 173.318  64
   4  -2   4 7061.08 193.627  76
   4  -2   4 7657.13 187.351  45
   4  -2   4 7449.55 148.862  54
   4  -2   4 7249.74 153.147  47
   4  -2   5 5298.32 189.710  71
   4  -2   5 5165.50 165.662  76
   4  -2   5 5193.68 126.053  47
   4  -2   5 5280.59 129.557  54
   4  -2   5 5575.98 155.112  45
   4  -2   6 2004.68 85.0741  16
   4  -2   6 1959.82 117.618  71
   4  -2   6 1911.57 100.749  76
   4  -2   6 1885.24 77.8579  54
   4  -2   7 2953.86 129.850  71
   4  -2   7 2933.61 87.9918  54
   4  -2   8 357.756 35.2150  75
   4  -2   8 417.909 42.1969  66
   4  -1  -8 9034.51 146.599  38
   4  -1  -7 8230.04 151.527  26
   4  -1  -6 39354.6 485.919  17
   4  -1  -5 25887.7 349.180  51
   4  -1  -4 37934.2 460.348  30
   4  -1  -4 38515.8 483.556  43
   4  -1  -4 39236.8 485.254  51
   4  -1  -3 25854.0 358.424  43
   4  -1  -3 25054.3 329.623  30
   4  -1  -3 24756.6 350.518  51
   4  -1  -2 47515.0 588.231  43
   4  -1  -2 48293.1 559.345  30
   4  -1  -1 10006.7 188.783  17
   4  -1  -1 10185.4 176.992  26
   4  -1  -1 9991.11 195.369  43
   4  -1  -1 9778.44 188.147  51
   4  -1   0 5744.84 135.598  17
   4  -1   0 5664.34 121.517  38
   4  -1   0 5695.87 124.091  26
   4  -1   0 5839.09 120.603  36
   4  -1   0 5756.00 143.279  43
   4  -1   0 5860.67 137.562  51
   4  -1   1 147310. 1521.21  17
   4  -1   1 146475. 1488.17  38
   4  -1   1 145862. 1505.27  26
   4  -1   1 145218. 1518.25  36
   4  -1   1 149200. 1546.01  43
   4  -1   1 145270. 1474.32  40
   4  -1   2 9009.90 175.297  17
   4  -1   2 9080.77 187.058  36
   4  -1   2 8762.44 135.736  40
   4  -1   2 8810.35 136.123  54
   4  -1   2 8713.66 189.321  45
   4  -1   3 19596.1 327.626  36
   4  -1   3 19747.5 317.572  76
   4  -1   4 18081.9 344.998  71
   4  -1   4 17134.1 300.778  76
   4  -1   4 18313.4 308.737  45
   4  -1   4 18159.6 274.805  54
   4  -1   5 4392.57 119.667  64
   4  -1   5 4219.34 163.744  71
   4  -1   5 4132.45 138.134  76
   4  -1   5 4238.81 137.571  45
   4  -1   5 4306.82 124.423  54
   4  -1   6 10488.2 263.541  71
   4  -1   6 10603.3 208.611  54
   4  -1   7 6323.74 150.472  75
   4  -1   7 6653.50 190.182  71
   4  -1   7 6644.29 175.903  66
   4  -1   7 6688.31 147.603  54
   4  -1   8 152.969 23.7522  75
   4  -1   8 138.243 34.5240  66
   4  -1   8 153.294 26.0058  54
   4   0  -7 2336.77 79.9239  17
   4   0  -6 284.098 36.2112  30
   4   0  -6 269.547 37.0236  51
   4   0  -5 5296.26 132.637  43
   4   0  -4 8399.29 160.941  46
   4   0  -4 8057.01 176.868  43
   4   0  -3 3444.66 99.1952  30
   4   0  -3 3366.58 98.5222  46
   4   0  -2 2152.46 75.3208  30
   4   0  -2 2158.68 79.3634  46
   4   0  -1 2040.24 224.781  11
   4   0  -1 1802.95 71.3765  30
   4   0  -1 1923.16 79.1549  51
   4   0  -1 1846.67 81.8017  43
   4   0   0 15821.1 557.228  13
   4   0   0 15705.6 254.366  17
   4   0   0 15676.1 692.573  11
   4   0   0 16045.8 238.231  26
   4   0   0 15708.8 268.130  43
   4   0   0 16071.4 249.599  30
   4   0   0 14949.3 256.764  51
   4   0   1 20861.4 299.295  17
   4   0   1 20249.4 266.682  38
   4   0   1 20609.8 317.329  43
   4   0   1 20790.2 281.562  26
   4   0   1 20454.7 254.614  40
   4   0   1 20470.7 306.385  51
   4   0   2 840.540 61.7630  36
   4   0   2 913.508 61.2501  43
   4   0   2 825.535 53.8726  17
   4   0   2 827.630 58.2602  71
   4   0   3 33118.5 429.423  17
   4   0   3 34020.4 490.357  71
   4   0   3 34151.2 430.061  54
   4   0   3 33659.1 479.013  45
   4   0   4 2724.02 115.553  36
   4   0   4 2318.94 114.140  71
   4   0   4 2536.66 94.3180  54
   4   0   4 2508.70 105.119  45
   4   0   5 15068.5 239.589  64
   4   0   5 14265.4 304.349  71
   4   0   5 15003.3 276.227  45
   4   0   5 14614.2 268.408  54
   4   0   6 5991.87 144.579  75
   4   0   6 6290.51 191.571  71
   4   0   6 6286.00 161.589  54
   4   0   6 6200.44 157.779  45
   4   0   7 1266.35 57.3221  75
   4   0   7 1341.96 80.7995  66
   4   0   7 1343.09 69.8226  54
   4   0   8 610.354 47.6124  66
   4   0   8 521.151 38.0355  54
   4   1  -7 2970.74 92.0664  51
   4   1  -6 19650.7 302.753  43
   4   1  -5 23873.9 342.272  46
   4   1  -4 12064.8 190.932  31
   4   1  -4 12083.2 220.576  46
   4   1  -3 31501.4 393.506  31
   4   1  -3 31561.6 407.716  28
   4   1  -3 32205.2 428.424  46
   4   1  -2 2755.98 268.884  11
   4   1  -2 2706.73 84.0341  31
   4   1  -2 2995.14 95.8128  28
   4   1  -2 2719.15 97.6045  46
   4   1  -1 58289.0 1426.36  11
   4   1  -1 59709.4 687.055  30
   4   1  -1 60152.7 706.800  28
   4   1  -1 58664.5 704.422  46
   4   1   0 152492. 2231.31  13
   4   1   0 151899. 1592.74  30
   4   1   0 158247. 1631.58  28
   4   1   0 153334. 1618.96  46
   4   1   0 152188. 1610.04  51
   4   1   1 6988.26 309.626  13
   4   1   1 7090.52 149.247  17
   4   1   1 6993.52 124.334  38
   4   1   1 6835.81 147.833  37
   4   1   1 6965.27 154.984  30
   4   1   1 6996.08 166.772  46
   4   1   1 7078.00 167.688  43
   4   1   1 7108.96 158.679  51
   4   1   2 1140.80 41.9551  38
   4   1   2 1145.02 73.7412  36
   4   1   2 1254.33 71.0757  43
   4   1   2 1182.86 52.7778  26
   4   1   2 1236.99 60.0734  17
   4   1   2 1382.82 70.4307  51
   4   1   3 14298.8 281.350  36
   4   1   3 14139.2 218.866  17
   4   1   3 14189.8 262.663  71
   4   1   4 18990.6 349.382  36
   4   1   4 19033.9 314.772  54
   4   1   4 19386.3 327.210  45
   4   1   5 59137.0 767.833  36
   4   1   5 57636.9 749.196  71
   4   1   5 58558.0 719.278  45
   4   1   5 59517.0 729.375  54
   4   1   6 377.929 59.1446  66
   4   1   6 388.667 51.3564  54
   4   1   6 433.148 45.4319  45
   4   1   7 3398.34 114.499  66
   4   1   7 3199.14 108.660  54
   4   1   8 1648.75 65.8672  66
   4   1   8 1604.59 58.5433  77
   4   1   8 1516.46 60.5133  54
   4   2  -8 789.981 42.5680  30
   4   2  -6 3355.66 90.1210  31
   4   2  -5 14108.4 223.483  31
   4   2  -4 2602.38 84.1507  31
   4   2  -4 2560.42 90.8463  28
   4   2  -4 2628.60 91.4288  60
   4   2  -3 2337.42 81.3861  31
   4   2  -3 2293.34 89.9114  28
   4   2  -3 2249.33 87.8172  60
   4   2  -2 71288.3 827.978  28
   4   2  -2 72443.5 827.358  60
   4   2  -1 48902.3 593.826  30
   4   2  -1 49367.8 615.734  46
   4   2   0 44076.3 1012.48  13
   4   2   0 44036.2 545.551  37
   4   2   0 43943.3 546.994  30
   4   2   0 46025.7 592.031  28
   4   2   0 45059.8 572.464  46
   4   2   1 22468.2 297.376  26
   4   2   1 22353.7 340.551  37
   4   2   1 22449.8 329.389  30
   4   2   1 21923.5 369.017  28
   4   2   1 21824.3 351.135  46
   4   2   1 22863.2 335.143  51
   4   2   2 22033.5 302.145  17
   4   2   2 21545.3 354.924  37
   4   2   2 21221.3 280.728  26
   4   2   3 2855.42 78.8310  17
   4   2   3 2953.14 124.188  37
   4   2   3 2963.53 125.214  36
   4   2   3 2913.61 103.515  43
   4   2   3 2918.14 104.963  53
   4   2   4 48137.8 660.090  36
   4   2   4 47377.4 624.628  53
   4   2   4 46855.4 616.856  45
   4   2   5 2003.89 110.893  36
   4   2   5 1797.14 92.6591  66
   4   2   5 1858.35 86.9838  45
   4   2   6 483.076 55.3558  66
   4   2   6 498.565 55.4892  54
   4   2   6 461.849 41.1571  45
   4   2   7 6095.22 143.377  66
   4   2   7 5828.18 147.004  54
   4   2   8 1445.21 55.2419  77
   4   3  -7 461.755 41.5757  46
   4   3  -6 796.585 49.6605  31
   4   3  -5 5696.66 136.165  31
   4   3  -5 5493.15 138.887  28
   4   3  -5 5476.08 139.724  60
   4   3  -4 13741.5 234.798  31
   4   3  -4 13596.4 250.287  28
   4   3  -4 13375.5 244.067  60
   4   3  -3 32350.8 462.331  28
   4   3  -3 32875.1 456.274  60
   4   3  -2 51846.2 629.171  31
   4   3  -1 42019.2 539.097  31
   4   3  -1 41634.5 569.123  28
   4   3  -1 42768.2 540.199  30
   4   3  -1 41646.8 558.880  46
   4   3  -1 41951.2 570.946  60
   4   3   0 6105.42 153.954  37
   4   3   0 6046.45 172.240  28
   4   3   0 5985.23 146.603  30
   4   3   0 5972.66 162.766  46
   4   3   1 26275.4 402.564  37
   4   3   1 25705.2 419.571  28
   4   3   1 26689.8 370.356  30
   4   3   1 25990.0 396.672  46
   4   3   2 4581.41 153.178  37
   4   3   2 4301.96 157.597  28
   4   3   2 4592.00 109.193  17
   4   3   2 4604.64 114.441  66
   4   3   2 4383.62 122.892  53
   4   3   2 4555.46 145.655  46
   4   3   2 4609.77 136.151  43
   4   3   2 4918.83 126.834  51
   4   3   3 53577.2 646.233  43
   4   3   3 52921.1 632.607  66
   4   3   3 52119.6 666.558  53
   4   3   4 24277.8 427.850  37
   4   3   4 23575.8 412.799  36
   4   3   4 23432.2 353.686  66
   4   3   4 23958.3 393.356  53
   4   3   4 24165.7 373.462  45
   4   3   5 1296.10 90.5774  36
   4   3   5 1388.61 74.3286  66
   4   3   5 1286.21 82.6718  53
   4   3   5 1421.22 69.8795  45
   4   3   6 1336.86 69.1266  66
   4   3   7 277.692 37.4365  77
   4   3   7 292.128 37.2221  54
   4   3   8 376.710 29.8957  77
   4   4  -7 2614.05 77.1803  31
   4   4  -6 8838.80 172.452  31
   4   4  -5 11855.0 230.105  28
   4   4  -5 11891.2 227.566  60
   4   4  -4 22432.6 359.021  28
   4   4  -4 21803.5 331.378  31
   4   4  -4 22239.4 354.412  60
   4   4  -3 34277.4 463.913  31
   4   4  -2 5683.19 167.514  28
   4   4  -2 5509.16 150.751  31
   4   4  -2 5785.11 166.524  60
   4   4  -1 31569.8 477.199  28
   4   4  -1 31040.2 444.954  31
   4   4  -1 32335.6 439.747  30
   4   4  -1 30288.0 461.701  46
   4   4  -1 31490.1 475.410  60
   4   4   0 3204.45 120.358  37
   4   4   0 3479.19 110.592  30
   4   4   0 3423.93 135.021  28
   4   4   0 3263.18 124.196  46
   4   4   0 3219.47 133.772  60
   4   4   1 4828.31 156.287  37
   4   4   1 4302.87 92.6449  26
   4   4   1 4617.58 162.402  28
   4   4   1 4703.70 128.759  30
   4   4   1 4756.84 148.136  46
   4   4   1 4722.73 130.906  51
   4   4   2 6865.83 208.365  28
   4   4   2 7113.28 170.854  53
   4   4   2 7229.07 186.319  46
   4   4   2 6962.27 155.933  51
   4   4   3 38275.1 573.817  37
   4   4   3 37466.9 551.228  36
   4   4   3 37554.9 473.997  43
   4   4   4 859.708 79.5540  37
   4   4   4 877.190 75.8426  36
   4   4   4 761.313 66.4001  53
   4   4   4 950.973 60.9564  45
   4   4   5 7519.46 202.596  36
   4   4   5 7290.33 188.251  53
   4   4   6 1514.33 67.1618  77
   4   4   7 328.109 33.4652  77
   4   4   8 185.943 19.2210  77
   4   5  -7 540.596 36.7993  31
   4   5  -7 558.375 40.8001  46
   4   5  -6 271.458 36.0971  31
   4   5  -6 243.448 33.8800  60
   4   5  -5 4316.06 130.718  28
   4   5  -5 4201.37 122.054  31
   4   5  -5 4213.66 128.516  60
   4   5  -4 5448.25 161.155  28
   4   5  -4 5518.95 147.636  31
   4   5  -3 23272.4 388.311  28
   4   5  -3 23736.5 362.657  31
   4   5  -3 23000.4 380.127  60
   4   5  -2 32861.9 499.949  28
   4   5  -2 32574.3 466.883  31
   4   5  -2 32651.9 493.095  60
   4   5  -1 14433.1 299.894  28
   4   5  -1 13781.6 270.803  31
   4   5  -1 14432.5 255.030  30
   4   5  -1 13908.5 280.932  46
   4   5  -1 14921.9 299.626  60
   4   5   0 19194.4 344.852  37
   4   5   0 19315.2 362.781  28
   4   5   0 19903.8 336.781  46
   4   5   1 1806.31 107.800  28
   4   5   1 1816.46 78.7873  30
   4   5   1 1995.16 96.4550  46
   4   5   1 1786.23 76.9676  51
   4   5   2 9967.72 253.909  37
   4   5   2 9728.81 210.433  53
   4   5   2 10228.9 204.778  43
   4   5   3 16465.0 345.968  37
   4   5   3 16751.8 320.718  36
   4   5   3 16632.4 252.804  77
   4   5   3 16061.8 296.544  53
   4   5   4 1644.77 104.224  37
   4   5   4 1632.38 92.5114  36
   4   5   4 1595.04 69.0132  77
   4   5   4 1605.90 84.9258  53
   4   5   5 33.4874 26.8966  77
   4   5   5 56.6938 27.5483  53
   4   5   6 177.275 28.2943  77
   4   5   7 4899.95 89.0033  77
   4   6  -6 1169.72 54.8556  60
   4   6  -5 4326.81 126.303  28
   4   6  -5 4362.96 120.086  31
   4   6  -5 4286.08 125.015  60
   4   6  -4 9903.86 201.881  31
   4   6  -4 9672.27 213.218  60
   4   6  -3 2958.58 123.545  28
   4   6  -3 3018.02 112.303  31
   4   6  -3 3009.52 120.791  60
   4   6  -2 15130.4 303.496  28
   4   6  -2 14866.2 276.410  31
   4   6  -2 15903.8 267.576  30
   4   6  -2 15178.4 299.739  60
   4   6  -1 12422.8 273.120  28
   4   6  -1 11975.3 248.391  31
   4   6  -1 12161.4 252.094  46
   4   6  -1 12319.4 271.324  60
   4   6   0 3819.78 148.015  28
   4   6   0 3862.92 111.528  30
   4   6   0 3898.13 133.012  46
   4   6   1 37463.4 561.554  28
   4   6   2 14871.2 313.748  37
   4   6   2 14625.2 299.242  28
   4   6   3 1819.98 105.356  37
   4   6   3 1726.32 92.2265  36
   4   6   3 1659.01 56.9422  77
   4   6   3 1589.80 75.9528  53
   4   6   4 468.567 58.0209  37
   4   6   4 398.129 47.5052  36
   4   6   4 476.268 34.2784  77
   4   6   4 479.361 43.3439  53
   4   6   5 27.2492 19.8880  77
   4   7  -5 2241.10 76.9511  31
   4   7  -5 2228.85 78.8039  28
   4   7  -5 2394.31 75.9789  30
   4   7  -5 2378.29 85.0017  46
   4   7  -5 2398.15 82.7324  60
   4   7  -4 6227.96 156.069  28
   4   7  -4 6482.78 149.188  31
   4   7  -4 6583.07 158.754  60
   4   7  -3 2542.83 106.564  28
   4   7  -3 2431.06 95.4061  31
   4   7  -3 2605.17 100.258  46
   4   7  -3 2389.27 104.012  60
   4   7  -2 2444.20 108.880  28
   4   7  -2 2341.18 97.6943  31
   4   7  -2 2261.44 79.9890  30
   4   7  -2 2237.35 97.2307  46
   4   7  -2 2315.52 106.620  60
   4   7  -1 14325.2 274.770  37
   4   7  -1 14443.9 289.285  28
   4   7  -1 14656.6 261.920  46
   4   7   0 7203.58 192.345  28
   4   7   0 6981.16 165.240  46
   4   7   1 2630.19 116.076  37
   4   7   1 2607.34 114.243  28
   4   7   2 9211.89 221.232  37
   4   7   2 9699.62 205.144  36
   4   7   2 9279.70 210.203  28
   4   7   3 5097.37 153.487  37
   4   7   4 1277.80 69.6729  37
   4   8  -3 28.8365 26.6947  28
   4   8  -3 22.1225 23.6053  46
   4   8  -2 1966.02 76.8318  37
   4   8  -2 1994.60 84.6409  28
   4   8  -1 2618.69 95.4212  37
   4   8  -1 2692.99 101.944  28
   4   8   0 518.778 50.1257  28
   4   8   1 2217.75 86.1752  28
   4   8   2 921.739 59.0609  37
   5  -7  -4 343.846 33.4422  57
   5  -7  -3 3208.01 92.1868  19
   5  -7  -3 3060.00 89.0337  57
   5  -7  -2 2857.56 94.9422  19
   5  -7  -2 2885.02 90.1448  57
   5  -7  -2 2957.06 82.0128  47
   5  -7  -1 1205.25 65.9813  19
   5  -7  -1 1089.92 60.8949  57
   5  -7   0 91.4105 34.0120  19
   5  -7   0 96.8858 32.7591  47
   5  -7   1 85.7979 31.1810  47
   5  -7   2 797.471 54.2120  47
   5  -7   3 107.249 31.4799  47
   5  -7   4 257.017 31.3935  76
   5  -7   5 1260.12 46.4816  71
   5  -6  -5 937.508 47.6027  20
   5  -6  -5 1025.26 46.4016  19
   5  -6  -5 983.645 47.6430  57
   5  -6  -4 100.012 30.6723  20
   5  -6  -4 85.5923 30.4725  19
   5  -6  -4 71.6392 29.0631  57
   5  -6  -4 88.8489 20.6884  47
   5  -6  -3 3426.40 98.3994  20
   5  -6  -3 3435.75 102.753  19
   5  -6  -3 3415.05 89.1110  47
   5  -6  -3 3291.78 99.9867  57
   5  -6  -2 1977.90 84.8624  19
   5  -6  -2 1996.66 74.0547  47
   5  -6  -2 2030.23 78.9718  57
   5  -6  -1 2371.77 91.5712  19
   5  -6  -1 2363.91 87.2272  47
   5  -6   0 49.4847 36.9649  19
   5  -6   0 65.5044 32.5617  57
   5  -6   0 56.7773 36.0251  47
   5  -6   1 4041.96 120.701  47
   5  -6   2 383.452 51.0789  47
   5  -6   3 2959.38 92.6274  16
   5  -6   3 2884.56 104.535  47
   5  -6   4 4618.78 135.517  76
   5  -6   4 4734.32 126.332  47
   5  -6   5 317.992 44.9096  71
   5  -6   5 284.110 33.0944  76
   5  -6   6 275.830 28.7208  71
   5  -5  -6 834.182 43.4044  20
   5  -5  -6 903.426 44.2631  57
   5  -5  -5 1923.85 66.2609  20
   5  -5  -5 1880.86 68.9457  57
   5  -5  -4 6502.06 132.059  20
   5  -5  -4 6472.94 143.565  19
   5  -5  -4 6311.22 133.160  40
   5  -5  -4 6503.95 138.429  57
   5  -5  -3 4839.44 116.138  20
   5  -5  -3 4820.82 127.271  19
   5  -5  -3 4818.07 119.351  40
   5  -5  -3 4872.50 121.755  57
   5  -5  -2 12403.3 224.412  19
   5  -5  -2 12283.0 211.752  40
   5  -5  -2 12312.4 212.240  57
   5  -5  -1 565.348 46.4730  20
   5  -5  -1 590.744 55.7918  19
   5  -5  -1 559.905 43.6165  64
   5  -5   0 1814.92 82.2823  19
   5  -5   0 1821.78 68.6530  16
   5  -5   0 1657.07 72.4421  57
   5  -5   1 1497.60 67.5941  16
   5  -5   1 1346.27 72.4686  64
   5  -5   1 1400.74 73.4500  47
   5  -5   2 5978.81 143.912  19
   5  -5   2 6600.81 149.510  16
   5  -5   2 6426.00 154.895  64
   5  -5   2 6033.74 154.828  47
   5  -5   3 14045.5 236.126  16
   5  -5   3 13110.2 246.253  47
   5  -5   4 11688.0 206.233  16
   5  -5   4 10889.7 237.907  76
   5  -5   5 3783.40 100.659  16
   5  -5   5 3986.80 138.933  71
   5  -5   6 1270.09 68.6024  71
   5  -4  -7 317.351 28.4613  20
   5  -4  -6 1246.32 53.8709  19
   5  -4  -6 1208.83 50.2039  40
   5  -4  -6 1271.78 55.7180  57
   5  -4  -5 1367.52 57.5835  38
   5  -4  -5 1492.19 63.4814  40
   5  -4  -5 1492.19 68.2548  19
   5  -4  -4 1672.87 73.0002  40
   5  -4  -4 1658.56 79.1311  19
   5  -4  -3 149.172 37.2048  38
   5  -4  -3 97.1520 38.4642  40
   5  -4  -3 84.7222 37.5903  19
   5  -4  -3 122.116 30.3073  17
   5  -4  -2 4388.25 121.622  38
   5  -4  -2 4408.29 119.707  40
   5  -4  -2 4306.95 111.767  64
   5  -4  -2 4685.31 130.842  19
   5  -4  -1 3574.82 106.096  40
   5  -4  -1 3463.48 92.4685  20
   5  -4  -1 3731.79 115.484  19
   5  -4  -1 3826.63 117.354  17
   5  -4  -1 3466.75 89.8276  16
   5  -4  -1 3619.26 109.326  64
   5  -4   0 23.8290 32.9504  19
   5  -4   0 24.6928 24.3622  16
   5  -4   0 36.7446 35.5747  64
   5  -4   0-5.85434 26.4422  57
   5  -4   1 6970.47 167.075  64
   5  -4   2 5057.22 124.693  19
   5  -4   2 5229.03 139.411  16
   5  -4   2 5361.26 145.447  64
   5  -4   2 5303.48 137.888  47
   5  -4   3 9655.50 197.519  16
   5  -4   3 9915.58 202.060  64
   5  -4   3 9653.95 197.718  47
   5  -4   4 1496.21 75.0127  16
   5  -4   4 1418.94 85.1246  76
   5  -4   4 1507.76 76.1917  47
   5  -4   5 1531.96 97.7820  71
   5  -4   5 1464.66 77.6377  76
   5  -4   5 1527.42 71.1610  16
   5  -4   6 2086.57 96.2114  71
   5  -4   7 764.439 42.6963  66
   5  -4   7 866.548 49.9088  71
   5  -3  -7 384.246 30.0191  40
   5  -3  -6 1105.73 51.2658  38
   5  -3  -6 1099.53 54.7050  40
   5  -3  -6 1191.88 60.0023  19
   5  -3  -5 14235.1 229.491  40
   5  -3  -5 13293.2 200.555  17
   5  -3  -4 2008.99 79.7797  38
   5  -3  -4 1962.49 74.4835  26
   5  -3  -4 2044.26 83.5366  40
   5  -3  -4 1958.45 75.9108  17
   5  -3  -3 4849.58 127.681  38
   5  -3  -3 4856.43 126.900  40
   5  -3  -3 4657.10 114.797  64
   5  -3  -3 4720.24 127.834  17
   5  -3  -2 1643.29 77.8926  17
   5  -3  -2 1543.44 73.7831  26
   5  -3  -2 1518.01 73.8196  38
   5  -3  -2 1730.00 76.4200  40
   5  -3  -1 1592.51 79.6830  17
   5  -3  -1 1517.74 74.3013  38
   5  -3  -1 1660.30 71.7465  40
   5  -3  -1 1523.59 61.6206  45
   5  -3   0 3201.18 77.9919  20
   5  -3   0 3479.22 106.786  19
   5  -3   0 3344.55 114.178  17
   5  -3   0 3397.72 106.401  38
   5  -3   0 3327.19 98.8268  40
   5  -3   0 3404.96 103.163  45
   5  -3   1 25621.2 347.319  19
   5  -3   1 24897.8 376.883  17
   5  -3   1 25364.3 382.557  64
   5  -3   1 26145.1 370.477  45
   5  -3   1 24572.8 313.200  57
   5  -3   2 11906.9 198.037  19
   5  -3   2 11849.3 235.155  64
   5  -3   3 5799.65 156.373  64
   5  -3   3 6034.50 156.745  45
   5  -3   4 1314.50 73.4363  64
   5  -3   4 1153.82 93.0414  71
   5  -3   4 1142.62 72.3126  76
   5  -3   4 1161.74 64.4465  47
   5  -3   5 2765.06 127.968  71
   5  -3   5 2700.72 100.028  76
   5  -3   5 2738.89 97.2044  16
   5  -3   6 2256.56 104.117  71
   5  -3   6 2167.20 76.7462  16
   5  -3   7 1948.00 78.8766  71
   5  -3   7 1972.79 75.9159  66
   5  -2  -7 701.065 41.5555  19
   5  -2  -7 687.458 38.4990  38
   5  -2  -6 8117.22 145.376  26
   5  -2  -5 4269.59 112.295  17
   5  -2  -5 4184.24 120.259  38
   5  -2  -5 4273.11 111.892  26
   5  -2  -4 13169.0 236.455  17
   5  -2  -4 13934.3 241.530  38
   5  -2  -3 4676.80 133.628  17
   5  -2  -3 4750.82 128.744  38
   5  -2  -3 4759.38 128.059  26
   5  -2  -2 4948.62 137.388  17
   5  -2  -2 4659.08 129.714  38
   5  -2  -2 4923.92 130.510  26
   5  -2  -2 4805.53 113.217  45
   5  -2  -1 6028.46 152.900  17
   5  -2  -1 6017.22 142.448  38
   5  -2  -1 5970.40 146.200  26
   5  -2  -1 5935.15 137.549  40
   5  -2  -1 5981.90 141.049  45
   5  -2   0 12716.9 238.614  17
   5  -2   0 13023.2 220.059  38
   5  -2   0 12813.0 233.302  45
   5  -2   1 3412.48 99.5163  19
   5  -2   1 3482.27 116.176  17
   5  -2   1 3567.45 102.572  38
   5  -2   1 3483.58 92.7189  40
   5  -2   1 3472.74 116.461  45
   5  -2   1 3129.70 76.5272  57
   5  -2   2 22509.2 297.393  19
   5  -2   2 23059.8 348.210  17
   5  -2   2 22499.6 359.148  45
   5  -2   3 4923.12 167.967  71
   5  -2   3 5252.54 146.400  64
   5  -2   3 5362.18 152.612  45
   5  -2   3 4944.99 120.937  47
   5  -2   4 514.636 52.6891  64
   5  -2   4 709.848 63.0584  45
   5  -2   5 3328.42 139.462  71
   5  -2   6 2293.52 107.778  71
   5  -2   6 2295.22 82.1264  16
   5  -2   7 834.304 56.0562  66
   5  -2   8 109.896 18.3004  66
   5  -1  -7 538.280 41.9747  38
   5  -1  -7 503.320 33.6908  26
   5  -1  -6 5731.42 129.434  17
   5  -1  -6 5774.13 132.283  26
   5  -1  -5 2606.56 98.1842  17
   5  -1  -5 2434.43 84.6227  51
   5  -1  -4 491.551 52.7158  26
   5  -1  -4 489.618 47.9458  43
   5  -1  -4 529.318 50.4357  51
   5  -1  -3 11658.0 228.702  17
   5  -1  -3 11273.7 217.295  26
   5  -1  -3 11251.3 229.432  43
   5  -1  -2 11900.0 234.885  17
   5  -1  -2 11210.0 216.113  26
   5  -1  -2 11538.1 236.388  43
   5  -1  -2 11488.0 228.844  51
   5  -1  -1 5903.53 155.264  17
   5  -1  -1 5941.34 141.113  38
   5  -1  -1 5742.19 143.134  26
   5  -1  -1 6019.79 166.631  43
   5  -1  -1 6019.18 159.573  51
   5  -1   0 69523.3 807.176  17
   5  -1   0 68537.9 788.679  26
   5  -1   0 67315.9 770.021  38
   5  -1   0 69382.4 765.575  36
   5  -1   0 68271.8 831.539  43
   5  -1   0 68973.9 756.093  40
   5  -1   1 17001.7 285.624  17
   5  -1   1 17184.5 274.525  36
   5  -1   1 17466.2 239.666  40
   5  -1   1 16939.1 299.803  45
   5  -1   2 10389.9 209.644  36
   5  -1   2 10144.2 163.973  19
   5  -1   2 9977.45 221.894  71
   5  -1   2 9914.27 224.404  45
   5  -1   3 1376.75 87.5152  71
   5  -1   3 1450.10 58.4806  47
   5  -1   3 1405.63 83.8325  45
   5  -1   4 4970.83 165.394  71
   5  -1   4 4665.39 136.260  64
   5  -1   4 5178.30 152.606  45
   5  -1   5 26640.0 360.555  64
   5  -1   5 25452.9 421.489  71
   5  -1   5 25716.8 393.707  45
   5  -1   6 2602.01 110.473  71
   5  -1   7 292.130 40.4796  66
   5  -1   8 109.439 19.6551  66
   5   0  -7 1810.34 68.3612  26
   5   0  -6 2985.29 101.030  17
   5   0  -6 2687.04 86.1376  51
   5   0  -5 36077.3 478.488  43
   5   0  -5 37092.5 462.113  30
   5   0  -5 37092.9 489.176  51
   5   0  -4 15497.2 285.347  43
   5   0  -4 16138.1 261.918  30
   5   0  -3 40192.1 511.462  30
   5   0  -3 39520.4 515.506  46
   5   0  -3 39919.6 538.018  51
   5   0  -2 14826.8 279.363  43
   5   0  -2 13504.8 245.685  30
   5   0  -2 13714.0 250.156  26
   5   0  -2 14739.2 260.797  46
   5   0  -2 14548.5 268.372  51
   5   0  -1 90734.5 997.369  26
   5   0  -1 88098.7 980.286  36
   5   0  -1 89319.6 1048.87  43
   5   0  -1 90129.0 1011.18  30
   5   0  -1 89338.1 1030.97  51
   5   0   0 38055.3 497.149  36
   5   0   0 37983.8 489.827  26
   5   0   0 38524.1 539.135  43
   5   0   0 36699.5 519.704  51
   5   0   1 1984.82 87.4797  17
   5   0   1 1890.25 68.8655  38
   5   0   1 2306.88 84.7556  26
   5   0   1 1967.14 89.4101  36
   5   0   1 2082.84 100.421  43
   5   0   1 2192.11 62.6766  40
   5   0   1 2047.31 93.8365  51
   5   0   2 2981.14 113.320  36
   5   0   2 2740.18 111.810  43
   5   0   2 2711.72 102.213  71
   5   0   2 2698.55 116.409  45
   5   0   3 3891.93 110.890  17
   5   0   3 3804.91 131.040  71
   5   0   3 3846.05 138.898  45
   5   0   4 18988.6 333.992  71
   5   0   4 18320.2 298.309  64
   5   0   4 18948.7 330.671  45
   5   0   5 176.255 44.2534  45
   5   0   6 137.479 45.5656  66
   5   0   7 146.590 33.3599  66
   5   1  -7 2084.14 75.4770  17
   5   1  -6 4933.36 121.097  30
   5   1  -6 5036.56 131.247  51
   5   1  -5 6843.60 158.409  30
   5   1  -5 6765.26 171.420  43
   5   1  -5 6727.31 149.693  46
   5   1  -5 7148.44 173.927  51
   5   1  -4 4351.67 129.613  46
   5   1  -4 4470.72 144.485  51
   5   1  -3 19374.6 310.692  30
   5   1  -3 18945.6 319.658  46
   5   1  -3 18929.3 339.665  43
   5   1  -3 19217.2 330.892  51
   5   1  -2 55995.8 687.602  30
   5   1  -2 57170.2 731.445  43
   5   1  -2 56587.0 714.178  51
   5   1  -1 61670.1 736.201  30
   5   1  -1 60853.3 718.747  26
   5   1  -1 61418.2 775.346  43
   5   1  -1 61360.9 765.272  46
   5   1  -1 60660.8 752.801  51
   5   1   0 10569.9 218.718  17
   5   1   0 10603.7 187.369  38
   5   1   0 10719.0 199.639  26
   5   1   0 11112.2 241.727  43
   5   1   0 10542.0 217.478  30
   5   1   0 10751.6 233.449  46
   5   1   0 10891.1 226.437  51
   5   1   1 7400.68 169.558  17
   5   1   1 7259.19 135.275  38
   5   1   1 7295.13 188.749  43
   5   1   1 7645.56 182.096  51
   5   1   2 1741.04 75.0958  17
   5   1   2 1526.75 91.5140  36
   5   1   2 1539.16 86.2895  43
   5   1   3 6764.48 141.897  17
   5   1   3 6510.66 189.527  36
   5   1   3 6430.84 181.122  45
   5   1   4 27726.2 448.848  36
   5   1   4 28167.9 426.868  45
   5   1   5 1096.44 74.3194  66
   5   1   5 1173.58 69.3638  45
   5   1   6 1381.03 73.8692  66
   5   1   7 1740.18 66.4568  66
   5   1   8 1301.92 37.8347  77
   5   2  -7 399.565 33.5936  30
   5   2  -7 376.369 34.4011  51
   5   2  -6 2181.55 86.5022  43
   5   2  -5 191.090 37.2512  46
   5   2  -4 14553.1 264.798  30
   5   2  -4 14419.4 269.811  46
   5   2  -3 37864.6 516.239  30
   5   2  -3 38224.7 509.059  28
   5   2  -2 8443.84 193.838  30
   5   2  -2 8796.19 204.427  28
   5   2  -2 8598.72 209.030  46
   5   2  -1 47625.2 600.454  30
   5   2  -1 45864.0 631.248  28
   5   2  -1 47750.2 631.429  46
   5   2  -1 46595.5 621.018  51
   5   2   0 418.583 55.9827  30
   5   2   0 405.523 60.2328  46
   5   2   0 434.291 55.8118  51
   5   2   0 400.602 59.1330  43
   5   2   1 4961.10 132.344  17
   5   2   1 4721.88 98.2995  38
   5   2   1 5088.87 156.344  43
   5   2   1 4901.83 118.635  26
   5   2   1 5166.10 148.360  51
   5   2   2 15899.5 308.050  36
   5   2   2 15539.1 287.436  43
   5   2   2 15198.6 253.517  66
   5   2   2 15264.6 246.494  17
   5   2   3 27212.9 441.210  36
   5   2   3 25750.6 381.726  66
   5   2   4 548.227 63.8536  36
   5   2   4 616.258 55.3858  66
   5   2   4 631.504 61.8402  45
   5   2   5 1544.87 88.9211  36
   5   2   6 612.377 46.7606  66
   5   2   7 2215.23 68.4854  77
   5   3  -7 4468.61 103.533  30
   5   3  -7 4409.16 106.256  51
   5   3  -6 174.920 37.1446  43
   5   3  -6 162.061 31.0532  46
   5   3  -5 6627.30 144.566  31
   5   3  -5 6918.63 168.927  46
   5   3  -4 5269.24 137.399  31
   5   3  -4 5597.39 154.046  30
   5   3  -4 5180.01 138.582  28
   5   3  -3 6094.81 156.639  31
   5   3  -3 6370.46 164.922  30
   5   3  -3 5996.65 165.753  28
   5   3  -3 5780.58 170.970  46
   5   3  -2 26447.3 399.734  30
   5   3  -2 26771.4 423.124  28
   5   3  -2 26013.0 420.104  46
   5   3  -1 3738.14 124.931  30
   5   3  -1 3389.48 139.889  28
   5   3  -1 3773.95 138.663  46
   5   3   0 7826.89 159.477  26
   5   3   0 8045.90 186.231  30
   5   3   0 8248.44 219.205  28
   5   3   0 7661.14 204.839  46
   5   3   0 8151.64 208.684  43
   5   3   0 8078.29 192.868  51
   5   3   1 4187.80 119.492  17
   5   3   1 3998.65 99.0049  26
   5   3   1 4006.69 127.625  37
   5   3   1 4299.77 142.968  43
   5   3   1 4182.47 147.067  46
   5   3   2 1881.09 104.100  36
   5   3   2 1848.76 82.4172  51
   5   3   3 13295.1 288.774  36
   5   3   3 13388.7 238.985  43
   5   3   3 12804.3 212.336  66
   5   3   4 2963.83 125.956  36
   5   3   4 2948.67 90.9704  66
   5   3   5 2634.19 110.380  36
   5   3   5 2604.01 82.3050  66
   5   3   6 306.767 35.8592  77
   5   3   7 2820.04 67.4984  77
   5   4  -7 486.525 34.4480  30
   5   4  -6 449.064 42.1242  30
   5   4  -6 470.234 41.5019  46
   5   4  -5 549.795 46.2373  31
   5   4  -5 575.216 56.4064  30
   5   4  -4 18596.8 301.244  31
   5   4  -4 19346.2 315.339  30
   5   4  -4 18715.4 324.631  46
   5   4  -3 2084.34 95.1111  30
   5   4  -3 2087.82 100.916  28
   5   4  -3 2060.88 104.212  46
   5   4  -2 31946.3 456.879  30
   5   4  -2 32879.7 489.363  46
   5   4  -1 14221.7 259.577  30
   5   4  -1 13994.5 297.662  28
   5   4  -1 14089.9 282.829  46
   5   4   0 7346.35 142.434  26
   5   4   0 7215.14 174.769  37
   5   4   0 7589.55 180.382  30
   5   4   0 7830.84 215.398  28
   5   4   0 7772.08 202.459  46
   5   4   0 7766.02 185.875  51
   5   4   1 4755.72 147.595  37
   5   4   1 5022.75 175.492  28
   5   4   1 5176.65 163.387  46
   5   4   1 5196.34 140.817  51
   5   4   2 16567.1 311.220  37
   5   4   2 16794.5 330.010  36
   5   4   2 16974.4 289.573  43
   5   4   3 933.611 78.9669  36
   5   4   4 1097.25 76.7906  36
   5   4   5 755.675 58.1741  36
   5   4   5 694.974 44.8377  77
   5   4   6 209.965 26.8807  77
   5   4   7 21.9541 11.9538  77
   5   5  -6 389.298 34.8313  30
   5   5  -6 371.655 33.5083  46
   5   5  -5 2696.75 87.6737  31
   5   5  -5 2758.26 93.2792  30
   5   5  -5 2645.14 95.8558  46
   5   5  -4 3614.40 111.666  30
   5   5  -4 3415.01 114.096  28
   5   5  -4 3471.49 120.951  46
   5   5  -3 947.411 68.3264  31
   5   5  -3 987.977 65.6210  30
   5   5  -3 1051.10 74.4366  28
   5   5  -3 982.081 73.2169  46
   5   5  -2 1967.14 106.052  28
   5   5  -2 2050.74 89.9608  30
   5   5  -2 1991.31 100.006  46
   5   5  -1 10039.4 242.561  28
   5   5  -1 10054.2 203.677  30
   5   5  -1 9798.22 225.529  46
   5   5  -1 9948.20 212.592  51
   5   5   0 1608.57 82.9857  37
   5   5   0 1836.44 83.1778  30
   5   5   0 1494.35 97.8065  28
   5   5   0 1785.38 95.2211  46
   5   5   0 1793.46 82.5534  51
   5   5   1 904.134 68.0574  37
   5   5   1 906.569 64.1717  43
   5   5   1 947.714 81.7171  28
   5   5   1 930.264 69.7251  46
   5   5   2 4183.89 139.864  37
   5   5   2 4131.80 144.401  36
   5   5   2 4225.52 89.5957  77
   5   5   3 81.7035 38.7093  36
   5   5   3 79.3286 23.4254  77
   5   5   4 55.8498 32.2619  36
   5   5   4 52.4127 21.7647  77
   5   5   5 157.071 28.1954  36
   5   5   5 113.307 19.9365  77
   5   5   6 1064.62 30.6544  77
   5   6  -5 6031.47 122.949  30
   5   6  -5 6094.10 132.100  46
   5   6  -4 1376.25 63.0837  30
   5   6  -4 1403.81 66.3370  28
   5   6  -4 1353.93 70.5885  46
   5   6  -3 932.568 57.1152  30
   5   6  -3 1004.48 65.5279  46
   5   6  -2 1775.51 90.7417  28
   5   6  -2 1753.86 73.4544  30
   5   6  -2 1702.75 86.1897  46
   5   6  -1 4555.64 150.195  28
   5   6  -1 4566.47 139.687  46
   5   6  -1 4657.02 122.216  51
   5   6   0 4750.12 133.550  37
   5   6   0 4894.83 157.153  28
   5   6   0 4860.37 140.230  46
   5   6   0 4834.47 135.081  43
   5   6   1 1994.10 88.7576  37
   5   6   2 2489.00 98.2458  37
   5   6   2 2717.20 104.460  36
   5   6   3 1574.25 75.5824  36
   5   6   4 805.139 47.7341  36
   5   7  -3 873.967 42.1235  30
   5   7  -3 967.234 53.3086  46
   5   7  -3 953.326 47.1898  51
   5   7  -2 139.598 32.5536  28
   5   7  -2 128.583 29.7103  46
   5   7  -1 421.275 47.2512  28
   5   7  -1 424.241 40.5117  46
   5   7   0 1771.04 83.3949  28
   5   7   1 2549.73 90.4056  36
   5   7   2 2157.18 76.6384  36
   6  -6  -3 212.954 28.7407  19
   6  -6  -2 257.219 33.8281  19
   6  -6  -2 302.939 30.7339  47
   6  -6  -1 1140.08 56.0955  19
   6  -6  -1 1194.73 54.1109  47
   6  -6   0 60.5123 26.8467  47
   6  -6   1 1941.56 70.6533  47
   6  -6   2 279.675 27.0623  71
   6  -6   2 384.770 37.1742  47
   6  -5  -4 1814.67 63.0875  19
   6  -5  -4 1764.69 61.7041  57
   6  -5  -3 974.229 53.3091  19
   6  -5  -3 960.090 49.5449  57
   6  -5  -2 113.911 33.5328  19
   6  -5  -2 142.941 29.7217  57
   6  -5  -1 776.826 53.0850  19
   6  -5  -1 763.119 50.0489  47
   6  -5   0 1811.40 72.3792  47
   6  -5   1 638.809 38.8336  16
   6  -5   1 596.018 47.5257  47
   6  -5   2 5146.33 110.219  16
   6  -5   2 4848.19 122.603  71
   6  -5   2 4800.04 119.551  47
   6  -5   3 3176.80 84.3009  16
   6  -5   3 2876.38 92.4947  71
   6  -5   3 2921.65 88.7131  47
   6  -5   4 940.158 44.3096  16
   6  -5   4 845.120 46.7014  71
   6  -4  -5 2295.07 64.1831  20
   6  -4  -5 2377.89 70.5885  19
   6  -4  -5 2273.68 65.3606  40
   6  -4  -5 2195.42 67.5000  57
   6  -4  -4 3706.19 100.588  19
   6  -4  -4 3709.34 94.0131  40
   6  -4  -4 3638.26 94.8449  57
   6  -4  -3 1949.23 64.8929  20
   6  -4  -3 2026.60 79.0465  19
   6  -4  -3 2077.02 74.2375  40
   6  -4  -3 1967.22 70.8596  57
   6  -4  -2 1781.41 71.4858  40
   6  -4  -2 1632.88 74.0508  19
   6  -4  -2 1647.14 62.3664  64
   6  -4  -2 1668.06 67.1371  57
   6  -4  -1 589.757 51.2416  19
   6  -4   0 15934.8 233.321  16
   6  -4   0 16487.1 263.071  64
   6  -4   1 78.6526 28.1903  16
   6  -4   1 57.7309 34.4762  64
   6  -4   1 43.5745 33.5740  47
   6  -4   2 2906.94 95.7750  64
   6  -4   2 2820.71 98.8199  71
   6  -4   2 2710.65 91.4465  47
   6  -4   3 396.554 40.2261  16
   6  -4   3 387.455 41.2498  64
   6  -4   3 331.558 43.3887  71
   6  -4   4 1213.26 55.3216  16
   6  -4   4 1184.34 62.3466  71
   6  -4   5 3501.24 81.5994  16
   6  -4   5 3323.80 87.0444  71
   6  -4   6 271.836 23.2348  66
   6  -3  -6 843.646 41.3277  19
   6  -3  -6 770.406 38.6691  40
   6  -3  -6 830.693 41.9360  57
   6  -3  -5 4090.31 96.1377  38
   6  -3  -5 4045.80 98.4943  40
   6  -3  -5 4200.22 107.124  19
   6  -3  -4 687.317 48.2569  38
   6  -3  -4 709.417 48.7246  40
   6  -3  -4 697.806 51.9769  19
   6  -3  -4 640.425 43.3800  17
   6  -3  -3 2664.31 89.8426  38
   6  -3  -3 2622.91 88.5010  40
   6  -3  -3 2461.27 76.1762  64
   6  -3  -3 2628.94 96.3970  19
   6  -3  -2 3235.37 103.488  38
   6  -3  -2 3414.28 101.594  40
   6  -3  -2 3413.27 109.313  19
   6  -3  -2 3501.56 112.013  17
   6  -3  -2 3207.36 99.8077  64
   6  -3  -1 12686.3 222.046  19
   6  -3  -1 12765.4 232.834  17
   6  -3  -1 11823.6 189.125  16
   6  -3  -1 12268.1 208.421  40
   6  -3  -1 12089.5 193.218  57
   6  -3   0 10489.3 211.122  64
   6  -3   0 10396.4 184.727  45
   6  -3   1 4969.96 138.704  64
   6  -3   1 4786.50 123.679  45
   6  -3   2 3288.60 110.119  64
   6  -3   2 2937.02 101.267  71
   6  -3   3 514.868 50.0363  64
   6  -3   3 518.866 50.2896  71
   6  -3   4 4469.05 113.329  64
   6  -3   4 4191.86 120.993  71
   6  -3   4 4330.92 113.844  16
   6  -3   5 1115.14 57.2130  71
   6  -3   5 1135.63 51.5352  16
   6  -3   6 675.078 41.9487  66
   6  -2  -6 2437.71 71.8397  40
   6  -2  -5 2886.10 81.6324  17
   6  -2  -5 2967.15 88.4977  38
   6  -2  -5 3013.00 89.6418  40
   6  -2  -5 2816.05 82.0507  26
   6  -2  -4 3108.95 99.1712  17
   6  -2  -4 3344.40 100.495  38
   6  -2  -4 3294.78 99.8033  40
   6  -2  -3 652.059 56.1672  17
   6  -2  -3 698.469 56.4358  38
   6  -2  -3 673.680 55.0794  26
   6  -2  -3 804.615 57.2414  40
   6  -2  -2 9293.34 197.880  17
   6  -2  -2 9366.23 185.847  38
   6  -2  -2 9498.04 180.943  40
   6  -2  -2 9310.71 189.936  26
   6  -2  -1 26282.0 390.110  17
   6  -2  -1 26096.3 358.649  45
   6  -2   0 2912.46 96.0813  19
   6  -2   0 2825.17 109.874  17
   6  -2   0 2854.70 94.3499  38
   6  -2   0 2786.06 86.1526  40
   6  -2   0 2780.43 99.4980  45
   6  -2   1 4432.09 130.777  17
   6  -2   2 685.387 60.7964  64
   6  -2   2 770.853 62.6303  45
   6  -2   2 697.958 45.6574  47
   6  -2   3 294.701 43.8661  64
   6  -2   3 291.006 40.9482  71
   6  -2   3 288.806 43.8210  45
   6  -2   4 4158.54 112.221  64
   6  -2   4 3756.14 114.560  71
   6  -2   5 1983.29 71.9063  16
   6  -2   6 158.386 29.7022  66
   6  -1  -7 149.529 22.0692  40
   6  -1  -6 5342.79 109.001  26
   6  -1  -6 5346.83 114.935  38
   6  -1  -5 74.1137 28.9329  17
   6  -1  -5 152.186 33.3444  38
   6  -1  -4 13273.0 239.233  17
   6  -1  -4 13298.4 232.125  38
   6  -1  -4 13607.8 232.454  26
   6  -1  -3 17458.3 295.280  17
   6  -1  -3 17503.5 278.649  38
   6  -1  -3 16999.1 281.232  26
   6  -1  -2 2887.45 111.336  17
   6  -1  -2 2985.61 103.491  38
   6  -1  -2 2884.55 96.2529  40
   6  -1  -2 2924.24 104.787  26
   6  -1  -2 2754.29 95.5825  45
   6  -1  -1 23305.5 355.788  17
   6  -1  -1 22407.3 323.530  38
   6  -1  -1 22840.6 336.994  26
   6  -1  -1 21434.7 308.294  40
   6  -1  -1 22082.3 343.904  45
   6  -1   0 4871.71 141.598  17
   6  -1   0 4771.55 108.978  40
   6  -1   1 4351.64 131.288  17
   6  -1   1 4128.48 135.274  45
   6  -1   2 1719.77 78.7541  17
   6  -1   2 1676.22 87.8739  45
   6  -1   3 8491.71 185.254  64
   6  -1   3 8560.59 194.960  45
   6  -1   4 5895.34 150.150  45
   6  -1   5 277.455 43.6484  66
   6  -1   6 650.908 42.8811  66
   6  -1   7 226.688 17.1581  66
   6   0  -6 859.745 47.8224  17
   6   0  -6 976.001 53.3432  38
   6   0  -5 892.438 54.7656  26
   6   0  -5 854.423 52.5031  51
   6   0  -4 3060.05 112.101  17
   6   0  -4 2980.12 104.162  26
   6   0  -4 2818.78 104.237  43
   6   0  -4 2914.44 105.284  51
   6   0  -3 6566.31 172.202  17
   6   0  -3 6470.68 156.047  26
   6   0  -3 6349.13 167.209  51
   6   0  -2 44549.3 578.581  17
   6   0  -2 43879.2 545.158  38
   6   0  -2 43001.1 551.720  26
   6   0  -2 42598.8 598.273  43
   6   0  -2 43210.2 580.974  51
   6   0  -1 47000.1 594.088  17
   6   0  -1 44581.3 547.326  38
   6   0  -1 45504.3 619.725  43
   6   0  -1 45343.6 568.897  26
   6   0  -1 44742.0 532.651  40
   6   0  -1 44898.2 600.483  51
   6   0   0 16465.0 283.644  17
   6   0   0 15796.3 244.763  38
   6   0   0 16325.4 267.421  26
   6   0   0 15838.0 305.824  43
   6   0   1 5724.65 148.751  17
   6   0   1 5504.71 143.100  36
   6   0   1 5699.32 166.281  45
   6   0   2 2547.65 99.7337  36
   6   0   2 2647.59 113.211  45
   6   0   3 13253.8 243.189  64
   6   0   3 13494.8 258.316  45
   6   0   4 1061.79 57.3157  64
   6   0   4 1263.84 69.9504  45
   6   0   5 533.631 48.3707  66
   6   0   5 508.750 43.8883  45
   6   0   6 565.792 38.0028  66
   6   1  -7 3069.10 75.5662  38
   6   1  -6 539.269 41.3625  17
   6   1  -6 565.314 42.0216  26
   6   1  -5 2317.16 90.1429  17
   6   1  -5 2173.99 84.0524  26
   6   1  -5 2138.96 81.9018  43
   6   1  -5 2076.96 74.6759  30
   6   1  -5 2094.38 84.3265  51
   6   1  -4 8846.67 197.045  17
   6   1  -4 8407.69 178.525  26
   6   1  -4 8686.29 195.460  43
   6   1  -4 8353.79 176.791  30
   6   1  -4 8419.71 191.327  51
   6   1  -3 3298.01 122.129  17
   6   1  -3 3427.18 113.471  26
   6   1  -3 3262.89 125.802  43
   6   1  -3 3269.20 122.729  51
   6   1  -2 11888.8 240.971  17
   6   1  -2 11686.6 219.865  26
   6   1  -2 11241.8 253.226  43
   6   1  -2 11315.3 241.038  51
   6   1  -1 645.305 65.0238  17
   6   1  -1 663.124 50.9090  38
   6   1  -1 610.642 49.8346  36
   6   1  -1 647.688 56.9606  26
   6   1  -1 711.434 74.1951  43
   6   1  -1 663.069 67.5815  51
   6   1   0 2688.34 104.852  17
   6   1   0 2568.64 80.1098  38
   6   1   0 2810.56 95.0788  26
   6   1   0 2754.29 103.665  36
   6   1   0 2622.04 120.918  43
   6   1   0 2810.42 114.886  51
   6   1   1 9104.04 206.071  36
   6   1   1 9513.93 219.952  43
   6   1   2 6757.93 176.663  36
   6   1   2 6639.32 146.579  17
   6   1   2 6314.00 143.187  66
   6   1   2 6704.14 181.446  45
   6   1   3 1596.68 73.0382  66
   6   1   3 1655.95 87.6436  45
   6   1   4 333.424 40.5909  66
   6   1   4 328.864 43.2769  45
   6   1   5 171.843 29.4569  66
   6   1   5 173.434 30.5014  45
   6   2  -6 107.251 28.4363  26
   6   2  -6 104.081 24.5546  51
   6   2  -5 554.619 52.2075  17
   6   2  -5 572.021 48.2208  43
   6   2  -5 530.706 44.8222  30
   6   2  -5 603.301 49.3895  26
   6   2  -4 5753.79 145.907  30
   6   2  -4 6334.41 149.702  26
   6   2  -4 5799.03 144.713  46
   6   2  -4 6114.58 160.567  51
   6   2  -3 5415.31 140.886  26
   6   2  -3 5088.73 159.221  43
   6   2  -3 4955.54 142.226  30
   6   2  -3 5042.56 146.639  46
   6   2  -3 5070.92 153.593  51
   6   2  -2 7224.13 178.646  17
   6   2  -2 7127.23 161.759  26
   6   2  -2 6634.35 156.215  36
   6   2  -2 6971.34 192.967  43
   6   2  -2 7217.90 174.015  30
   6   2  -2 7057.22 183.289  46
   6   2  -2 7328.82 185.996  51
   6   2  -1 11808.8 234.034  17
   6   2  -1 11252.9 190.782  38
   6   2  -1 11584.8 208.953  26
   6   2  -1 11185.2 224.297  36
   6   2  -1 11464.8 239.839  51
   6   2   0 7117.87 167.769  17
   6   2   0 7016.08 150.212  26
   6   2   0 7135.57 178.905  36
   6   2   0 7271.75 194.693  43
   6   2   0 6929.42 179.182  51
   6   2   1 2039.38 82.5632  17
   6   2   1 2103.04 100.450  36
   6   2   1 2134.06 103.048  43
   6   2   2 3169.28 122.595  45
   6   2   3 2002.21 95.0565  36
   6   2   3 1755.35 60.0112  66
   6   2   3 1906.49 90.2270  45
   6   2   4 143.196 24.9045  66
   6   2   4 186.795 35.3968  45
   6   2   5 705.907 43.1605  45
   6   2   6 538.792 31.0665  77
   6   3  -6 861.503 47.6723  17
   6   3  -6 844.957 44.5627  26
   6   3  -5 2063.18 81.8649  43
   6   3  -5 2196.56 83.7118  51
   6   3  -4 942.521 66.0006  43
   6   3  -4 997.028 61.6149  30
   6   3  -4 939.560 60.9911  46
   6   3  -4 921.274 64.8851  51
   6   3  -3 5952.36 151.701  30
   6   3  -3 5920.82 140.561  26
   6   3  -3 5705.44 165.410  43
   6   3  -3 5610.33 156.203  46
   6   3  -3 5857.78 157.521  51
   6   3  -2 489.390 56.4010  17
   6   3  -2 461.567 45.5108  26
   6   3  -2 460.956 59.7609  43
   6   3  -2 504.098 53.7961  30
   6   3  -2 482.665 56.3551  46
   6   3  -2 503.572 56.4376  51
   6   3  -1 9870.76 202.859  17
   6   3  -1 9817.46 178.994  26
   6   3  -1 9553.44 226.149  43
   6   3  -1 9229.68 221.228  46
   6   3  -1 9318.13 211.081  51
   6   3   0 8326.62 174.023  17
   6   3   0 8092.12 196.561  36
   6   3   0 8309.25 205.650  43
   6   3   0 8374.54 191.351  51
   6   3   1 195.248 46.2904  43
   6   3   2 1306.10 79.3748  36
   6   3   2 1301.45 69.9341  43
   6   3   3 2143.63 96.6057  36
   6   3   3 2164.00 88.5176  45
   6   3   4 671.076 52.6638  36
   6   3   5 299.082 27.8541  77
   6   3   6 515.904 23.1342  77
   6   4  -5 4618.34 116.186  43
   6   4  -5 4819.26 109.657  30
   6   4  -5 4853.14 105.055  26
   6   4  -5 4928.17 116.767  51
   6   4  -4 1549.70 68.1689  30
   6   4  -4 1354.59 59.4848  26
   6   4  -4 1402.07 71.0908  51
   6   4  -4 1453.13 74.9785  43
   6   4  -3 1814.25 79.1930  30
   6   4  -3 1914.38 89.9315  43
   6   4  -3 1824.13 85.2724  46
   6   4  -3 1727.84 81.8499  51
   6   4  -2 500.462 49.2715  17
   6   4  -2 459.018 38.7669  26
   6   4  -2 452.573 49.8005  30
   6   4  -2 490.709 53.9311  46
   6   4  -2 457.643 51.4983  51
   6   4  -2 560.302 56.3939  43
   6   4  -1 90.2443 31.4746  17
   6   4  -1 132.310 41.0551  43
   6   4  -1 114.991 43.9877  46
   6   4  -1 49.2657 32.0963  51
   6   4   0 1088.90 73.2798  36
   6   4   0 1076.34 71.3941  43
   6   4   1 396.424 51.9413  36
   6   4   2 35.3468 34.1179  36
   6   4   3 101.370 33.2202  36
   6   4   3 115.787 20.5147  77
   6   4   4 102.627 27.8382  36
   6   4   4 142.351 19.8273  77
   6   4   5 343.211 18.5929  77
   6   5  -4 502.074 38.3988  30
   6   5  -4 503.130 42.2031  43
   6   5  -4 476.993 40.3561  46
   6   5  -4 501.786 38.9313  51
   6   5  -3 1197.78 58.1886  30
   6   5  -3 1291.19 68.2413  43
   6   5  -3 1190.84 63.6100  46
   6   5  -3 1222.51 60.0436  51
   6   5  -2 495.957 44.4969  30
   6   5  -2 456.922 47.4933  46
   6   5  -2 513.981 44.1620  51
   6   5  -2 583.764 51.4296  43
   6   5  -1 1944.51 84.3956  43
   6   5  -1 1839.88 82.3009  46
   6   5   0 2394.34 94.5572  36
   6   5   1 1695.55 80.1890  36
   6   5   2 503.151 45.6944  36
   6   5   3 442.928 38.7534  36
   6   6  -2 555.804 40.2593  43
   6   6  -1 95.9741 26.5120  36
   6   6   0 879.264 51.1860  36
   6   6   1 1111.94 55.1237  36
   7  -4  -2 256.953 28.9302  19
   7  -4  -1 6935.42 126.242  47
   7  -4   0 1418.35 51.9788  64
   7  -4   0 1291.13 52.2480  47
   7  -3  -4 1083.86 41.2575  40
   7  -3  -4 1087.46 44.9041  19
   7  -3  -3 3419.94 79.7327  40
   7  -3  -3 3627.22 87.7923  19
   7  -3  -2 4780.15 104.681  19
   7  -3  -2 4613.27 93.9007  64
   7  -3  -1 2595.91 78.2091  64
   7  -3   0 304.881 35.1164  64
   7  -3   0 292.362 31.6498  47
   7  -3   1 94.0193 26.9312  64
   7  -3   1 117.051 21.5317  16
   7  -3   2 101.349 25.3395  64
   7  -3   2 71.2526 22.1612  16
   7  -2  -4 694.816 39.1399  38
   7  -2  -4 722.377 37.5279  40
   7  -2  -4 631.319 41.5850  19
   7  -2  -3 49.5802 24.6521  38
   7  -2  -3 10.1683 22.7046  40
   7  -2  -3 8.48900 26.1821  19
   7  -2  -3-1.06702 26.9832  17
   7  -2  -2 4144.32 93.0296  40
   7  -2  -2 4321.12 105.900  19
   7  -2  -2 4190.58 103.090  64
   7  -2  -1 2191.42 70.8417  19
   7  -2  -1 2283.82 83.5969  17
   7  -2  -1 2087.15 79.4316  64
   7  -2   0 2990.95 93.6429  17
   7  -2   0 2875.54 93.7163  64
   7  -2   0 2821.01 76.3041  45
   7  -2   1 1089.11 60.6477  64
   7  -2   1 1169.12 53.0229  45
   7  -2   2 372.635 36.9370  64
   7  -2   3 869.642 44.7235  64
   7  -2   3 946.406 46.3509  16
   7  -2   4 1026.61 40.8691  66
   7  -1  -5 138.966 24.7658  19
   7  -1  -5 147.393 21.2675  38
   7  -1  -5 109.356 20.8389  40
   7  -1  -4 1249.41 51.9708  38
   7  -1  -4 1317.40 49.8839  40
   7  -1  -3 3772.07 102.809  17
   7  -1  -3 3669.70 92.4306  38
   7  -1  -2 3486.59 105.802  17
   7  -1  -2 3599.02 93.8646  38
   7  -1  -1 3540.75 107.106  17
   7  -1  -1 3350.42 90.4930  45
   7  -1   0 3758.85 108.117  17
   7  -1   0 3555.14 100.884  45
   7  -1   1 4986.40 132.314  64
   7  -1   2 2551.37 86.4837  64
   7  -1   2 2553.16 70.7719  66
   7  -1   3 2887.49 80.4448  64
   7  -1   3 2686.98 71.4245  66
   7  -1   4 259.444 21.6955  66
   7   0  -5 496.479 31.5992  38
   7   0  -5 438.191 30.7010  26
   7   0  -5 476.149 29.6155  40
   7   0  -4 574.021 41.8851  17
   7   0  -4 558.391 37.5454  38
   7   0  -4 534.368 38.8749  26
   7   0  -3 2702.40 89.7610  17
   7   0  -3 2664.61 78.6605  38
   7   0  -3 2713.99 83.0274  26
   7   0  -3 2720.04 72.2217  40
   7   0  -2 2874.49 97.1093  17
   7   0  -2 2831.08 90.2594  26
   7   0  -2 2806.44 81.2027  45
   7   0  -1 2990.72 99.1875  17
   7   0  -1 2853.20 78.4138  38
   7   0  -1 3086.51 95.9619  45
   7   0   0 417.304 43.1232  17
   7   0   1 2733.83 95.7887  45
   7   0   2 741.895 49.6065  64
   7   0   2 740.174 51.3268  45
   7   0   3 363.702 37.1791  45
   7   1  -4 2237.19 74.0145  17
   7   1  -4 2280.90 70.8971  26
   7   1  -4 2333.68 67.0640  38
   7   1  -3 693.055 48.4115  17
   7   1  -3 677.518 45.9111  26
   7   1  -2 387.553 41.9642  17
   7   1  -2 366.659 38.3955  26
   7   1  -2 352.484 44.0216  43
   7   1  -2 337.677 37.3818  45
   7   1  -1 228.270 37.8656  17
   7   1  -1 204.357 37.1017  45
   7   1   0 8272.44 161.937  17
   7   1   0 8060.96 174.904  45
   7   1   1 3283.75 104.683  45
   7   1   2 3511.44 104.570  45
   7   1   3 198.646 30.1110  45
   7   2  -4 253.949 30.1374  17
   7   2  -4 242.580 27.4641  26
   7   2  -3 214.377 31.9541  17
   7   2  -3 178.837 32.5811  43
   7   2  -3 197.947 32.6065  51
   7   2  -2 61.1211 28.4759  17
   7   2  -2 103.330 26.2727  26
   7   2  -2 106.189 32.4475  43
   7   2  -1 847.407 51.1605  17
   7   2  -1 867.030 59.4844  43
   7   2   0 348.965 34.3981  17
   7   2   0 396.202 43.2334  45
   7   2   1 1729.23 76.9390  45
   7   2   2 510.211 43.5521  45
   7   2   3 195.514 27.0357  45
   7   3  -3 42.8005 23.3674  17
   7   3  -3 67.0751 24.7376  43
   7   3  -3 73.0905 24.3778  51
   7   3  -2 629.797 41.3212  17
   7   3  -2 640.854 48.0685  43
   7   3  -2 637.087 46.0208  51
   7   3  -1 117.570 31.0831  43
   7   3   0 177.423 32.2552  43
   7   3   0 225.030 35.7238  45
   7   3   1 681.003 48.4362  45
   7   3   2 402.149 34.8808  45
   7   4  -2 1768.42 63.5878  43
   7   4  -1 580.250 39.6321  43
   7   4   0 864.036 47.5484  45
   0   0   0    0.00    0.00   0
;
_shelx_hkl_checksum              19553
loop_
_space_group_symop_id
_space_group_symop_operation_xyz
1 x,y,z
loop_
_atom_site_aniso_label
_atom_site_aniso_U_11
_atom_site_aniso_U_22
_atom_site_aniso_U_33
_atom_site_aniso_U_23
_atom_site_aniso_U_13
_atom_site_aniso_U_12
O1 0.0858(14) 0.1156(19) 0.0791(15) -0.0179(13) -0.0006(11) 0.0016(13)
O2 0.0723(14) 0.222(3) 0.0830(17) -0.0205(18) 0.0036(12) 0.0211(17)
N1 0.0537(10) 0.0470(10) 0.0594(12) 0.0016(8) 0.0112(9) 0.0003(8)
N2 0.0689(14) 0.0740(14) 0.0799(16) -0.0050(11) 0.0007(11) -0.0108(11)
N3 0.097(2) 0.129(3) 0.089(2) -0.0173(18) -0.0041(17) -0.0339(19)
C1 0.103(3) 0.129(3) 0.104(3) -0.021(2) -0.030(2) 0.004(2)
C2 0.0739(17) 0.0876(19) 0.0605(17) 0.0131(14) 0.0050(13) 0.0115(14)
C3 0.0740(16) 0.0775(17) 0.0638(16) 0.0065(13) 0.0145(12) -0.0028(13)
C4 0.0741(17) 0.090(2) 0.0698(18) 0.0031(15) -0.0005(13) 0.0219(15)
C5 0.0875(19) 0.0604(14) 0.0700(18) 0.0098(12) -0.0053(14) 0.0055(13)
C6 0.0577(13) 0.0482(11) 0.0615(15) 0.0012(10) 0.0061(10) 0.0050(10)
C7 0.0596(13) 0.0416(10) 0.0604(14) 0.0021(9) 0.0095(11) 0.0026(9)
C8 0.0735(16) 0.0597(14) 0.0678(16) -0.0019(11) 0.0193(13) -0.0052(11)
C9 0.0599(14) 0.0599(14) 0.0855(19) 0.0008(12) 0.0197(12) -0.0090(11)
C10 0.0542(12) 0.0453(11) 0.0709(16) 0.0010(10) 0.0081(11) -0.0012(9)
C11 0.0635(14) 0.0722(15) 0.0657(16) -0.0022(12) 0.0151(12) -0.0092(12)
C12 0.0646(14) 0.0572(13) 0.0725(17) 0.0022(11) 0.0075(12) -0.0013(11)
C13 0.087(2) 0.089(2) 0.119(3) -0.017(2) -0.017(2) -0.0157(17)
C14 0.116(3) 0.122(3) 0.068(2) -0.0030(19) 0.0022(19) -0.017(2)
C15 0.0574(12) 0.0482(11) 0.0541(13) -0.0014(9) -0.0014(9) 0.0003(9)
C16 0.0728(15) 0.0554(13) 0.0685(16) -0.0026(11) 0.0076(12) 0.0073(11)
C17 0.100(2) 0.0569(15) 0.084(2) -0.0125(14) -0.0060(17) 0.0172(15)
C18 0.124(3) 0.0476(14) 0.084(2) 0.0015(13) -0.0128(19) -0.0059(16)
C19 0.111(2) 0.0618(17) 0.096(2) 0.0052(15) 0.0126(19) -0.0263(17)
C20 0.0731(16) 0.0599(14) 0.086(2) -0.0026(13) 0.0148(14) -0.0110(12)
loop_
_atom_site_label
_atom_site_type_symbol
_atom_site_thermal_displace_type
_atom_site_fract_x
_atom_site_fract_y
_atom_site_fract_z
_atom_site_occupancy
_atom_site_U_iso_or_equiv
_atom_site_calc_flag
_atom_site_refinement_flags
_atom_site_disorder_assembly
_atom_site_disorder_group
O1 O Uani -0.0855(4) 0.2737(3) -0.0908(3) 1.000 0.0941(9) d . . .
O2 O Uani -0.2623(4) 0.3835(5) 0.0881(3) 1.000 0.1260(12) d . . .
N1 N Uani 0.5743(3) 0.6319(2) 0.7054(2) 1.000 0.0531(6) d . . .
N2 N Uani 1.0167(4) 0.8334(3) 0.9079(3) 1.000 0.0748(8) d . . .
N3 N Uani 1.0925(5) 0.8840(4) 1.0517(4) 1.000 0.1065(14) d . . .
C1 C Uani -0.2720(6) 0.2100(6) -0.1684(5) 1.000 0.1139(17) d . . .
C2 C Uani -0.1023(5) 0.3567(4) 0.0376(3) 1.000 0.0736(10) d . . .
C3 C Uani 0.1028(5) 0.4111(3) 0.1041(4) 1.000 0.0714(9) d . . .
C4 C Uani 0.1286(5) 0.4871(4) 0.2339(4) 1.000 0.0778(11) d . . .
C5 C Uani 0.3284(5) 0.5516(3) 0.3074(3) 1.000 0.0729(10) d . . .
C6 C Uani 0.3568(4) 0.5127(3) 0.4780(3) 1.000 0.0556(8) d . . .
C7 C Uani 0.5466(4) 0.5982(2) 0.5508(3) 1.000 0.0536(7) d . . .
C8 C Uani 0.7191(4) 0.6553(3) 0.4834(3) 1.000 0.0666(9) d . . .
C9 C Uani 0.8546(4) 0.7245(3) 0.5993(4) 1.000 0.0680(9) d . . .
C10 C Uani 0.7629(4) 0.7111(3) 0.7363(3) 1.000 0.0567(8) d . . .
C11 C Uani 0.4250(4) 0.5943(3) 0.8180(3) 1.000 0.0670(9) d . . .
C12 C Uani 0.8349(4) 0.7687(3) 0.8883(3) 1.000 0.0647(9) d . . .
C13 C Uani 1.2758(6) 0.9799(4) 1.0486(5) 1.000 0.1000(14) d . . .
C14 C Uani 0.9533(6) 0.9114(5) 1.1691(4) 1.000 0.1026(16) d . . .
C15 C Uani 0.3629(3) 0.3360(3) 0.4987(3) 1.000 0.0535(7) d . . .
C16 C Uani 0.5190(4) 0.2487(3) 0.4406(3) 1.000 0.0654(8) d . . .
C17 C Uani 0.5262(5) 0.0888(3) 0.4627(4) 1.000 0.0808(11) d . . .
C18 C Uani 0.3781(6) 0.0145(3) 0.5444(4) 1.000 0.0862(13) d . . .
C19 C Uani 0.2224(6) 0.0988(4) 0.6013(4) 1.000 0.0898(11) d . . .
C20 C Uani 0.2132(4) 0.2591(3) 0.5782(4) 1.000 0.0729(10) d . . .
H1A H Uiso -0.23837 0.12649 -0.23753 1.000 0.1710 c RU . .
H1B H Uiso -0.34021 0.29064 -0.22511 1.000 0.1710 c RU . .
H1C H Uiso -0.36266 0.16998 -0.09462 1.000 0.1710 c RU . .
H3 H Uiso 0.21915 0.38986 0.05027 1.000 0.0860 c RU . .
H4 H Uiso 0.01006 0.50314 0.28695 1.000 0.0930 c RU . .
H5A H Uiso 0.33339 0.66457 0.29768 1.000 0.0870 c RU . .
H5B H Uiso 0.44256 0.50922 0.25387 1.000 0.0870 c RU . .
H6 H Uiso 0.23584 0.55098 0.52861 1.000 0.0670 c RU . .
H8 H Uiso 0.74200 0.64907 0.37951 1.000 0.0800 c RU . .
H9 H Uiso 0.98385 0.77135 0.58571 1.000 0.0820 c RU . .
H11A H Uiso 0.49723 0.58003 0.91575 1.000 0.1000 c RU . .
H11B H Uiso 0.34878 0.49958 0.78624 1.000 0.1000 c RU . .
H11C H Uiso 0.33049 0.67864 0.82635 1.000 0.1000 c RU . .
H12 H Uiso 0.75074 0.75880 0.97033 1.000 0.0780 c RU . .
H13A H Uiso 1.34385 0.98773 1.14942 1.000 0.1500 c RU . .
H13B H Uiso 1.23976 1.08263 1.01569 1.000 0.1500 c RU . .
H13C H Uiso 1.36745 0.93417 0.97862 1.000 0.1500 c RU . .
H14A H Uiso 1.02896 0.95670 1.25827 1.000 0.1540 c RU . .
H14B H Uiso 0.88826 0.81381 1.19481 1.000 0.1540 c RU . .
H14C H Uiso 0.84890 0.98202 1.13340 1.000 0.1540 c RU . .
H16 H Uiso 0.62038 0.29792 0.38615 1.000 0.0780 c RU . .
H17 H Uiso 0.63135 0.03135 0.42221 1.000 0.0970 c RU . .
H18 H Uiso 0.38445 -0.09258 0.56061 1.000 0.1030 c RU . .
H19 H Uiso 0.12165 0.04879 0.65575 1.000 0.1080 c RU . .
H20 H Uiso 0.10546 0.31532 0.61665 1.000 0.0870 c RU . .
loop_
_atom_type_symbol
_atom_type_description
_atom_type_scat_dispersion_real
_atom_type_scat_dispersion_imag
_atom_type_scat_source
C C 0.0181 0.0091 ' International Tables Vol C Tables 4.2.6.8 and 6.1.1.4'
H H 0.0000 0.0000 ' International Tables Vol C Tables 4.2.6.8 and 6.1.1.4'
N N 0.0311 0.0180 ' International Tables Vol C Tables 4.2.6.8 and 6.1.1.4'
O O 0.0492 0.0322 ' International Tables Vol C Tables 4.2.6.8 and 6.1.1.4'
loop_
_geom_angle_atom_site_label_1
_geom_angle_atom_site_label_2
_geom_angle_atom_site_label_3
_geom_angle
C1 O1 C2 117.9(3)
C7 N1 C10 109.43(19)
C7 N1 C11 125.1(2)
C10 N1 C11 125.45(19)
N3 N2 C12 120.3(3)
N2 N3 C13 112.7(3)
N2 N3 C14 120.0(3)
C13 N3 C14 119.1(3)
O1 C2 O2 123.2(3)
O1 C2 C3 111.1(3)
O2 C2 C3 125.7(3)
C2 C3 C4 122.9(3)
C3 C4 C5 126.7(3)
C4 C5 C6 112.6(2)
C5 C6 C7 110.1(2)
C5 C6 C15 111.1(2)
C7 C6 C15 112.5(2)
N1 C7 C6 123.3(2)
N1 C7 C8 107.5(2)
C6 C7 C8 129.2(2)
C7 C8 C9 107.9(2)
C8 C9 C10 108.1(2)
N1 C10 C9 107.1(2)
N1 C10 C12 123.1(2)
C9 C10 C12 129.7(2)
N2 C12 C10 118.9(2)
C6 C15 C16 121.0(2)
C6 C15 C20 120.7(2)
C16 C15 C20 118.3(2)
C15 C16 C17 120.8(3)
C16 C17 C18 120.3(3)
C17 C18 C19 119.6(3)
C18 C19 C20 120.4(3)
C15 C20 C19 120.7(3)
O1 C1 H1A 109.00
O1 C1 H1B 109.00
O1 C1 H1C 109.00
H1A C1 H1B 109.00
H1A C1 H1C 109.00
H1B C1 H1C 109.00
C2 C3 H3 119.00
C4 C3 H3 119.00
C3 C4 H4 117.00
C5 C4 H4 117.00
C4 C5 H5A 109.00
C4 C5 H5B 109.00
C6 C5 H5A 109.00
C6 C5 H5B 109.00
H5A C5 H5B 108.00
C5 C6 H6 108.00
C7 C6 H6 108.00
C15 C6 H6 108.00
C7 C8 H8 126.00
C9 C8 H8 126.00
C8 C9 H9 126.00
C10 C9 H9 126.00
N1 C11 H11A 109.00
N1 C11 H11B 109.00
N1 C11 H11C 109.00
H11A C11 H11B 109.00
H11A C11 H11C 109.00
H11B C11 H11C 109.00
N2 C12 H12 121.00
C10 C12 H12 121.00
N3 C13 H13A 109.00
N3 C13 H13B 109.00
N3 C13 H13C 109.00
H13A C13 H13B 109.00
H13A C13 H13C 109.00
H13B C13 H13C 109.00
N3 C14 H14A 109.00
N3 C14 H14B 109.00
N3 C14 H14C 109.00
H14A C14 H14B 109.00
H14A C14 H14C 110.00
H14B C14 H14C 109.00
C15 C16 H16 120.00
C17 C16 H16 120.00
C16 C17 H17 120.00
C18 C17 H17 120.00
C17 C18 H18 120.00
C19 C18 H18 120.00
C18 C19 H19 120.00
C20 C19 H19 120.00
C15 C20 H20 120.00
C19 C20 H20 120.00
loop_
_geom_bond_atom_site_label_1
_geom_bond_atom_site_label_2
_geom_bond_distance
O1 C1 1.430(5)
O1 C2 1.323(4)
O2 C2 1.173(4)
N1 C7 1.374(3)
N1 C10 1.383(3)
N1 C11 1.455(3)
N2 N3 1.374(4)
N2 C12 1.282(4)
N3 C13 1.421(5)
N3 C14 1.424(5)
C2 C3 1.470(5)
C3 C4 1.291(5)
C4 C5 1.489(4)
C5 C6 1.538(4)
C6 C7 1.505(4)
C6 C15 1.525(4)
C7 C8 1.375(4)
C8 C9 1.403(4)
C9 C10 1.374(4)
C10 C12 1.449(4)
C15 C16 1.383(3)
C15 C20 1.385(4)
C16 C17 1.385(4)
C17 C18 1.378(5)
C18 C19 1.363(5)
C19 C20 1.390(4)
C1 H1A 0.9600
C1 H1B 0.9600
C1 H1C 0.9600
C3 H3 0.9300
C4 H4 0.9300
C5 H5A 0.9700
C5 H5B 0.9700
C6 H6 0.9800
C8 H8 0.9300
C9 H9 0.9300
C11 H11A 0.9600
C11 H11B 0.9600
C11 H11C 0.9600
C12 H12 0.9300
C13 H13A 0.9600
C13 H13B 0.9600
C13 H13C 0.9600
C14 H14A 0.9600
C14 H14B 0.9600
C14 H14C 0.9600
C16 H16 0.9300
C17 H17 0.9300
C18 H18 0.9300
C19 H19 0.9300
C20 H20 0.9300
loop_
_geom_hbond_atom_site_label_D
_geom_hbond_atom_site_label_H
_geom_hbond_atom_site_label_A
_geom_hbond_distance_DH
_geom_hbond_distance_HA
_geom_hbond_distance_DA
_geom_hbond_angle_DHA
_geom_hbond_site_symmetry_A
C11 H11C N2 0.96 2.57 3.491(4) 160 1_455
loop_
_geom_torsion_atom_site_label_1
_geom_torsion_atom_site_label_2
_geom_torsion_atom_site_label_3
_geom_torsion_atom_site_label_4
_geom_torsion
C1 O1 C2 O2 -2.0(5)
C1 O1 C2 C3 179.0(3)
C10 N1 C7 C6 -179.9(2)
C10 N1 C7 C8 0.4(2)
C11 N1 C7 C6 -1.7(3)
C11 N1 C7 C8 178.6(2)
C7 N1 C10 C9 -0.9(3)
C7 N1 C10 C12 177.6(2)
C11 N1 C10 C9 -179.1(2)
C11 N1 C10 C12 -0.6(4)
C12 N2 N3 C13 -168.1(3)
C12 N2 N3 C14 -19.9(5)
N3 N2 C12 C10 -177.6(3)
O1 C2 C3 C4 -176.1(3)
O2 C2 C3 C4 4.9(6)
C2 C3 C4 C5 -177.6(3)
C3 C4 C5 C6 -133.2(3)
C4 C5 C6 C7 -172.6(2)
C4 C5 C6 C15 62.1(3)
C5 C6 C7 N1 156.7(2)
C5 C6 C7 C8 -23.7(3)
C15 C6 C7 N1 -78.8(3)
C15 C6 C7 C8 100.8(3)
C5 C6 C15 C16 63.1(3)
C5 C6 C15 C20 -117.7(3)
C7 C6 C15 C16 -60.8(3)
C7 C6 C15 C20 118.3(3)
N1 C7 C8 C9 0.2(3)
C6 C7 C8 C9 -179.5(2)
C7 C8 C9 C10 -0.8(3)
C8 C9 C10 N1 1.0(3)
C8 C9 C10 C12 -177.3(3)
N1 C10 C12 N2 176.3(2)
C9 C10 C12 N2 -5.6(4)
C6 C15 C16 C17 178.6(3)
C20 C15 C16 C17 -0.6(4)
C6 C15 C20 C19 -178.0(3)
C16 C15 C20 C19 1.2(4)
C15 C16 C17 C18 -0.6(5)
C16 C17 C18 C19 1.1(5)
C17 C18 C19 C20 -0.4(5)
C18 C19 C20 C15 -0.7(5)
